AV-unprocessed.smi:469|AV-procd|sdf|2653|dock2
  -GOLD-   2262023 63D 1   1.00000     0.00000
 Structure written by MMmdl.
 37 38  0  0  0  0  0  0  0  0  1 V2000
  148.0284  144.9452  160.5661 C   0  0  0  0  0  0  0  0  0  0  0  0
  149.1498  144.7035  159.6712 N   0  0  0  0  0  0  0  0  0  0  0  0
  150.4049  144.4694  160.0798 C   0  0  0  0  0  0  0  0  0  0  0  0
  150.7284  144.4326  161.2679 O   0  0  0  0  0  0  0  0  0  0  0  0
  151.4369  144.2307  158.9677 C   0  0  0  0  0  0  0  0  0  0  0  0
  152.2100  142.9889  159.1352 N   0  0  0  0  0  0  0  0  0  0  0  0
  152.0670  142.0102  158.1329 C   0  0  0  0  0  0  0  0  0  0  0  0
  152.7540  140.8568  158.1665 C   0  0  0  0  0  0  0  0  0  0  0  0
  152.4314  139.5630  156.9400 S   0  0  0  0  0  0  0  0  0  0  0  0
  151.3772  140.0534  156.0384 O   0  0  0  0  0  0  0  0  0  0  0  0
  153.7254  139.1336  156.3861 O   0  0  0  0  0  0  0  0  0  0  0  0
  151.7775  138.2289  157.8253 N   0  0  0  0  0  0  0  0  0  0  0  0
  152.6616  137.5230  158.7624 C   0  0  0  0  0  0  0  0  0  0  0  0
  151.9294  137.5275  160.1036 C   0  0  0  0  0  0  0  0  0  0  0  0
  150.4642  137.5183  159.6947 C   0  0  0  0  0  0  0  0  0  0  0  0
  150.4498  138.3868  158.4372 C   0  0  0  0  0  0  0  0  0  0  0  0
  153.5999  140.5955  159.3082 C   0  0  0  0  0  0  0  0  0  0  0  0
  153.7194  141.5144  160.2871 C   0  0  0  0  0  0  0  0  0  0  0  0
  153.0080  142.7972  160.2309 C   0  0  0  0  0  0  0  0  0  0  0  0
  153.1211  143.6464  161.1153 O   0  0  0  0  0  0  0  0  0  0  0  0
  147.1118  145.0685  159.9890 H   0  0  0  0  0  0  0  0  0  0  0  0
  148.1884  145.8515  161.1517 H   0  0  0  0  0  0  0  0  0  0  0  0
  147.8894  144.1073  161.2511 H   0  0  0  0  0  0  0  0  0  0  0  0
  148.9607  144.7141  158.6793 H   0  0  0  0  0  0  0  0  0  0  0  0
  150.9123  144.2190  158.0110 H   0  0  0  0  0  0  0  0  0  0  0  0
  152.1070  145.0907  158.9132 H   0  0  0  0  0  0  0  0  0  0  0  0
  151.3599  142.2544  157.3533 H   0  0  0  0  0  0  0  0  0  0  0  0
  152.8084  136.5036  158.4045 H   0  0  0  0  0  0  0  0  0  0  0  0
  153.6387  138.0024  158.8310 H   0  0  0  0  0  0  0  0  0  0  0  0
  152.1992  136.6818  160.7367 H   0  0  0  0  0  0  0  0  0  0  0  0
  152.1570  138.4449  160.6487 H   0  0  0  0  0  0  0  0  0  0  0  0
  150.1539  136.5018  159.4486 H   0  0  0  0  0  0  0  0  0  0  0  0
  149.8031  137.8944  160.4760 H   0  0  0  0  0  0  0  0  0  0  0  0
  150.2958  139.4316  158.7101 H   0  0  0  0  0  0  0  0  0  0  0  0
  149.6638  138.0994  157.7383 H   0  0  0  0  0  0  0  0  0  0  0  0
  154.1390  139.6626  159.3808 H   0  0  0  0  0  0  0  0  0  0  0  0
  154.3557  141.3036  161.1341 H   0  0  0  0  0  0  0  0  0  0  0  0
  1  2  1  0  0  0  0
  1 21  1  0  0  0  0
  1 22  1  0  0  0  0
  1 23  1  0  0  0  0
  2  3  1  0  0  0  0
  2 24  1  0  0  0  0
  3  4  2  0  0  0  0
  3  5  1  0  0  0  0
  5  6  1  0  0  0  0
  5 25  1  0  0  0  0
  5 26  1  0  0  0  0
  6 19  1  0  0  0  0
  6  7  1  0  0  0  0
  7  8  2  0  0  0  0
  7 27  1  0  0  0  0
  8  9  1  0  0  0  0
  8 17  1  0  0  0  0
  9 10  2  0  0  0  0
  9 11  2  0  0  0  0
  9 12  1  0  0  0  0
 12 16  1  0  0  0  0
 12 13  1  0  0  0  0
 13 14  1  0  0  0  0
 13 28  1  0  0  0  0
 13 29  1  0  0  0  0
 14 15  1  0  0  0  0
 14 30  1  0  0  0  0
 14 31  1  0  0  0  0
 15 16  1  0  0  0  0
 15 32  1  0  0  0  0
 15 33  1  0  0  0  0
 16 34  1  0  0  0  0
 16 35  1  0  0  0  0
 17 18  2  0  0  0  0
 17 36  1  0  0  0  0
 18 19  1  0  0  0  0
 18 37  1  0  0  0  0
 19 20  2  0  0  0  0
M  END
> <s_m_source_file>
AV-unprocessed.smi

> <i_m_source_file_index>
469

> <i_lp_mmshare_version>
43012

> <i_f3d_flags>
0

> <s_epik_input>
W0NIM11bTkhdQyg9TylbQ0gyXW4xW2NIXWMoW2NIXVtjSF1jMT1PKVMoPU8pKD1PKU4yW0NIMl1bQ0gyXVtDSDJdW0NIMl0y

> <s_epik_cmdline>
J2VwaWtfcHl0aG9uJywgJy1waCcsICc3LjAnLCAnLXRuJywgJzgnLCAnLW1hJywgJzIwMCcsICctbWV0YWxfYmluZGluZycsICctaW1hZScsICc8aW5maWxlLm1hZT4nLCAnLW9tYWUnLCAnPG91dGZpbGUubWFlPic=

> <r_lp_tautomer_probability>
1

> <r_epik_Ionization_Penalty>
2.91909e-08

> <r_epik_Ionization_Penalty_Charging>
9.91299e-09

> <r_epik_Ionization_Penalty_Neutral>
1.92779e-08

> <r_epik_State_Penalty>
-0

> <r_epik_Charging_Adjusted_Penalty>
9.91299e-09

> <i_epik_Tot_Q>
0

> <i_epik_Tot_abs_Q>
0

> <r_epik_Metal_State_Penalty>
-0

> <b_epik_Metal_Only>
0

> <s_lp_Force_Field>
OPLS_2005

> <r_lp_Energy>
18.9882

> <b_lp_Chiralities_Consistent>
1

> <s_lp_Variant>
AV-unprocessed.smi:469-1

> <Gold.Version>
5.8.1

> <Gold.Id.Protein>
6NUR|6NUR_protein|mol2

> <Gold.PLP.Fitness>
43.3113

> <Gold.PLP.PLP>
-35.0427

> <Gold.PLP.part.hbond>
-3.9836

> <Gold.PLP.part.metal>
0.0000

> <Gold.PLP.part.buried>
-7.7270

> <Gold.PLP.part.nonpolar>
-23.6461

> <Gold.PLP.part.repulsive>
0.6366

> <Gold.PLP.ligand.clash>
0.0000

> <Gold.PLP.ligand.torsion>
1.3295

> <Gold.PLP.Chemscore.Hbond>
2.8240

> <Gold.PLP.Chemscore.CHOScore>
0.0000

> <Gold.PLP.Chemscore.Metal>
0.0000

> <Gold.Chemscore.Hbonds>
donor molecule, donor type, donor heavy atom, donor atom, acceptor molecule, acceptor atom, score
      L1  H     2    24       P1  8029  0.53
      P1  H  7997  8010       L1    11  0.21

> <Gold.PLP.Chemscore.Internal.Correction>
2.4556

> <Gold.Rescore>
     Score         DG    S(hbond)    S(metal)    S(lipo)     H(rot)  DE(clash)    DE(int)     intcor
     12.61     -15.55       2.16        0.00      59.96       1.62       0.07       2.87       ----

> <Gold.Chemscore.Fitness>
12.6147

> <Gold.Chemscore.DG>
-15.5511

> <Gold.Chemscore.ZeroCoef>
-5.4800

> <Gold.Chemscore.Hbond>
2.1587

> <Gold.Chemscore.Metal>
0.0000

> <Gold.Chemscore.Lipo>
59.9576

> <Gold.Chemscore.Internal_Hbond>
0.0000

> <Gold.Chemscore.DEClash>
0.0672

> <Gold.Chemscore.DEInternal>
2.8692

> <Gold.Chemscore.Rot>
1.6226

> <Gold.Chemscore.Internal.Correction>
   9.000000E+99

> <Gold.Chemscore.Hbonds>
donor molecule, donor type, donor heavy atom, donor atom, acceptor molecule, acceptor atom, score
      L1  H     2    24       P1  8029  0.47
      P1  H  7997  8010       L1    11  0.16

> <Gold.Chemscore.Hbond.Weighted>
-7.2099

> <Gold.Chemscore.Metal.Weighted>
-0.0000

> <Gold.Chemscore.Lipo.Weighted>
-7.0150

> <Gold.Chemscore.Internal_Hbond.Weighted>
0.0000

> <Gold.Chemscore.DEClash.Weighted>
0.0672

> <Gold.Chemscore.DEInternal.Weighted>
2.8692

> <Gold.Chemscore.Rot.Weighted>
4.1539

> <Gold.Chemscore.Internal.Correction.Weighted>
   9.000000E+99

> <Gold.Protein.RotatedTorsions>
[ 6907 6896 6895 6894 ] final  -96.65 input  -60.11 | X-H torsion
[ 7974 7965 7964 7962 ] final   62.51 input  175.53 | X-H torsion
[ 8008 7997 7996 7995 ] final   97.93 input   59.86 | X-H torsion
[ 10167 10162 10161 10158 ] final   21.38 input  -65.29 | X-H torsion
[ 10718 10713 10712 10709 ] final  106.98 input   66.30 | X-H torsion
[ 10763 10752 10751 10750 ] final -169.10 input  -60.55 | X-H torsion
[ 11005 11000 10999 10996 ] final   -5.28 input  -57.11 | X-H torsion

> <Gold.Protein.ActiveResidues>
 VAL166  LYS551  ARG553  GLY616  TRP617  ASP618  TYR619  PRO620  LYS621  CYS622 
 ASP623  PHE694  ASN695  SER759  ASP760  ASP761  ALA762  ILE779  LEU786  VAL792 
 PHE793  MET794  SER795  GLU796  ALA797  LYS798  CYS799  TRP800  GLU811  SER814 

> <Gold.Protein.RotatedAtoms>
  150.6994  134.1471  159.4126 H   0  0  0  0  0  0  0  0  0  0  0  0  # atno 6907 bound_to 6896
  151.9454  135.0191  160.0548 H   0  0  0  0  0  0  0  0  0  0  0  0  # atno 6908 bound_to 6896
  152.2057  133.4839  159.5119 H   0  0  0  0  0  0  0  0  0  0  0  0  # atno 6909 bound_to 6896
  145.8725  139.3387  143.0754 H   0  0  0  0  0  0  0  0  0  0  0  0  # atno 7974 bound_to 7965
  156.0952  140.3251  155.7868 H   0  0  0  0  0  0  0  0  0  0  0  0  # atno 8008 bound_to 7997
  155.4929  140.0563  157.2968 H   0  0  0  0  0  0  0  0  0  0  0  0  # atno 8009 bound_to 7997
  154.4662  140.1990  156.0128 H   0  0  0  0  0  0  0  0  0  0  0  0  # atno 8010 bound_to 7997
  140.5431  143.9642  150.6531 H   0  0  0  0  0  0  0  0  0  0  0  0  # atno 10167 bound_to 10162
  157.6647  131.0862  150.6087 H   0  0  0  0  0  0  0  0  0  0  0  0  # atno 10718 bound_to 10713
  154.6559  135.2918  154.9928 H   0  0  0  0  0  0  0  0  0  0  0  0  # atno 10763 bound_to 10752
  154.1005  135.6577  153.4871 H   0  0  0  0  0  0  0  0  0  0  0  0  # atno 10764 bound_to 10752
  153.0402  135.5241  154.7488 H   0  0  0  0  0  0  0  0  0  0  0  0  # atno 10765 bound_to 10752
  140.6895  133.9084  155.8608 H   0  0  0  0  0  0  0  0  0  0  0  0  # atno 11005 bound_to 11000
  145.9120  140.9174  143.0449 LP  0  0  0  0  0  0  0  0  0  0  0  0  # atno 17320 bound_to 7965
  144.6726  140.1173  143.7452 LP  0  0  0  0  0  0  0  0  0  0  0  0  # atno 17321 bound_to 7965
  140.3048  143.3237  152.0937 LP  0  0  0  0  0  0  0  0  0  0  0  0  # atno 17342 bound_to 10162
  139.4996  144.6674  151.6324 LP  0  0  0  0  0  0  0  0  0  0  0  0  # atno 17343 bound_to 10162
  156.6388  130.4452  149.5760 LP  0  0  0  0  0  0  0  0  0  0  0  0  # atno 17370 bound_to 10713
  156.2225  130.6745  151.1382 LP  0  0  0  0  0  0  0  0  0  0  0  0  # atno 17371 bound_to 10713
  141.0253  134.0832  157.4075 LP  0  0  0  0  0  0  0  0  0  0  0  0  # atno 17394 bound_to 11000
  139.8928  135.0126  156.6863 LP  0  0  0  0  0  0  0  0  0  0  0  0  # atno 17395 bound_to 11000

$$$$
