AV-unprocessed.smi:2784|AV-procd|sdf|10726|dock6
  -GOLD-   2272015163D 1   1.00000     0.00000
 Structure written by MMmdl.
 31 32  0  0  0  0  0  0  0  0  1 V2000
  147.9860  144.4271  160.4166 C   0  0  0  0  0  0  0  0  0  0  0  0
  149.0813  145.1485  159.8750 O   0  0  0  0  0  0  0  0  0  0  0  0
  150.2200  144.3411  159.6097 C   0  0  2  0  0  0  0  0  0  0  0  0
  151.2180  144.4726  160.7635 C   0  0  0  0  0  0  0  0  0  0  0  0
  152.5758  144.2093  160.1223 C   0  0  0  0  0  0  0  0  0  0  0  0
  152.4723  144.8864  158.7563 C   0  0  0  0  0  0  0  0  0  0  0  0
  150.9912  144.7796  158.3431 C   0  0  1  0  0  0  0  0  0  0  0  0
  150.8183  143.8004  157.2727 N   0  0  0  0  0  0  0  0  0  0  0  0
  151.2712  142.5389  157.3011 C   0  0  0  0  0  0  0  0  0  0  0  0
  151.8836  142.0574  158.2547 O   0  0  0  0  0  0  0  0  0  0  0  0
  150.9665  141.8859  156.1673 N   0  0  0  0  0  0  0  0  0  0  0  0
  151.3011  140.5519  155.8233 C   0  0  0  0  0  0  0  0  0  0  0  0
  152.2475  139.7994  156.3867 N   0  0  0  0  0  0  0  0  0  0  0  0
  152.1879  138.5932  155.7037 C   0  0  0  0  0  0  0  0  0  0  0  0
  151.1996  138.6858  154.7578 C   0  0  0  0  0  0  0  0  0  0  0  0
  150.6267  139.9278  154.8216 O   0  0  0  0  0  0  0  0  0  0  0  0
  147.1645  145.1133  160.6223 H   0  0  0  0  0  0  0  0  0  0  0  0
  148.2586  143.9407  161.3539 H   0  0  0  0  0  0  0  0  0  0  0  0
  147.6203  143.6691  159.7236 H   0  0  0  0  0  0  0  0  0  0  0  0
  149.9272  143.2910  159.5411 H   0  0  0  0  0  0  0  0  0  0  0  0
  151.1992  145.4894  161.1589 H   0  0  0  0  0  0  0  0  0  0  0  0
  150.9997  143.7924  161.5870 H   0  0  0  0  0  0  0  0  0  0  0  0
  153.4048  144.5906  160.7191 H   0  0  0  0  0  0  0  0  0  0  0  0
  152.7209  143.1360  159.9931 H   0  0  0  0  0  0  0  0  0  0  0  0
  152.7400  145.9391  158.8573 H   0  0  0  0  0  0  0  0  0  0  0  0
  153.1602  144.4516  158.0299 H   0  0  0  0  0  0  0  0  0  0  0  0
  150.6424  145.7612  158.0164 H   0  0  0  0  0  0  0  0  0  0  0  0
  150.3230  144.1113  156.4500 H   0  0  0  0  0  0  0  0  0  0  0  0
  150.4471  142.3995  155.4711 H   0  0  0  0  0  0  0  0  0  0  0  0
  152.8471  137.7714  155.9413 H   0  0  0  0  0  0  0  0  0  0  0  0
  150.8082  138.0079  154.0137 H   0  0  0  0  0  0  0  0  0  0  0  0
  1  2  1  0  0  0  0
  1 17  1  0  0  0  0
  1 18  1  0  0  0  0
  1 19  1  0  0  0  0
  2  3  1  0  0  0  0
  3  7  1  0  0  0  0
  3  4  1  0  0  0  0
  3 20  1  0  0  0  0
  4  5  1  0  0  0  0
  4 21  1  0  0  0  0
  4 22  1  0  0  0  0
  5  6  1  0  0  0  0
  5 23  1  0  0  0  0
  5 24  1  0  0  0  0
  6  7  1  0  0  0  0
  6 25  1  0  0  0  0
  6 26  1  0  0  0  0
  7  8  1  0  0  0  0
  7 27  1  0  0  0  0
  8  9  1  0  0  0  0
  8 28  1  0  0  0  0
  9 10  2  0  0  0  0
  9 11  1  0  0  0  0
 11 12  1  0  0  0  0
 11 29  1  0  0  0  0
 12 16  1  0  0  0  0
 12 13  2  0  0  0  0
 13 14  1  0  0  0  0
 14 15  2  0  0  0  0
 14 30  1  0  0  0  0
 15 16  1  0  0  0  0
 15 31  1  0  0  0  0
M  END
> <s_m_source_file>
AV-unprocessed.smi

> <i_m_source_file_index>
2784

> <i_lp_mmshare_version>
43012

> <i_f3d_flags>
0

> <s_epik_input>
W0NIM11PW0NAQEhdMVtDSDJdW0NIMl1bQ0gyXVtDQEhdMVtOSF1DKD1PKVtOSF1jMm5bY0hdW2NIXW8y

> <s_epik_cmdline>
J2VwaWtfcHl0aG9uJywgJy1waCcsICc3LjAnLCAnLXRuJywgJzgnLCAnLW1hJywgJzIwMCcsICctbWV0YWxfYmluZGluZycsICctaW1hZScsICc8aW5maWxlLm1hZT4nLCAnLW9tYWUnLCAnPG91dGZpbGUubWFlPic=

> <r_lp_tautomer_probability>
0.785861

> <r_epik_Ionization_Penalty>
4.58897e-05

> <r_epik_Ionization_Penalty_Charging>
0

> <r_epik_Ionization_Penalty_Neutral>
4.58897e-05

> <r_epik_State_Penalty>
0.0380021

> <r_epik_Charging_Adjusted_Penalty>
0.0380021

> <i_epik_Tot_Q>
0

> <i_epik_Tot_abs_Q>
0

> <r_epik_Metal_State_Penalty>
0.0585611

> <b_epik_Metal_Only>
0

> <s_lp_Force_Field>
OPLS_2005

> <r_lp_Energy>
17.9939

> <b_lp_Chiralities_Consistent>
1

> <s_lp_Variant>
AV-unprocessed.smi:2784-1

> <Gold.Version>
5.8.1

> <Gold.Id.Protein>
6NUR|6NUR_protein|mol2

> <Gold.PLP.Fitness>
38.7337

> <Gold.PLP.PLP>
-32.2991

> <Gold.PLP.part.hbond>
-3.2209

> <Gold.PLP.part.metal>
0.0000

> <Gold.PLP.part.buried>
-5.3073

> <Gold.PLP.part.nonpolar>
-24.1151

> <Gold.PLP.part.repulsive>
1.5055

> <Gold.PLP.ligand.clash>
0.0000

> <Gold.PLP.ligand.torsion>
0.6267

> <Gold.PLP.Chemscore.Hbond>
2.5608

> <Gold.PLP.Chemscore.CHOScore>
0.0000

> <Gold.PLP.Chemscore.Metal>
0.0000

> <Gold.Chemscore.Hbonds>
donor molecule, donor type, donor heavy atom, donor atom, acceptor molecule, acceptor atom, score
      L1  H     8    28       P1  8028  1.00
      P1  H  7989  7998       L1    16  0.55
      P1  H  7997  8009       L1    13  0.76

> <Gold.PLP.Chemscore.Internal.Correction>
0.0056

> <Gold.Rescore>
     Score         DG    S(hbond)    S(metal)    S(lipo)     H(rot)  DE(clash)    DE(int)     intcor
     12.79     -18.32       1.87        0.00      85.23       1.32       1.37       4.16       ----

> <Gold.Chemscore.Fitness>
12.7912

> <Gold.Chemscore.DG>
-18.3220

> <Gold.Chemscore.ZeroCoef>
-5.4800

> <Gold.Chemscore.Hbond>
1.8737

> <Gold.Chemscore.Metal>
0.0000

> <Gold.Chemscore.Lipo>
85.2306

> <Gold.Chemscore.Internal_Hbond>
0.0000

> <Gold.Chemscore.DEClash>
1.3665

> <Gold.Chemscore.DEInternal>
4.1643

> <Gold.Chemscore.Rot>
1.3235

> <Gold.Chemscore.Internal.Correction>
   9.000000E+99

> <Gold.Chemscore.Hbonds>
donor molecule, donor type, donor heavy atom, donor atom, acceptor molecule, acceptor atom, score
      L1  H     8    28       P1  8028  0.96
      P1  H  7989  7998       L1    16  0.01
      P1  H  7997  8009       L1    13  0.17

> <Gold.Chemscore.Hbond.Weighted>
-6.2581

> <Gold.Chemscore.Metal.Weighted>
-0.0000

> <Gold.Chemscore.Lipo.Weighted>
-9.9720

> <Gold.Chemscore.Internal_Hbond.Weighted>
0.0000

> <Gold.Chemscore.DEClash.Weighted>
1.3665

> <Gold.Chemscore.DEInternal.Weighted>
4.1643

> <Gold.Chemscore.Rot.Weighted>
3.3882

> <Gold.Chemscore.Internal.Correction.Weighted>
   9.000000E+99

> <Gold.Protein.RotatedTorsions>
[ 6907 6896 6895 6894 ] final  -36.21 input  -60.11 | X-H torsion
[ 7974 7965 7964 7962 ] final   98.10 input  175.53 | X-H torsion
[ 8008 7997 7996 7995 ] final -159.80 input   59.86 | X-H torsion
[ 10167 10162 10161 10158 ] final  -52.62 input  -65.29 | X-H torsion
[ 10718 10713 10712 10709 ] final   25.18 input   66.30 | X-H torsion
[ 10763 10752 10751 10750 ] final    1.21 input  -60.55 | X-H torsion
[ 11005 11000 10999 10996 ] final  -65.68 input  -57.11 | X-H torsion

> <Gold.Protein.ActiveResidues>
 VAL166  LYS551  ARG553  GLY616  TRP617  ASP618  TYR619  PRO620  LYS621  CYS622 
 ASP623  PHE694  ASN695  SER759  ASP760  ASP761  ALA762  ILE779  LEU786  VAL792 
 PHE793  MET794  SER795  GLU796  ALA797  LYS798  CYS799  TRP800  GLU811  SER814 

> <Gold.Protein.RotatedAtoms>
  151.0300  134.9532  159.8105 H   0  0  0  0  0  0  0  0  0  0  0  0  # atno 6907 bound_to 6896
  152.5343  134.2792  159.9011 H   0  0  0  0  0  0  0  0  0  0  0  0  # atno 6908 bound_to 6896
  151.2802  133.4171  159.2660 H   0  0  0  0  0  0  0  0  0  0  0  0  # atno 6909 bound_to 6896
  145.4166  139.2326  143.3219 H   0  0  0  0  0  0  0  0  0  0  0  0  # atno 7974 bound_to 7965
  155.7679  140.0848  157.2122 H   0  0  0  0  0  0  0  0  0  0  0  0  # atno 8008 bound_to 7997
  154.3998  140.1531  156.2965 H   0  0  0  0  0  0  0  0  0  0  0  0  # atno 8009 bound_to 7997
  155.8776  140.3422  155.5867 H   0  0  0  0  0  0  0  0  0  0  0  0  # atno 8010 bound_to 7997
  140.6528  143.2577  151.4675 H   0  0  0  0  0  0  0  0  0  0  0  0  # atno 10167 bound_to 10162
  157.1899  130.6841  149.6146 H   0  0  0  0  0  0  0  0  0  0  0  0  # atno 10718 bound_to 10713
  153.3109  135.6962  153.7116 H   0  0  0  0  0  0  0  0  0  0  0  0  # atno 10763 bound_to 10752
  153.5994  135.3465  155.2940 H   0  0  0  0  0  0  0  0  0  0  0  0  # atno 10764 bound_to 10752
  154.8575  135.4337  154.2247 H   0  0  0  0  0  0  0  0  0  0  0  0  # atno 10765 bound_to 10752
  141.1461  133.6686  156.6024 H   0  0  0  0  0  0  0  0  0  0  0  0  # atno 11005 bound_to 11000
  146.2678  140.4885  142.8827 LP  0  0  0  0  0  0  0  0  0  0  0  0  # atno 17320 bound_to 7965
  144.8273  140.6649  143.6314 LP  0  0  0  0  0  0  0  0  0  0  0  0  # atno 17321 bound_to 7965
  139.5745  144.1851  152.1884 LP  0  0  0  0  0  0  0  0  0  0  0  0  # atno 17342 bound_to 10162
  140.1157  144.5418  150.6895 LP  0  0  0  0  0  0  0  0  0  0  0  0  # atno 17343 bound_to 10162
  155.9713  130.4618  150.6123 LP  0  0  0  0  0  0  0  0  0  0  0  0  # atno 17370 bound_to 10713
  157.3871  131.0790  151.1427 LP  0  0  0  0  0  0  0  0  0  0  0  0  # atno 17371 bound_to 10713
  140.3678  134.7632  157.4578 LP  0  0  0  0  0  0  0  0  0  0  0  0  # atno 17394 bound_to 11000
  140.0734  134.5831  155.8617 LP  0  0  0  0  0  0  0  0  0  0  0  0  # atno 17395 bound_to 11000

$$$$
