AV-unprocessed.smi:195|AV-procd|sdf|1526|dock6
  -GOLD-   2262019373D 1   1.00000     0.00000
 Structure written by MMmdl.
 45 48  0  0  0  0  0  0  0  0  1 V2000
  147.8907  137.4368  160.9765 N   0  0  0  0  0  0  0  0  0  0  0  0
  148.5464  137.0373  160.1111 C   0  0  0  0  0  0  0  0  0  0  0  0
  149.3808  136.5304  159.0102 C   0  0  0  0  0  0  0  0  0  0  0  0
  148.5823  136.1844  157.7499 C   0  0  0  0  0  0  0  0  0  0  0  0
  147.6043  135.2624  158.1836 O   0  0  0  0  0  0  0  0  0  0  0  0
  148.0506  137.3507  156.9112 C   0  0  0  0  0  0  0  0  0  0  0  0
  149.1585  137.1218  155.9871 N   0  0  0  0  0  0  0  0  0  0  0  0
  150.2342  138.0526  156.1384 C   0  0  0  0  0  0  0  0  0  0  0  0
  151.5252  137.6260  156.1972 N   0  0  0  0  0  0  0  0  0  0  0  0
  152.5355  138.4895  156.3346 C   0  0  0  0  0  0  0  0  0  0  0  0
  152.4886  139.8189  156.4212 N   0  0  0  0  0  0  0  0  0  0  0  0
  151.2041  140.2661  156.3414 C   0  0  0  0  0  0  0  0  0  0  0  0
  150.0371  139.4626  156.1974 C   0  0  0  0  0  0  0  0  0  0  0  0
  148.9109  140.2762  156.1427 N   0  0  0  0  0  0  0  0  0  0  0  0
  149.3840  141.4877  156.2555 C   0  0  0  0  0  0  0  0  0  0  0  0
  150.7514  141.5721  156.3826 N   0  0  0  0  0  0  0  0  0  0  0  0
  151.5429  142.7811  156.5278 C   0  0  0  0  0  0  0  0  0  0  0  0
  151.2441  143.5222  157.8463 C   0  0  2  0  0  0  0  0  0  0  0  0
  150.9845  144.8842  157.5629 O   0  0  0  0  0  0  0  0  0  0  0  0
  152.4125  143.4351  158.8461 C   0  0  1  0  0  0  0  0  0  0  0  0
  152.0960  143.9907  160.2368 C   0  0  0  0  0  0  0  0  0  0  0  0
  153.0741  143.2318  161.1029 C   0  0  0  0  0  0  0  0  0  0  0  0
  153.0434  141.8510  160.4574 C   0  0  0  0  0  0  0  0  0  0  0  0
  152.7732  142.0735  159.0759 O   0  0  0  0  0  0  0  0  0  0  0  0
  149.3572  135.7644  156.4963 C   0  0  0  0  0  0  0  0  0  0  0  0
  150.1485  137.2753  158.7985 H   0  0  0  0  0  0  0  0  0  0  0  0
  149.9039  135.6540  159.3919 H   0  0  0  0  0  0  0  0  0  0  0  0
  147.3478  134.7561  157.4279 H   0  0  0  0  0  0  0  0  0  0  0  0
  147.0854  137.1473  156.4455 H   0  0  0  0  0  0  0  0  0  0  0  0
  148.0564  138.3105  157.4293 H   0  0  0  0  0  0  0  0  0  0  0  0
  153.5219  138.0517  156.3802 H   0  0  0  0  0  0  0  0  0  0  0  0
  148.7438  142.3579  156.2534 H   0  0  0  0  0  0  0  0  0  0  0  0
  152.5959  142.5013  156.4798 H   0  0  0  0  0  0  0  0  0  0  0  0
  151.3541  143.4293  155.6708 H   0  0  0  0  0  0  0  0  0  0  0  0
  150.3492  143.0973  158.3034 H   0  0  0  0  0  0  0  0  0  0  0  0
  150.2464  144.9322  156.9747 H   0  0  0  0  0  0  0  0  0  0  0  0
  153.2911  143.9465  158.4487 H   0  0  0  0  0  0  0  0  0  0  0  0
  152.2188  145.0721  160.3017 H   0  0  0  0  0  0  0  0  0  0  0  0
  151.0735  143.7448  160.5278 H   0  0  0  0  0  0  0  0  0  0  0  0
  154.0700  143.6682  161.0152 H   0  0  0  0  0  0  0  0  0  0  0  0
  152.7965  143.2175  162.1571 H   0  0  0  0  0  0  0  0  0  0  0  0
  153.9754  141.3033  160.6001 H   0  0  0  0  0  0  0  0  0  0  0  0
  152.2320  141.2538  160.8758 H   0  0  0  0  0  0  0  0  0  0  0  0
  150.3833  135.4442  156.6752 H   0  0  0  0  0  0  0  0  0  0  0  0
  148.8208  135.0329  155.8902 H   0  0  0  0  0  0  0  0  0  0  0  0
  1  2  3  0  0  0  0
  2  3  1  0  0  0  0
  3  4  1  0  0  0  0
  3 26  1  0  0  0  0
  3 27  1  0  0  0  0
  4 25  1  0  0  0  0
  4  5  1  0  0  0  0
  4  6  1  0  0  0  0
  5 28  1  0  0  0  0
  6  7  1  0  0  0  0
  6 29  1  0  0  0  0
  6 30  1  0  0  0  0
  7  8  1  0  0  0  0
  7 25  1  0  0  0  0
  8 13  1  0  0  0  0
  8  9  2  0  0  0  0
  9 10  1  0  0  0  0
 10 11  2  0  0  0  0
 10 31  1  0  0  0  0
 11 12  1  0  0  0  0
 12 16  1  0  0  0  0
 12 13  2  0  0  0  0
 13 14  1  0  0  0  0
 14 15  2  0  0  0  0
 15 16  1  0  0  0  0
 15 32  1  0  0  0  0
 16 17  1  0  0  0  0
 17 18  1  0  0  0  0
 17 33  1  0  0  0  0
 17 34  1  0  0  0  0
 18 19  1  0  0  0  0
 18 20  1  0  0  0  0
 18 35  1  0  0  0  0
 19 36  1  0  0  0  0
 20 24  1  0  0  0  0
 20 21  1  0  0  0  0
 20 37  1  0  0  0  0
 21 22  1  0  0  0  0
 21 38  1  0  0  0  0
 21 39  1  0  0  0  0
 22 23  1  0  0  0  0
 22 40  1  0  0  0  0
 22 41  1  0  0  0  0
 23 24  1  0  0  0  0
 23 42  1  0  0  0  0
 23 43  1  0  0  0  0
 25 44  1  0  0  0  0
 25 45  1  0  0  0  0
M  END
> <s_m_source_file>
AV-unprocessed.smi

> <i_m_source_file_index>
195

> <i_lp_mmshare_version>
43012

> <i_f3d_flags>
0

> <s_epik_input>
TiNDW0NIMl1DMShbT0hdKVtDSDJdTihbQ0gyXTEpYyhuW2NIXW4yKWMoYzIzKW5bY0hdbjNbQ0gyXVtDQEhdKFtPSF0pW0NAQEhdNFtDSDJdW0NIMl1bQ0gyXU80

> <s_epik_cmdline>
J2VwaWtfcHl0aG9uJywgJy1waCcsICc3LjAnLCAnLXRuJywgJzgnLCAnLW1hJywgJzIwMCcsICctbWV0YWxfYmluZGluZycsICctaW1hZScsICc8aW5maWxlLm1hZT4nLCAnLW9tYWUnLCAnPG91dGZpbGUubWFlPic=

> <r_lp_tautomer_probability>
1

> <r_epik_Ionization_Penalty>
0.00307146

> <r_epik_Ionization_Penalty_Charging>
0

> <r_epik_Ionization_Penalty_Neutral>
0.00307146

> <r_epik_State_Penalty>
0.0020279

> <r_epik_Charging_Adjusted_Penalty>
0.0020279

> <i_epik_Tot_Q>
0

> <i_epik_Tot_abs_Q>
0

> <r_epik_Metal_State_Penalty>
-0

> <b_epik_Metal_Only>
0

> <s_lp_Force_Field>
OPLS_2005

> <r_lp_Energy>
44.1004

> <b_lp_Chiralities_Consistent>
1

> <s_lp_Variant>
AV-unprocessed.smi:195-3

> <Gold.Version>
5.8.1

> <Gold.Id.Protein>
6NUR|6NUR_protein|mol2

> <Gold.PLP.Fitness>
46.7774

> <Gold.PLP.PLP>
-35.1251

> <Gold.PLP.part.hbond>
-4.0000

> <Gold.PLP.part.metal>
0.0000

> <Gold.PLP.part.buried>
-4.7398

> <Gold.PLP.part.nonpolar>
-26.0657

> <Gold.PLP.part.repulsive>
0.1156

> <Gold.PLP.ligand.clash>
0.0000

> <Gold.PLP.ligand.torsion>
1.3132

> <Gold.PLP.Chemscore.Hbond>
3.6480

> <Gold.PLP.Chemscore.CHOScore>
1.0000

> <Gold.PLP.Chemscore.Metal>
0.0000

> <Gold.Chemscore.Hbonds>
donor molecule, donor type, donor heavy atom, donor atom, acceptor molecule, acceptor atom, score
      L1  H    19    36       P1  8028  1.00
      P1  H  6931  6943       L1     1  0.80
      P1  H  6934  6947       L1     1  0.74
      P1  H  7997  8009       L1    11  0.90
      L1  C    15    32       P1  8028  1.00

> <Gold.PLP.Chemscore.Internal.Correction>
0.3347

> <Gold.Rescore>
     Score         DG    S(hbond)    S(metal)    S(lipo)     H(rot)  DE(clash)    DE(int)     intcor
     13.00     -16.07       3.29        0.00      78.12       3.72       1.82       1.25       ----

> <Gold.Chemscore.Fitness>
12.9988

> <Gold.Chemscore.DG>
-16.0677

> <Gold.Chemscore.ZeroCoef>
-5.4800

> <Gold.Chemscore.Hbond>
3.2854

> <Gold.Chemscore.Metal>
0.0000

> <Gold.Chemscore.Lipo>
78.1211

> <Gold.Chemscore.Internal_Hbond>
0.0000

> <Gold.Chemscore.DEClash>
1.8202

> <Gold.Chemscore.DEInternal>
1.2487

> <Gold.Chemscore.Rot>
3.7210

> <Gold.Chemscore.Internal.Correction>
   9.000000E+99

> <Gold.Chemscore.Hbonds>
donor molecule, donor type, donor heavy atom, donor atom, acceptor molecule, acceptor atom, score
      L1  H    19    36       P1  8028  0.30
      P1  H  6931  6943       L1     1  0.24
      P1  H  6934  6947       L1     1  0.73
      P1  H  7997  8009       L1    11  0.18

> <Gold.Chemscore.Hbond.Weighted>
-10.9732

> <Gold.Chemscore.Metal.Weighted>
-0.0000

> <Gold.Chemscore.Lipo.Weighted>
-9.1402

> <Gold.Chemscore.Internal_Hbond.Weighted>
0.0000

> <Gold.Chemscore.DEClash.Weighted>
1.8202

> <Gold.Chemscore.DEInternal.Weighted>
1.2487

> <Gold.Chemscore.Rot.Weighted>
9.5256

> <Gold.Chemscore.Internal.Correction.Weighted>
   9.000000E+99

> <Gold.Protein.RotatedTorsions>
[ 6907 6896 6895 6894 ] final  130.66 input  -60.11 | X-H torsion
[ 7974 7965 7964 7962 ] final   68.01 input  175.53 | X-H torsion
[ 8008 7997 7996 7995 ] final -159.68 input   59.86 | X-H torsion
[ 10167 10162 10161 10158 ] final -138.44 input  -65.29 | X-H torsion
[ 10718 10713 10712 10709 ] final  -76.83 input   66.30 | X-H torsion
[ 10763 10752 10751 10750 ] final   88.02 input  -60.55 | X-H torsion
[ 11005 11000 10999 10996 ] final -107.72 input  -57.11 | X-H torsion

> <Gold.Protein.ActiveResidues>
 VAL166  LYS551  ARG553  GLY616  TRP617  ASP618  TYR619  PRO620  LYS621  CYS622 
 ASP623  PHE694  ASN695  SER759  ASP760  ASP761  ALA762  ILE779  LEU786  VAL792 
 PHE793  MET794  SER795  GLU796  ALA797  LYS798  CYS799  TRP800  GLU811  SER814 

> <Gold.Protein.RotatedAtoms>
  152.3504  133.6173  159.5940 H   0  0  0  0  0  0  0  0  0  0  0  0  # atno 6907 bound_to 6896
  150.7534  133.9583  159.3516 H   0  0  0  0  0  0  0  0  0  0  0  0  # atno 6908 bound_to 6896
  151.7435  135.0849  160.0370 H   0  0  0  0  0  0  0  0  0  0  0  0  # atno 6909 bound_to 6896
  145.8078  139.3016  143.1117 H   0  0  0  0  0  0  0  0  0  0  0  0  # atno 7974 bound_to 7965
  155.7661  140.0845  157.2131 H   0  0  0  0  0  0  0  0  0  0  0  0  # atno 8008 bound_to 7997
  154.3999  140.1534  156.2945 H   0  0  0  0  0  0  0  0  0  0  0  0  # atno 8009 bound_to 7997
  155.8792  140.3421  155.5878 H   0  0  0  0  0  0  0  0  0  0  0  0  # atno 8010 bound_to 7997
  139.8478  143.7237  152.2660 H   0  0  0  0  0  0  0  0  0  0  0  0  # atno 10167 bound_to 10162
  156.0163  130.4475  150.3253 H   0  0  0  0  0  0  0  0  0  0  0  0  # atno 10718 bound_to 10713
  153.1726  135.4522  154.9922 H   0  0  0  0  0  0  0  0  0  0  0  0  # atno 10763 bound_to 10752
  154.7976  135.3243  154.7631 H   0  0  0  0  0  0  0  0  0  0  0  0  # atno 10764 bound_to 10752
  153.8105  135.6955  153.4896 H   0  0  0  0  0  0  0  0  0  0  0  0  # atno 10765 bound_to 10752
  141.0939  133.9006  157.2010 H   0  0  0  0  0  0  0  0  0  0  0  0  # atno 11005 bound_to 11000
  145.9809  140.8683  143.0115 LP  0  0  0  0  0  0  0  0  0  0  0  0  # atno 17320 bound_to 7965
  144.6761  140.2079  143.7380 LP  0  0  0  0  0  0  0  0  0  0  0  0  # atno 17321 bound_to 7965
  139.7495  144.7538  151.0529 LP  0  0  0  0  0  0  0  0  0  0  0  0  # atno 17342 bound_to 10162
  140.7791  143.4877  150.9934 LP  0  0  0  0  0  0  0  0  0  0  0  0  # atno 17343 bound_to 10162
  157.1352  131.0282  151.2952 LP  0  0  0  0  0  0  0  0  0  0  0  0  # atno 17370 bound_to 10713
  157.4518  130.7602  149.7157 LP  0  0  0  0  0  0  0  0  0  0  0  0  # atno 17371 bound_to 10713
  139.9771  135.0110  156.9658 LP  0  0  0  0  0  0  0  0  0  0  0  0  # atno 17394 bound_to 11000
  140.5187  134.0929  155.7287 LP  0  0  0  0  0  0  0  0  0  0  0  0  # atno 17395 bound_to 11000

$$$$
