AV-unprocessed.smi:1190|AV-procd|sdf|4980|dock10
  -GOLD-   22720 3573D 1   1.00000     0.00000
 Structure written by MMmdl.
 43 44  0  0  0  0  0  0  0  0  1 V2000
  143.3970  132.7690  148.5808 C   0  0  0  0  0  0  0  0  0  0  0  0
  143.8965  131.9446  149.6283 O   0  0  0  0  0  0  0  0  0  0  0  0
  144.9257  132.4295  150.4090 C   0  0  0  0  0  0  0  0  0  0  0  0
  145.5495  131.5548  151.3204 C   0  0  0  0  0  0  0  0  0  0  0  0
  146.6001  132.0446  152.1185 C   0  0  0  0  0  0  0  0  0  0  0  0
  146.9949  133.3914  151.9887 C   0  0  0  0  0  0  0  0  0  0  0  0
  148.0712  133.8443  152.7996 N   0  0  0  0  0  0  0  0  0  0  0  0
  148.8021  133.1601  153.6964 C   0  0  0  0  0  0  0  0  0  0  0  0
  148.6751  131.9648  153.9596 O   0  0  0  0  0  0  0  0  0  0  0  0
  149.7126  133.9539  154.2769 N   0  0  0  0  0  0  0  0  0  0  0  0
  150.6499  133.5548  155.3251 C   0  0  0  0  0  0  0  0  0  0  0  0
  150.8567  134.6694  156.3844 C   0  0  2  0  0  0  0  0  0  0  0  0
  149.4816  135.0246  156.9943 C   0  0  0  0  0  0  0  0  0  0  0  0
  151.6016  135.8453  155.8825 N   0  0  0  0  0  0  0  0  0  0  0  0
  150.8061  136.6676  154.9660 C   0  0  0  0  0  0  0  0  0  0  0  0
  151.5773  137.8972  154.4556 C   0  0  0  0  0  0  0  0  0  0  0  0
  152.0164  138.6783  155.5593 O   0  0  0  0  0  0  0  0  0  0  0  0
  152.8484  137.9387  156.4434 C   0  0  0  0  0  0  0  0  0  0  0  0
  152.0863  136.7078  156.9644 C   0  0  0  0  0  0  0  0  0  0  0  0
  146.3121  134.1878  151.0361 C   0  0  0  0  0  0  0  0  0  0  0  0
  145.3027  133.7242  150.2686 N   0  0  0  0  0  0  0  0  0  0  0  0
  142.6026  132.2412  148.0534 H   0  0  0  0  0  0  0  0  0  0  0  0
  144.1741  133.0069  147.8530 H   0  0  0  0  0  0  0  0  0  0  0  0
  142.9758  133.6963  148.9715 H   0  0  0  0  0  0  0  0  0  0  0  0
  145.2291  130.5267  151.4043 H   0  0  0  0  0  0  0  0  0  0  0  0
  147.0944  131.3912  152.8228 H   0  0  0  0  0  0  0  0  0  0  0  0
  148.3405  134.8065  152.6561 H   0  0  0  0  0  0  0  0  0  0  0  0
  149.7412  134.9231  153.9960 H   0  0  0  0  0  0  0  0  0  0  0  0
  150.3213  132.6344  155.8106 H   0  0  0  0  0  0  0  0  0  0  0  0
  151.5944  133.2866  154.8531 H   0  0  0  0  0  0  0  0  0  0  0  0
  151.4418  134.2216  157.1891 H   0  0  0  0  0  0  0  0  0  0  0  0
  148.9142  134.1264  157.2401 H   0  0  0  0  0  0  0  0  0  0  0  0
  148.8781  135.6159  156.3050 H   0  0  0  0  0  0  0  0  0  0  0  0
  149.5783  135.5858  157.9231 H   0  0  0  0  0  0  0  0  0  0  0  0
  150.5037  136.0869  154.0957 H   0  0  0  0  0  0  0  0  0  0  0  0
  149.8908  136.9948  155.4615 H   0  0  0  0  0  0  0  0  0  0  0  0
  152.4334  137.5924  153.8515 H   0  0  0  0  0  0  0  0  0  0  0  0
  150.9376  138.5084  153.8190 H   0  0  0  0  0  0  0  0  0  0  0  0
  153.7625  137.6377  155.9291 H   0  0  0  0  0  0  0  0  0  0  0  0
  153.1444  138.5800  157.2738 H   0  0  0  0  0  0  0  0  0  0  0  0
  151.2472  137.0361  157.5798 H   0  0  0  0  0  0  0  0  0  0  0  0
  152.7616  136.1594  157.6188 H   0  0  0  0  0  0  0  0  0  0  0  0
  146.5736  135.2173  150.8518 H   0  0  0  0  0  0  0  0  0  0  0  0
  1  2  1  0  0  0  0
  1 22  1  0  0  0  0
  1 23  1  0  0  0  0
  1 24  1  0  0  0  0
  2  3  1  0  0  0  0
  3 21  1  0  0  0  0
  3  4  2  0  0  0  0
  4  5  1  0  0  0  0
  4 25  1  0  0  0  0
  5  6  2  0  0  0  0
  5 26  1  0  0  0  0
  6  7  1  0  0  0  0
  6 20  1  0  0  0  0
  7  8  1  0  0  0  0
  7 27  1  0  0  0  0
  8  9  2  0  0  0  0
  8 10  1  0  0  0  0
 10 11  1  0  0  0  0
 10 28  1  0  0  0  0
 11 12  1  0  0  0  0
 11 29  1  0  0  0  0
 11 30  1  0  0  0  0
 12 13  1  0  0  0  0
 12 14  1  0  0  0  0
 12 31  1  0  0  0  0
 13 32  1  0  0  0  0
 13 33  1  0  0  0  0
 13 34  1  0  0  0  0
 14 19  1  0  0  0  0
 14 15  1  0  0  0  0
 15 16  1  0  0  0  0
 15 35  1  0  0  0  0
 15 36  1  0  0  0  0
 16 17  1  0  0  0  0
 16 37  1  0  0  0  0
 16 38  1  0  0  0  0
 17 18  1  0  0  0  0
 18 19  1  0  0  0  0
 18 39  1  0  0  0  0
 18 40  1  0  0  0  0
 19 41  1  0  0  0  0
 19 42  1  0  0  0  0
 20 21  2  0  0  0  0
 20 43  1  0  0  0  0
M  END
> <s_m_source_file>
AV-unprocessed.smi

> <i_m_source_file_index>
1190

> <i_lp_mmshare_version>
43012

> <i_f3d_flags>
0

> <s_epik_input>
W0NIM11PYzFbY0hdW2NIXWMoW2NIXW4xKVtOSF1DKD1PKVtOSF1bQ0gyXVtDQEhdKFtDSDNdKU4yW0NIMl1bQ0gyXU9bQ0gyXVtDSDJdMg==

> <s_epik_cmdline>
J2VwaWtfcHl0aG9uJywgJy1waCcsICc3LjAnLCAnLXRuJywgJzgnLCAnLW1hJywgJzIwMCcsICctbWV0YWxfYmluZGluZycsICctaW1hZScsICc8aW5maWxlLm1hZT4nLCAnLW9tYWUnLCAnPG91dGZpbGUubWFlPic=

> <r_lp_tautomer_probability>
1

> <r_epik_Ionization_Penalty>
0.266084

> <r_epik_Ionization_Penalty_Charging>
0

> <r_epik_Ionization_Penalty_Neutral>
0.266084

> <r_epik_State_Penalty>
0.257924

> <r_epik_Charging_Adjusted_Penalty>
0.257924

> <i_epik_Tot_Q>
0

> <i_epik_Tot_abs_Q>
0

> <r_epik_Metal_State_Penalty>
0.257922

> <b_epik_Metal_Only>
0

> <s_lp_Force_Field>
OPLS_2005

> <r_lp_Energy>
36.3321

> <b_lp_Chiralities_Consistent>
1

> <s_lp_Variant>
AV-unprocessed.smi:1190-1

> <Gold.Version>
5.8.1

> <Gold.Id.Protein>
6NUR|6NUR_protein|mol2

> <Gold.PLP.Fitness>
41.7533

> <Gold.PLP.PLP>
-33.8003

> <Gold.PLP.part.hbond>
-3.0000

> <Gold.PLP.part.metal>
0.0000

> <Gold.PLP.part.buried>
-6.9868

> <Gold.PLP.part.nonpolar>
-25.0098

> <Gold.PLP.part.repulsive>
1.8919

> <Gold.PLP.ligand.clash>
0.0000

> <Gold.PLP.ligand.torsion>
0.3898

> <Gold.PLP.Chemscore.Hbond>
2.4394

> <Gold.PLP.Chemscore.CHOScore>
0.4593

> <Gold.PLP.Chemscore.Metal>
0.0000

> <Gold.Chemscore.Hbonds>
donor molecule, donor type, donor heavy atom, donor atom, acceptor molecule, acceptor atom, score
      L1  H     7    27       P1  7948  1.00
      P1  H 10752 10765       L1    14  1.00
      P1  H 10785 10796       L1     2  0.44
      L1  C    20    43       P1  7948  0.42

> <Gold.PLP.Chemscore.Internal.Correction>
0.0365

> <Gold.Rescore>
     Score         DG    S(hbond)    S(metal)    S(lipo)     H(rot)  DE(clash)    DE(int)     intcor
     11.38     -13.54       1.05        0.00      76.88       1.73       0.14       2.02       ----

> <Gold.Chemscore.Fitness>
11.3755

> <Gold.Chemscore.DG>
-13.5396

> <Gold.Chemscore.ZeroCoef>
-5.4800

> <Gold.Chemscore.Hbond>
1.0455

> <Gold.Chemscore.Metal>
0.0000

> <Gold.Chemscore.Lipo>
76.8751

> <Gold.Chemscore.Internal_Hbond>
0.0000

> <Gold.Chemscore.DEClash>
0.1445

> <Gold.Chemscore.DEInternal>
2.0196

> <Gold.Chemscore.Rot>
1.7292

> <Gold.Chemscore.Internal.Correction>
   9.000000E+99

> <Gold.Chemscore.Hbonds>
donor molecule, donor type, donor heavy atom, donor atom, acceptor molecule, acceptor atom, score
      L1  H     7    27       P1  7948  0.44
      P1  H 10752 10765       L1    14  0.16
      P1  H 10785 10796       L1     2  0.05

> <Gold.Chemscore.Hbond.Weighted>
-3.4921

> <Gold.Chemscore.Metal.Weighted>
-0.0000

> <Gold.Chemscore.Lipo.Weighted>
-8.9944

> <Gold.Chemscore.Internal_Hbond.Weighted>
0.0000

> <Gold.Chemscore.DEClash.Weighted>
0.1445

> <Gold.Chemscore.DEInternal.Weighted>
2.0196

> <Gold.Chemscore.Rot.Weighted>
4.4268

> <Gold.Chemscore.Internal.Correction.Weighted>
   9.000000E+99

> <Gold.Protein.RotatedTorsions>
[ 6907 6896 6895 6894 ] final  -22.15 input  -60.11 | X-H torsion
[ 7974 7965 7964 7962 ] final  -67.86 input  175.53 | X-H torsion
[ 8008 7997 7996 7995 ] final  -76.02 input   59.86 | X-H torsion
[ 10167 10162 10161 10158 ] final -126.87 input  -65.29 | X-H torsion
[ 10718 10713 10712 10709 ] final -171.81 input   66.30 | X-H torsion
[ 10763 10752 10751 10750 ] final -156.32 input  -60.55 | X-H torsion
[ 11005 11000 10999 10996 ] final  106.58 input  -57.11 | X-H torsion

> <Gold.Protein.ActiveResidues>
 VAL166  LYS551  ARG553  GLY616  TRP617  ASP618  TYR619  PRO620  LYS621  CYS622 
 ASP623  PHE694  ASN695  SER759  ASP760  ASP761  ALA762  ILE779  LEU786  VAL792 
 PHE793  MET794  SER795  GLU796  ALA797  LYS798  CYS799  TRP800  GLU811  SER814 

> <Gold.Protein.RotatedAtoms>
  151.2228  135.0525  159.8956 H   0  0  0  0  0  0  0  0  0  0  0  0  # atno 6907 bound_to 6896
  152.5413  134.0622  159.8167 H   0  0  0  0  0  0  0  0  0  0  0  0  # atno 6908 bound_to 6896
  151.0791  133.5356  159.2653 H   0  0  0  0  0  0  0  0  0  0  0  0  # atno 6909 bound_to 6896
  145.7238  140.9027  143.0616 H   0  0  0  0  0  0  0  0  0  0  0  0  # atno 7974 bound_to 7965
  154.5468  140.0734  156.8601 H   0  0  0  0  0  0  0  0  0  0  0  0  # atno 8008 bound_to 7997
  155.3072  140.3388  155.4227 H   0  0  0  0  0  0  0  0  0  0  0  0  # atno 8009 bound_to 7997
  156.1925  140.1691  156.8050 H   0  0  0  0  0  0  0  0  0  0  0  0  # atno 8010 bound_to 7997
  139.9669  143.5888  152.2426 H   0  0  0  0  0  0  0  0  0  0  0  0  # atno 10167 bound_to 10162
  156.7464  130.9361  151.3112 H   0  0  0  0  0  0  0  0  0  0  0  0  # atno 10718 bound_to 10713
  154.7722  135.3148  154.8167 H   0  0  0  0  0  0  0  0  0  0  0  0  # atno 10763 bound_to 10752
  153.8899  135.6826  153.4765 H   0  0  0  0  0  0  0  0  0  0  0  0  # atno 10764 bound_to 10752
  153.1338  135.4769  154.9325 H   0  0  0  0  0  0  0  0  0  0  0  0  # atno 10765 bound_to 10752
  139.8816  134.9374  156.5688 H   0  0  0  0  0  0  0  0  0  0  0  0  # atno 11005 bound_to 11000
  144.6910  139.9238  143.7469 LP  0  0  0  0  0  0  0  0  0  0  0  0  # atno 17320 bound_to 7965
  146.0601  139.3595  143.0586 LP  0  0  0  0  0  0  0  0  0  0  0  0  # atno 17321 bound_to 7965
  139.6511  144.7660  151.2146 LP  0  0  0  0  0  0  0  0  0  0  0  0  # atno 17342 bound_to 10162
  140.7535  143.6159  150.8560 LP  0  0  0  0  0  0  0  0  0  0  0  0  # atno 17343 bound_to 10162
  157.6796  130.9127  150.0235 LP  0  0  0  0  0  0  0  0  0  0  0  0  # atno 17370 bound_to 10713
  156.1430  130.3642  149.9553 LP  0  0  0  0  0  0  0  0  0  0  0  0  # atno 17371 bound_to 10713
  140.8114  133.8426  155.8813 LP  0  0  0  0  0  0  0  0  0  0  0  0  # atno 17394 bound_to 11000
  140.9503  134.1787  157.4733 LP  0  0  0  0  0  0  0  0  0  0  0  0  # atno 17395 bound_to 11000

$$$$
