AV-unprocessed.smi:2134|AV-procd|sdf|8695|dock9
  -GOLD-   2272011453D 1   1.00000     0.00000
 Structure written by MMmdl.
 36 37  0  0  0  0  0  0  0  0  2 V2000
  150.9046  141.5110  156.4797 C   0  0  0  0  0  0  0  0  0  0  0  0
  150.6892  140.3636  155.6003 N   0  0  0  0  0  0  0  0  0  0  0  0
  149.4419  140.3103  155.0127 N   0  0  0  0  0  0  0  0  0  0  0  0
  149.0178  139.2537  154.3930 C   0  0  0  0  0  0  0  0  0  0  0  0
  147.6561  139.2382  153.7964 C   0  0  0  0  0  0  0  0  0  0  0  0
  146.8070  140.0645  154.1326 O   0  0  0  0  0  0  0  0  0  0  0  0
  147.4297  138.2887  152.8690 N   0  0  0  0  0  0  0  0  0  0  0  0
  146.1900  138.1086  152.1171 C   0  0  0  0  0  0  0  0  0  0  0  0
  145.2017  137.1691  152.8352 C   0  0  0  0  0  0  0  0  0  0  0  0
  144.8116  135.9526  152.0131 C   0  0  0  0  0  0  0  0  0  0  0  0
  143.9125  134.9915  152.5272 C   0  0  0  0  0  0  0  0  0  0  0  0
  143.5952  133.8571  151.7518 C   0  0  0  0  0  0  0  0  0  0  0  0
  144.1832  133.7094  150.4791 C   0  0  0  0  0  0  0  0  0  0  0  0
  145.0363  134.6506  150.0191 N   0  3  0  0  0  0  0  0  0  0  0  0
  145.3645  135.7517  150.7299 C   0  0  0  0  0  0  0  0  0  0  0  0
  149.8843  138.0135  154.3011 C   0  0  0  0  0  0  0  0  0  0  0  0
  151.3869  138.3488  154.3793 C   0  0  0  0  0  0  0  0  0  0  0  0
  151.6812  139.4634  155.3875 C   0  0  0  0  0  0  0  0  0  0  0  0
  152.7824  139.5169  155.9348 O   0  0  0  0  0  0  0  0  0  0  0  0
  151.7246  142.1288  156.1111 H   0  0  0  0  0  0  0  0  0  0  0  0
  151.1534  141.1807  157.4891 H   0  0  0  0  0  0  0  0  0  0  0  0
  150.0201  142.1460  156.5493 H   0  0  0  0  0  0  0  0  0  0  0  0
  148.1835  137.6491  152.6611 H   0  0  0  0  0  0  0  0  0  0  0  0
  145.7298  139.0880  151.9850 H   0  0  0  0  0  0  0  0  0  0  0  0
  146.4009  137.7371  151.1130 H   0  0  0  0  0  0  0  0  0  0  0  0
  145.6331  136.8387  153.7811 H   0  0  0  0  0  0  0  0  0  0  0  0
  144.2961  137.7196  153.0928 H   0  0  0  0  0  0  0  0  0  0  0  0
  143.4782  135.1145  153.5086 H   0  0  0  0  0  0  0  0  0  0  0  0
  142.9133  133.1095  152.1298 H   0  0  0  0  0  0  0  0  0  0  0  0
  143.9994  132.8729  149.8208 H   0  0  0  0  0  0  0  0  0  0  0  0
  146.0649  136.4265  150.2596 H   0  0  0  0  0  0  0  0  0  0  0  0
  149.6141  137.3263  155.1035 H   0  0  0  0  0  0  0  0  0  0  0  0
  149.6977  137.4830  153.3663 H   0  0  0  0  0  0  0  0  0  0  0  0
  151.9627  137.4564  154.6273 H   0  0  0  0  0  0  0  0  0  0  0  0
  151.7382  138.6883  153.4042 H   0  0  0  0  0  0  0  0  0  0  0  0
  145.4535  134.5235  149.0966 H   0  0  0  0  0  0  0  0  0  0  0  0
  1  2  1  0  0  0  0
  1 20  1  0  0  0  0
  1 21  1  0  0  0  0
  1 22  1  0  0  0  0
  2 18  1  0  0  0  0
  2  3  1  0  0  0  0
  3  4  2  0  0  0  0
  4  5  1  0  0  0  0
  4 16  1  0  0  0  0
  5  6  2  0  0  0  0
  5  7  1  0  0  0  0
  7  8  1  0  0  0  0
  7 23  1  0  0  0  0
  8  9  1  0  0  0  0
  8 24  1  0  0  0  0
  8 25  1  0  0  0  0
  9 10  1  0  0  0  0
  9 26  1  0  0  0  0
  9 27  1  0  0  0  0
 10 15  1  0  0  0  0
 10 11  2  0  0  0  0
 11 12  1  0  0  0  0
 11 28  1  0  0  0  0
 12 13  2  0  0  0  0
 12 29  1  0  0  0  0
 13 14  1  0  0  0  0
 13 30  1  0  0  0  0
 14 15  2  0  0  0  0
 14 36  1  0  0  0  0
 15 31  1  0  0  0  0
 16 17  1  0  0  0  0
 16 32  1  0  0  0  0
 16 33  1  0  0  0  0
 17 18  1  0  0  0  0
 17 34  1  0  0  0  0
 17 35  1  0  0  0  0
 18 19  2  0  0  0  0
M  CHG  1  14   1
M  END
> <s_m_source_file>
AV-unprocessed.smi

> <i_m_source_file_index>
2134

> <i_lp_mmshare_version>
43012

> <i_f3d_flags>
0

> <s_epik_input>
Tz1DMVtDSDJdW0NIMl1DKD1OTjFbQ0gzXSlDKD1PKVtOSF1bQ0gyXVtDSDJdYzJbY0hdW2NIXVtjSF1uW2NIXTI=

> <s_epik_cmdline>
J2VwaWtfcHl0aG9uJywgJy1waCcsICc3LjAnLCAnLXRuJywgJzgnLCAnLW1hJywgJzIwMCcsICctbWV0YWxfYmluZGluZycsICctaW1hZScsICc8aW5maWxlLm1hZT4nLCAnLW9tYWUnLCAnPG91dGZpbGUubWFlPic=

> <r_epik_Ionization_Penalty>
2.46483

> <r_epik_Ionization_Penalty_Charging>
2.46471

> <r_epik_Ionization_Penalty_Neutral>
0.00011851

> <r_epik_State_Penalty>
2.62717

> <r_epik_Charging_Adjusted_Penalty>
5.09187

> <i_epik_Tot_Q>
1

> <i_epik_Tot_abs_Q>
1

> <r_epik_Metal_State_Penalty>
2.80118

> <b_epik_Metal_Only>
0

> <s_epik_Chemistry_Notes>
This compound has an imine and may undergo hydrolysis.

> <s_lp_Force_Field>
OPLS_2005

> <r_lp_Energy>
23.6794

> <b_lp_Chiralities_Consistent>
1

> <s_lp_Variant>
AV-unprocessed.smi:2134-2

> <Gold.Version>
5.8.1

> <Gold.Id.Protein>
6NUR|6NUR_protein|mol2

> <Gold.PLP.Fitness>
45.1898

> <Gold.PLP.PLP>
-37.6099

> <Gold.PLP.part.hbond>
-3.4100

> <Gold.PLP.part.metal>
0.0000

> <Gold.PLP.part.buried>
-4.4927

> <Gold.PLP.part.nonpolar>
-31.1337

> <Gold.PLP.part.repulsive>
0.3405

> <Gold.PLP.ligand.clash>
0.0000

> <Gold.PLP.ligand.torsion>
0.7121

> <Gold.PLP.Chemscore.Hbond>
3.0000

> <Gold.PLP.Chemscore.CHOScore>
0.0000

> <Gold.PLP.Chemscore.Metal>
0.0000

> <Gold.Chemscore.Hbonds>
donor molecule, donor type, donor heavy atom, donor atom, acceptor molecule, acceptor atom, score
      L1  H     7    23       P1  7948  1.00
      L1  H    14    36       P1  7921  1.00
      P1  H  7997  8010       L1    19  1.00

> <Gold.PLP.Chemscore.Internal.Correction>
0.0041

> <Gold.Rescore>
     Score         DG    S(hbond)    S(metal)    S(lipo)     H(rot)  DE(clash)    DE(int)     intcor
     19.07     -19.72       2.97        0.00      69.95       1.52       0.02       0.64       ----

> <Gold.Chemscore.Fitness>
19.0672

> <Gold.Chemscore.DG>
-19.7190

> <Gold.Chemscore.ZeroCoef>
-5.4800

> <Gold.Chemscore.Hbond>
2.9744

> <Gold.Chemscore.Metal>
0.0000

> <Gold.Chemscore.Lipo>
69.9543

> <Gold.Chemscore.Internal_Hbond>
0.0000

> <Gold.Chemscore.DEClash>
0.0165

> <Gold.Chemscore.DEInternal>
0.6353

> <Gold.Chemscore.Rot>
1.5157

> <Gold.Chemscore.Internal.Correction>
   9.000000E+99

> <Gold.Chemscore.Hbonds>
donor molecule, donor type, donor heavy atom, donor atom, acceptor molecule, acceptor atom, score
      L1  H     7    23       P1  7948  0.99
      L1  H    14    36       P1  7921  0.98
      P1  H  7997  8010       L1    19  1.00

> <Gold.Chemscore.Hbond.Weighted>
-9.9345

> <Gold.Chemscore.Metal.Weighted>
-0.0000

> <Gold.Chemscore.Lipo.Weighted>
-8.1847

> <Gold.Chemscore.Internal_Hbond.Weighted>
0.0000

> <Gold.Chemscore.DEClash.Weighted>
0.0165

> <Gold.Chemscore.DEInternal.Weighted>
0.6353

> <Gold.Chemscore.Rot.Weighted>
3.8801

> <Gold.Chemscore.Internal.Correction.Weighted>
   9.000000E+99

> <Gold.Protein.RotatedTorsions>
[ 6907 6896 6895 6894 ] final -139.17 input  -60.11 | X-H torsion
[ 7974 7965 7964 7962 ] final   -6.46 input  175.53 | X-H torsion
[ 8008 7997 7996 7995 ] final   78.66 input   59.86 | X-H torsion
[ 10167 10162 10161 10158 ] final  -76.31 input  -65.29 | X-H torsion
[ 10718 10713 10712 10709 ] final   29.77 input   66.30 | X-H torsion
[ 10763 10752 10751 10750 ] final -179.24 input  -60.55 | X-H torsion
[ 11005 11000 10999 10996 ] final  -87.18 input  -57.11 | X-H torsion

> <Gold.Protein.ActiveResidues>
 VAL166  LYS551  ARG553  GLY616  TRP617  ASP618  TYR619  PRO620  LYS621  CYS622 
 ASP623  PHE694  ASN695  SER759  ASP760  ASP761  ALA762  ILE779  LEU786  VAL792 
 PHE793  MET794  SER795  GLU796  ALA797  LYS798  CYS799  TRP800  GLU811  SER814 

> <Gold.Protein.RotatedAtoms>
  151.0443  133.5679  159.2647 H   0  0  0  0  0  0  0  0  0  0  0  0  # atno 6907 bound_to 6896
  151.2713  135.0684  159.9145 H   0  0  0  0  0  0  0  0  0  0  0  0  # atno 6908 bound_to 6896
  152.5370  134.0173  159.8019 H   0  0  0  0  0  0  0  0  0  0  0  0  # atno 6909 bound_to 6896
  146.2330  140.2174  142.8336 H   0  0  0  0  0  0  0  0  0  0  0  0  # atno 7974 bound_to 7965
  155.8588  140.3454  155.5742 H   0  0  0  0  0  0  0  0  0  0  0  0  # atno 8008 bound_to 7997
  155.7957  140.0878  157.2004 H   0  0  0  0  0  0  0  0  0  0  0  0  # atno 8009 bound_to 7997
  154.4011  140.1475  156.3202 H   0  0  0  0  0  0  0  0  0  0  0  0  # atno 8010 bound_to 7997
  140.4868  143.2389  151.7971 H   0  0  0  0  0  0  0  0  0  0  0  0  # atno 10167 bound_to 10162
  157.2509  130.7114  149.6405 H   0  0  0  0  0  0  0  0  0  0  0  0  # atno 10718 bound_to 10713
  154.5376  135.2804  155.1124 H   0  0  0  0  0  0  0  0  0  0  0  0  # atno 10763 bound_to 10752
  154.2620  135.6320  153.5282 H   0  0  0  0  0  0  0  0  0  0  0  0  # atno 10764 bound_to 10752
  152.9971  135.5608  154.5906 H   0  0  0  0  0  0  0  0  0  0  0  0  # atno 10765 bound_to 10752
  141.1620  133.7497  156.9270 H   0  0  0  0  0  0  0  0  0  0  0  0  # atno 11005 bound_to 11000
  144.9658  140.8321  143.5485 LP  0  0  0  0  0  0  0  0  0  0  0  0  # atno 17320 bound_to 7965
  145.2150  139.2186  143.5123 LP  0  0  0  0  0  0  0  0  0  0  0  0  # atno 17321 bound_to 7965
  139.4843  144.4701  151.9435 LP  0  0  0  0  0  0  0  0  0  0  0  0  # atno 17342 bound_to 10162
  140.3787  144.2763  150.5911 LP  0  0  0  0  0  0  0  0  0  0  0  0  # atno 17343 bound_to 10162
  155.9666  130.4428  150.5395 LP  0  0  0  0  0  0  0  0  0  0  0  0  # atno 17370 bound_to 10713
  157.3279  131.0694  151.1883 LP  0  0  0  0  0  0  0  0  0  0  0  0  # atno 17371 bound_to 10713
  140.1412  134.9292  157.2470 LP  0  0  0  0  0  0  0  0  0  0  0  0  # atno 17394 bound_to 11000
  140.2834  134.3324  155.7336 LP  0  0  0  0  0  0  0  0  0  0  0  0  # atno 17395 bound_to 11000

$$$$
