#       Name:                AV-unprocessed.smi:724
#       Creating user name   scv26
#       Creation time:       Fri Mar 27 00:50:24 2020


#       File generated by GOLD software.
#

@<TRIPOS>MOLECULE
AV-unprocessed.smi:724
    42    43     1
SMALL
NO_CHARGES


@<TRIPOS>ATOM
      1 ****        -0.6998   2.1767  -0.4979 C.3            1 S1                 0.0000
      2 ****        -1.7053   1.1919  -1.1299 C.3            1 S1                 0.0000
      3 ****        -3.1261   1.5362  -0.6373 C.3            1 S1                 0.0000
      4 ****        -1.6577   1.3433  -2.6688 C.3            1 S1                 0.0000
      5 ****        -1.3479  -0.2390  -0.6618 C.2            1 S1                 0.0000
      6 ****        -1.3791  -0.5087   0.5402 O.2            1 S1                 0.0000
      7 ****        -0.9875  -1.1438  -1.5901 N.am           1 S1                 0.0000
      8 ****        -0.5376  -2.5087  -1.3206 C.3            1 S1                 0.0000
      9 ****         0.9991  -2.6303  -1.2866 C.3            1 S1                 0.0000
     10 ****         1.6598  -1.6776  -0.3433 C.2            1 S1                 0.0000
     11 ****         1.8014  -1.8200   0.9718 N.2            1 S1                 0.0000
     12 ****         2.3308  -0.6118   1.3072 C.2            1 S1                 0.0000
     13 ****         2.6806  -0.2438   2.7128 C.3            1 S1                 0.0000
     14 ****         1.6428  -0.3374   3.8115 C.3            1 S1                 0.0000
     15 ****         2.1151   1.0115   3.3437 C.3            1 S1                 0.0000
     16 ****         2.5610   0.2226   0.3011 N.2            1 S1                 0.0000
     17 ****         2.0888  -0.4816  -0.8151 O.3            1 S1                 0.0000
     18 ****        -0.9225   3.2053  -0.7831 H              1 S1                 0.0000
     19 ****         0.3210   1.9644  -0.8188 H              1 S1                 0.0000
     20 ****        -0.7167   2.1336   0.5922 H              1 S1                 0.0000
     21 ****        -3.2005   1.4967   0.4506 H              1 S1                 0.0000
     22 ****        -3.8677   0.8464  -1.0434 H              1 S1                 0.0000
     23 ****        -3.4162   2.5422  -0.9424 H              1 S1                 0.0000
     24 ****        -1.9146   2.3596  -2.9694 H              1 S1                 0.0000
     25 ****        -2.3647   0.6756  -3.1632 H              1 S1                 0.0000
     26 ****        -0.6632   1.1353  -3.0669 H              1 S1                 0.0000
     27 ****        -0.9880  -0.8484  -2.5558 H              1 S1                 0.0000
     28 ****        -0.9559  -2.8672  -0.3785 H              1 S1                 0.0000
     29 ****        -0.9390  -3.1622  -2.0952 H              1 S1                 0.0000
     30 ****         1.2838  -3.6466  -1.0126 H              1 S1                 0.0000
     31 ****         1.4020  -2.4574  -2.2852 H              1 S1                 0.0000
     32 ****         3.7055  -0.5218   2.9503 H              1 S1                 0.0000
     33 ****         0.6348  -0.6389   3.5327 H              1 S1                 0.0000
     34 ****         1.9776  -0.6774   4.7893 H              1 S1                 0.0000
     35 ****         2.7656   1.5754   4.0090 H              1 S1                 0.0000
     36 ****         1.4205   1.6075   2.7544 H              1 S1                 0.0000
     37 ****        -1.6339   0.1945   1.2039 LP             1 S1                 0.0000
     38 ****        -1.1497  -1.4308   0.8518 LP             1 S1                 0.0000
     39 ****         1.5795  -2.6016   1.5548 LP             1 S1                 0.0000
     40 ****         2.9721   1.1336   0.3319 LP             1 S1                 0.0000
     41 ****         1.3344   0.0137  -1.2457 LP             1 S1                 0.0000
     42 ****         2.8239  -0.6132  -1.4803 LP             1 S1                 0.0000
@<TRIPOS>BOND
    1    1    2 1     
    2    1   18 1     
    3    1   19 1     
    4    1   20 1     
    5    2    3 1     
    6    2    4 1     
    7    2    5 1     
    8    3   21 1     
    9    3   22 1     
   10    3   23 1     
   11    4   24 1     
   12    4   25 1     
   13    4   26 1     
   14    5    6 2     
   15    5    7 am    
   16    7    8 1     
   17    7   27 1     
   18    8    9 1     
   19    8   28 1     
   20    8   29 1     
   21    9   10 1     
   22    9   30 1     
   23    9   31 1     
   24   10   17 1     
   25   10   11 2     
   26   11   12 1     
   27   12   13 1     
   28   12   16 2     
   29   13   15 1     
   30   13   14 1     
   31   13   32 1     
   32   14   15 1     
   33   14   33 1     
   34   14   34 1     
   35   15   35 1     
   36   15   36 1     
   37   16   17 1     
   38    6   37 1     
   39    6   38 1     
   40   11   39 1     
   41   16   40 1     
   42   17   41 1     
   43   17   42 1     
@<TRIPOS>SUBSTRUCTURE
      1 S1             1
@<TRIPOS>SET
LONE_PAIRS      STATIC     ATOMS    <user>   **** ""
6 37 38 39 40 41 42
DONOR_HYDROGENS      STATIC     ATOMS    <user>   **** ""
1 27
ATOM$BLUE        STATIC     ATOMS    COLORGROUP SYSTEM
6 37 38 39 40 41 42
ATOM$RED        STATIC     ATOMS    COLORGROUP SYSTEM
1 27
