AV-unprocessed.smi:3157|AV-procd|sdf|12038|dock9
  -GOLD-   2272017463D 1   1.00000     0.00000
 Structure written by MMmdl.
 40 41  0  0  0  0  0  0  0  0  2 V2000
  147.9916  140.6650  156.6723 C   0  0  0  0  0  0  0  0  0  0  0  0
  148.5241  141.5057  155.4922 C   0  0  1  0  0  0  0  0  0  0  0  0
  149.7185  142.2723  155.9149 N   0  3  0  0  0  0  0  0  0  0  0  0
  150.3467  141.8193  157.1738 C   0  0  0  0  0  0  0  0  0  0  0  0
  151.2888  142.8929  157.7411 C   0  0  0  0  0  0  0  0  0  0  0  0
  152.3421  142.3516  158.7158 C   0  0  0  0  0  0  0  0  0  0  0  0
  152.7519  143.5446  159.5906 C   0  0  0  0  0  0  0  0  0  0  0  0
  151.6763  144.6218  159.3887 C   0  0  0  0  0  0  0  0  0  0  0  0
  150.5681  143.9590  158.5680 C   0  0  0  0  0  0  0  0  0  0  0  0
  148.8675  140.6484  154.2459 C   0  0  2  0  0  0  0  0  0  0  0  0
  147.6772  139.7967  153.7664 C   0  0  0  0  0  0  0  0  0  0  0  0
  150.0269  139.7936  154.4722 N   0  0  0  0  0  0  0  0  0  0  0  0
  150.1513  138.4328  154.2718 C   0  0  0  0  0  0  0  0  0  0  0  0
  151.4189  138.0803  154.6362 C   0  0  0  0  0  0  0  0  0  0  0  0
  152.0042  139.3078  155.0534 C   0  0  0  0  0  0  0  0  0  0  0  0
  151.1692  140.3295  154.9554 N   0  0  0  0  0  0  0  0  0  0  0  0
  147.0618  140.1551  156.4197 H   0  0  0  0  0  0  0  0  0  0  0  0
  147.7786  141.2794  157.5464 H   0  0  0  0  0  0  0  0  0  0  0  0
  148.7141  139.9046  156.9710 H   0  0  0  0  0  0  0  0  0  0  0  0
  147.7472  142.2156  155.2032 H   0  0  0  0  0  0  0  0  0  0  0  0
  150.4013  142.2470  155.1709 H   0  0  0  0  0  0  0  0  0  0  0  0
  149.5590  141.6058  157.8976 H   0  0  0  0  0  0  0  0  0  0  0  0
  150.8928  140.8897  157.0154 H   0  0  0  0  0  0  0  0  0  0  0  0
  151.8000  143.3964  156.9184 H   0  0  0  0  0  0  0  0  0  0  0  0
  151.9028  141.5784  159.3480 H   0  0  0  0  0  0  0  0  0  0  0  0
  153.1938  141.9065  158.2006 H   0  0  0  0  0  0  0  0  0  0  0  0
  152.8262  143.2476  160.6373 H   0  0  0  0  0  0  0  0  0  0  0  0
  153.7282  143.9281  159.2921 H   0  0  0  0  0  0  0  0  0  0  0  0
  151.3031  145.0177  160.3337 H   0  0  0  0  0  0  0  0  0  0  0  0
  152.0983  145.4573  158.8285 H   0  0  0  0  0  0  0  0  0  0  0  0
  150.0244  144.6739  157.9494 H   0  0  0  0  0  0  0  0  0  0  0  0
  149.8490  143.4886  159.2401 H   0  0  0  0  0  0  0  0  0  0  0  0
  149.1247  141.3318  153.4335 H   0  0  0  0  0  0  0  0  0  0  0  0
  146.8273  140.4180  153.4839 H   0  0  0  0  0  0  0  0  0  0  0  0
  147.3397  139.1072  154.5411 H   0  0  0  0  0  0  0  0  0  0  0  0
  147.9486  139.2049  152.8915 H   0  0  0  0  0  0  0  0  0  0  0  0
  149.3362  137.8341  153.8929 H   0  0  0  0  0  0  0  0  0  0  0  0
  151.8611  137.0953  154.6098 H   0  0  0  0  0  0  0  0  0  0  0  0
  153.0034  139.4854  155.4233 H   0  0  0  0  0  0  0  0  0  0  0  0
  149.4344  143.2315  156.0539 H   0  0  0  0  0  0  0  0  0  0  0  0
  1  2  1  0  0  0  0
  1 17  1  0  0  0  0
  1 18  1  0  0  0  0
  1 19  1  0  0  0  0
  2  3  1  0  0  0  0
  2 10  1  0  0  0  0
  2 20  1  0  0  0  0
  3  4  1  0  0  0  0
  3 21  1  0  0  0  0
  3 40  1  0  0  0  0
  4  5  1  0  0  0  0
  4 22  1  0  0  0  0
  4 23  1  0  0  0  0
  5  9  1  0  0  0  0
  5  6  1  0  0  0  0
  5 24  1  0  0  0  0
  6  7  1  0  0  0  0
  6 25  1  0  0  0  0
  6 26  1  0  0  0  0
  7  8  1  0  0  0  0
  7 27  1  0  0  0  0
  7 28  1  0  0  0  0
  8  9  1  0  0  0  0
  8 29  1  0  0  0  0
  8 30  1  0  0  0  0
  9 31  1  0  0  0  0
  9 32  1  0  0  0  0
 10 11  1  0  0  0  0
 10 12  1  0  0  0  0
 10 33  1  0  0  0  0
 11 34  1  0  0  0  0
 11 35  1  0  0  0  0
 11 36  1  0  0  0  0
 12 16  1  0  0  0  0
 12 13  1  0  0  0  0
 13 14  2  0  0  0  0
 13 37  1  0  0  0  0
 14 15  1  0  0  0  0
 14 38  1  0  0  0  0
 15 16  2  0  0  0  0
 15 39  1  0  0  0  0
M  CHG  1   3   1
M  END
> <s_m_source_file>
AV-unprocessed.smi

> <i_m_source_file_index>
3157

> <i_lp_mmshare_version>
43012

> <i_f3d_flags>
0

> <s_epik_input>
bjFbY0hdW2NIXVtjSF1uMVtDQEBIXShbQ0gzXSlbQ0BIXShbQ0gzXSlbTkhdW0NIMl1bQ0hdMltDSDJdW0NIMl1bQ0gyXVtDSDJdMg==

> <s_epik_cmdline>
J2VwaWtfcHl0aG9uJywgJy1waCcsICc3LjAnLCAnLXRuJywgJzgnLCAnLW1hJywgJzIwMCcsICctbWV0YWxfYmluZGluZycsICctaW1hZScsICc8aW5maWxlLm1hZT4nLCAnLW9tYWUnLCAnPG91dGZpbGUubWFlPic=

> <r_lp_tautomer_probability>
1

> <r_epik_Ionization_Penalty>
0.00132192

> <r_epik_Ionization_Penalty_Charging>
0.0013111

> <r_epik_Ionization_Penalty_Neutral>
1.08112e-05

> <r_epik_State_Penalty>
-0

> <r_epik_Charging_Adjusted_Penalty>
0.0013111

> <i_epik_Tot_Q>
1

> <i_epik_Tot_abs_Q>
1

> <r_epik_Metal_State_Penalty>
-0

> <b_epik_Metal_Only>
0

> <s_lp_Force_Field>
OPLS_2005

> <r_lp_Energy>
32.0676

> <b_lp_Chiralities_Consistent>
1

> <s_lp_Variant>
AV-unprocessed.smi:3157-2

> <Gold.Version>
5.8.1

> <Gold.Id.Protein>
6NUR|6NUR_protein|mol2

> <Gold.PLP.Fitness>
44.2629

> <Gold.PLP.PLP>
-37.6128

> <Gold.PLP.part.hbond>
-2.0000

> <Gold.PLP.part.metal>
0.0000

> <Gold.PLP.part.buried>
-3.1284

> <Gold.PLP.part.nonpolar>
-33.1335

> <Gold.PLP.part.repulsive>
0.1916

> <Gold.PLP.ligand.clash>
2.8562

> <Gold.PLP.ligand.torsion>
1.0637

> <Gold.PLP.Chemscore.Hbond>
2.8500

> <Gold.PLP.Chemscore.CHOScore>
1.0000

> <Gold.PLP.Chemscore.Metal>
0.0000

> <Gold.Chemscore.Hbonds>
donor molecule, donor type, donor heavy atom, donor atom, acceptor molecule, acceptor atom, score
      L1  H     3    40       P1  8028  2.00
      P1  H  7989  7998       L1    16  0.63
      L1  C    13    37       P1  7948  0.85

> <Gold.PLP.Chemscore.Internal.Correction>
0.0837

> <Gold.Rescore>
     Score         DG    S(hbond)    S(metal)    S(lipo)     H(rot)  DE(clash)    DE(int)     intcor
     17.49     -20.33       1.92        0.00     105.00       1.50       0.16       2.68       ----

> <Gold.Chemscore.Fitness>
17.4906

> <Gold.Chemscore.DG>
-20.3280

> <Gold.Chemscore.ZeroCoef>
-5.4800

> <Gold.Chemscore.Hbond>
1.9205

> <Gold.Chemscore.Metal>
0.0000

> <Gold.Chemscore.Lipo>
105.0043

> <Gold.Chemscore.Internal_Hbond>
0.0000

> <Gold.Chemscore.DEClash>
0.1613

> <Gold.Chemscore.DEInternal>
2.6762

> <Gold.Chemscore.Rot>
1.5047

> <Gold.Chemscore.Internal.Correction>
   9.000000E+99

> <Gold.Chemscore.Hbonds>
donor molecule, donor type, donor heavy atom, donor atom, acceptor molecule, acceptor atom, score
      L1  H     3    40       P1  8028  0.99
      P1  H  7989  7998       L1    16  0.01

> <Gold.Chemscore.Hbond.Weighted>
-6.4145

> <Gold.Chemscore.Metal.Weighted>
-0.0000

> <Gold.Chemscore.Lipo.Weighted>
-12.2855

> <Gold.Chemscore.Internal_Hbond.Weighted>
0.0000

> <Gold.Chemscore.DEClash.Weighted>
0.1613

> <Gold.Chemscore.DEInternal.Weighted>
2.6762

> <Gold.Chemscore.Rot.Weighted>
3.8520

> <Gold.Chemscore.Internal.Correction.Weighted>
   9.000000E+99

> <Gold.Protein.RotatedTorsions>
[ 6907 6896 6895 6894 ] final  125.29 input  -60.11 | X-H torsion
[ 7974 7965 7964 7962 ] final  123.08 input  175.53 | X-H torsion
[ 8008 7997 7996 7995 ] final  140.85 input   59.86 | X-H torsion
[ 10167 10162 10161 10158 ] final -111.67 input  -65.29 | X-H torsion
[ 10718 10713 10712 10709 ] final  153.69 input   66.30 | X-H torsion
[ 10763 10752 10751 10750 ] final  104.55 input  -60.55 | X-H torsion
[ 11005 11000 10999 10996 ] final   22.16 input  -57.11 | X-H torsion

> <Gold.Protein.ActiveResidues>
 VAL166  LYS551  ARG553  GLY616  TRP617  ASP618  TYR619  PRO620  LYS621  CYS622 
 ASP623  PHE694  ASN695  SER759  ASP760  ASP761  ALA762  ILE779  LEU786  VAL792 
 PHE793  MET794  SER795  GLU796  ALA797  LYS798  CYS799  TRP800  GLU811  SER814 

> <Gold.Protein.RotatedAtoms>
  152.4005  133.6810  159.6311 H   0  0  0  0  0  0  0  0  0  0  0  0  # atno 6907 bound_to 6896
  150.7897  133.8800  159.3292 H   0  0  0  0  0  0  0  0  0  0  0  0  # atno 6908 bound_to 6896
  151.6566  135.0996  160.0222 H   0  0  0  0  0  0  0  0  0  0  0  0  # atno 6909 bound_to 6896
  145.1000  139.3525  143.4816 H   0  0  0  0  0  0  0  0  0  0  0  0  # atno 7974 bound_to 7965
  156.2974  140.2330  156.4468 H   0  0  0  0  0  0  0  0  0  0  0  0  # atno 8008 bound_to 7997
  154.8137  140.0441  157.1381 H   0  0  0  0  0  0  0  0  0  0  0  0  # atno 8009 bound_to 7997
  154.9394  140.3027  155.5131 H   0  0  0  0  0  0  0  0  0  0  0  0  # atno 8010 bound_to 7997
  140.1311  143.4360  152.1626 H   0  0  0  0  0  0  0  0  0  0  0  0  # atno 10167 bound_to 10162
  157.2415  131.0760  151.1789 H   0  0  0  0  0  0  0  0  0  0  0  0  # atno 10718 bound_to 10713
  153.3674  135.3939  155.1763 H   0  0  0  0  0  0  0  0  0  0  0  0  # atno 10763 bound_to 10752
  154.8689  135.3694  154.5021 H   0  0  0  0  0  0  0  0  0  0  0  0  # atno 10764 bound_to 10752
  153.5486  135.7083  153.5663 H   0  0  0  0  0  0  0  0  0  0  0  0  # atno 10765 bound_to 10752
  140.3836  134.1894  155.7663 H   0  0  0  0  0  0  0  0  0  0  0  0  # atno 11005 bound_to 11000
  146.3530  140.0873  142.8614 LP  0  0  0  0  0  0  0  0  0  0  0  0  # atno 17320 bound_to 7965
  145.0966  140.9319  143.4737 LP  0  0  0  0  0  0  0  0  0  0  0  0  # atno 17321 bound_to 7965
  139.5519  144.7344  151.4409 LP  0  0  0  0  0  0  0  0  0  0  0  0  # atno 17342 bound_to 10162
  140.6816  143.8068  150.7129 LP  0  0  0  0  0  0  0  0  0  0  0  0  # atno 17343 bound_to 10162
  157.3374  130.7016  149.6360 LP  0  0  0  0  0  0  0  0  0  0  0  0  # atno 17370 bound_to 10713
  155.9670  130.4290  150.4812 LP  0  0  0  0  0  0  0  0  0  0  0  0  # atno 17371 bound_to 10713
  141.1915  133.8194  157.0877 LP  0  0  0  0  0  0  0  0  0  0  0  0  # atno 17394 bound_to 11000
  140.0459  134.9830  157.1049 LP  0  0  0  0  0  0  0  0  0  0  0  0  # atno 17395 bound_to 11000

$$$$
