AV-unprocessed.smi:1360|AV-procd|sdf|5554|dock10
  -GOLD-   22720 5143D 1   1.00000     0.00000
 Structure written by MMmdl.
 36 37  0  0  0  0  0  0  0  0  1 V2000
  147.1344  142.0532  155.2320 C   0  0  0  0  0  0  0  0  0  0  0  0
  148.4204  141.2719  155.5477 C   0  0  1  0  0  0  0  0  0  0  0  0
  149.1933  140.8311  154.2858 C   0  0  0  0  0  0  0  0  0  0  0  0
  150.1989  139.8230  154.5675 N   0  0  0  0  0  0  0  0  0  0  0  0
  150.3605  138.5896  153.9726 C   0  0  0  0  0  0  0  0  0  0  0  0
  151.4385  137.9929  154.5610 C   0  0  0  0  0  0  0  0  0  0  0  0
  151.8740  138.9509  155.5187 C   0  0  0  0  0  0  0  0  0  0  0  0
  151.1287  140.0445  155.5221 N   0  0  0  0  0  0  0  0  0  0  0  0
  149.2778  142.0908  156.3997 N   0  0  0  0  0  0  0  0  0  0  0  0
  149.8175  141.7027  157.5658 C   0  0  0  0  0  0  0  0  0  0  0  0
  149.6501  140.5820  158.0481 O   0  0  0  0  0  0  0  0  0  0  0  0
  150.6816  142.7388  158.2965 C   0  0  1  0  0  0  0  0  0  0  0  0
  151.7688  143.3167  157.3622 C   0  0  0  0  0  0  0  0  0  0  0  0
  152.4769  144.5099  157.9792 C   0  0  0  0  0  0  0  0  0  0  0  0
  151.9946  145.1917  159.0322 C   0  0  0  0  0  0  0  0  0  0  0  0
  150.6846  144.8503  159.7207 C   0  0  0  0  0  0  0  0  0  0  0  0
  149.8259  143.8750  158.8925 C   0  0  0  0  0  0  0  0  0  0  0  0
  146.4243  141.4453  154.6712 H   0  0  0  0  0  0  0  0  0  0  0  0
  147.3473  142.9458  154.6427 H   0  0  0  0  0  0  0  0  0  0  0  0
  146.6339  142.3695  156.1477 H   0  0  0  0  0  0  0  0  0  0  0  0
  148.1275  140.3795  156.1040 H   0  0  0  0  0  0  0  0  0  0  0  0
  148.5036  140.4429  153.5345 H   0  0  0  0  0  0  0  0  0  0  0  0
  149.6966  141.6854  153.8311 H   0  0  0  0  0  0  0  0  0  0  0  0
  149.7028  138.2451  153.1879 H   0  0  0  0  0  0  0  0  0  0  0  0
  151.8527  137.0201  154.3414 H   0  0  0  0  0  0  0  0  0  0  0  0
  152.7029  138.8846  156.2078 H   0  0  0  0  0  0  0  0  0  0  0  0
  149.4727  143.0283  156.0790 H   0  0  0  0  0  0  0  0  0  0  0  0
  151.1824  142.2369  159.1269 H   0  0  0  0  0  0  0  0  0  0  0  0
  152.5107  142.5487  157.1406 H   0  0  0  0  0  0  0  0  0  0  0  0
  151.3456  143.6336  156.4079 H   0  0  0  0  0  0  0  0  0  0  0  0
  153.4079  144.8136  157.5233 H   0  0  0  0  0  0  0  0  0  0  0  0
  152.5535  146.0239  159.4343 H   0  0  0  0  0  0  0  0  0  0  0  0
  150.9176  144.4144  160.6927 H   0  0  0  0  0  0  0  0  0  0  0  0
  150.1268  145.7679  159.9090 H   0  0  0  0  0  0  0  0  0  0  0  0
  149.3394  144.4264  158.0860 H   0  0  0  0  0  0  0  0  0  0  0  0
  149.0257  143.4725  159.5152 H   0  0  0  0  0  0  0  0  0  0  0  0
  1  2  1  0  0  0  0
  1 18  1  0  0  0  0
  1 19  1  0  0  0  0
  1 20  1  0  0  0  0
  2  3  1  0  0  0  0
  2  9  1  0  0  0  0
  2 21  1  0  0  0  0
  3  4  1  0  0  0  0
  3 22  1  0  0  0  0
  3 23  1  0  0  0  0
  4  8  1  0  0  0  0
  4  5  1  0  0  0  0
  5  6  2  0  0  0  0
  5 24  1  0  0  0  0
  6  7  1  0  0  0  0
  6 25  1  0  0  0  0
  7  8  2  0  0  0  0
  7 26  1  0  0  0  0
  9 10  1  0  0  0  0
  9 27  1  0  0  0  0
 10 11  2  0  0  0  0
 10 12  1  0  0  0  0
 12 17  1  0  0  0  0
 12 13  1  0  0  0  0
 12 28  1  0  0  0  0
 13 14  1  0  0  0  0
 13 29  1  0  0  0  0
 13 30  1  0  0  0  0
 14 15  2  0  0  0  0
 14 31  1  0  0  0  0
 15 16  1  0  0  0  0
 15 32  1  0  0  0  0
 16 17  1  0  0  0  0
 16 33  1  0  0  0  0
 16 34  1  0  0  0  0
 17 35  1  0  0  0  0
 17 36  1  0  0  0  0
M  END
> <s_m_source_file>
AV-unprocessed.smi

> <i_m_source_file_index>
1360

> <i_lp_mmshare_version>
43012

> <i_f3d_flags>
0

> <s_epik_input>
bjFbY0hdW2NIXVtjSF1uMVtDSDJdW0NAQEhdKFtDSDNdKVtOSF1DKD1PKVtDQEBIXTJbQ0gyXVtDSF09W0NIXVtDSDJdW0NIMl0y

> <s_epik_cmdline>
J2VwaWtfcHl0aG9uJywgJy1waCcsICc3LjAnLCAnLXRuJywgJzgnLCAnLW1hJywgJzIwMCcsICctbWV0YWxfYmluZGluZycsICctaW1hZScsICc8aW5maWxlLm1hZT4nLCAnLW9tYWUnLCAnPG91dGZpbGUubWFlPic=

> <r_lp_tautomer_probability>
1

> <r_epik_Ionization_Penalty>
0.000315076

> <r_epik_Ionization_Penalty_Charging>
0

> <r_epik_Ionization_Penalty_Neutral>
0.000315076

> <r_epik_State_Penalty>
-0

> <r_epik_Charging_Adjusted_Penalty>
0

> <i_epik_Tot_Q>
0

> <i_epik_Tot_abs_Q>
0

> <r_epik_Metal_State_Penalty>
-0

> <b_epik_Metal_Only>
0

> <s_lp_Force_Field>
OPLS_2005

> <r_lp_Energy>
7.88056

> <b_lp_Chiralities_Consistent>
1

> <s_lp_Variant>
AV-unprocessed.smi:1360-4

> <Gold.Version>
5.8.1

> <Gold.Id.Protein>
6NUR|6NUR_protein|mol2

> <Gold.PLP.Fitness>
46.2165

> <Gold.PLP.PLP>
-39.1265

> <Gold.PLP.part.hbond>
-1.8855

> <Gold.PLP.part.metal>
0.0000

> <Gold.PLP.part.buried>
-2.2139

> <Gold.PLP.part.nonpolar>
-34.4389

> <Gold.PLP.part.repulsive>
0.0682

> <Gold.PLP.ligand.clash>
0.0000

> <Gold.PLP.ligand.torsion>
0.4030

> <Gold.PLP.Chemscore.Hbond>
1.0000

> <Gold.PLP.Chemscore.CHOScore>
1.6208

> <Gold.PLP.Chemscore.Metal>
0.0000

> <Gold.Chemscore.Hbonds>
donor molecule, donor type, donor heavy atom, donor atom, acceptor molecule, acceptor atom, score
      L1  H     9    27       P1  8028  0.99
      L1  C     5    24       P1  7948  1.00
      L1  C     5    24       P1  7957  0.37

> <Gold.PLP.Chemscore.Internal.Correction>
0.0335

> <Gold.Rescore>
     Score         DG    S(hbond)    S(metal)    S(lipo)     H(rot)  DE(clash)    DE(int)     intcor
     16.54     -17.07       1.00        0.00     103.51       1.51       0.22       0.31       ----

> <Gold.Chemscore.Fitness>
16.5445

> <Gold.Chemscore.DG>
-17.0732

> <Gold.Chemscore.ZeroCoef>
-5.4800

> <Gold.Chemscore.Hbond>
0.9990

> <Gold.Chemscore.Metal>
0.0000

> <Gold.Chemscore.Lipo>
103.5144

> <Gold.Chemscore.Internal_Hbond>
0.0000

> <Gold.Chemscore.DEClash>
0.2174

> <Gold.Chemscore.DEInternal>
0.3113

> <Gold.Chemscore.Rot>
1.5057

> <Gold.Chemscore.Internal.Correction>
   9.000000E+99

> <Gold.Chemscore.Hbonds>
donor molecule, donor type, donor heavy atom, donor atom, acceptor molecule, acceptor atom, score
      L1  H     9    27       P1  8028  0.94

> <Gold.Chemscore.Hbond.Weighted>
-3.3367

> <Gold.Chemscore.Metal.Weighted>
-0.0000

> <Gold.Chemscore.Lipo.Weighted>
-12.1112

> <Gold.Chemscore.Internal_Hbond.Weighted>
0.0000

> <Gold.Chemscore.DEClash.Weighted>
0.2174

> <Gold.Chemscore.DEInternal.Weighted>
0.3113

> <Gold.Chemscore.Rot.Weighted>
3.8546

> <Gold.Chemscore.Internal.Correction.Weighted>
   9.000000E+99

> <Gold.Protein.RotatedTorsions>
[ 6907 6896 6895 6894 ] final -179.33 input  -60.11 | X-H torsion
[ 7974 7965 7964 7962 ] final -111.30 input  175.53 | X-H torsion
[ 8008 7997 7996 7995 ] final -176.44 input   59.86 | X-H torsion
[ 10167 10162 10161 10158 ] final -142.14 input  -65.29 | X-H torsion
[ 10718 10713 10712 10709 ] final  -84.45 input   66.30 | X-H torsion
[ 10763 10752 10751 10750 ] final  -11.00 input  -60.55 | X-H torsion
[ 11005 11000 10999 10996 ] final -122.59 input  -57.11 | X-H torsion

> <Gold.Protein.ActiveResidues>
 VAL166  LYS551  ARG553  GLY616  TRP617  ASP618  TYR619  PRO620  LYS621  CYS622 
 ASP623  PHE694  ASN695  SER759  ASP760  ASP761  ALA762  ILE779  LEU786  VAL792 
 PHE793  MET794  SER795  GLU796  ALA797  LYS798  CYS799  TRP800  GLU811  SER814 

> <Gold.Protein.RotatedAtoms>
  151.6517  133.3320  159.3153 H   0  0  0  0  0  0  0  0  0  0  0  0  # atno 6907 bound_to 6896
  150.7957  134.7018  159.6564 H   0  0  0  0  0  0  0  0  0  0  0  0  # atno 6908 bound_to 6896
  152.4043  134.6237  160.0109 H   0  0  0  0  0  0  0  0  0  0  0  0  # atno 6909 bound_to 6896
  145.1578  140.8863  143.3608 H   0  0  0  0  0  0  0  0  0  0  0  0  # atno 7974 bound_to 7965
  155.9949  140.1208  157.0603 H   0  0  0  0  0  0  0  0  0  0  0  0  # atno 8008 bound_to 7997
  154.4223  140.1118  156.5684 H   0  0  0  0  0  0  0  0  0  0  0  0  # atno 8009 bound_to 7997
  155.6293  140.3473  155.4679 H   0  0  0  0  0  0  0  0  0  0  0  0  # atno 8010 bound_to 7997
  139.8117  143.7693  152.2663 H   0  0  0  0  0  0  0  0  0  0  0  0  # atno 10167 bound_to 10162
  156.0006  130.4698  150.4412 H   0  0  0  0  0  0  0  0  0  0  0  0  # atno 10718 bound_to 10713
  153.4774  135.7017  153.5958 H   0  0  0  0  0  0  0  0  0  0  0  0  # atno 10763 bound_to 10752
  153.4186  135.3831  155.2097 H   0  0  0  0  0  0  0  0  0  0  0  0  # atno 10764 bound_to 10752
  154.8723  135.3922  154.4219 H   0  0  0  0  0  0  0  0  0  0  0  0  # atno 10765 bound_to 10752
  140.9984  134.0439  157.3569 H   0  0  0  0  0  0  0  0  0  0  0  0  # atno 11005 bound_to 11000
  145.0363  139.3298  143.5999 LP  0  0  0  0  0  0  0  0  0  0  0  0  # atno 17320 bound_to 7965
  146.3486  139.9719  142.8705 LP  0  0  0  0  0  0  0  0  0  0  0  0  # atno 17321 bound_to 7965
  139.7844  144.7433  151.0042 LP  0  0  0  0  0  0  0  0  0  0  0  0  # atno 17342 bound_to 10162
  140.7817  143.4508  151.0416 LP  0  0  0  0  0  0  0  0  0  0  0  0  # atno 17343 bound_to 10162
  157.2453  131.0534  151.2412 LP  0  0  0  0  0  0  0  0  0  0  0  0  # atno 17370 bound_to 10713
  157.3581  130.7117  149.6484 LP  0  0  0  0  0  0  0  0  0  0  0  0  # atno 17371 bound_to 10713
  139.9026  135.0170  156.7340 LP  0  0  0  0  0  0  0  0  0  0  0  0  # atno 17394 bound_to 11000
  140.6929  133.9374  155.7977 LP  0  0  0  0  0  0  0  0  0  0  0  0  # atno 17395 bound_to 11000

$$$$
