AV-unprocessed.smi:744|AV-procd|sdf|3571|dock4
  -GOLD-   22720 0563D 1   1.00000     0.00000
 Structure written by MMmdl.
 34 35  0  0  0  0  0  0  0  0  1 V2000
  144.4504  136.6395  152.5950 O   0  0  0  0  0  0  0  0  0  0  0  0
  145.6490  136.5583  152.3250 C   0  0  0  0  0  0  0  0  0  0  0  0
  146.5479  137.4916  152.6690 N   0  0  0  0  0  0  0  0  0  0  0  0
  146.2408  138.7317  153.3741 C   0  0  0  0  0  0  0  0  0  0  0  0
  147.4142  139.7352  153.3519 C   0  0  1  0  0  0  0  0  0  0  0  0
  147.0327  141.1030  153.9390 C   0  0  0  0  0  0  0  0  0  0  0  0
  148.3166  141.7023  154.5339 C   0  0  0  0  0  0  0  0  0  0  0  0
  149.4025  140.6314  154.3867 C   0  0  0  0  0  0  0  0  0  0  0  0
  148.6441  139.3208  154.1732 C   0  0  2  0  0  0  0  0  0  0  0  0
  149.4571  138.3738  153.5099 O   0  0  0  0  0  0  0  0  0  0  0  0
  146.2298  135.5487  151.6531 N   0  0  0  0  0  0  0  0  0  0  0  0
  145.6164  134.3906  151.1053 C   0  0  0  0  0  0  0  0  0  0  0  0
  146.5112  133.4328  150.5763 C   0  0  0  0  0  0  0  0  0  0  0  0
  146.0026  132.2500  150.0057 C   0  0  0  0  0  0  0  0  0  0  0  0
  144.6103  132.0546  149.9789 C   0  0  0  0  0  0  0  0  0  0  0  0
  143.7896  133.0566  150.5285 C   0  0  0  0  0  0  0  0  0  0  0  0
  144.2748  134.1911  151.0756 N   0  0  0  0  0  0  0  0  0  0  0  0
  147.5112  137.3464  152.4042 H   0  0  0  0  0  0  0  0  0  0  0  0
  145.3485  139.1868  152.9410 H   0  0  0  0  0  0  0  0  0  0  0  0
  145.9857  138.4781  154.4035 H   0  0  0  0  0  0  0  0  0  0  0  0
  147.7279  139.9013  152.3195 H   0  0  0  0  0  0  0  0  0  0  0  0
  146.5908  141.7528  153.1830 H   0  0  0  0  0  0  0  0  0  0  0  0
  146.2934  140.9841  154.7324 H   0  0  0  0  0  0  0  0  0  0  0  0
  148.6046  142.6231  154.0255 H   0  0  0  0  0  0  0  0  0  0  0  0
  148.1606  141.9461  155.5856 H   0  0  0  0  0  0  0  0  0  0  0  0
  150.0079  140.8597  153.5080 H   0  0  0  0  0  0  0  0  0  0  0  0
  150.0728  140.5917  155.2457 H   0  0  0  0  0  0  0  0  0  0  0  0
  148.3313  138.9171  155.1373 H   0  0  0  0  0  0  0  0  0  0  0  0
  149.7619  138.7552  152.7006 H   0  0  0  0  0  0  0  0  0  0  0  0
  147.2256  135.6222  151.5070 H   0  0  0  0  0  0  0  0  0  0  0  0
  147.5783  133.5992  150.6043 H   0  0  0  0  0  0  0  0  0  0  0  0
  146.6699  131.5065  149.5955 H   0  0  0  0  0  0  0  0  0  0  0  0
  144.1826  131.1609  149.5493 H   0  0  0  0  0  0  0  0  0  0  0  0
  142.7154  132.9454  150.5286 H   0  0  0  0  0  0  0  0  0  0  0  0
  1  2  2  0  0  0  0
  2  3  1  0  0  0  0
  2 11  1  0  0  0  0
  3  4  1  0  0  0  0
  3 18  1  0  0  0  0
  4  5  1  0  0  0  0
  4 19  1  0  0  0  0
  4 20  1  0  0  0  0
  5  9  1  0  0  0  0
  5  6  1  0  0  0  0
  5 21  1  0  0  0  0
  6  7  1  0  0  0  0
  6 22  1  0  0  0  0
  6 23  1  0  0  0  0
  7  8  1  0  0  0  0
  7 24  1  0  0  0  0
  7 25  1  0  0  0  0
  8  9  1  0  0  0  0
  8 26  1  0  0  0  0
  8 27  1  0  0  0  0
  9 10  1  0  0  0  0
  9 28  1  0  0  0  0
 10 29  1  0  0  0  0
 11 12  1  0  0  0  0
 11 30  1  0  0  0  0
 12 17  1  0  0  0  0
 12 13  2  0  0  0  0
 13 14  1  0  0  0  0
 13 31  1  0  0  0  0
 14 15  2  0  0  0  0
 14 32  1  0  0  0  0
 15 16  1  0  0  0  0
 15 33  1  0  0  0  0
 16 17  2  0  0  0  0
 16 34  1  0  0  0  0
M  END
> <s_m_source_file>
AV-unprocessed.smi

> <i_m_source_file_index>
744

> <i_lp_mmshare_version>
43012

> <i_f3d_flags>
0

> <s_epik_input>
bjFbY0hdW2NIXVtjSF1bY0hdYzFbTkhdQyg9TylbTkhdW0NIMl1bQ0BASF0yW0NIMl1bQ0gyXVtDSDJdW0NASF0yW09IXQ==

> <s_epik_cmdline>
J2VwaWtfcHl0aG9uJywgJy1waCcsICc3LjAnLCAnLXRuJywgJzgnLCAnLW1hJywgJzIwMCcsICctbWV0YWxfYmluZGluZycsICctaW1hZScsICc8aW5maWxlLm1hZT4nLCAnLW9tYWUnLCAnPG91dGZpbGUubWFlPic=

> <r_lp_tautomer_probability>
1

> <r_epik_Ionization_Penalty>
5.04769e-05

> <r_epik_Ionization_Penalty_Charging>
0

> <r_epik_Ionization_Penalty_Neutral>
5.04769e-05

> <r_epik_State_Penalty>
-0

> <r_epik_Charging_Adjusted_Penalty>
0

> <i_epik_Tot_Q>
0

> <i_epik_Tot_abs_Q>
0

> <r_epik_Metal_State_Penalty>
-0

> <b_epik_Metal_Only>
0

> <s_lp_Force_Field>
OPLS_2005

> <r_lp_Energy>
24.4032

> <b_lp_Chiralities_Consistent>
1

> <s_lp_Variant>
AV-unprocessed.smi:744-4

> <Gold.Version>
5.8.1

> <Gold.Id.Protein>
6NUR|6NUR_protein|mol2

> <Gold.PLP.Fitness>
44.9869

> <Gold.PLP.PLP>
-33.2136

> <Gold.PLP.part.hbond>
-4.0000

> <Gold.PLP.part.metal>
0.0000

> <Gold.PLP.part.buried>
-2.3381

> <Gold.PLP.part.nonpolar>
-26.7508

> <Gold.PLP.part.repulsive>
0.4263

> <Gold.PLP.ligand.clash>
0.0000

> <Gold.PLP.ligand.torsion>
0.1141

> <Gold.PLP.Chemscore.Hbond>
3.0000

> <Gold.PLP.Chemscore.CHOScore>
1.0000

> <Gold.PLP.Chemscore.Metal>
0.0000

> <Gold.Chemscore.Hbonds>
donor molecule, donor type, donor heavy atom, donor atom, acceptor molecule, acceptor atom, score
      L1  H     3    18       P1  7948  1.00
      L1  H    10    29       P1  7957  1.00
      L1  H    11    30       P1  7948  1.00
      L1  C    16    34       P1 10186  0.99

> <Gold.PLP.Chemscore.Internal.Correction>
0.0014

> <Gold.Rescore>
     Score         DG    S(hbond)    S(metal)    S(lipo)     H(rot)  DE(clash)    DE(int)     intcor
     17.76     -19.42       2.80        0.00      78.75       1.81       0.24       1.41       ----

> <Gold.Chemscore.Fitness>
17.7569

> <Gold.Chemscore.DG>
-19.4158

> <Gold.Chemscore.ZeroCoef>
-5.4800

> <Gold.Chemscore.Hbond>
2.7976

> <Gold.Chemscore.Metal>
0.0000

> <Gold.Chemscore.Lipo>
78.7450

> <Gold.Chemscore.Internal_Hbond>
0.0000

> <Gold.Chemscore.DEClash>
0.2450

> <Gold.Chemscore.DEInternal>
1.4139

> <Gold.Chemscore.Rot>
1.8052

> <Gold.Chemscore.Internal.Correction>
   9.000000E+99

> <Gold.Chemscore.Hbonds>
donor molecule, donor type, donor heavy atom, donor atom, acceptor molecule, acceptor atom, score
      L1  H     3    18       P1  7948  0.96
      L1  H    10    29       P1  7957  0.66
      L1  H    11    30       P1  7948  0.98

> <Gold.Chemscore.Hbond.Weighted>
-9.3439

> <Gold.Chemscore.Metal.Weighted>
-0.0000

> <Gold.Chemscore.Lipo.Weighted>
-9.2132

> <Gold.Chemscore.Internal_Hbond.Weighted>
0.0000

> <Gold.Chemscore.DEClash.Weighted>
0.2450

> <Gold.Chemscore.DEInternal.Weighted>
1.4139

> <Gold.Chemscore.Rot.Weighted>
4.6212

> <Gold.Chemscore.Internal.Correction.Weighted>
   9.000000E+99

> <Gold.Protein.RotatedTorsions>
[ 6907 6896 6895 6894 ] final  -39.15 input  -60.11 | X-H torsion
[ 7974 7965 7964 7962 ] final  -57.59 input  175.53 | X-H torsion
[ 8008 7997 7996 7995 ] final  179.72 input   59.86 | X-H torsion
[ 10167 10162 10161 10158 ] final  172.69 input  -65.29 | X-H torsion
[ 10718 10713 10712 10709 ] final   89.12 input   66.30 | X-H torsion
[ 10763 10752 10751 10750 ] final  118.36 input  -60.55 | X-H torsion
[ 11005 11000 10999 10996 ] final -145.38 input  -57.11 | X-H torsion

> <Gold.Protein.ActiveResidues>
 VAL166  LYS551  ARG553  GLY616  TRP617  ASP618  TYR619  PRO620  LYS621  CYS622 
 ASP623  PHE694  ASN695  SER759  ASP760  ASP761  ALA762  ILE779  LEU786  VAL792 
 PHE793  MET794  SER795  GLU796  ALA797  LYS798  CYS799  TRP800  GLU811  SER814 

> <Gold.Protein.RotatedAtoms>
  150.9938  134.9267  159.7914 H   0  0  0  0  0  0  0  0  0  0  0  0  # atno 6907 bound_to 6896
  152.5259  134.3245  159.9170 H   0  0  0  0  0  0  0  0  0  0  0  0  # atno 6908 bound_to 6896
  151.3251  133.3982  159.2692 H   0  0  0  0  0  0  0  0  0  0  0  0  # atno 6909 bound_to 6896
  145.8493  140.8363  142.9994 H   0  0  0  0  0  0  0  0  0  0  0  0  # atno 7974 bound_to 7965
  156.0402  140.1302  157.0164 H   0  0  0  0  0  0  0  0  0  0  0  0  # atno 8008 bound_to 7997
  154.4388  140.1032  156.6297 H   0  0  0  0  0  0  0  0  0  0  0  0  # atno 8009 bound_to 7997
  155.5677  140.3466  155.4509 H   0  0  0  0  0  0  0  0  0  0  0  0  # atno 8010 bound_to 7997
  139.5084  144.3345  152.0079 H   0  0  0  0  0  0  0  0  0  0  0  0  # atno 10167 bound_to 10162
  157.6953  131.0321  150.3378 H   0  0  0  0  0  0  0  0  0  0  0  0  # atno 10718 bound_to 10713
  153.5665  135.3510  155.2820 H   0  0  0  0  0  0  0  0  0  0  0  0  # atno 10763 bound_to 10752
  154.8688  135.4149  154.2772 H   0  0  0  0  0  0  0  0  0  0  0  0  # atno 10764 bound_to 10752
  153.3529  135.7056  153.6843 H   0  0  0  0  0  0  0  0  0  0  0  0  # atno 10765 bound_to 10752
  140.7929  134.2948  157.5007 H   0  0  0  0  0  0  0  0  0  0  0  0  # atno 11005 bound_to 11000
  144.6730  140.0929  143.7464 LP  0  0  0  0  0  0  0  0  0  0  0  0  # atno 17320 bound_to 7965
  145.9376  139.2647  143.1288 LP  0  0  0  0  0  0  0  0  0  0  0  0  # atno 17321 bound_to 7965
  140.2784  144.3887  150.6127 LP  0  0  0  0  0  0  0  0  0  0  0  0  # atno 17342 bound_to 10162
  140.6036  143.2167  151.7024 LP  0  0  0  0  0  0  0  0  0  0  0  0  # atno 17343 bound_to 10162
  156.3843  130.3886  149.7078 LP  0  0  0  0  0  0  0  0  0  0  0  0  # atno 17370 bound_to 10713
  156.4450  130.7879  151.2900 LP  0  0  0  0  0  0  0  0  0  0  0  0  # atno 17371 bound_to 10713
  139.8729  134.9385  156.3715 LP  0  0  0  0  0  0  0  0  0  0  0  0  # atno 17394 bound_to 11000
  140.9372  133.7539  156.0100 LP  0  0  0  0  0  0  0  0  0  0  0  0  # atno 17395 bound_to 11000

$$$$
