#       Name:                AV-unprocessed.smi:458
#       Creating user name   scv26
#       Creation time:       Thu Mar 26 23:02:11 2020


#       File generated by GOLD software.
#

@<TRIPOS>MOLECULE
AV-unprocessed.smi:458
    41    43     1
SMALL
NO_CHARGES


@<TRIPOS>ATOM
      1 ****         0.3186   3.4946   0.4622 O.3            1 S1                 0.0000
      2 ****        -0.4970   3.2930  -0.6714 C.3            1 S1                 0.0000
      3 ****        -1.4686   2.1638  -0.5026 C.2            1 S1                 0.0000
      4 ****        -2.7752   2.3844  -0.3514 N.2            1 S1                 0.0000
      5 ****        -3.2915   1.1075  -0.2570 C.ar           1 S1                 0.0000
      6 ****        -4.6238   0.6661  -0.0900 C.ar           1 S1                 0.0000
      7 ****        -4.9165  -0.7119  -0.0269 C.ar           1 S1                 0.0000
      8 ****        -3.8841  -1.6664  -0.1321 C.ar           1 S1                 0.0000
      9 ****        -2.5500  -1.2477  -0.2984 C.ar           1 S1                 0.0000
     10 ****        -2.2621   0.1294  -0.3563 C.ar           1 S1                 0.0000
     11 ****        -1.0866   0.8600  -0.5031 N.pl3          1 S1                 0.0000
     12 ****         0.2534   0.3014  -0.6432 C.3            1 S1                 0.0000
     13 ****         0.7771  -0.3389   0.6594 C.3            1 S1                 0.0000
     14 ****         0.7629   0.6078   1.7094 O.3            1 S1                 0.0000
     15 ****         2.1543  -0.9511   0.4573 C.ar           1 S1                 0.0000
     16 ****         2.2897  -2.3473   0.2998 C.ar           1 S1                 0.0000
     17 ****         3.5621  -2.9193   0.1044 C.ar           1 S1                 0.0000
     18 ****         4.7055  -2.0984   0.0631 C.ar           1 S1                 0.0000
     19 ****         5.9281  -2.6489  -0.1253 F              1 S1                 0.0000
     20 ****         4.5762  -0.7047   0.2157 C.ar           1 S1                 0.0000
     21 ****         3.3044  -0.1322   0.4111 C.ar           1 S1                 0.0000
     22 ****         0.8883   4.2296   0.2957 H              1 S1                 0.0000
     23 ****        -1.0473   4.2142  -0.8656 H              1 S1                 0.0000
     24 ****         0.1266   3.1149  -1.5474 H              1 S1                 0.0000
     25 ****        -5.4219   1.3893  -0.0114 H              1 S1                 0.0000
     26 ****        -5.9382  -1.0384   0.1009 H              1 S1                 0.0000
     27 ****        -4.1173  -2.7200  -0.0851 H              1 S1                 0.0000
     28 ****        -1.7580  -1.9769  -0.3804 H              1 S1                 0.0000
     29 ****         0.2201  -0.4476  -1.4352 H              1 S1                 0.0000
     30 ****         0.9424   1.0721  -0.9857 H              1 S1                 0.0000
     31 ****         0.0963  -1.1355   0.9603 H              1 S1                 0.0000
     32 ****         0.9853   0.1662   2.5145 H              1 S1                 0.0000
     33 ****         1.4184  -2.9854   0.3267 H              1 S1                 0.0000
     34 ****         3.6609  -3.9882  -0.0153 H              1 S1                 0.0000
     35 ****         5.4524  -0.0740   0.1814 H              1 S1                 0.0000
     36 ****         3.2141   0.9385   0.5233 H              1 S1                 0.0000
     37 ****         0.8663   2.6756   0.6334 LP             1 S1                 0.0000
     38 ****        -0.2537   3.6856   1.2596 LP             1 S1                 0.0000
     39 ****        -3.2605   3.2580  -0.3154 LP             1 S1                 0.0000
     40 ****        -0.1485   1.0118   1.7869 LP             1 S1                 0.0000
     41 ****         1.4318   1.3276   1.5236 LP             1 S1                 0.0000
@<TRIPOS>BOND
    1    1    2 1     
    2    1   22 1     
    3    2    3 1     
    4    2   23 1     
    5    2   24 1     
    6    3   11 1     
    7    3    4 2     
    8    4    5 1     
    9    5   10 ar    
   10    5    6 ar    
   11    6    7 ar    
   12    6   25 1     
   13    7    8 ar    
   14    7   26 1     
   15    8    9 ar    
   16    8   27 1     
   17    9   10 ar    
   18    9   28 1     
   19   10   11 1     
   20   11   12 1     
   21   12   13 1     
   22   12   29 1     
   23   12   30 1     
   24   13   14 1     
   25   13   15 1     
   26   13   31 1     
   27   14   32 1     
   28   15   21 ar    
   29   15   16 ar    
   30   16   17 ar    
   31   16   33 1     
   32   17   18 ar    
   33   17   34 1     
   34   18   19 1     
   35   18   20 ar    
   36   20   21 ar    
   37   20   35 1     
   38   21   36 1     
   39    1   37 1     
   40    1   38 1     
   41    4   39 1     
   42   14   40 1     
   43   14   41 1     
@<TRIPOS>SUBSTRUCTURE
      1 S1             1
@<TRIPOS>SET
LONE_PAIRS      STATIC     ATOMS    <user>   **** ""
5 37 38 39 40 41
DONOR_HYDROGENS      STATIC     ATOMS    <user>   **** ""
2 22 32
ATOM$BLUE        STATIC     ATOMS    COLORGROUP SYSTEM
5 37 38 39 40 41
ATOM$RED        STATIC     ATOMS    COLORGROUP SYSTEM
2 22 32
