AV-unprocessed.smi:200|AV-procd|sdf|1579|dock5
  -GOLD-   2262019463D 1   1.00000     0.00000
 Structure written by MMmdl.
 56 59  0  0  0  0  0  0  0  0  1 V2000
  147.4372  141.8620  154.2025 C   0  0  0  0  0  0  0  0  0  0  0  0
  148.3514  140.7801  154.2182 O   0  0  0  0  0  0  0  0  0  0  0  0
  148.4115  140.1374  155.4805 C   0  0  0  0  0  0  0  0  0  0  0  0
  149.2366  141.0064  156.4461 C   0  0  0  0  0  0  0  0  0  0  0  0
  150.6867  140.8659  156.2700 N   0  0  0  0  0  0  0  0  0  0  0  0
  151.1376  139.6400  155.9140 C   0  0  0  0  0  0  0  0  0  0  0  0
  151.9945  139.5774  154.8648 N   0  0  0  0  0  0  0  0  0  0  0  0
  152.4719  138.3970  154.4603 C   0  0  0  0  0  0  0  0  0  0  0  0
  152.2323  137.1836  154.9617 N   0  0  0  0  0  0  0  0  0  0  0  0
  151.3842  137.2441  156.0278 C   0  0  0  0  0  0  0  0  0  0  0  0
  150.7918  138.4217  156.5658 C   0  0  0  0  0  0  0  0  0  0  0  0
  149.9878  138.0927  157.6503 N   0  0  0  0  0  0  0  0  0  0  0  0
  150.0933  136.7960  157.7440 C   0  0  0  0  0  0  0  0  0  0  0  0
  150.9201  136.2048  156.8154 N   0  0  0  0  0  0  0  0  0  0  0  0
  151.2161  134.7847  156.7008 C   0  0  0  0  0  0  0  0  0  0  0  0
  150.1376  133.9683  155.9576 C   0  0  0  0  0  0  0  0  0  0  0  0
  149.8806  134.5424  154.5526 C   0  0  0  0  0  0  0  0  0  0  0  0
  148.7486  133.9483  153.9497 O   0  0  0  0  0  0  0  0  0  0  0  0
  150.3070  132.4435  156.0074 C   0  0  0  0  0  0  0  0  0  0  0  0
  148.9452  132.2501  156.4441 O   0  0  0  0  0  0  0  0  0  0  0  0
  148.8622  133.6567  156.7547 C   0  0  0  0  0  0  0  0  0  0  0  0
  151.6138  141.5538  157.1750 C   0  0  1  0  0  0  0  0  0  0  0  0
  151.3043  143.0318  157.4262 C   0  0  0  0  0  0  0  0  0  0  0  0
  152.1668  143.3492  158.6456 C   0  0  0  0  0  0  0  0  0  0  0  0
  152.0745  142.0937  159.5281 C   0  0  2  0  0  0  0  0  0  0  0  0
  153.3247  141.8597  160.3867 C   0  0  0  0  0  0  0  0  0  0  0  0
  151.7497  140.9276  158.5738 C   0  0  0  0  0  0  0  0  0  0  0  0
  147.4346  142.3248  153.2158 H   0  0  0  0  0  0  0  0  0  0  0  0
  147.7148  142.6242  154.9318 H   0  0  0  0  0  0  0  0  0  0  0  0
  146.4232  141.5229  154.4180 H   0  0  0  0  0  0  0  0  0  0  0  0
  147.4001  140.0265  155.8741 H   0  0  0  0  0  0  0  0  0  0  0  0
  148.8260  139.1327  155.3874 H   0  0  0  0  0  0  0  0  0  0  0  0
  148.9441  142.0451  156.3055 H   0  0  0  0  0  0  0  0  0  0  0  0
  148.9665  140.7603  157.4718 H   0  0  0  0  0  0  0  0  0  0  0  0
  153.1424  138.4293  153.6142 H   0  0  0  0  0  0  0  0  0  0  0  0
  149.5746  136.2311  158.5052 H   0  0  0  0  0  0  0  0  0  0  0  0
  152.1802  134.6790  156.2019 H   0  0  0  0  0  0  0  0  0  0  0  0
  151.3671  134.3943  157.7079 H   0  0  0  0  0  0  0  0  0  0  0  0
  149.7027  135.6171  154.6060 H   0  0  0  0  0  0  0  0  0  0  0  0
  150.7442  134.4148  153.8997 H   0  0  0  0  0  0  0  0  0  0  0  0
  148.5493  134.4207  153.1558 H   0  0  0  0  0  0  0  0  0  0  0  0
  150.5072  131.9840  155.0388 H   0  0  0  0  0  0  0  0  0  0  0  0
  151.0242  132.1018  156.7556 H   0  0  0  0  0  0  0  0  0  0  0  0
  148.9492  133.8320  157.8278 H   0  0  0  0  0  0  0  0  0  0  0  0
  147.9619  134.1255  156.3560 H   0  0  0  0  0  0  0  0  0  0  0  0
  152.6069  141.5324  156.7212 H   0  0  0  0  0  0  0  0  0  0  0  0
  151.5423  143.6608  156.5682 H   0  0  0  0  0  0  0  0  0  0  0  0
  150.2575  143.1922  157.6807 H   0  0  0  0  0  0  0  0  0  0  0  0
  153.1971  143.5116  158.3251 H   0  0  0  0  0  0  0  0  0  0  0  0
  151.8387  144.2496  159.1661 H   0  0  0  0  0  0  0  0  0  0  0  0
  151.2214  142.2201  160.1964 H   0  0  0  0  0  0  0  0  0  0  0  0
  154.2106  141.7184  159.7670 H   0  0  0  0  0  0  0  0  0  0  0  0
  153.2094  140.9733  161.0110 H   0  0  0  0  0  0  0  0  0  0  0  0
  153.5099  142.7081  161.0461 H   0  0  0  0  0  0  0  0  0  0  0  0
  150.8240  140.4513  158.8968 H   0  0  0  0  0  0  0  0  0  0  0  0
  152.5206  140.1559  158.5760 H   0  0  0  0  0  0  0  0  0  0  0  0
  1  2  1  0  0  0  0
  1 28  1  0  0  0  0
  1 29  1  0  0  0  0
  1 30  1  0  0  0  0
  2  3  1  0  0  0  0
  3  4  1  0  0  0  0
  3 31  1  0  0  0  0
  3 32  1  0  0  0  0
  4  5  1  0  0  0  0
  4 33  1  0  0  0  0
  4 34  1  0  0  0  0
  5  6  1  0  0  0  0
  5 22  1  0  0  0  0
  6 11  1  0  0  0  0
  6  7  2  0  0  0  0
  7  8  1  0  0  0  0
  8  9  2  0  0  0  0
  8 35  1  0  0  0  0
  9 10  1  0  0  0  0
 10 14  1  0  0  0  0
 10 11  2  0  0  0  0
 11 12  1  0  0  0  0
 12 13  2  0  0  0  0
 13 14  1  0  0  0  0
 13 36  1  0  0  0  0
 14 15  1  0  0  0  0
 15 16  1  0  0  0  0
 15 37  1  0  0  0  0
 15 38  1  0  0  0  0
 16 21  1  0  0  0  0
 16 17  1  0  0  0  0
 16 19  1  0  0  0  0
 17 18  1  0  0  0  0
 17 39  1  0  0  0  0
 17 40  1  0  0  0  0
 18 41  1  0  0  0  0
 19 20  1  0  0  0  0
 19 42  1  0  0  0  0
 19 43  1  0  0  0  0
 20 21  1  0  0  0  0
 21 44  1  0  0  0  0
 21 45  1  0  0  0  0
 22 27  1  0  0  0  0
 22 23  1  0  0  0  0
 22 46  1  0  0  0  0
 23 24  1  0  0  0  0
 23 47  1  0  0  0  0
 23 48  1  0  0  0  0
 24 25  1  0  0  0  0
 24 49  1  0  0  0  0
 24 50  1  0  0  0  0
 25 26  1  0  0  0  0
 25 27  1  0  0  0  0
 25 51  1  0  0  0  0
 26 52  1  0  0  0  0
 26 53  1  0  0  0  0
 26 54  1  0  0  0  0
 27 55  1  0  0  0  0
 27 56  1  0  0  0  0
M  END
> <s_m_source_file>
AV-unprocessed.smi

> <i_m_source_file_index>
200

> <i_lp_mmshare_version>
43012

> <i_f3d_flags>
0

> <s_epik_input>
W0NIM11bQ0BASF0oW0NIMl0xKVtDSDJdW0NIMl1bQ0BIXTFOKFtDSDJdW0NIMl1PW0NIM10pYyhuW2NIXW4yKWMoYzIzKW5bY0hdbjNbQ0gyXUM0KFtDSDJdW09IXSlbQ0gyXU9bQ0gyXTQ=

> <s_epik_cmdline>
J2VwaWtfcHl0aG9uJywgJy1waCcsICc3LjAnLCAnLXRuJywgJzgnLCAnLW1hJywgJzIwMCcsICctbWV0YWxfYmluZGluZycsICctaW1hZScsICc8aW5maWxlLm1hZT4nLCAnLW9tYWUnLCAnPG91dGZpbGUubWFlPic=

> <r_lp_tautomer_probability>
1

> <r_epik_Ionization_Penalty>
0.00363087

> <r_epik_Ionization_Penalty_Charging>
0

> <r_epik_Ionization_Penalty_Neutral>
0.00363087

> <r_epik_State_Penalty>
0.0024341

> <r_epik_Charging_Adjusted_Penalty>
0.0024341

> <i_epik_Tot_Q>
0

> <i_epik_Tot_abs_Q>
0

> <r_epik_Metal_State_Penalty>
-0

> <b_epik_Metal_Only>
0

> <s_lp_Force_Field>
OPLS_2005

> <r_lp_Energy>
49.9898

> <b_lp_Chiralities_Consistent>
1

> <s_lp_Variant>
AV-unprocessed.smi:200-4

> <Gold.Version>
5.8.1

> <Gold.Id.Protein>
6NUR|6NUR_protein|mol2

> <Gold.PLP.Fitness>
46.8412

> <Gold.PLP.PLP>
-40.9103

> <Gold.PLP.part.hbond>
-3.0000

> <Gold.PLP.part.metal>
0.0000

> <Gold.PLP.part.buried>
-7.5491

> <Gold.PLP.part.nonpolar>
-30.3645

> <Gold.PLP.part.repulsive>
0.3123

> <Gold.PLP.ligand.clash>
0.0000

> <Gold.PLP.ligand.torsion>
1.4405

> <Gold.PLP.Chemscore.Hbond>
2.4800

> <Gold.PLP.Chemscore.CHOScore>
0.0000

> <Gold.PLP.Chemscore.Metal>
0.0000

> <Gold.Chemscore.Hbonds>
donor molecule, donor type, donor heavy atom, donor atom, acceptor molecule, acceptor atom, score
      L1  H    18    41       P1  7948  0.51
      P1  H  7989  7998       L1     7  0.93
      P1  H 10752 10765       L1     9  0.58

> <Gold.PLP.Chemscore.Internal.Correction>
1.3720

> <Gold.Rescore>
     Score         DG    S(hbond)    S(metal)    S(lipo)     H(rot)  DE(clash)    DE(int)     intcor
     12.48     -15.65       2.12        0.00      98.03       3.28       0.79       2.38       ----

> <Gold.Chemscore.Fitness>
12.4794

> <Gold.Chemscore.DG>
-15.6497

> <Gold.Chemscore.ZeroCoef>
-5.4800

> <Gold.Chemscore.Hbond>
2.1220

> <Gold.Chemscore.Metal>
0.0000

> <Gold.Chemscore.Lipo>
98.0254

> <Gold.Chemscore.Internal_Hbond>
0.0000

> <Gold.Chemscore.DEClash>
0.7922

> <Gold.Chemscore.DEInternal>
2.3781

> <Gold.Chemscore.Rot>
3.2761

> <Gold.Chemscore.Internal.Correction>
   9.000000E+99

> <Gold.Chemscore.Hbonds>
donor molecule, donor type, donor heavy atom, donor atom, acceptor molecule, acceptor atom, score
      L1  H    18    41       P1  7948  0.12
      P1  H  7989  7998       L1     7  0.75
      P1  H 10752 10765       L1     9  0.56

> <Gold.Chemscore.Hbond.Weighted>
-7.0875

> <Gold.Chemscore.Metal.Weighted>
-0.0000

> <Gold.Chemscore.Lipo.Weighted>
-11.4690

> <Gold.Chemscore.Internal_Hbond.Weighted>
0.0000

> <Gold.Chemscore.DEClash.Weighted>
0.7922

> <Gold.Chemscore.DEInternal.Weighted>
2.3781

> <Gold.Chemscore.Rot.Weighted>
8.3868

> <Gold.Chemscore.Internal.Correction.Weighted>
   9.000000E+99

> <Gold.Protein.RotatedTorsions>
[ 6907 6896 6895 6894 ] final  -40.18 input  -60.11 | X-H torsion
[ 7974 7965 7964 7962 ] final  123.96 input  175.53 | X-H torsion
[ 8008 7997 7996 7995 ] final  -31.80 input   59.86 | X-H torsion
[ 10167 10162 10161 10158 ] final   83.16 input  -65.29 | X-H torsion
[ 10718 10713 10712 10709 ] final  -72.28 input   66.30 | X-H torsion
[ 10763 10752 10751 10750 ] final  150.40 input  -60.55 | X-H torsion
[ 11005 11000 10999 10996 ] final -113.73 input  -57.11 | X-H torsion

> <Gold.Protein.ActiveResidues>
 VAL166  LYS551  ARG553  GLY616  TRP617  ASP618  TYR619  PRO620  LYS621  CYS622 
 ASP623  PHE694  ASN695  SER759  ASP760  ASP761  ALA762  ILE779  LEU786  VAL792 
 PHE793  MET794  SER795  GLU796  ALA797  LYS798  CYS799  TRP800  GLU811  SER814 

> <Gold.Protein.RotatedAtoms>
  150.9815  134.9169  159.7846 H   0  0  0  0  0  0  0  0  0  0  0  0  # atno 6907 bound_to 6896
  152.5223  134.3404  159.9225 H   0  0  0  0  0  0  0  0  0  0  0  0  # atno 6908 bound_to 6896
  151.3411  133.3921  159.2706 H   0  0  0  0  0  0  0  0  0  0  0  0  # atno 6909 bound_to 6896
  145.0898  139.3595  143.4866 H   0  0  0  0  0  0  0  0  0  0  0  0  # atno 7974 bound_to 7965
  154.4201  140.1754  156.1625 H   0  0  0  0  0  0  0  0  0  0  0  0  # atno 8008 bound_to 7997
  155.9827  140.3376  155.6654 H   0  0  0  0  0  0  0  0  0  0  0  0  # atno 8009 bound_to 7997
  155.6479  140.0687  157.2587 H   0  0  0  0  0  0  0  0  0  0  0  0  # atno 8010 bound_to 7997
  139.9213  144.6211  150.8437 H   0  0  0  0  0  0  0  0  0  0  0  0  # atno 10167 bound_to 10162
  156.0327  130.4369  150.2569 H   0  0  0  0  0  0  0  0  0  0  0  0  # atno 10718 bound_to 10713
  154.0869  135.2855  155.3279 H   0  0  0  0  0  0  0  0  0  0  0  0  # atno 10763 bound_to 10752
  154.6646  135.5322  153.8064 H   0  0  0  0  0  0  0  0  0  0  0  0  # atno 10764 bound_to 10752
  153.0428  135.6542  154.1040 H   0  0  0  0  0  0  0  0  0  0  0  0  # atno 10765 bound_to 10752
  141.0596  133.9557  157.2691 H   0  0  0  0  0  0  0  0  0  0  0  0  # atno 11005 bound_to 11000
  146.3531  140.0728  142.8622 LP  0  0  0  0  0  0  0  0  0  0  0  0  # atno 17320 bound_to 7965
  145.1079  140.9387  143.4674 LP  0  0  0  0  0  0  0  0  0  0  0  0  # atno 17321 bound_to 7965
  140.7661  143.3295  151.2442 LP  0  0  0  0  0  0  0  0  0  0  0  0  # atno 17342 bound_to 10162
  139.6859  143.9774  152.2834 LP  0  0  0  0  0  0  0  0  0  0  0  0  # atno 17343 bound_to 10162
  157.0670  131.0106  151.3203 LP  0  0  0  0  0  0  0  0  0  0  0  0  # atno 17370 bound_to 10713
  157.5027  130.7890  149.7622 LP  0  0  0  0  0  0  0  0  0  0  0  0  # atno 17371 bound_to 10713
  139.9421  135.0189  156.8739 LP  0  0  0  0  0  0  0  0  0  0  0  0  # atno 17394 bound_to 11000
  140.5895  134.0275  155.7494 LP  0  0  0  0  0  0  0  0  0  0  0  0  # atno 17395 bound_to 11000

$$$$
