AV-unprocessed.smi:2296|AV-procd|sdf|9220|dock7
  -GOLD-   2272012443D 1   1.00000     0.00000
 Structure written by MMmdl.
 24 24  0  0  0  0  0  0  0  0  2 V2000
  146.3056  136.4367  150.3390 N   0  3  0  0  0  0  0  0  0  0  0  0
  145.3711  136.3134  151.4746 C   0  0  2  0  0  0  0  0  0  0  0  0
  145.5332  137.5086  152.4294 C   0  0  0  0  0  0  0  0  0  0  0  0
  145.6037  138.7133  151.6959 O   0  0  0  0  0  0  0  0  0  0  0  0
  145.5837  134.9753  152.2092 C   0  0  0  0  0  0  0  0  0  0  0  0
  145.1980  133.7672  151.3732 C   0  0  0  0  0  0  0  0  0  0  0  0
  146.1751  132.8478  150.9383 C   0  0  0  0  0  0  0  0  0  0  0  0
  145.7627  131.7466  150.1608 C   0  0  0  0  0  0  0  0  0  0  0  0
  144.4780  131.5284  149.8078 N   0  0  0  0  0  0  0  0  0  0  0  0
  143.5471  132.4111  150.2295 C   0  0  0  0  0  0  0  0  0  0  0  0
  143.8537  133.5436  151.0108 C   0  0  0  0  0  0  0  0  0  0  0  0
  146.1450  137.3117  149.8612 H   0  0  0  0  0  0  0  0  0  0  0  0
  146.1512  135.6707  149.6989 H   0  0  0  0  0  0  0  0  0  0  0  0
  144.3567  136.3272  151.0726 H   0  0  0  0  0  0  0  0  0  0  0  0
  144.6787  137.5751  153.1038 H   0  0  0  0  0  0  0  0  0  0  0  0
  146.4249  137.4031  153.0486 H   0  0  0  0  0  0  0  0  0  0  0  0
  144.8585  139.2496  151.9228 H   0  0  0  0  0  0  0  0  0  0  0  0
  146.6231  134.8812  152.5270 H   0  0  0  0  0  0  0  0  0  0  0  0
  144.9863  134.9562  153.1219 H   0  0  0  0  0  0  0  0  0  0  0  0
  147.2171  132.9766  151.1929 H   0  0  0  0  0  0  0  0  0  0  0  0
  146.4849  131.0239  149.8112 H   0  0  0  0  0  0  0  0  0  0  0  0
  142.5279  132.2104  149.9341 H   0  0  0  0  0  0  0  0  0  0  0  0
  143.0723  134.2214  151.3224 H   0  0  0  0  0  0  0  0  0  0  0  0
  147.2562  136.4063  150.6793 H   0  0  0  0  0  0  0  0  0  0  0  0
  1  2  1  0  0  0  0
  1 12  1  0  0  0  0
  1 13  1  0  0  0  0
  1 24  1  0  0  0  0
  2  3  1  0  0  0  0
  2  5  1  0  0  0  0
  2 14  1  0  0  0  0
  3  4  1  0  0  0  0
  3 15  1  0  0  0  0
  3 16  1  0  0  0  0
  4 17  1  0  0  0  0
  5  6  1  0  0  0  0
  5 18  1  0  0  0  0
  5 19  1  0  0  0  0
  6 11  1  0  0  0  0
  6  7  2  0  0  0  0
  7  8  1  0  0  0  0
  7 20  1  0  0  0  0
  8  9  2  0  0  0  0
  8 21  1  0  0  0  0
  9 10  1  0  0  0  0
 10 11  2  0  0  0  0
 10 22  1  0  0  0  0
 11 23  1  0  0  0  0
M  CHG  1   1   1
M  END
> <s_m_source_file>
AV-unprocessed.smi

> <i_m_source_file_index>
2296

> <i_lp_mmshare_version>
43012

> <i_f3d_flags>
0

> <s_epik_input>
W09IXVtDSDJdW0NAQEhdKFtOSDJdKVtDSDJdYzFbY0hdW2NIXW5bY0hdW2NIXTE=

> <s_epik_cmdline>
J2VwaWtfcHl0aG9uJywgJy1waCcsICc3LjAnLCAnLXRuJywgJzgnLCAnLW1hJywgJzIwMCcsICctbWV0YWxfYmluZGluZycsICctaW1hZScsICc8aW5maWxlLm1hZT4nLCAnLW9tYWUnLCAnPG91dGZpbGUubWFlPic=

> <r_epik_Ionization_Penalty>
0.0199414

> <r_epik_Ionization_Penalty_Charging>
0.0188044

> <r_epik_Ionization_Penalty_Neutral>
0.00113699

> <r_epik_State_Penalty>
0.00788343

> <r_epik_Charging_Adjusted_Penalty>
0.0266878

> <i_epik_Tot_Q>
1

> <i_epik_Tot_abs_Q>
1

> <r_epik_Metal_State_Penalty>
-0

> <b_epik_Metal_Only>
0

> <s_lp_Force_Field>
OPLS_2005

> <r_lp_Energy>
8.03463

> <b_lp_Chiralities_Consistent>
1

> <s_lp_Variant>
AV-unprocessed.smi:2296-1

> <Gold.Version>
5.8.1

> <Gold.Id.Protein>
6NUR|6NUR_protein|mol2

> <Gold.PLP.Fitness>
39.3984

> <Gold.PLP.PLP>
-21.0662

> <Gold.PLP.part.hbond>
-4.8631

> <Gold.PLP.part.metal>
0.0000

> <Gold.PLP.part.buried>
-0.4991

> <Gold.PLP.part.nonpolar>
-17.4186

> <Gold.PLP.part.repulsive>
0.3093

> <Gold.PLP.ligand.clash>
0.0000

> <Gold.PLP.ligand.torsion>
0.1717

> <Gold.PLP.Chemscore.Hbond>
3.8873

> <Gold.PLP.Chemscore.CHOScore>
2.3359

> <Gold.PLP.Chemscore.Metal>
0.0000

> <Gold.Chemscore.Hbonds>
donor molecule, donor type, donor heavy atom, donor atom, acceptor molecule, acceptor atom, score
      L1  H     1    13       P1  7921  0.54
      L1  H     1    24       P1  7948  2.00
      L1  H     4    17       P1 10175  1.00
      P1  H 10785 10796       L1     9  0.34
      L1  C     8    21       P1 10747  1.00
      L1  C    10    22       P1 10186  0.40
      L1  C    10    22       P1 10952  0.96

> <Gold.PLP.Chemscore.Internal.Correction>
0.0060

> <Gold.Rescore>
     Score         DG    S(hbond)    S(metal)    S(lipo)     H(rot)  DE(clash)    DE(int)     intcor
     14.50     -16.08       2.74        0.00      59.18       2.14       1.43       0.16       ----

> <Gold.Chemscore.Fitness>
14.4964

> <Gold.Chemscore.DG>
-16.0828

> <Gold.Chemscore.ZeroCoef>
-5.4800

> <Gold.Chemscore.Hbond>
2.7420

> <Gold.Chemscore.Metal>
0.0000

> <Gold.Chemscore.Lipo>
59.1819

> <Gold.Chemscore.Internal_Hbond>
0.0000

> <Gold.Chemscore.DEClash>
1.4267

> <Gold.Chemscore.DEInternal>
0.1597

> <Gold.Chemscore.Rot>
2.1405

> <Gold.Chemscore.Internal.Correction>
   9.000000E+99

> <Gold.Chemscore.Hbonds>
donor molecule, donor type, donor heavy atom, donor atom, acceptor molecule, acceptor atom, score
      L1  H     1    13       P1  7921  0.45
      L1  H     1    24       P1  7948  0.81
      L1  H     4    17       P1 10175  0.99
      P1  H 10785 10796       L1     9  0.10

> <Gold.Chemscore.Hbond.Weighted>
-9.1582

> <Gold.Chemscore.Metal.Weighted>
-0.0000

> <Gold.Chemscore.Lipo.Weighted>
-6.9243

> <Gold.Chemscore.Internal_Hbond.Weighted>
0.0000

> <Gold.Chemscore.DEClash.Weighted>
1.4267

> <Gold.Chemscore.DEInternal.Weighted>
0.1597

> <Gold.Chemscore.Rot.Weighted>
5.4797

> <Gold.Chemscore.Internal.Correction.Weighted>
   9.000000E+99

> <Gold.Protein.RotatedTorsions>
[ 6907 6896 6895 6894 ] final   53.82 input  -60.11 | X-H torsion
[ 7974 7965 7964 7962 ] final -147.68 input  175.53 | X-H torsion
[ 8008 7997 7996 7995 ] final  -67.99 input   59.86 | X-H torsion
[ 10167 10162 10161 10158 ] final  108.42 input  -65.29 | X-H torsion
[ 10718 10713 10712 10709 ] final -130.61 input   66.30 | X-H torsion
[ 10763 10752 10751 10750 ] final   36.89 input  -60.55 | X-H torsion
[ 11005 11000 10999 10996 ] final  -60.23 input  -57.11 | X-H torsion

> <Gold.Protein.ActiveResidues>
 VAL166  LYS551  ARG553  GLY616  TRP617  ASP618  TYR619  PRO620  LYS621  CYS622 
 ASP623  PHE694  ASN695  SER759  ASP760  ASP761  ALA762  ILE779  LEU786  VAL792 
 PHE793  MET794  SER795  GLU796  ALA797  LYS798  CYS799  TRP800  GLU811  SER814 

> <Gold.Protein.RotatedAtoms>
  152.3376  134.7177  160.0272 H   0  0  0  0  0  0  0  0  0  0  0  0  # atno 6907 bound_to 6896
  151.7573  133.3326  159.3416 H   0  0  0  0  0  0  0  0  0  0  0  0  # atno 6908 bound_to 6896
  150.7460  134.6070  159.6111 H   0  0  0  0  0  0  0  0  0  0  0  0  # atno 6909 bound_to 6896
  144.8078  140.5296  143.5663 H   0  0  0  0  0  0  0  0  0  0  0  0  # atno 7974 bound_to 7965
  154.4837  140.0882  156.7437 H   0  0  0  0  0  0  0  0  0  0  0  0  # atno 8008 bound_to 7997
  155.4405  140.3453  155.4271 H   0  0  0  0  0  0  0  0  0  0  0  0  # atno 8009 bound_to 7997
  156.1230  140.1479  156.9166 H   0  0  0  0  0  0  0  0  0  0  0  0  # atno 8010 bound_to 7997
  139.6848  144.7114  151.1452 H   0  0  0  0  0  0  0  0  0  0  0  0  # atno 10167 bound_to 10162
  156.2162  130.6949  151.0705 H   0  0  0  0  0  0  0  0  0  0  0  0  # atno 10718 bound_to 10713
  153.0059  135.6293  154.2057 H   0  0  0  0  0  0  0  0  0  0  0  0  # atno 10763 bound_to 10752
  154.1800  135.2814  155.3056 H   0  0  0  0  0  0  0  0  0  0  0  0  # atno 10764 bound_to 10752
  154.5842  135.5638  153.7274 H   0  0  0  0  0  0  0  0  0  0  0  0  # atno 10765 bound_to 10752
  141.1279  133.6621  156.5191 H   0  0  0  0  0  0  0  0  0  0  0  0  # atno 11005 bound_to 11000
  145.5397  139.1475  143.3454 LP  0  0  0  0  0  0  0  0  0  0  0  0  # atno 17320 bound_to 7965
  146.2372  140.5536  142.8950 LP  0  0  0  0  0  0  0  0  0  0  0  0  # atno 17321 bound_to 7965
  140.7664  143.5646  150.9062 LP  0  0  0  0  0  0  0  0  0  0  0  0  # atno 17342 bound_to 10162
  139.9320  143.6482  152.3074 LP  0  0  0  0  0  0  0  0  0  0  0  0  # atno 17343 bound_to 10162
  157.7064  131.0754  150.6652 LP  0  0  0  0  0  0  0  0  0  0  0  0  # atno 17370 bound_to 10713
  156.6713  130.4540  149.5656 LP  0  0  0  0  0  0  0  0  0  0  0  0  # atno 17371 bound_to 10713
  140.4307  134.7104  157.4940 LP  0  0  0  0  0  0  0  0  0  0  0  0  # atno 17394 bound_to 11000
  140.0296  134.6426  155.9125 LP  0  0  0  0  0  0  0  0  0  0  0  0  # atno 17395 bound_to 11000

$$$$
