AV-unprocessed.smi:630|AV-procd|sdf|3118|dock3
  -GOLD-   22720 0 43D 1   1.00000     0.00000
 Structure written by MMmdl.
 37 38  0  0  0  0  0  0  0  0  1 V2000
  149.7668  137.8280  154.1524 N   0  0  0  0  0  0  0  0  0  0  0  0
  150.9902  137.8029  154.6879 C   0  0  0  0  0  0  0  0  0  0  0  0
  151.7828  136.8911  154.4557 O   0  0  0  0  0  0  0  0  0  0  0  0
  151.3708  138.9616  155.6306 C   0  0  1  0  0  0  0  0  0  0  0  0
  150.3980  140.1541  155.4508 C   0  0  0  0  0  0  0  0  0  0  0  0
  151.0067  141.4961  155.8942 C   0  0  0  0  0  0  0  0  0  0  0  0
  150.8574  141.8420  157.3869 C   0  0  0  0  0  0  0  0  0  0  0  0
  150.9555  140.6786  158.3897 C   0  0  0  0  0  0  0  0  0  0  0  0
  152.0043  139.5969  158.0624 C   0  0  0  0  0  0  0  0  0  0  0  0
  151.5172  138.4852  157.1010 C   0  0  1  0  0  0  0  0  0  0  0  0
  150.2931  137.8481  157.5976 N   0  0  0  0  0  0  0  0  0  0  0  0
  150.0356  137.5350  158.8755 C   0  0  0  0  0  0  0  0  0  0  0  0
  150.8111  137.7684  159.8031 O   0  0  0  0  0  0  0  0  0  0  0  0
  148.8350  136.9422  158.9946 N   0  0  0  0  0  0  0  0  0  0  0  0
  148.2062  136.4596  160.1717 C   0  0  0  0  0  0  0  0  0  0  0  0
  147.8814  137.2227  161.2218 N   0  0  0  0  0  0  0  0  0  0  0  0
  147.2768  136.4817  162.2405 C   0  0  0  0  0  0  0  0  0  0  0  0
  147.1469  135.1472  161.9461 C   0  0  0  0  0  0  0  0  0  0  0  0
  147.7834  134.7650  160.3689 S   0  0  0  0  0  0  0  0  0  0  0  0
  149.4803  137.0903  153.5255 H   0  0  0  0  0  0  0  0  0  0  0  0
  149.1347  138.5847  154.3705 H   0  0  0  0  0  0  0  0  0  0  0  0
  152.3564  139.2980  155.3037 H   0  0  0  0  0  0  0  0  0  0  0  0
  150.1511  140.2490  154.3918 H   0  0  0  0  0  0  0  0  0  0  0  0
  149.4481  139.9762  155.9567 H   0  0  0  0  0  0  0  0  0  0  0  0
  152.0610  141.5284  155.6174 H   0  0  0  0  0  0  0  0  0  0  0  0
  150.5420  142.2993  155.3211 H   0  0  0  0  0  0  0  0  0  0  0  0
  151.6115  142.5896  157.6356 H   0  0  0  0  0  0  0  0  0  0  0  0
  149.8982  142.3372  157.5415 H   0  0  0  0  0  0  0  0  0  0  0  0
  151.1923  141.1056  159.3648 H   0  0  0  0  0  0  0  0  0  0  0  0
  149.9711  140.2296  158.5183 H   0  0  0  0  0  0  0  0  0  0  0  0
  152.9160  140.0585  157.6817 H   0  0  0  0  0  0  0  0  0  0  0  0
  152.2954  139.1217  159.0000 H   0  0  0  0  0  0  0  0  0  0  0  0
  152.2974  137.7209  157.0926 H   0  0  0  0  0  0  0  0  0  0  0  0
  149.5980  137.6109  156.9048 H   0  0  0  0  0  0  0  0  0  0  0  0
  148.3098  136.8186  158.1418 H   0  0  0  0  0  0  0  0  0  0  0  0
  146.9680  136.9859  163.1442 H   0  0  0  0  0  0  0  0  0  0  0  0
  146.7170  134.3695  162.5597 H   0  0  0  0  0  0  0  0  0  0  0  0
  1  2  1  0  0  0  0
  1 20  1  0  0  0  0
  1 21  1  0  0  0  0
  2  3  2  0  0  0  0
  2  4  1  0  0  0  0
  4 10  1  0  0  0  0
  4  5  1  0  0  0  0
  4 22  1  0  0  0  0
  5  6  1  0  0  0  0
  5 23  1  0  0  0  0
  5 24  1  0  0  0  0
  6  7  1  0  0  0  0
  6 25  1  0  0  0  0
  6 26  1  0  0  0  0
  7  8  1  0  0  0  0
  7 27  1  0  0  0  0
  7 28  1  0  0  0  0
  8  9  1  0  0  0  0
  8 29  1  0  0  0  0
  8 30  1  0  0  0  0
  9 10  1  0  0  0  0
  9 31  1  0  0  0  0
  9 32  1  0  0  0  0
 10 11  1  0  0  0  0
 10 33  1  0  0  0  0
 11 12  1  0  0  0  0
 11 34  1  0  0  0  0
 12 13  2  0  0  0  0
 12 14  1  0  0  0  0
 14 15  1  0  0  0  0
 14 35  1  0  0  0  0
 15 19  1  0  0  0  0
 15 16  2  0  0  0  0
 16 17  1  0  0  0  0
 17 18  2  0  0  0  0
 17 36  1  0  0  0  0
 18 19  1  0  0  0  0
 18 37  1  0  0  0  0
M  END
> <s_m_source_file>
AV-unprocessed.smi

> <i_m_source_file_index>
630

> <i_lp_mmshare_version>
43012

> <i_f3d_flags>
0

> <s_epik_input>
W05IMl1DKD1PKVtDQEBIXTFbQ0gyXVtDSDJdW0NIMl1bQ0gyXVtDSDJdW0NASF0xW05IXUMoPU8pW05IXWMybltjSF1bY0hdczI=

> <s_epik_cmdline>
J2VwaWtfcHl0aG9uJywgJy1waCcsICc3LjAnLCAnLXRuJywgJzgnLCAnLW1hJywgJzIwMCcsICctbWV0YWxfYmluZGluZycsICctaW1hZScsICc8aW5maWxlLm1hZT4nLCAnLW9tYWUnLCAnPG91dGZpbGUubWFlPic=

> <r_lp_tautomer_probability>
0.999

> <r_epik_Ionization_Penalty>
0.000342689

> <r_epik_Ionization_Penalty_Charging>
0

> <r_epik_Ionization_Penalty_Neutral>
0.000342689

> <r_epik_State_Penalty>
0.000177984

> <r_epik_Charging_Adjusted_Penalty>
0.000177984

> <i_epik_Tot_Q>
0

> <i_epik_Tot_abs_Q>
0

> <r_epik_Metal_State_Penalty>
0.00743087

> <b_epik_Metal_Only>
0

> <s_lp_Force_Field>
OPLS_2005

> <r_lp_Energy>
14.0273

> <b_lp_Chiralities_Consistent>
1

> <s_lp_Variant>
AV-unprocessed.smi:630-2

> <Gold.Version>
5.8.1

> <Gold.Id.Protein>
6NUR|6NUR_protein|mol2

> <Gold.PLP.Fitness>
42.3989

> <Gold.PLP.PLP>
-33.6492

> <Gold.PLP.part.hbond>
-5.0000

> <Gold.PLP.part.metal>
0.0000

> <Gold.PLP.part.buried>
-4.1707

> <Gold.PLP.part.nonpolar>
-24.0825

> <Gold.PLP.part.repulsive>
0.4061

> <Gold.PLP.ligand.clash>
0.4465

> <Gold.PLP.ligand.torsion>
1.0474

> <Gold.PLP.Chemscore.Hbond>
3.7296

> <Gold.PLP.Chemscore.CHOScore>
0.0000

> <Gold.PLP.Chemscore.Metal>
0.0000

> <Gold.Chemscore.Hbonds>
donor molecule, donor type, donor heavy atom, donor atom, acceptor molecule, acceptor atom, score
      L1  H     1    20       P1  7948  1.00
      P1  H  6931  6943       L1    16  0.99
      P1  H  6934  6947       L1    16  0.75
      P1  H 10752 10764       L1     3  1.00

> <Gold.PLP.Chemscore.Internal.Correction>
0.1023

> <Gold.Rescore>
     Score         DG    S(hbond)    S(metal)    S(lipo)     H(rot)  DE(clash)    DE(int)     intcor
     17.97     -20.47       3.54        0.00      60.25       1.52       0.15       2.35       ----

> <Gold.Chemscore.Fitness>
17.9693

> <Gold.Chemscore.DG>
-20.4669

> <Gold.Chemscore.ZeroCoef>
-5.4800

> <Gold.Chemscore.Hbond>
3.5403

> <Gold.Chemscore.Metal>
0.0000

> <Gold.Chemscore.Lipo>
60.2522

> <Gold.Chemscore.Internal_Hbond>
0.0000

> <Gold.Chemscore.DEClash>
0.1490

> <Gold.Chemscore.DEInternal>
2.3486

> <Gold.Chemscore.Rot>
1.5184

> <Gold.Chemscore.Internal.Correction>
   9.000000E+99

> <Gold.Chemscore.Hbonds>
donor molecule, donor type, donor heavy atom, donor atom, acceptor molecule, acceptor atom, score
      L1  H     1    20       P1  7948  0.90
      P1  H  6931  6943       L1    16  0.64
      P1  H  6934  6947       L1    16  0.66
      P1  H 10752 10764       L1     3  0.99

> <Gold.Chemscore.Hbond.Weighted>
-11.8246

> <Gold.Chemscore.Metal.Weighted>
-0.0000

> <Gold.Chemscore.Lipo.Weighted>
-7.0495

> <Gold.Chemscore.Internal_Hbond.Weighted>
0.0000

> <Gold.Chemscore.DEClash.Weighted>
0.1490

> <Gold.Chemscore.DEInternal.Weighted>
2.3486

> <Gold.Chemscore.Rot.Weighted>
3.8872

> <Gold.Chemscore.Internal.Correction.Weighted>
   9.000000E+99

> <Gold.Protein.RotatedTorsions>
[ 6907 6896 6895 6894 ] final  120.85 input  -60.11 | X-H torsion
[ 7974 7965 7964 7962 ] final   72.58 input  175.53 | X-H torsion
[ 8008 7997 7996 7995 ] final  -55.64 input   59.86 | X-H torsion
[ 10167 10162 10161 10158 ] final  112.67 input  -65.29 | X-H torsion
[ 10718 10713 10712 10709 ] final  123.89 input   66.30 | X-H torsion
[ 10763 10752 10751 10750 ] final  -77.59 input  -60.55 | X-H torsion
[ 11005 11000 10999 10996 ] final  -81.72 input  -57.11 | X-H torsion

> <Gold.Protein.ActiveResidues>
 VAL166  LYS551  ARG553  GLY616  TRP617  ASP618  TYR619  PRO620  LYS621  CYS622 
 ASP623  PHE694  ASN695  SER759  ASP760  ASP761  ALA762  ILE779  LEU786  VAL792 
 PHE793  MET794  SER795  GLU796  ALA797  LYS798  CYS799  TRP800  GLU811  SER814 

> <Gold.Protein.RotatedAtoms>
  152.4367  133.7373  159.6620 H   0  0  0  0  0  0  0  0  0  0  0  0  # atno 6907 bound_to 6896
  150.8251  133.8174  159.3128 H   0  0  0  0  0  0  0  0  0  0  0  0  # atno 6908 bound_to 6896
  151.5845  135.1059  160.0076 H   0  0  0  0  0  0  0  0  0  0  0  0  # atno 6909 bound_to 6896
  145.7515  139.2762  143.1428 H   0  0  0  0  0  0  0  0  0  0  0  0  # atno 7974 bound_to 7965
  154.4202  140.1148  156.5509 H   0  0  0  0  0  0  0  0  0  0  0  0  # atno 8008 bound_to 7997
  155.6411  140.3496  155.4696 H   0  0  0  0  0  0  0  0  0  0  0  0  # atno 8009 bound_to 7997
  155.9870  140.1171  157.0664 H   0  0  0  0  0  0  0  0  0  0  0  0  # atno 8010 bound_to 7997
  139.6518  144.7128  151.2033 H   0  0  0  0  0  0  0  0  0  0  0  0  # atno 10167 bound_to 10162
  157.5629  131.1088  150.8507 H   0  0  0  0  0  0  0  0  0  0  0  0  # atno 10718 bound_to 10713
  154.5149  135.5759  153.6634 H   0  0  0  0  0  0  0  0  0  0  0  0  # atno 10763 bound_to 10752
  152.9905  135.6167  154.2830 H   0  0  0  0  0  0  0  0  0  0  0  0  # atno 10764 bound_to 10752
  154.2747  135.2852  155.2702 H   0  0  0  0  0  0  0  0  0  0  0  0  # atno 10765 bound_to 10752
  141.1665  133.7210  156.8464 H   0  0  0  0  0  0  0  0  0  0  0  0  # atno 11005 bound_to 11000
  146.0352  140.8219  142.9856 LP  0  0  0  0  0  0  0  0  0  0  0  0  # atno 17320 bound_to 7965
  144.6849  140.2827  143.7290 LP  0  0  0  0  0  0  0  0  0  0  0  0  # atno 17321 bound_to 7965
  140.7541  143.6138  150.8580 LP  0  0  0  0  0  0  0  0  0  0  0  0  # atno 17342 bound_to 10162
  139.9786  143.5976  152.2950 LP  0  0  0  0  0  0  0  0  0  0  0  0  # atno 17343 bound_to 10162
  156.9000  130.5243  149.5283 LP  0  0  0  0  0  0  0  0  0  0  0  0  # atno 17370 bound_to 10713
  156.0679  130.5719  150.9326 LP  0  0  0  0  0  0  0  0  0  0  0  0  # atno 17371 bound_to 10713
  140.1946  134.8941  157.3100 LP  0  0  0  0  0  0  0  0  0  0  0  0  # atno 17394 bound_to 11000
  140.2252  134.3975  155.7547 LP  0  0  0  0  0  0  0  0  0  0  0  0  # atno 17395 bound_to 11000

$$$$
