AV-unprocessed.smi:2934|AV-procd|sdf|11254|dock3
  -GOLD-   2272016143D 1   1.00000     0.00000
 Structure written by MMmdl.
 43 44  0  0  0  0  0  0  0  0  1 V2000
  153.1080  138.6173  154.3734 C   0  0  0  0  0  0  0  0  0  0  0  0
  151.9200  138.5863  155.2336 N   0  0  0  0  0  0  0  0  0  0  0  0
  151.2430  137.4120  155.3532 C   0  0  0  0  0  0  0  0  0  0  0  0
  151.6435  136.3539  154.8634 O   0  0  0  0  0  0  0  0  0  0  0  0
  150.1123  137.4735  156.0810 N   0  0  0  0  0  0  0  0  0  0  0  0
  149.2379  136.3469  156.3847 C   0  0  0  0  0  0  0  0  0  0  0  0
  148.1522  136.7349  157.4076 C   0  0  0  0  0  0  0  0  0  0  0  0
  148.5539  136.4322  158.8543 C   0  0  0  0  0  0  0  0  0  0  0  0
  149.7196  136.5721  159.2257 O   0  0  0  0  0  0  0  0  0  0  0  0
  147.5695  136.0126  159.6639 N   0  0  0  0  0  0  0  0  0  0  0  0
  147.7312  135.6504  161.0698 C   0  0  0  0  0  0  0  0  0  0  0  0
  147.6843  134.1218  161.2662 C   0  0  0  0  0  0  0  0  0  0  0  0
  146.3334  133.8245  161.9163 C   0  0  0  0  0  0  0  0  0  0  0  0
  146.0477  135.0631  162.7592 C   0  0  0  0  0  0  0  0  0  0  0  0
  146.5811  136.2259  161.9194 C   0  0  0  0  0  0  0  0  0  0  0  0
  151.5328  139.8089  155.8662 C   0  0  0  0  0  0  0  0  0  0  0  0
  151.8947  139.9789  157.2246 C   0  0  0  0  0  0  0  0  0  0  0  0
  151.5528  141.1728  157.8882 C   0  0  0  0  0  0  0  0  0  0  0  0
  150.8622  142.1699  157.1767 C   0  0  0  0  0  0  0  0  0  0  0  0
  150.5465  141.9248  155.8277 C   0  0  0  0  0  0  0  0  0  0  0  0
  150.8726  140.7817  155.1883 N   0  0  0  0  0  0  0  0  0  0  0  0
  153.5019  139.6272  154.2529 H   0  0  0  0  0  0  0  0  0  0  0  0
  152.8789  138.2475  153.3725 H   0  0  0  0  0  0  0  0  0  0  0  0
  153.9015  137.9984  154.7945 H   0  0  0  0  0  0  0  0  0  0  0  0
  149.8396  138.3730  156.4505 H   0  0  0  0  0  0  0  0  0  0  0  0
  148.7775  136.0274  155.4488 H   0  0  0  0  0  0  0  0  0  0  0  0
  149.8282  135.5027  156.7458 H   0  0  0  0  0  0  0  0  0  0  0  0
  147.9196  137.7972  157.3273 H   0  0  0  0  0  0  0  0  0  0  0  0
  147.2315  136.1947  157.1812 H   0  0  0  0  0  0  0  0  0  0  0  0
  146.6406  135.9301  159.2766 H   0  0  0  0  0  0  0  0  0  0  0  0
  148.6835  136.0367  161.4385 H   0  0  0  0  0  0  0  0  0  0  0  0
  147.8268  133.5579  160.3433 H   0  0  0  0  0  0  0  0  0  0  0  0
  148.4827  133.8244  161.9472 H   0  0  0  0  0  0  0  0  0  0  0  0
  145.5688  133.7198  161.1454 H   0  0  0  0  0  0  0  0  0  0  0  0
  146.3427  132.9068  162.5052 H   0  0  0  0  0  0  0  0  0  0  0  0
  144.9905  135.1713  163.0031 H   0  0  0  0  0  0  0  0  0  0  0  0
  146.6015  135.0029  163.6972 H   0  0  0  0  0  0  0  0  0  0  0  0
  146.9083  137.0583  162.5432 H   0  0  0  0  0  0  0  0  0  0  0  0
  145.7786  136.6002  161.2813 H   0  0  0  0  0  0  0  0  0  0  0  0
  152.4234  139.2021  157.7581 H   0  0  0  0  0  0  0  0  0  0  0  0
  151.8164  141.3202  158.9251 H   0  0  0  0  0  0  0  0  0  0  0  0
  150.5832  143.0988  157.6517 H   0  0  0  0  0  0  0  0  0  0  0  0
  150.0185  142.6656  155.2457 H   0  0  0  0  0  0  0  0  0  0  0  0
  1  2  1  0  0  0  0
  1 22  1  0  0  0  0
  1 23  1  0  0  0  0
  1 24  1  0  0  0  0
  2  3  1  0  0  0  0
  2 16  1  0  0  0  0
  3  4  2  0  0  0  0
  3  5  1  0  0  0  0
  5  6  1  0  0  0  0
  5 25  1  0  0  0  0
  6  7  1  0  0  0  0
  6 26  1  0  0  0  0
  6 27  1  0  0  0  0
  7  8  1  0  0  0  0
  7 28  1  0  0  0  0
  7 29  1  0  0  0  0
  8  9  2  0  0  0  0
  8 10  1  0  0  0  0
 10 11  1  0  0  0  0
 10 30  1  0  0  0  0
 11 15  1  0  0  0  0
 11 12  1  0  0  0  0
 11 31  1  0  0  0  0
 12 13  1  0  0  0  0
 12 32  1  0  0  0  0
 12 33  1  0  0  0  0
 13 14  1  0  0  0  0
 13 34  1  0  0  0  0
 13 35  1  0  0  0  0
 14 15  1  0  0  0  0
 14 36  1  0  0  0  0
 14 37  1  0  0  0  0
 15 38  1  0  0  0  0
 15 39  1  0  0  0  0
 16 21  1  0  0  0  0
 16 17  2  0  0  0  0
 17 18  1  0  0  0  0
 17 40  1  0  0  0  0
 18 19  2  0  0  0  0
 18 41  1  0  0  0  0
 19 20  1  0  0  0  0
 19 42  1  0  0  0  0
 20 21  2  0  0  0  0
 20 43  1  0  0  0  0
M  END
> <s_m_source_file>
AV-unprocessed.smi

> <i_m_source_file_index>
2934

> <i_lp_mmshare_version>
43012

> <i_f3d_flags>
0

> <s_epik_input>
bjFbY0hdW2NIXVtjSF1bY0hdYzFOKFtDSDNdKUMoPU8pW05IXVtDSDJdW0NIMl1DKD1PKVtOSF1bQ0hdMltDSDJdW0NIMl1bQ0gyXVtDSDJdMg==

> <s_epik_cmdline>
J2VwaWtfcHl0aG9uJywgJy1waCcsICc3LjAnLCAnLXRuJywgJzgnLCAnLW1hJywgJzIwMCcsICctbWV0YWxfYmluZGluZycsICctaW1hZScsICc8aW5maWxlLm1hZT4nLCAnLW9tYWUnLCAnPG91dGZpbGUubWFlPic=

> <r_epik_Ionization_Penalty>
0.404648

> <r_epik_Ionization_Penalty_Charging>
0

> <r_epik_Ionization_Penalty_Neutral>
0.404648

> <r_epik_State_Penalty>
0.40421

> <r_epik_Charging_Adjusted_Penalty>
0.40421

> <i_epik_Tot_Q>
0

> <i_epik_Tot_abs_Q>
0

> <r_epik_Metal_State_Penalty>
0.238116

> <b_epik_Metal_Only>
0

> <s_lp_Force_Field>
OPLS_2005

> <r_lp_Energy>
32.7735

> <b_lp_Chiralities_Consistent>
1

> <s_lp_Variant>
AV-unprocessed.smi:2934-1

> <Gold.Version>
5.8.1

> <Gold.Id.Protein>
6NUR|6NUR_protein|mol2

> <Gold.PLP.Fitness>
43.9203

> <Gold.PLP.PLP>
-37.0128

> <Gold.PLP.part.hbond>
-3.0000

> <Gold.PLP.part.metal>
0.0000

> <Gold.PLP.part.buried>
-5.4995

> <Gold.PLP.part.nonpolar>
-28.1597

> <Gold.PLP.part.repulsive>
0.3155

> <Gold.PLP.ligand.clash>
0.2946

> <Gold.PLP.ligand.torsion>
2.2555

> <Gold.PLP.Chemscore.Hbond>
2.8320

> <Gold.PLP.Chemscore.CHOScore>
1.0000

> <Gold.PLP.Chemscore.Metal>
0.0000

> <Gold.Chemscore.Hbonds>
donor molecule, donor type, donor heavy atom, donor atom, acceptor molecule, acceptor atom, score
      P1  H  6896  6909       L1     9  0.80
      P1  H  7989  7998       L1    21  0.83
      P1  H 10752 10763       L1     4  0.99
      L1  C    20    43       P1  8028  1.00

> <Gold.PLP.Chemscore.Internal.Correction>
0.2171

> <Gold.Rescore>
     Score         DG    S(hbond)    S(metal)    S(lipo)     H(rot)  DE(clash)    DE(int)     intcor
     16.57     -19.15       2.64        0.00      79.23       1.72       0.03       2.54       ----

> <Gold.Chemscore.Fitness>
16.5719

> <Gold.Chemscore.DG>
-19.1478

> <Gold.Chemscore.ZeroCoef>
-5.4800

> <Gold.Chemscore.Hbond>
2.6366

> <Gold.Chemscore.Metal>
0.0000

> <Gold.Chemscore.Lipo>
79.2300

> <Gold.Chemscore.Internal_Hbond>
0.0000

> <Gold.Chemscore.DEClash>
0.0331

> <Gold.Chemscore.DEInternal>
2.5428

> <Gold.Chemscore.Rot>
1.7220

> <Gold.Chemscore.Internal.Correction>
   9.000000E+99

> <Gold.Chemscore.Hbonds>
donor molecule, donor type, donor heavy atom, donor atom, acceptor molecule, acceptor atom, score
      P1  H  6896  6909       L1     9  0.73
      P1  H  7989  7998       L1    21  0.48
      P1  H 10752 10763       L1     4  0.92

> <Gold.Chemscore.Hbond.Weighted>
-8.8062

> <Gold.Chemscore.Metal.Weighted>
-0.0000

> <Gold.Chemscore.Lipo.Weighted>
-9.2699

> <Gold.Chemscore.Internal_Hbond.Weighted>
0.0000

> <Gold.Chemscore.DEClash.Weighted>
0.0331

> <Gold.Chemscore.DEInternal.Weighted>
2.5428

> <Gold.Chemscore.Rot.Weighted>
4.4083

> <Gold.Chemscore.Internal.Correction.Weighted>
   9.000000E+99

> <Gold.Protein.RotatedTorsions>
[ 6907 6896 6895 6894 ] final   63.67 input  -60.11 | X-H torsion
[ 7974 7965 7964 7962 ] final  -71.39 input  175.53 | X-H torsion
[ 8008 7997 7996 7995 ] final   33.45 input   59.86 | X-H torsion
[ 10167 10162 10161 10158 ] final  -37.62 input  -65.29 | X-H torsion
[ 10718 10713 10712 10709 ] final -113.20 input   66.30 | X-H torsion
[ 10763 10752 10751 10750 ] final   61.21 input  -60.55 | X-H torsion
[ 11005 11000 10999 10996 ] final  171.20 input  -57.11 | X-H torsion

> <Gold.Protein.ActiveResidues>
 VAL166  LYS551  ARG553  GLY616  TRP617  ASP618  TYR619  PRO620  LYS621  CYS622 
 ASP623  PHE694  ASN695  SER759  ASP760  ASP761  ALA762  ILE779  LEU786  VAL792 
 PHE793  MET794  SER795  GLU796  ALA797  LYS798  CYS799  TRP800  GLU811  SER814 

> <Gold.Protein.RotatedAtoms>
  152.4272  134.5847  159.9957 H   0  0  0  0  0  0  0  0  0  0  0  0  # atno 6907 bound_to 6896
  151.5980  133.3353  159.3049 H   0  0  0  0  0  0  0  0  0  0  0  0  # atno 6908 bound_to 6896
  150.8162  134.7381  159.6797 H   0  0  0  0  0  0  0  0  0  0  0  0  # atno 6909 bound_to 6896
  145.6787  140.9196  143.0844 H   0  0  0  0  0  0  0  0  0  0  0  0  # atno 7974 bound_to 7965
  155.1387  140.3264  155.4457 H   0  0  0  0  0  0  0  0  0  0  0  0  # atno 8008 bound_to 7997
  156.2611  140.1997  156.6453 H   0  0  0  0  0  0  0  0  0  0  0  0  # atno 8009 bound_to 7997
  154.6558  140.0553  156.9994 H   0  0  0  0  0  0  0  0  0  0  0  0  # atno 8010 bound_to 7997
  140.7114  143.3330  151.2525 H   0  0  0  0  0  0  0  0  0  0  0  0  # atno 10167 bound_to 10162
  156.0752  130.5960  150.8610 H   0  0  0  0  0  0  0  0  0  0  0  0  # atno 10718 bound_to 10713
  152.9944  135.5509  154.5998 H   0  0  0  0  0  0  0  0  0  0  0  0  # atno 10763 bound_to 10752
  154.5341  135.2815  155.1156 H   0  0  0  0  0  0  0  0  0  0  0  0  # atno 10764 bound_to 10752
  154.2459  135.6408  153.5276 H   0  0  0  0  0  0  0  0  0  0  0  0  # atno 10765 bound_to 10752
  140.3165  134.7473  157.4031 H   0  0  0  0  0  0  0  0  0  0  0  0  # atno 11005 bound_to 11000
  144.7033  139.8667  143.7437 LP  0  0  0  0  0  0  0  0  0  0  0  0  # atno 17320 bound_to 7965
  146.0983  139.3977  143.0362 LP  0  0  0  0  0  0  0  0  0  0  0  0  # atno 17321 bound_to 7965
  139.6818  143.9842  152.2812 LP  0  0  0  0  0  0  0  0  0  0  0  0  # atno 17342 bound_to 10162
  139.9474  144.6642  150.8205 LP  0  0  0  0  0  0  0  0  0  0  0  0  # atno 17343 bound_to 10162
  157.5843  131.0946  150.9221 LP  0  0  0  0  0  0  0  0  0  0  0  0  # atno 17370 bound_to 10713
  156.9410  130.5384  149.5280 LP  0  0  0  0  0  0  0  0  0  0  0  0  # atno 17371 bound_to 10713
  140.0979  134.5512  155.8381 LP  0  0  0  0  0  0  0  0  0  0  0  0  # atno 17394 bound_to 11000
  141.2096  133.6686  156.6453 LP  0  0  0  0  0  0  0  0  0  0  0  0  # atno 17395 bound_to 11000

$$$$
