AV-unprocessed.smi:1247|AV-procd|sdf|5244|dock7
  -GOLD-   22720 4353D 1   1.00000     0.00000
 Structure written by MMmdl.
 46 47  0  0  0  0  0  0  0  0  1 V2000
  143.6135  132.3848  149.6570 C   0  0  0  0  0  0  0  0  0  0  0  0
  144.6496  133.1445  150.4319 C   0  0  0  0  0  0  0  0  0  0  0  0
  144.7330  134.5521  150.6399 C   0  0  0  0  0  0  0  0  0  0  0  0
  145.8587  134.6766  151.4076 C   0  0  0  0  0  0  0  0  0  0  0  0
  146.4253  135.8020  151.9183 N   0  0  0  0  0  0  0  0  0  0  0  0
  145.8273  136.8431  152.5232 C   0  0  0  0  0  0  0  0  0  0  0  0
  144.6150  136.9662  152.7007 O   0  0  0  0  0  0  0  0  0  0  0  0
  146.7268  137.7569  152.9144 N   0  0  0  0  0  0  0  0  0  0  0  0
  146.4084  139.0048  153.5973 C   0  0  0  0  0  0  0  0  0  0  0  0
  147.5616  140.0182  153.4754 C   0  0  0  0  0  0  0  0  0  0  0  0
  148.6608  139.8176  154.4180 N   0  0  0  0  0  0  0  0  0  0  0  0
  149.7440  139.0128  153.8568 C   0  0  0  0  0  0  0  0  0  0  0  0
  150.9204  138.8288  154.8369 C   0  0  2  0  0  0  0  0  0  0  0  0
  150.6140  137.8438  155.9781 C   0  0  0  0  0  0  0  0  0  0  0  0
  151.3573  140.0951  155.3331 O   0  0  0  0  0  0  0  0  0  0  0  0
  150.3329  140.9138  155.8942 C   0  0  1  0  0  0  0  0  0  0  0  0
  150.9610  142.2512  156.3001 C   0  0  0  0  0  0  0  0  0  0  0  0
  149.2026  141.0945  154.8651 C   0  0  0  0  0  0  0  0  0  0  0  0
  146.3863  133.4242  151.6304 N   0  0  0  0  0  0  0  0  0  0  0  0
  147.5645  133.0421  152.3843 C   0  0  0  0  0  0  0  0  0  0  0  0
  145.6366  132.4797  151.0223 N   0  0  0  0  0  0  0  0  0  0  0  0
  142.8320  133.0492  149.2877 H   0  0  0  0  0  0  0  0  0  0  0  0
  143.1363  131.6258  150.2774 H   0  0  0  0  0  0  0  0  0  0  0  0
  144.0569  131.8836  148.7963 H   0  0  0  0  0  0  0  0  0  0  0  0
  144.0670  135.3214  150.2797 H   0  0  0  0  0  0  0  0  0  0  0  0
  147.4290  135.8577  151.8265 H   0  0  0  0  0  0  0  0  0  0  0  0
  147.7024  137.5770  152.7278 H   0  0  0  0  0  0  0  0  0  0  0  0
  145.4837  139.4275  153.2004 H   0  0  0  0  0  0  0  0  0  0  0  0
  146.2163  138.7603  154.6414 H   0  0  0  0  0  0  0  0  0  0  0  0
  147.9461  140.0136  152.4544 H   0  0  0  0  0  0  0  0  0  0  0  0
  147.1478  141.0151  153.6339 H   0  0  0  0  0  0  0  0  0  0  0  0
  149.3779  138.0303  153.5608 H   0  0  0  0  0  0  0  0  0  0  0  0
  150.1146  139.4899  152.9483 H   0  0  0  0  0  0  0  0  0  0  0  0
  151.7595  138.4143  154.2773 H   0  0  0  0  0  0  0  0  0  0  0  0
  150.3925  136.8519  155.5842 H   0  0  0  0  0  0  0  0  0  0  0  0
  149.7548  138.1568  156.5709 H   0  0  0  0  0  0  0  0  0  0  0  0
  151.4672  137.7495  156.6500 H   0  0  0  0  0  0  0  0  0  0  0  0
  149.9366  140.4356  156.7904 H   0  0  0  0  0  0  0  0  0  0  0  0
  150.2189  142.9132  156.7470 H   0  0  0  0  0  0  0  0  0  0  0  0
  151.3917  142.7625  155.4387 H   0  0  0  0  0  0  0  0  0  0  0  0
  151.7561  142.1023  157.0310 H   0  0  0  0  0  0  0  0  0  0  0  0
  149.5761  141.6568  154.0077 H   0  0  0  0  0  0  0  0  0  0  0  0
  148.4083  141.6962  155.3087 H   0  0  0  0  0  0  0  0  0  0  0  0
  147.4751  133.4003  153.4100 H   0  0  0  0  0  0  0  0  0  0  0  0
  148.4502  133.4840  151.9272 H   0  0  0  0  0  0  0  0  0  0  0  0
  147.6773  131.9571  152.3981 H   0  0  0  0  0  0  0  0  0  0  0  0
  1  2  1  0  0  0  0
  1 22  1  0  0  0  0
  1 23  1  0  0  0  0
  1 24  1  0  0  0  0
  2 21  2  0  0  0  0
  2  3  1  0  0  0  0
  3  4  2  0  0  0  0
  3 25  1  0  0  0  0
  4  5  1  0  0  0  0
  4 19  1  0  0  0  0
  5  6  1  0  0  0  0
  5 26  1  0  0  0  0
  6  7  2  0  0  0  0
  6  8  1  0  0  0  0
  8  9  1  0  0  0  0
  8 27  1  0  0  0  0
  9 10  1  0  0  0  0
  9 28  1  0  0  0  0
  9 29  1  0  0  0  0
 10 11  1  0  0  0  0
 10 30  1  0  0  0  0
 10 31  1  0  0  0  0
 11 18  1  0  0  0  0
 11 12  1  0  0  0  0
 12 13  1  0  0  0  0
 12 32  1  0  0  0  0
 12 33  1  0  0  0  0
 13 14  1  0  0  0  0
 13 15  1  0  0  0  0
 13 34  1  0  0  0  0
 14 35  1  0  0  0  0
 14 36  1  0  0  0  0
 14 37  1  0  0  0  0
 15 16  1  0  0  0  0
 16 17  1  0  0  0  0
 16 18  1  0  0  0  0
 16 38  1  0  0  0  0
 17 39  1  0  0  0  0
 17 40  1  0  0  0  0
 17 41  1  0  0  0  0
 18 42  1  0  0  0  0
 18 43  1  0  0  0  0
 19 20  1  0  0  0  0
 19 21  1  0  0  0  0
 20 44  1  0  0  0  0
 20 45  1  0  0  0  0
 20 46  1  0  0  0  0
M  END
> <s_m_source_file>
AV-unprocessed.smi

> <i_m_source_file_index>
1247

> <i_lp_mmshare_version>
43012

> <i_f3d_flags>
0

> <s_epik_input>
W0NIM11jMVtjSF1jKG4objEpW0NIM10pW05IXUMoPU8pW05IXVtDSDJdW0NIMl1OMltDSDJdW0NAQEhdKFtDSDNdKU9bQ0BASF0oW0NIM10pW0NIMl0y

> <s_epik_cmdline>
J2VwaWtfcHl0aG9uJywgJy1waCcsICc3LjAnLCAnLXRuJywgJzgnLCAnLW1hJywgJzIwMCcsICctbWV0YWxfYmluZGluZycsICctaW1hZScsICc8aW5maWxlLm1hZT4nLCAnLW9tYWUnLCAnPG91dGZpbGUubWFlPic=

> <r_lp_tautomer_probability>
1

> <r_epik_Ionization_Penalty>
0.233972

> <r_epik_Ionization_Penalty_Charging>
0

> <r_epik_Ionization_Penalty_Neutral>
0.233972

> <r_epik_State_Penalty>
0.224627

> <r_epik_Charging_Adjusted_Penalty>
0.224627

> <i_epik_Tot_Q>
0

> <i_epik_Tot_abs_Q>
0

> <r_epik_Metal_State_Penalty>
0.224624

> <b_epik_Metal_Only>
0

> <s_lp_Force_Field>
OPLS_2005

> <r_lp_Energy>
23.1298

> <b_lp_Chiralities_Consistent>
1

> <s_lp_Variant>
AV-unprocessed.smi:1247-2

> <Gold.Version>
5.8.1

> <Gold.Id.Protein>
6NUR|6NUR_protein|mol2

> <Gold.PLP.Fitness>
41.6751

> <Gold.PLP.PLP>
-35.9369

> <Gold.PLP.part.hbond>
-2.9910

> <Gold.PLP.part.metal>
0.0000

> <Gold.PLP.part.buried>
-3.2637

> <Gold.PLP.part.nonpolar>
-31.1148

> <Gold.PLP.part.repulsive>
0.5402

> <Gold.PLP.ligand.clash>
0.0000

> <Gold.PLP.ligand.torsion>
1.0841

> <Gold.PLP.Chemscore.Hbond>
2.6140

> <Gold.PLP.Chemscore.CHOScore>
0.0000

> <Gold.PLP.Chemscore.Metal>
0.0000

> <Gold.Chemscore.Hbonds>
donor molecule, donor type, donor heavy atom, donor atom, acceptor molecule, acceptor atom, score
      L1  H     5    26       P1  7948  1.00
      L1  H     8    27       P1  7948  0.85
      P1  H  7989  7998       L1    15  0.70

> <Gold.PLP.Chemscore.Internal.Correction>
0.0644

> <Gold.Rescore>
     Score         DG    S(hbond)    S(metal)    S(lipo)     H(rot)  DE(clash)    DE(int)     intcor
     16.49     -17.74       1.86        0.00      84.12       1.48       0.21       1.05       ----

> <Gold.Chemscore.Fitness>
16.4876

> <Gold.Chemscore.DG>
-17.7434

> <Gold.Chemscore.ZeroCoef>
-5.4800

> <Gold.Chemscore.Hbond>
1.8623

> <Gold.Chemscore.Metal>
0.0000

> <Gold.Chemscore.Lipo>
84.1173

> <Gold.Chemscore.Internal_Hbond>
0.0000

> <Gold.Chemscore.DEClash>
0.2071

> <Gold.Chemscore.DEInternal>
1.0487

> <Gold.Chemscore.Rot>
1.4838

> <Gold.Chemscore.Internal.Correction>
   9.000000E+99

> <Gold.Chemscore.Hbonds>
donor molecule, donor type, donor heavy atom, donor atom, acceptor molecule, acceptor atom, score
      L1  H     5    26       P1  7948  0.93
      L1  H     8    27       P1  7948  0.80
      P1  H  7989  7998       L1    15  0.03

> <Gold.Chemscore.Hbond.Weighted>
-6.2201

> <Gold.Chemscore.Metal.Weighted>
-0.0000

> <Gold.Chemscore.Lipo.Weighted>
-9.8417

> <Gold.Chemscore.Internal_Hbond.Weighted>
0.0000

> <Gold.Chemscore.DEClash.Weighted>
0.2071

> <Gold.Chemscore.DEInternal.Weighted>
1.0487

> <Gold.Chemscore.Rot.Weighted>
3.7985

> <Gold.Chemscore.Internal.Correction.Weighted>
   9.000000E+99

> <Gold.Protein.RotatedTorsions>
[ 6907 6896 6895 6894 ] final   85.49 input  -60.11 | X-H torsion
[ 7974 7965 7964 7962 ] final  128.75 input  175.53 | X-H torsion
[ 8008 7997 7996 7995 ] final  127.91 input   59.86 | X-H torsion
[ 10167 10162 10161 10158 ] final  -78.91 input  -65.29 | X-H torsion
[ 10718 10713 10712 10709 ] final  154.15 input   66.30 | X-H torsion
[ 10763 10752 10751 10750 ] final  170.31 input  -60.55 | X-H torsion
[ 11005 11000 10999 10996 ] final    6.04 input  -57.11 | X-H torsion

> <Gold.Protein.ActiveResidues>
 VAL166  LYS551  ARG553  GLY616  TRP617  ASP618  TYR619  PRO620  LYS621  CYS622 
 ASP623  PHE694  ASN695  SER759  ASP760  ASP761  ALA762  ILE779  LEU786  VAL792 
 PHE793  MET794  SER795  GLU796  ALA797  LYS798  CYS799  TRP800  GLU811  SER814 

> <Gold.Protein.RotatedAtoms>
  152.5375  134.2579  159.8923 H   0  0  0  0  0  0  0  0  0  0  0  0  # atno 6907 bound_to 6896
  151.2539  133.4329  159.2620 H   0  0  0  0  0  0  0  0  0  0  0  0  # atno 6908 bound_to 6896
  151.0514  134.9689  159.8269 H   0  0  0  0  0  0  0  0  0  0  0  0  # atno 6909 bound_to 6896
  145.0361  139.4004  143.5125 H   0  0  0  0  0  0  0  0  0  0  0  0  # atno 7974 bound_to 7965
  156.2902  140.2657  156.2350 H   0  0  0  0  0  0  0  0  0  0  0  0  # atno 8008 bound_to 7997
  155.0034  140.0387  157.2388 H   0  0  0  0  0  0  0  0  0  0  0  0  # atno 8009 bound_to 7997
  154.7581  140.2755  155.6242 H   0  0  0  0  0  0  0  0  0  0  0  0  # atno 8010 bound_to 7997
  140.4640  143.2445  151.8306 H   0  0  0  0  0  0  0  0  0  0  0  0  # atno 10167 bound_to 10162
  157.2354  131.0748  151.1826 H   0  0  0  0  0  0  0  0  0  0  0  0  # atno 10718 bound_to 10713
  154.3957  135.2754  155.2127 H   0  0  0  0  0  0  0  0  0  0  0  0  # atno 10763 bound_to 10752
  154.4175  135.6008  153.5993 H   0  0  0  0  0  0  0  0  0  0  0  0  # atno 10764 bound_to 10752
  152.9831  135.5964  154.4218 H   0  0  0  0  0  0  0  0  0  0  0  0  # atno 10765 bound_to 10752
  140.5640  134.0165  155.7982 H   0  0  0  0  0  0  0  0  0  0  0  0  # atno 11005 bound_to 11000
  146.3504  139.9937  142.8683 LP  0  0  0  0  0  0  0  0  0  0  0  0  # atno 17320 bound_to 7965
  145.1708  140.9720  143.4323 LP  0  0  0  0  0  0  0  0  0  0  0  0  # atno 17321 bound_to 7965
  139.4809  144.4973  151.9107 LP  0  0  0  0  0  0  0  0  0  0  0  0  # atno 17342 bound_to 10162
  140.4059  144.2433  150.5891 LP  0  0  0  0  0  0  0  0  0  0  0  0  # atno 17343 bound_to 10162
  157.3434  130.7045  149.6396 LP  0  0  0  0  0  0  0  0  0  0  0  0  # atno 17370 bound_to 10713
  155.9673  130.4273  150.4738 LP  0  0  0  0  0  0  0  0  0  0  0  0  # atno 17371 bound_to 10713
  141.1097  133.9636  157.2932 LP  0  0  0  0  0  0  0  0  0  0  0  0  # atno 17394 bound_to 11000
  139.9394  135.0193  156.8660 LP  0  0  0  0  0  0  0  0  0  0  0  0  # atno 17395 bound_to 11000

$$$$
