#       Name:                AV-unprocessed.smi:3032
#       Creating user name   scv26
#       Creation time:       Fri Mar 27 16:53:49 2020


#       File generated by GOLD software.
#

@<TRIPOS>MOLECULE
AV-unprocessed.smi:3032
    41    42     1
SMALL
NO_CHARGES


@<TRIPOS>ATOM
      1 ****        -3.2386   0.7529  -3.1671 C.3            1 S1                 0.0000
      2 ****        -2.6064   0.3137  -1.8384 C.3            1 S1                 0.0000
      3 ****        -3.2833   1.0024  -0.6377 C.3            1 S1                 0.0000
      4 ****        -2.6467   0.5700   0.6926 C.3            1 S1                 0.0000
      5 ****        -1.1329   0.8332   0.6965 C.3            1 S1                 0.0000
      6 ****        -0.4416   0.1352  -0.4930 C.3            1 S1                 0.0000
      7 ****         1.0661   0.4210  -0.4910 C.2            1 S1                 0.0000
      8 ****         1.4813   1.5697  -0.6511 O.2            1 S1                 0.0000
      9 ****         1.8741  -0.6331  -0.3042 N.am           1 S1                 0.0000
     10 ****         3.3287  -0.5672  -0.2078 C.3            1 S1                 0.0000
     11 ****         3.8059  -0.1562   1.1974 C.3            1 S1                 0.0000
     12 ****         3.2838  -1.0620   2.2952 C.2            1 S1                 0.0000
     13 ****         3.8569  -2.2148   2.6982 N.pl3          1 S1                -1.0000
     14 ****         3.1316  -2.7754   3.6463 N.2            1 S1                 0.0000
     15 ****         2.0984  -1.9400   3.8049 C.2            1 S1                 0.0000
     16 ****         2.1604  -0.8840   2.9870 N.2            1 S1                 0.0000
     17 ****        -1.0874   0.5769  -1.8242 C.3            1 S1                 0.0000
     18 ****        -3.1088   1.8229  -3.3333 H              1 S1                 0.0000
     19 ****        -4.3079   0.5402  -3.1829 H              1 S1                 0.0000
     20 ****        -2.7863   0.2280  -4.0093 H              1 S1                 0.0000
     21 ****        -2.7621  -0.7617  -1.7405 H              1 S1                 0.0000
     22 ****        -3.2058   2.0857  -0.7414 H              1 S1                 0.0000
     23 ****        -4.3485   0.7694  -0.6244 H              1 S1                 0.0000
     24 ****        -3.1175   1.1015   1.5200 H              1 S1                 0.0000
     25 ****        -2.8337  -0.4914   0.8605 H              1 S1                 0.0000
     26 ****        -0.9556   1.9094   0.6571 H              1 S1                 0.0000
     27 ****        -0.7045   0.4841   1.6373 H              1 S1                 0.0000
     28 ****        -0.5868  -0.9416  -0.3857 H              1 S1                 0.0000
     29 ****         1.4501  -1.5389  -0.1653 H              1 S1                 0.0000
     30 ****         3.7223  -1.5547  -0.4501 H              1 S1                 0.0000
     31 ****         3.7281   0.1161  -0.9587 H              1 S1                 0.0000
     32 ****         4.8956  -0.1596   1.2323 H              1 S1                 0.0000
     33 ****         3.4948   0.8664   1.4138 H              1 S1                 0.0000
     34 ****         1.2982  -2.1037   4.5159 H              1 S1                 0.0000
     35 ****        -0.6174   0.0472  -2.6543 H              1 S1                 0.0000
     36 ****        -0.9037   1.6392  -1.9950 H              1 S1                 0.0000
     37 ****         0.8348   2.3211  -0.7831 LP             1 S1                 0.0000
     38 ****         2.4648   1.7507  -0.6489 LP             1 S1                 0.0000
     39 ****         4.7082  -2.5899   2.3313 LP             1 S1                 0.0000
     40 ****         3.3123  -3.6291   4.1346 LP             1 S1                 0.0000
     41 ****         1.5086  -0.1293   2.9119 LP             1 S1                 0.0000
@<TRIPOS>BOND
    1    1    2 1     
    2    1   18 1     
    3    1   19 1     
    4    1   20 1     
    5    2   17 1     
    6    2    3 1     
    7    2   21 1     
    8    3    4 1     
    9    3   22 1     
   10    3   23 1     
   11    4    5 1     
   12    4   24 1     
   13    4   25 1     
   14    5    6 1     
   15    5   26 1     
   16    5   27 1     
   17    6    7 1     
   18    6   17 1     
   19    6   28 1     
   20    7    8 2     
   21    7    9 am    
   22    9   10 1     
   23    9   29 1     
   24   10   11 1     
   25   10   30 1     
   26   10   31 1     
   27   11   32 1     
   28   11   33 1     
   29   11   12 1     
   30   12   16 2     
   31   12   13 1     
   32   13   14 1     
   33   14   15 2     
   34   15   16 1     
   35   15   34 1     
   36   17   35 1     
   37   17   36 1     
   38    8   37 1     
   39    8   38 1     
   40   13   39 1     
   41   14   40 1     
   42   16   41 1     
@<TRIPOS>SUBSTRUCTURE
      1 S1             1
@<TRIPOS>SET
LONE_PAIRS      STATIC     ATOMS    <user>   **** ""
5 37 38 39 40 41
DONOR_HYDROGENS      STATIC     ATOMS    <user>   **** ""
1 29
ATOM$BLUE        STATIC     ATOMS    COLORGROUP SYSTEM
5 37 38 39 40 41
ATOM$RED        STATIC     ATOMS    COLORGROUP SYSTEM
1 29
