#       Name:                AV-unprocessed.smi:298
#       Creating user name   scv26
#       Creation time:       Thu Mar 26 22:14:56 2020


#       File generated by GOLD software.
#

@<TRIPOS>MOLECULE
AV-unprocessed.smi:298
    44    46     1
SMALL
NO_CHARGES


@<TRIPOS>ATOM
      1 ****        -2.6054   4.0632   2.3375 C.3            1 S1                 0.0000
      2 ****        -2.2624   2.8762   1.4546 C.ar           1 S1                 0.0000
      3 ****        -2.6497   2.8962   0.0956 C.ar           1 S1                 0.0000
      4 ****        -2.3496   1.8129  -0.7590 C.ar           1 S1                 0.0000
      5 ****        -2.6290   1.6234  -2.1016 N.2            1 S1                 0.0000
      6 ****        -2.0971   0.4240  -2.3188 C.2            1 S1                 0.0000
      7 ****        -1.5053  -0.1869  -1.2742 N.pl3          1 S1                 0.0000
      8 ****        -0.8683  -1.4918  -1.2664 C.3            1 S1                 0.0000
      9 ****         0.6694  -1.4020  -1.2664 C.3            1 S1                 0.0000
     10 ****         1.1092  -0.6972  -2.4132 O.3            1 S1                 0.0000
     11 ****         1.3239  -2.7961  -1.2290 C.3            1 S1                 0.0000
     12 ****         2.7705  -2.7307  -1.1335 N.pl3          1 S1                 0.0000
     13 ****         3.7119  -2.8606  -2.0738 C.2            1 S1                 0.0000
     14 ****         4.9520  -2.7407  -1.6157 N.2            1 S1                 0.0000
     15 ****         4.6704  -2.5233  -0.2981 C.2            1 S1                 0.0000
     16 ****         5.7253  -2.3221   0.6806 C.1            1 S1                 0.0000
     17 ****         6.5653  -2.1621   1.4603 N.1            1 S1                 0.0000
     18 ****         3.3862  -2.5073   0.0526 N.2            1 S1                 0.0000
     19 ****        -1.6476   0.6993  -0.2121 C.ar           1 S1                 0.0000
     20 ****        -1.2566   0.6675   1.1381 C.ar           1 S1                 0.0000
     21 ****        -1.5622   1.7592   1.9776 C.ar           1 S1                 0.0000
     22 ****        -1.1316   1.7177   3.4331 C.3            1 S1                 0.0000
     23 ****        -3.1639   4.8206   1.7869 H              1 S1                 0.0000
     24 ****        -1.6972   4.5290   2.7202 H              1 S1                 0.0000
     25 ****        -3.2167   3.7476   3.1830 H              1 S1                 0.0000
     26 ****        -3.1826   3.7467  -0.3037 H              1 S1                 0.0000
     27 ****        -2.1395  -0.0378  -3.2944 H              1 S1                 0.0000
     28 ****        -1.2130  -2.0303  -0.3828 H              1 S1                 0.0000
     29 ****        -1.2176  -2.0572  -2.1318 H              1 S1                 0.0000
     30 ****         0.9902  -0.8375  -0.3897 H              1 S1                 0.0000
     31 ****         0.8159  -1.1602  -3.1829 H              1 S1                 0.0000
     32 ****         0.9514  -3.3638  -0.3750 H              1 S1                 0.0000
     33 ****         1.0607  -3.3666  -2.1209 H              1 S1                 0.0000
     34 ****         3.4852  -3.0450  -3.1136 H              1 S1                 0.0000
     35 ****        -0.7246  -0.1898   1.5232 H              1 S1                 0.0000
     36 ****        -0.6214   0.7839   3.6710 H              1 S1                 0.0000
     37 ****        -1.9968   1.8022   4.0910 H              1 S1                 0.0000
     38 ****        -0.4477   2.5380   3.6519 H              1 S1                 0.0000
     39 ****        -3.1051   2.2286  -2.7396 LP             1 S1                 0.0000
     40 ****         2.1077  -0.6430  -2.4129 LP             1 S1                 0.0000
     41 ****         0.7252   0.2262  -2.4089 LP             1 S1                 0.0000
     42 ****         5.8292  -2.7937  -2.0928 LP             1 S1                 0.0000
     43 ****         7.2911  -2.0238   2.1341 LP             1 S1                 0.0000
     44 ****         2.9814  -2.3669   0.9562 LP             1 S1                 0.0000
@<TRIPOS>BOND
    1    1    2 1     
    2    1   23 1     
    3    1   24 1     
    4    1   25 1     
    5    2   21 ar    
    6    2    3 ar    
    7    3    4 ar    
    8    3   26 1     
    9    4   19 ar    
   10    4    5 1     
   11    5    6 2     
   12    6    7 1     
   13    6   27 1     
   14    7    8 1     
   15    7   19 1     
   16    8    9 1     
   17    8   28 1     
   18    8   29 1     
   19    9   10 1     
   20    9   11 1     
   21    9   30 1     
   22   10   31 1     
   23   11   12 1     
   24   11   32 1     
   25   11   33 1     
   26   12   18 1     
   27   12   13 1     
   28   13   14 2     
   29   13   34 1     
   30   14   15 1     
   31   15   16 1     
   32   15   18 2     
   33   16   17 3     
   34   19   20 ar    
   35   20   21 ar    
   36   20   35 1     
   37   21   22 1     
   38   22   36 1     
   39   22   37 1     
   40   22   38 1     
   41    5   39 1     
   42   10   40 1     
   43   10   41 1     
   44   14   42 1     
   45   17   43 1     
   46   18   44 1     
@<TRIPOS>SUBSTRUCTURE
      1 S1             1
@<TRIPOS>SET
LONE_PAIRS      STATIC     ATOMS    <user>   **** ""
6 39 40 41 42 43 44
DONOR_HYDROGENS      STATIC     ATOMS    <user>   **** ""
1 31
ATOM$BLUE        STATIC     ATOMS    COLORGROUP SYSTEM
6 39 40 41 42 43 44
ATOM$RED        STATIC     ATOMS    COLORGROUP SYSTEM
1 31
