AV-unprocessed.smi:3164|AV-procd|sdf|12082|dock3
  -GOLD-   2272017513D 1   1.00000     0.00000
 Structure written by MMmdl.
 40 41  0  0  0  0  0  0  0  0  3 V2000
  145.3372  137.8374  154.2824 C   0  0  0  0  0  0  0  0  0  0  0  0
  145.6844  139.2593  154.0729 N   0  3  2  0  0  0  0  0  0  0  0  0
  146.7917  139.4391  153.1068 C   0  0  0  0  0  0  0  0  0  0  0  0
  147.0830  140.9346  152.9032 C   0  0  0  0  0  0  0  0  0  0  0  0
  147.3738  141.5357  154.1596 O   0  0  0  0  0  0  0  0  0  0  0  0
  146.2794  141.4581  155.0690 C   0  0  2  0  0  0  0  0  0  0  0  0
  146.6760  142.2070  156.3503 C   0  0  0  0  0  0  0  0  0  0  0  0
  148.1360  142.1563  156.5619 N   0  3  0  0  0  0  0  0  0  0  0  0
  148.5453  141.7879  157.9324 C   0  0  0  0  0  0  0  0  0  0  0  0
  150.0570  141.5175  158.0175 C   0  0  0  0  0  0  0  0  0  0  0  0
  150.8501  142.7278  158.4825 C   0  0  0  0  0  0  0  0  0  0  0  0
  151.6242  143.4740  157.5687 C   0  0  0  0  0  0  0  0  0  0  0  0
  152.3245  144.5998  158.0444 C   0  0  0  0  0  0  0  0  0  0  0  0
  152.2222  144.9356  159.4080 C   0  0  0  0  0  0  0  0  0  0  0  0
  151.4235  144.1267  160.2399 C   0  0  0  0  0  0  0  0  0  0  0  0
  150.7461  143.0466  159.7934 N   0  0  0  0  0  0  0  0  0  0  0  0
  145.9699  139.9715  155.3402 C   0  0  0  0  0  0  0  0  0  0  0  0
  146.1729  137.2898  154.7201 H   0  0  0  0  0  0  0  0  0  0  0  0
  145.0751  137.3625  153.3363 H   0  0  0  0  0  0  0  0  0  0  0  0
  144.4799  137.7453  154.9499 H   0  0  0  0  0  0  0  0  0  0  0  0
  147.6855  138.9323  153.4747 H   0  0  0  0  0  0  0  0  0  0  0  0
  146.5300  138.9777  152.1538 H   0  0  0  0  0  0  0  0  0  0  0  0
  147.9403  141.0641  152.2425 H   0  0  0  0  0  0  0  0  0  0  0  0
  146.2377  141.4381  152.4309 H   0  0  0  0  0  0  0  0  0  0  0  0
  145.4029  141.9388  154.6297 H   0  0  0  0  0  0  0  0  0  0  0  0
  146.3686  143.2517  156.2867 H   0  0  0  0  0  0  0  0  0  0  0  0
  146.1649  141.7719  157.2103 H   0  0  0  0  0  0  0  0  0  0  0  0
  148.5218  141.4673  155.9309 H   0  0  0  0  0  0  0  0  0  0  0  0
  148.2730  142.5965  158.6117 H   0  0  0  0  0  0  0  0  0  0  0  0
  147.9970  140.9011  158.2536 H   0  0  0  0  0  0  0  0  0  0  0  0
  150.2517  140.6801  158.6893 H   0  0  0  0  0  0  0  0  0  0  0  0
  150.4265  141.2089  157.0388 H   0  0  0  0  0  0  0  0  0  0  0  0
  151.6805  143.1946  156.5266 H   0  0  0  0  0  0  0  0  0  0  0  0
  152.9274  145.1957  157.3753 H   0  0  0  0  0  0  0  0  0  0  0  0
  152.7446  145.7924  159.8073 H   0  0  0  0  0  0  0  0  0  0  0  0
  151.3212  144.3554  161.2903 H   0  0  0  0  0  0  0  0  0  0  0  0
  145.1116  139.8847  156.0080 H   0  0  0  0  0  0  0  0  0  0  0  0
  146.8149  139.4957  155.8412 H   0  0  0  0  0  0  0  0  0  0  0  0
  148.5361  143.0558  156.3348 H   0  0  0  0  0  0  0  0  0  0  0  0
  144.8703  139.6988  153.6667 H   0  0  0  0  0  0  0  0  0  0  0  0
  1  2  1  0  0  0  0
  1 18  1  0  0  0  0
  1 19  1  0  0  0  0
  1 20  1  0  0  0  0
  2 17  1  0  0  0  0
  2  3  1  0  0  0  0
  2 40  1  0  0  0  0
  3  4  1  0  0  0  0
  3 21  1  0  0  0  0
  3 22  1  0  0  0  0
  4  5  1  0  0  0  0
  4 23  1  0  0  0  0
  4 24  1  0  0  0  0
  5  6  1  0  0  0  0
  6  7  1  0  0  0  0
  6 17  1  0  0  0  0
  6 25  1  0  0  0  0
  7  8  1  0  0  0  0
  7 26  1  0  0  0  0
  7 27  1  0  0  0  0
  8  9  1  0  0  0  0
  8 28  1  0  0  0  0
  8 39  1  0  0  0  0
  9 10  1  0  0  0  0
  9 29  1  0  0  0  0
  9 30  1  0  0  0  0
 10 11  1  0  0  0  0
 10 31  1  0  0  0  0
 10 32  1  0  0  0  0
 11 16  1  0  0  0  0
 11 12  2  0  0  0  0
 12 13  1  0  0  0  0
 12 33  1  0  0  0  0
 13 14  2  0  0  0  0
 13 34  1  0  0  0  0
 14 15  1  0  0  0  0
 14 35  1  0  0  0  0
 15 16  2  0  0  0  0
 15 36  1  0  0  0  0
 17 37  1  0  0  0  0
 17 38  1  0  0  0  0
M  CHG  1   2   1
M  CHG  1   8   1
M  END
> <s_m_source_file>
AV-unprocessed.smi

> <i_m_source_file_index>
3164

> <i_lp_mmshare_version>
43012

> <i_f3d_flags>
0

> <s_epik_input>
W0NIM11OMVtDSDJdW0NIMl1PW0NASF0oW0NIMl0xKVtDSDJdW05IXVtDSDJdW0NIMl1jMltjSF1bY0hdW2NIXVtjSF1uMg==

> <s_epik_cmdline>
J2VwaWtfcHl0aG9uJywgJy1waCcsICc3LjAnLCAnLXRuJywgJzgnLCAnLW1hJywgJzIwMCcsICctbWV0YWxfYmluZGluZycsICctaW1hZScsICc8aW5maWxlLm1hZT4nLCAnLW9tYWUnLCAnPG91dGZpbGUubWFlPic=

> <r_epik_Ionization_Penalty>
0.294944

> <r_epik_Ionization_Penalty_Charging>
0.29381

> <r_epik_Ionization_Penalty_Neutral>
0.00113372

> <r_epik_State_Penalty>
0.271365

> <r_epik_Charging_Adjusted_Penalty>
0.565175

> <i_epik_Tot_Q>
2

> <i_epik_Tot_abs_Q>
2

> <r_epik_Metal_State_Penalty>
0.271365

> <b_epik_Metal_Only>
0

> <s_lp_Force_Field>
OPLS_2005

> <r_lp_Energy>
22.5841

> <b_lp_Chiralities_Consistent>
1

> <s_lp_Variant>
AV-unprocessed.smi:3164-4

> <Gold.Version>
5.8.1

> <Gold.Id.Protein>
6NUR|6NUR_protein|mol2

> <Gold.PLP.Fitness>
41.4807

> <Gold.PLP.PLP>
-31.7566

> <Gold.PLP.part.hbond>
-3.0000

> <Gold.PLP.part.metal>
0.0000

> <Gold.PLP.part.buried>
-5.1825

> <Gold.PLP.part.nonpolar>
-23.2202

> <Gold.PLP.part.repulsive>
0.2067

> <Gold.PLP.ligand.clash>
0.0000

> <Gold.PLP.ligand.torsion>
1.1575

> <Gold.PLP.Chemscore.Hbond>
4.0000

> <Gold.PLP.Chemscore.CHOScore>
0.0000

> <Gold.PLP.Chemscore.Metal>
0.0000

> <Gold.Chemscore.Hbonds>
donor molecule, donor type, donor heavy atom, donor atom, acceptor molecule, acceptor atom, score
      L1  H     2    40       P1 10175  2.00
      L1  H     8    39       P1  8028  2.00

> <Gold.PLP.Chemscore.Internal.Correction>
0.0390

> <Gold.Rescore>
     Score         DG    S(hbond)    S(metal)    S(lipo)     H(rot)  DE(clash)    DE(int)     intcor
     17.08     -18.59       1.98        0.00      91.60       1.65       0.28       1.22       ----

> <Gold.Chemscore.Fitness>
17.0799

> <Gold.Chemscore.DG>
-18.5851

> <Gold.Chemscore.ZeroCoef>
-5.4800

> <Gold.Chemscore.Hbond>
1.9760

> <Gold.Chemscore.Metal>
0.0000

> <Gold.Chemscore.Lipo>
91.6019

> <Gold.Chemscore.Internal_Hbond>
0.0000

> <Gold.Chemscore.DEClash>
0.2848

> <Gold.Chemscore.DEInternal>
1.2204

> <Gold.Chemscore.Rot>
1.6454

> <Gold.Chemscore.Internal.Correction>
   9.000000E+99

> <Gold.Chemscore.Hbonds>
donor molecule, donor type, donor heavy atom, donor atom, acceptor molecule, acceptor atom, score
      L1  H     2    40       P1 10175  1.00
      L1  H     8    39       P1  8028  0.91

> <Gold.Chemscore.Hbond.Weighted>
-6.5999

> <Gold.Chemscore.Metal.Weighted>
-0.0000

> <Gold.Chemscore.Lipo.Weighted>
-10.7174

> <Gold.Chemscore.Internal_Hbond.Weighted>
0.0000

> <Gold.Chemscore.DEClash.Weighted>
0.2848

> <Gold.Chemscore.DEInternal.Weighted>
1.2204

> <Gold.Chemscore.Rot.Weighted>
4.2122

> <Gold.Chemscore.Internal.Correction.Weighted>
   9.000000E+99

> <Gold.Protein.RotatedTorsions>
[ 6907 6896 6895 6894 ] final   67.39 input  -60.11 | X-H torsion
[ 7974 7965 7964 7962 ] final  146.51 input  175.53 | X-H torsion
[ 8008 7997 7996 7995 ] final  -25.10 input   59.86 | X-H torsion
[ 10167 10162 10161 10158 ] final -169.49 input  -65.29 | X-H torsion
[ 10718 10713 10712 10709 ] final -172.65 input   66.30 | X-H torsion
[ 10763 10752 10751 10750 ] final  -11.08 input  -60.55 | X-H torsion
[ 11005 11000 10999 10996 ] final  166.36 input  -57.11 | X-H torsion

> <Gold.Protein.ActiveResidues>
 VAL166  LYS551  ARG553  GLY616  TRP617  ASP618  TYR619  PRO620  LYS621  CYS622 
 ASP623  PHE694  ASN695  SER759  ASP760  ASP761  ALA762  ILE779  LEU786  VAL792 
 PHE793  MET794  SER795  GLU796  ALA797  LYS798  CYS799  TRP800  GLU811  SER814 

> <Gold.Protein.RotatedAtoms>
  152.4548  134.5315  159.9812 H   0  0  0  0  0  0  0  0  0  0  0  0  # atno 6907 bound_to 6896
  151.5379  133.3432  159.2938 H   0  0  0  0  0  0  0  0  0  0  0  0  # atno 6908 bound_to 6896
  150.8489  134.7838  159.7055 H   0  0  0  0  0  0  0  0  0  0  0  0  # atno 6909 bound_to 6896
  144.8665  139.5914  143.5906 H   0  0  0  0  0  0  0  0  0  0  0  0  # atno 7974 bound_to 7965
  154.4494  140.1935  156.0567 H   0  0  0  0  0  0  0  0  0  0  0  0  # atno 8008 bound_to 7997
  156.0614  140.3296  155.7438 H   0  0  0  0  0  0  0  0  0  0  0  0  # atno 8009 bound_to 7997
  155.5406  140.0586  157.2861 H   0  0  0  0  0  0  0  0  0  0  0  0  # atno 8010 bound_to 7997
  139.5920  144.1193  152.1645 H   0  0  0  0  0  0  0  0  0  0  0  0  # atno 10167 bound_to 10162
  156.7587  130.9405  151.3117 H   0  0  0  0  0  0  0  0  0  0  0  0  # atno 10718 bound_to 10713
  153.4786  135.7017  153.5951 H   0  0  0  0  0  0  0  0  0  0  0  0  # atno 10763 bound_to 10752
  153.4174  135.3833  155.2090 H   0  0  0  0  0  0  0  0  0  0  0  0  # atno 10764 bound_to 10752
  154.8722  135.3919  154.4232 H   0  0  0  0  0  0  0  0  0  0  0  0  # atno 10765 bound_to 10752
  140.2657  134.7867  157.3630 H   0  0  0  0  0  0  0  0  0  0  0  0  # atno 11005 bound_to 11000
  146.2899  139.7110  142.9168 LP  0  0  0  0  0  0  0  0  0  0  0  0  # atno 17320 bound_to 7965
  145.4212  141.0406  143.2963 LP  0  0  0  0  0  0  0  0  0  0  0  0  # atno 17321 bound_to 7965
  140.0770  144.5732  150.7150 LP  0  0  0  0  0  0  0  0  0  0  0  0  # atno 17342 bound_to 10162
  140.7181  143.2562  151.4370 LP  0  0  0  0  0  0  0  0  0  0  0  0  # atno 17343 bound_to 10162
  157.6744  130.9081  150.0116 LP  0  0  0  0  0  0  0  0  0  0  0  0  # atno 17370 bound_to 10713
  156.1353  130.3643  149.9666 LP  0  0  0  0  0  0  0  0  0  0  0  0  # atno 17371 bound_to 10713
  140.1422  134.4957  155.8023 LP  0  0  0  0  0  0  0  0  0  0  0  0  # atno 17394 bound_to 11000
  141.2184  133.6829  156.7230 LP  0  0  0  0  0  0  0  0  0  0  0  0  # atno 17395 bound_to 11000

$$$$
