AV-unprocessed.smi:1793|AV-procd|sdf|7226|dock2
  -GOLD-   22720 8473D 1   1.00000     0.00000
 Structure written by MMmdl.
 46 48  0  0  0  0  0  0  0  0  1 V2000
  144.6068  135.6209  150.4727 C   0  0  0  0  0  0  0  0  0  0  0  0
  145.3785  135.1151  151.7001 C   0  0  2  0  0  0  0  0  0  0  0  0
  146.4210  136.0852  152.0310 N   0  0  0  0  0  0  0  0  0  0  0  0
  146.2205  137.3258  152.4989 C   0  0  0  0  0  0  0  0  0  0  0  0
  145.1069  137.8066  152.7080 O   0  0  0  0  0  0  0  0  0  0  0  0
  147.3878  137.9500  152.7260 N   0  0  0  0  0  0  0  0  0  0  0  0
  147.5967  139.2225  153.3282 C   0  0  0  0  0  0  0  0  0  0  0  0
  146.6777  140.2849  153.1468 C   0  0  0  0  0  0  0  0  0  0  0  0
  146.9579  141.5432  153.7063 C   0  0  0  0  0  0  0  0  0  0  0  0
  148.1597  141.7013  154.4157 C   0  0  0  0  0  0  0  0  0  0  0  0
  149.0521  140.7053  154.5841 N   0  0  0  0  0  0  0  0  0  0  0  0
  148.7894  139.4809  154.0637 C   0  0  0  0  0  0  0  0  0  0  0  0
  149.7571  138.4735  154.2862 N   0  0  0  0  0  0  0  0  0  0  0  0
  151.1125  138.8267  154.6946 C   0  0  0  0  0  0  0  0  0  0  0  0
  151.7279  137.5221  155.1920 C   0  0  0  0  0  0  0  0  0  0  0  0
  150.5372  136.8313  155.8493 C   0  0  0  0  0  0  0  0  0  0  0  0
  149.3469  137.2581  154.9838 C   0  0  0  0  0  0  0  0  0  0  0  0
  145.9916  133.7207  151.4534 C   0  0  1  0  0  0  0  0  0  0  0  0
  146.6930  133.0923  152.6580 C   0  0  0  0  0  0  0  0  0  0  0  0
  146.6672  131.6076  152.3403 C   0  0  0  0  0  0  0  0  0  0  0  0
  145.5432  131.4688  151.3093 C   0  0  0  0  0  0  0  0  0  0  0  0
  144.9760  132.7668  151.1833 O   0  0  0  0  0  0  0  0  0  0  0  0
  143.7949  134.9423  150.2103 H   0  0  0  0  0  0  0  0  0  0  0  0
  145.2581  135.7113  149.6025 H   0  0  0  0  0  0  0  0  0  0  0  0
  144.1659  136.6000  150.6621 H   0  0  0  0  0  0  0  0  0  0  0  0
  144.6693  135.0424  152.5267 H   0  0  0  0  0  0  0  0  0  0  0  0
  147.3743  135.7813  151.8977 H   0  0  0  0  0  0  0  0  0  0  0  0
  148.2216  137.3992  152.5814 H   0  0  0  0  0  0  0  0  0  0  0  0
  145.7742  140.1616  152.5695 H   0  0  0  0  0  0  0  0  0  0  0  0
  146.2737  142.3696  153.5832 H   0  0  0  0  0  0  0  0  0  0  0  0
  148.4152  142.6544  154.8545 H   0  0  0  0  0  0  0  0  0  0  0  0
  151.6795  139.2532  153.8669 H   0  0  0  0  0  0  0  0  0  0  0  0
  151.0940  139.5522  155.5090 H   0  0  0  0  0  0  0  0  0  0  0  0
  152.0837  136.9301  154.3475 H   0  0  0  0  0  0  0  0  0  0  0  0
  152.5636  137.6789  155.8746 H   0  0  0  0  0  0  0  0  0  0  0  0
  150.6512  135.7485  155.9090 H   0  0  0  0  0  0  0  0  0  0  0  0
  150.4086  137.2119  156.8635 H   0  0  0  0  0  0  0  0  0  0  0  0
  148.4505  137.4120  155.5864 H   0  0  0  0  0  0  0  0  0  0  0  0
  149.1306  136.4851  154.2460 H   0  0  0  0  0  0  0  0  0  0  0  0
  146.6779  133.7528  150.6047 H   0  0  0  0  0  0  0  0  0  0  0  0
  147.7023  133.4757  152.8115 H   0  0  0  0  0  0  0  0  0  0  0  0
  146.1186  133.2796  153.5664 H   0  0  0  0  0  0  0  0  0  0  0  0
  147.6162  131.2843  151.9111 H   0  0  0  0  0  0  0  0  0  0  0  0
  146.4822  131.0123  153.2351 H   0  0  0  0  0  0  0  0  0  0  0  0
  145.9436  131.1533  150.3451 H   0  0  0  0  0  0  0  0  0  0  0  0
  144.7853  130.7472  151.6149 H   0  0  0  0  0  0  0  0  0  0  0  0
  1  2  1  0  0  0  0
  1 23  1  0  0  0  0
  1 24  1  0  0  0  0
  1 25  1  0  0  0  0
  2  3  1  0  0  0  0
  2 18  1  0  0  0  0
  2 26  1  0  0  0  0
  3  4  1  0  0  0  0
  3 27  1  0  0  0  0
  4  5  2  0  0  0  0
  4  6  1  0  0  0  0
  6  7  1  0  0  0  0
  6 28  1  0  0  0  0
  7 12  1  0  0  0  0
  7  8  2  0  0  0  0
  8  9  1  0  0  0  0
  8 29  1  0  0  0  0
  9 10  2  0  0  0  0
  9 30  1  0  0  0  0
 10 11  1  0  0  0  0
 10 31  1  0  0  0  0
 11 12  2  0  0  0  0
 12 13  1  0  0  0  0
 13 17  1  0  0  0  0
 13 14  1  0  0  0  0
 14 15  1  0  0  0  0
 14 32  1  0  0  0  0
 14 33  1  0  0  0  0
 15 16  1  0  0  0  0
 15 34  1  0  0  0  0
 15 35  1  0  0  0  0
 16 17  1  0  0  0  0
 16 36  1  0  0  0  0
 16 37  1  0  0  0  0
 17 38  1  0  0  0  0
 17 39  1  0  0  0  0
 18 22  1  0  0  0  0
 18 19  1  0  0  0  0
 18 40  1  0  0  0  0
 19 20  1  0  0  0  0
 19 41  1  0  0  0  0
 19 42  1  0  0  0  0
 20 21  1  0  0  0  0
 20 43  1  0  0  0  0
 20 44  1  0  0  0  0
 21 22  1  0  0  0  0
 21 45  1  0  0  0  0
 21 46  1  0  0  0  0
M  END
> <s_m_source_file>
AV-unprocessed.smi

> <i_m_source_file_index>
1793

> <i_lp_mmshare_version>
43012

> <i_f3d_flags>
0

> <s_epik_input>
TzFbQ0gyXVtDSDJdW0NIMl1bQ0BIXTFbQ0BIXShbQ0gzXSlbTkhdQyg9TylbTkhdYzJbY0hdW2NIXVtjSF1uYzJOM1tDSDJdW0NIMl1bQ0gyXVtDSDJdMw==

> <s_epik_cmdline>
J2VwaWtfcHl0aG9uJywgJy1waCcsICc3LjAnLCAnLXRuJywgJzgnLCAnLW1hJywgJzIwMCcsICctbWV0YWxfYmluZGluZycsICctaW1hZScsICc8aW5maWxlLm1hZT4nLCAnLW9tYWUnLCAnPG91dGZpbGUubWFlPic=

> <r_lp_tautomer_probability>
1

> <r_epik_Ionization_Penalty>
0.0992086

> <r_epik_Ionization_Penalty_Charging>
0

> <r_epik_Ionization_Penalty_Neutral>
0.0992086

> <r_epik_State_Penalty>
0.0887141

> <r_epik_Charging_Adjusted_Penalty>
0.0887141

> <i_epik_Tot_Q>
0

> <i_epik_Tot_abs_Q>
0

> <r_epik_Metal_State_Penalty>
0.075945

> <b_epik_Metal_Only>
0

> <s_lp_Force_Field>
OPLS_2005

> <r_lp_Energy>
46.1922

> <b_lp_Chiralities_Consistent>
1

> <s_lp_Variant>
AV-unprocessed.smi:1793-3

> <Gold.Version>
5.8.1

> <Gold.Id.Protein>
6NUR|6NUR_protein|mol2

> <Gold.PLP.Fitness>
40.1350

> <Gold.PLP.PLP>
-32.0214

> <Gold.PLP.part.hbond>
-1.8162

> <Gold.PLP.part.metal>
0.0000

> <Gold.PLP.part.buried>
-0.5426

> <Gold.PLP.part.nonpolar>
-31.2024

> <Gold.PLP.part.repulsive>
1.5001

> <Gold.PLP.ligand.clash>
0.0000

> <Gold.PLP.ligand.torsion>
0.5433

> <Gold.PLP.Chemscore.Hbond>
1.9440

> <Gold.PLP.Chemscore.CHOScore>
1.0000

> <Gold.PLP.Chemscore.Metal>
0.0000

> <Gold.Chemscore.Hbonds>
donor molecule, donor type, donor heavy atom, donor atom, acceptor molecule, acceptor atom, score
      L1  H     3    27       P1  7948  0.94
      L1  H     6    28       P1  7948  1.00
      L1  C    10    31       P1  8028  1.00

> <Gold.PLP.Chemscore.Internal.Correction>
0.3683

> <Gold.Rescore>
     Score         DG    S(hbond)    S(metal)    S(lipo)     H(rot)  DE(clash)    DE(int)     intcor
     16.00     -18.52       1.86        0.00      88.18       1.36       0.78       1.74       ----

> <Gold.Chemscore.Fitness>
16.0012

> <Gold.Chemscore.DG>
-18.5181

> <Gold.Chemscore.ZeroCoef>
-5.4800

> <Gold.Chemscore.Hbond>
1.8559

> <Gold.Chemscore.Metal>
0.0000

> <Gold.Chemscore.Lipo>
88.1753

> <Gold.Chemscore.Internal_Hbond>
0.0000

> <Gold.Chemscore.DEClash>
0.7757

> <Gold.Chemscore.DEInternal>
1.7412

> <Gold.Chemscore.Rot>
1.3582

> <Gold.Chemscore.Internal.Correction>
   9.000000E+99

> <Gold.Chemscore.Hbonds>
donor molecule, donor type, donor heavy atom, donor atom, acceptor molecule, acceptor atom, score
      L1  H     3    27       P1  7948  0.90
      L1  H     6    28       P1  7948  0.89

> <Gold.Chemscore.Hbond.Weighted>
-6.1987

> <Gold.Chemscore.Metal.Weighted>
-0.0000

> <Gold.Chemscore.Lipo.Weighted>
-10.3165

> <Gold.Chemscore.Internal_Hbond.Weighted>
0.0000

> <Gold.Chemscore.DEClash.Weighted>
0.7757

> <Gold.Chemscore.DEInternal.Weighted>
1.7412

> <Gold.Chemscore.Rot.Weighted>
3.4771

> <Gold.Chemscore.Internal.Correction.Weighted>
   9.000000E+99

> <Gold.Protein.RotatedTorsions>
[ 6907 6896 6895 6894 ] final -162.27 input  -60.11 | X-H torsion
[ 7974 7965 7964 7962 ] final  155.56 input  175.53 | X-H torsion
[ 8008 7997 7996 7995 ] final    7.16 input   59.86 | X-H torsion
[ 10167 10162 10161 10158 ] final -132.24 input  -65.29 | X-H torsion
[ 10718 10713 10712 10709 ] final  167.24 input   66.30 | X-H torsion
[ 10763 10752 10751 10750 ] final   93.41 input  -60.55 | X-H torsion
[ 11005 11000 10999 10996 ] final  -83.02 input  -57.11 | X-H torsion

> <Gold.Protein.ActiveResidues>
 VAL166  LYS551  ARG553  GLY616  TRP617  ASP618  TYR619  PRO620  LYS621  CYS622 
 ASP623  PHE694  ASN695  SER759  ASP760  ASP761  ALA762  ILE779  LEU786  VAL792 
 PHE793  MET794  SER795  GLU796  ALA797  LYS798  CYS799  TRP800  GLU811  SER814 

> <Gold.Protein.RotatedAtoms>
  151.3778  133.3832  159.2706 H   0  0  0  0  0  0  0  0  0  0  0  0  # atno 6907 bound_to 6896
  150.9601  134.8991  159.7736 H   0  0  0  0  0  0  0  0  0  0  0  0  # atno 6908 bound_to 6896
  152.5146  134.3736  159.9379 H   0  0  0  0  0  0  0  0  0  0  0  0  # atno 6909 bound_to 6896
  144.8017  139.7084  143.6179 H   0  0  0  0  0  0  0  0  0  0  0  0  # atno 7974 bound_to 7965
  154.7502  140.2765  155.6299 H   0  0  0  0  0  0  0  0  0  0  0  0  # atno 8008 bound_to 7997
  156.2894  140.2680  156.2180 H   0  0  0  0  0  0  0  0  0  0  0  0  # atno 8009 bound_to 7997
  155.0146  140.0372  157.2403 H   0  0  0  0  0  0  0  0  0  0  0  0  # atno 8010 bound_to 7997
  139.9106  143.6499  152.2576 H   0  0  0  0  0  0  0  0  0  0  0  0  # atno 10167 bound_to 10162
  157.0543  131.0322  151.2670 H   0  0  0  0  0  0  0  0  0  0  0  0  # atno 10718 bound_to 10713
  153.2300  135.4326  155.0584 H   0  0  0  0  0  0  0  0  0  0  0  0  # atno 10763 bound_to 10752
  154.8292  135.3377  154.6802 H   0  0  0  0  0  0  0  0  0  0  0  0  # atno 10764 bound_to 10752
  153.7229  135.7016  153.5064 H   0  0  0  0  0  0  0  0  0  0  0  0  # atno 10765 bound_to 10752
  141.1660  133.7273  156.8659 H   0  0  0  0  0  0  0  0  0  0  0  0  # atno 11005 bound_to 11000
  146.2300  139.5796  142.9561 LP  0  0  0  0  0  0  0  0  0  0  0  0  # atno 17320 bound_to 7965
  145.5536  141.0411  143.2265 LP  0  0  0  0  0  0  0  0  0  0  0  0  # atno 17321 bound_to 7965
  139.6946  144.7643  151.1379 LP  0  0  0  0  0  0  0  0  0  0  0  0  # atno 17342 bound_to 10162
  140.7686  143.5542  150.9171 LP  0  0  0  0  0  0  0  0  0  0  0  0  # atno 17343 bound_to 10162
  157.5005  130.7877  149.7600 LP  0  0  0  0  0  0  0  0  0  0  0  0  # atno 17370 bound_to 10713
  155.9998  130.3887  150.2651 LP  0  0  0  0  0  0  0  0  0  0  0  0  # atno 17371 bound_to 10713
  140.1816  134.9029  157.2955 LP  0  0  0  0  0  0  0  0  0  0  0  0  # atno 17394 bound_to 11000
  140.2389  134.3819  155.7489 LP  0  0  0  0  0  0  0  0  0  0  0  0  # atno 17395 bound_to 11000

$$$$
