AV-unprocessed.smi:1012|AV-procd|sdf|4425|dock10
  -GOLD-   22720 2383D 1   1.00000     0.00000
 Structure written by MMmdl.
 44 46  0  0  0  0  0  0  0  0  2 V2000
  144.7125  144.5840  153.2461 C   0  0  0  0  0  0  0  0  0  0  0  0
  145.6614  143.5494  153.4602 O   0  0  0  0  0  0  0  0  0  0  0  0
  145.6707  142.9132  154.6854 C   0  0  0  0  0  0  0  0  0  0  0  0
  144.7604  143.2117  155.7316 C   0  0  0  0  0  0  0  0  0  0  0  0
  144.8263  142.5224  156.9575 C   0  0  0  0  0  0  0  0  0  0  0  0
  145.7994  141.5271  157.1558 C   0  0  0  0  0  0  0  0  0  0  0  0
  146.7076  141.2218  156.1263 C   0  0  0  0  0  0  0  0  0  0  0  0
  146.6472  141.9102  154.8961 C   0  0  0  0  0  0  0  0  0  0  0  0
  147.6341  141.5628  153.7967 C   0  0  0  0  0  0  0  0  0  0  0  0
  147.0725  140.6522  152.8660 O   0  0  0  0  0  0  0  0  0  0  0  0
  146.6763  139.4299  153.4640 C   0  0  0  0  0  0  0  0  0  0  0  0
  146.3371  138.4153  152.3570 C   0  0  1  0  0  0  0  0  0  0  0  0
  147.3162  138.5144  151.3441 O   0  0  0  0  0  0  0  0  0  0  0  0
  146.3229  136.9490  152.8340 C   0  0  0  0  0  0  0  0  0  0  0  0
  145.9835  136.0015  151.7626 N   0  0  0  0  0  0  0  0  0  0  0  0
  145.5357  136.2514  150.5021 C   0  0  0  0  0  0  0  0  0  0  0  0
  145.3667  135.0525  149.8794 N   0  3  0  0  0  0  0  0  0  0  0  0
  145.7119  134.0201  150.7541 C   0  0  0  0  0  0  0  0  0  0  0  0
  145.7039  132.6401  150.5804 C   0  0  0  0  0  0  0  0  0  0  0  0
  146.1119  131.8587  151.6812 C   0  0  0  0  0  0  0  0  0  0  0  0
  146.1203  130.5096  151.5673 F   0  0  0  0  0  0  0  0  0  0  0  0
  146.5088  132.4549  152.8968 C   0  0  0  0  0  0  0  0  0  0  0  0
  146.8902  131.6682  153.9307 F   0  0  0  0  0  0  0  0  0  0  0  0
  146.5158  133.8559  153.0598 C   0  0  0  0  0  0  0  0  0  0  0  0
  146.1106  134.6216  151.9666 C   0  0  0  0  0  0  0  0  0  0  0  0
  144.8390  144.9847  152.2405 H   0  0  0  0  0  0  0  0  0  0  0  0
  144.8532  145.4067  153.9483 H   0  0  0  0  0  0  0  0  0  0  0  0
  143.6906  144.2104  153.3253 H   0  0  0  0  0  0  0  0  0  0  0  0
  143.9982  143.9676  155.6196 H   0  0  0  0  0  0  0  0  0  0  0  0
  144.1277  142.7581  157.7467 H   0  0  0  0  0  0  0  0  0  0  0  0
  145.8490  140.9982  158.0963 H   0  0  0  0  0  0  0  0  0  0  0  0
  147.4528  140.4565  156.2863 H   0  0  0  0  0  0  0  0  0  0  0  0
  147.9481  142.4704  153.2786 H   0  0  0  0  0  0  0  0  0  0  0  0
  148.5269  141.1332  154.2536 H   0  0  0  0  0  0  0  0  0  0  0  0
  147.4477  139.0406  154.1310 H   0  0  0  0  0  0  0  0  0  0  0  0
  145.7969  139.6352  154.0737 H   0  0  0  0  0  0  0  0  0  0  0  0
  145.3650  138.6547  151.9236 H   0  0  0  0  0  0  0  0  0  0  0  0
  148.0073  139.0839  151.6453 H   0  0  0  0  0  0  0  0  0  0  0  0
  147.3140  136.6690  153.1939 H   0  0  0  0  0  0  0  0  0  0  0  0
  145.6449  136.8117  153.6762 H   0  0  0  0  0  0  0  0  0  0  0  0
  145.3479  137.2257  150.0735 H   0  0  0  0  0  0  0  0  0  0  0  0
  145.3995  132.1797  149.6520 H   0  0  0  0  0  0  0  0  0  0  0  0
  146.8176  134.2962  153.9982 H   0  0  0  0  0  0  0  0  0  0  0  0
  145.0392  134.9503  148.9271 H   0  0  0  0  0  0  0  0  0  0  0  0
  1  2  1  0  0  0  0
  1 26  1  0  0  0  0
  1 27  1  0  0  0  0
  1 28  1  0  0  0  0
  2  3  1  0  0  0  0
  3  8  1  0  0  0  0
  3  4  2  0  0  0  0
  4  5  1  0  0  0  0
  4 29  1  0  0  0  0
  5  6  2  0  0  0  0
  5 30  1  0  0  0  0
  6  7  1  0  0  0  0
  6 31  1  0  0  0  0
  7  8  2  0  0  0  0
  7 32  1  0  0  0  0
  8  9  1  0  0  0  0
  9 10  1  0  0  0  0
  9 33  1  0  0  0  0
  9 34  1  0  0  0  0
 10 11  1  0  0  0  0
 11 12  1  0  0  0  0
 11 35  1  0  0  0  0
 11 36  1  0  0  0  0
 12 13  1  0  0  0  0
 12 14  1  0  0  0  0
 12 37  1  0  0  0  0
 13 38  1  0  0  0  0
 14 15  1  0  0  0  0
 14 39  1  0  0  0  0
 14 40  1  0  0  0  0
 15 25  1  0  0  0  0
 15 16  1  0  0  0  0
 16 17  2  0  0  0  0
 16 41  1  0  0  0  0
 17 18  1  0  0  0  0
 17 44  1  0  0  0  0
 18 25  2  0  0  0  0
 18 19  1  0  0  0  0
 19 20  2  0  0  0  0
 19 42  1  0  0  0  0
 20 21  1  0  0  0  0
 20 22  1  0  0  0  0
 22 23  1  0  0  0  0
 22 24  2  0  0  0  0
 24 25  1  0  0  0  0
 24 43  1  0  0  0  0
M  CHG  1  17   1
M  END
> <s_m_source_file>
AV-unprocessed.smi

> <i_m_source_file_index>
1012

> <i_lp_mmshare_version>
43012

> <i_f3d_flags>
0

> <s_epik_input>
W0NIM11PYzFbY0hdW2NIXVtjSF1bY0hdYzFbQ0gyXU9bQ0gyXVtDQEhdKFtPSF0pW0NIMl1uKFtjSF1uMiljKGMyMylbY0hdYyhGKWMoRilbY0hdMw==

> <s_epik_cmdline>
J2VwaWtfcHl0aG9uJywgJy1waCcsICc3LjAnLCAnLXRuJywgJzgnLCAnLW1hJywgJzIwMCcsICctbWV0YWxfYmluZGluZycsICctaW1hZScsICc8aW5maWxlLm1hZT4nLCAnLW9tYWUnLCAnPG91dGZpbGUubWFlPic=

> <r_lp_tautomer_probability>
1

> <r_epik_Ionization_Penalty>
2.14697

> <r_epik_Ionization_Penalty_Charging>
2.14697

> <r_epik_Ionization_Penalty_Neutral>
1.07667e-06

> <r_epik_State_Penalty>
2.28651

> <r_epik_Charging_Adjusted_Penalty>
4.43348

> <i_epik_Tot_Q>
1

> <i_epik_Tot_abs_Q>
1

> <r_epik_Metal_State_Penalty>
6.36664

> <b_epik_Metal_Only>
0

> <s_lp_Force_Field>
OPLS_2005

> <r_lp_Energy>
25.548

> <b_lp_Chiralities_Consistent>
1

> <s_lp_Variant>
AV-unprocessed.smi:1012-4

> <Gold.Version>
5.8.1

> <Gold.Id.Protein>
6NUR|6NUR_protein|mol2

> <Gold.PLP.Fitness>
51.2849

> <Gold.PLP.PLP>
-42.7374

> <Gold.PLP.part.hbond>
-4.4431

> <Gold.PLP.part.metal>
0.0000

> <Gold.PLP.part.buried>
-2.4917

> <Gold.PLP.part.nonpolar>
-36.9109

> <Gold.PLP.part.repulsive>
1.4289

> <Gold.PLP.ligand.clash>
0.0000

> <Gold.PLP.ligand.torsion>
0.5895

> <Gold.PLP.Chemscore.Hbond>
2.1960

> <Gold.PLP.Chemscore.CHOScore>
1.0000

> <Gold.PLP.Chemscore.Metal>
0.0000

> <Gold.Chemscore.Hbonds>
donor molecule, donor type, donor heavy atom, donor atom, acceptor molecule, acceptor atom, score
      L1  H    13    38       P1  7957  0.88
      L1  H    17    44       P1  7921  0.43
      P1  H  7954  7966       L1    13  0.85
      L1  C    16    41       P1 10171  0.95

> <Gold.PLP.Chemscore.Internal.Correction>
0.1385

> <Gold.Rescore>
     Score         DG    S(hbond)    S(metal)    S(lipo)     H(rot)  DE(clash)    DE(int)     intcor
      9.79     -11.69       1.26        0.00      83.39       3.03       1.22       0.69       ----

> <Gold.Chemscore.Fitness>
9.7869

> <Gold.Chemscore.DG>
-11.6917

> <Gold.Chemscore.ZeroCoef>
-5.4800

> <Gold.Chemscore.Hbond>
1.2594

> <Gold.Chemscore.Metal>
0.0000

> <Gold.Chemscore.Lipo>
83.3894

> <Gold.Chemscore.Internal_Hbond>
0.0000

> <Gold.Chemscore.DEClash>
1.2184

> <Gold.Chemscore.DEInternal>
0.6864

> <Gold.Chemscore.Rot>
3.0278

> <Gold.Chemscore.Internal.Correction>
   9.000000E+99

> <Gold.Chemscore.Hbonds>
donor molecule, donor type, donor heavy atom, donor atom, acceptor molecule, acceptor atom, score
      L1  H    13    38       P1  7957  0.80
      L1  H    17    44       P1  7921  0.42
      P1  H  7954  7966       L1    13  0.14

> <Gold.Chemscore.Hbond.Weighted>
-4.2062

> <Gold.Chemscore.Metal.Weighted>
-0.0000

> <Gold.Chemscore.Lipo.Weighted>
-9.7566

> <Gold.Chemscore.Internal_Hbond.Weighted>
0.0000

> <Gold.Chemscore.DEClash.Weighted>
1.2184

> <Gold.Chemscore.DEInternal.Weighted>
0.6864

> <Gold.Chemscore.Rot.Weighted>
7.7512

> <Gold.Chemscore.Internal.Correction.Weighted>
   9.000000E+99

> <Gold.Protein.RotatedTorsions>
[ 6907 6896 6895 6894 ] final   75.30 input  -60.11 | X-H torsion
[ 7974 7965 7964 7962 ] final -138.28 input  175.53 | X-H torsion
[ 8008 7997 7996 7995 ] final  140.69 input   59.86 | X-H torsion
[ 10167 10162 10161 10158 ] final    6.51 input  -65.29 | X-H torsion
[ 10718 10713 10712 10709 ] final   81.74 input   66.30 | X-H torsion
[ 10763 10752 10751 10750 ] final  128.70 input  -60.55 | X-H torsion
[ 11005 11000 10999 10996 ] final  -66.99 input  -57.11 | X-H torsion

> <Gold.Protein.ActiveResidues>
 VAL166  LYS551  ARG553  GLY616  TRP617  ASP618  TYR619  PRO620  LYS621  CYS622 
 ASP623  PHE694  ASN695  SER759  ASP760  ASP761  ALA762  ILE779  LEU786  VAL792 
 PHE793  MET794  SER795  GLU796  ALA797  LYS798  CYS799  TRP800  GLU811  SER814 

> <Gold.Protein.RotatedAtoms>
  152.5019  134.4141  159.9458 H   0  0  0  0  0  0  0  0  0  0  0  0  # atno 6907 bound_to 6896
  151.4110  133.3721  159.2752 H   0  0  0  0  0  0  0  0  0  0  0  0  # atno 6908 bound_to 6896
  150.9291  134.8729  159.7599 H   0  0  0  0  0  0  0  0  0  0  0  0  # atno 6909 bound_to 6896
  144.8771  140.6453  143.5229 H   0  0  0  0  0  0  0  0  0  0  0  0  # atno 7974 bound_to 7965
  156.2976  140.2335  156.4443 H   0  0  0  0  0  0  0  0  0  0  0  0  # atno 8008 bound_to 7997
  154.8158  140.0440  157.1396 H   0  0  0  0  0  0  0  0  0  0  0  0  # atno 8009 bound_to 7997
  154.9371  140.3024  155.5142 H   0  0  0  0  0  0  0  0  0  0  0  0  # atno 8010 bound_to 7997
  140.6423  143.7744  150.7447 H   0  0  0  0  0  0  0  0  0  0  0  0  # atno 10167 bound_to 10162
  157.6840  131.0017  150.2272 H   0  0  0  0  0  0  0  0  0  0  0  0  # atno 10718 bound_to 10713
  153.7298  135.3240  155.3283 H   0  0  0  0  0  0  0  0  0  0  0  0  # atno 10763 bound_to 10752
  154.8329  135.4519  154.1133 H   0  0  0  0  0  0  0  0  0  0  0  0  # atno 10764 bound_to 10752
  153.2277  135.6956  153.8006 H   0  0  0  0  0  0  0  0  0  0  0  0  # atno 10765 bound_to 10752
  141.1496  133.6710  156.6224 H   0  0  0  0  0  0  0  0  0  0  0  0  # atno 11005 bound_to 11000
  145.4022  139.1595  143.4171 LP  0  0  0  0  0  0  0  0  0  0  0  0  # atno 17320 bound_to 7965
  146.2970  140.4120  142.8718 LP  0  0  0  0  0  0  0  0  0  0  0  0  # atno 17321 bound_to 7965
  140.1378  143.4468  152.2213 LP  0  0  0  0  0  0  0  0  0  0  0  0  # atno 17342 bound_to 10162
  139.5633  144.7419  151.4093 LP  0  0  0  0  0  0  0  0  0  0  0  0  # atno 17343 bound_to 10162
  156.2911  130.3746  149.7840 LP  0  0  0  0  0  0  0  0  0  0  0  0  # atno 17370 bound_to 10713
  156.5499  130.8337  151.3296 LP  0  0  0  0  0  0  0  0  0  0  0  0  # atno 17371 bound_to 10713
  140.3530  134.7752  157.4480 LP  0  0  0  0  0  0  0  0  0  0  0  0  # atno 17394 bound_to 11000
  140.0845  134.5685  155.8506 LP  0  0  0  0  0  0  0  0  0  0  0  0  # atno 17395 bound_to 11000

$$$$
