#       Name:                AV-unprocessed.smi:243
#       Creating user name   scv26
#       Creation time:       Thu Mar 26 20:49:40 2020


#       File generated by GOLD software.
#

@<TRIPOS>MOLECULE
AV-unprocessed.smi:243
    65    68     1
SMALL
NO_CHARGES


@<TRIPOS>ATOM
      1 ****        -3.9192  -3.4370   1.0535 C.3            1 S1                 0.0000
      2 ****        -2.7886  -2.7395   1.8242 C.3            1 S1                 0.0000
      3 ****        -2.9420  -1.2626   1.8542 N.4            1 S1                 1.0000
      4 ****        -2.6424  -0.6196   0.5502 C.3            1 S1                 0.0000
      5 ****        -2.9204   0.8957   0.5899 C.3            1 S1                 0.0000
      6 ****        -2.2121   1.6382   1.7451 C.3            1 S1                 0.0000
      7 ****        -0.8308   2.0613   1.4443 N.pl3          1 S1                 0.0000
      8 ****        -0.2723   3.2359   2.1065 C.3            1 S1                 0.0000
      9 ****         0.1011   1.1662   1.0460 C.ar           1 S1                 0.0000
     10 ****         0.8796   0.5563   1.9762 N.ar           1 S1                 0.0000
     11 ****         1.8037  -0.3316   1.5973 C.ar           1 S1                 0.0000
     12 ****         2.1136  -0.7385   0.3645 N.ar           1 S1                 0.0000
     13 ****         1.3561  -0.1013  -0.5738 C.ar           1 S1                 0.0000
     14 ****         0.3401   0.8623  -0.3213 C.ar           1 S1                 0.0000
     15 ****        -0.2141   1.2945  -1.5190 N.2            1 S1                 0.0000
     16 ****         0.4300   0.6163  -2.4291 C.2            1 S1                 0.0000
     17 ****         1.3939  -0.2423  -1.9499 N.pl3          1 S1                 0.0000
     18 ****         2.2552  -1.1127  -2.7354 C.3            1 S1                 0.0000
     19 ****         3.5795  -0.4419  -3.1684 C.3            1 S1                 0.0000
     20 ****         4.3274  -0.1049  -2.0131 O.3            1 S1                 0.0000
     21 ****         3.3956   0.8180  -4.0105 C.3            1 S1                 0.0000
     22 ****         4.6023   0.7870  -4.9380 C.3            1 S1                 0.0000
     23 ****         4.7130  -0.5907  -5.2499 O.3            1 S1                 0.0000
     24 ****         4.4502  -1.3412  -4.0688 C.3            1 S1                 0.0000
     25 ****        -2.4407   0.8676   3.0775 C.3            1 S1                 0.0000
     26 ****        -1.7602   1.4813   4.3114 C.3            1 S1                 0.0000
     27 ****        -2.1647  -0.6463   2.9589 C.3            1 S1                 0.0000
     28 ****        -3.8263  -4.5201   1.1367 H              1 S1                 0.0000
     29 ****        -3.9039  -3.1949  -0.0087 H              1 S1                 0.0000
     30 ****        -4.8963  -3.1592   1.4500 H              1 S1                 0.0000
     31 ****        -2.8015  -3.1221   2.8456 H              1 S1                 0.0000
     32 ****        -1.8159  -3.0069   1.4085 H              1 S1                 0.0000
     33 ****        -1.6106  -0.8312   0.2771 H              1 S1                 0.0000
     34 ****        -3.2584  -1.0576  -0.2339 H              1 S1                 0.0000
     35 ****        -2.6833   1.3578  -0.3680 H              1 S1                 0.0000
     36 ****        -3.9959   1.0301   0.7130 H              1 S1                 0.0000
     37 ****        -2.7491   2.5818   1.8492 H              1 S1                 0.0000
     38 ****         0.3094   2.9684   2.9884 H              1 S1                 0.0000
     39 ****        -1.0595   3.9229   2.4169 H              1 S1                 0.0000
     40 ****         0.3843   3.7735   1.4215 H              1 S1                 0.0000
     41 ****         2.3767  -0.7802   2.3954 H              1 S1                 0.0000
     42 ****         0.2188   0.7269  -3.4828 H              1 S1                 0.0000
     43 ****         2.4592  -2.0132  -2.1544 H              1 S1                 0.0000
     44 ****         1.6955  -1.4373  -3.6136 H              1 S1                 0.0000
     45 ****         5.1455   0.2803  -2.2871 H              1 S1                 0.0000
     46 ****         2.4908   0.7396  -4.6147 H              1 S1                 0.0000
     47 ****         3.3252   1.7354  -3.4243 H              1 S1                 0.0000
     48 ****         4.4641   1.3938  -5.8330 H              1 S1                 0.0000
     49 ****         5.5039   1.1243  -4.4244 H              1 S1                 0.0000
     50 ****         5.3940  -1.6099  -3.5914 H              1 S1                 0.0000
     51 ****         3.9476  -2.2701  -4.3400 H              1 S1                 0.0000
     52 ****        -3.5110   0.9508   3.2737 H              1 S1                 0.0000
     53 ****        -0.6785   1.3539   4.2801 H              1 S1                 0.0000
     54 ****        -2.1135   1.0053   5.2264 H              1 S1                 0.0000
     55 ****        -1.9775   2.5463   4.3948 H              1 S1                 0.0000
     56 ****        -2.4459  -1.1264   3.8971 H              1 S1                 0.0000
     57 ****        -1.1056  -0.8520   2.8199 H              1 S1                 0.0000
     58 ****        -3.9141  -1.0788   2.0582 H              1 S1                 0.0000
     59 ****         0.7614   0.7716   2.9456 LP             1 S1                 0.0000
     60 ****         2.8119  -1.4231   0.1555 LP             1 S1                 0.0000
     61 ****        -0.9395   1.9697  -1.6531 LP             1 S1                 0.0000
     62 ****         4.5059  -0.9286  -1.4748 LP             1 S1                 0.0000
     63 ****         3.8147   0.5508  -1.4589 LP             1 S1                 0.0000
     64 ****         5.6364  -0.7896  -5.5780 LP             1 S1                 0.0000
     65 ****         4.0488  -0.8312  -5.9577 LP             1 S1                 0.0000
@<TRIPOS>BOND
    1    1    2 1     
    2    1   28 1     
    3    1   29 1     
    4    1   30 1     
    5    2    3 1     
    6    2   31 1     
    7    2   32 1     
    8    3   27 1     
    9    3    4 1     
   10    3   58 1     
   11    4    5 1     
   12    4   33 1     
   13    4   34 1     
   14    5    6 1     
   15    5   35 1     
   16    5   36 1     
   17    6    7 1     
   18    6   25 1     
   19    6   37 1     
   20    7    8 1     
   21    7    9 1     
   22    8   38 1     
   23    8   39 1     
   24    8   40 1     
   25    9   14 ar    
   26    9   10 ar    
   27   10   11 ar    
   28   11   12 ar    
   29   11   41 1     
   30   12   13 ar    
   31   13   17 1     
   32   13   14 ar    
   33   14   15 1     
   34   15   16 2     
   35   16   17 1     
   36   16   42 1     
   37   17   18 1     
   38   18   19 1     
   39   18   43 1     
   40   18   44 1     
   41   19   24 1     
   42   19   20 1     
   43   19   21 1     
   44   20   45 1     
   45   21   22 1     
   46   21   46 1     
   47   21   47 1     
   48   22   23 1     
   49   22   48 1     
   50   22   49 1     
   51   23   24 1     
   52   24   50 1     
   53   24   51 1     
   54   25   26 1     
   55   25   27 1     
   56   25   52 1     
   57   26   53 1     
   58   26   54 1     
   59   26   55 1     
   60   27   56 1     
   61   27   57 1     
   62   10   59 1     
   63   12   60 1     
   64   15   61 1     
   65   20   62 1     
   66   20   63 1     
   67   23   64 1     
   68   23   65 1     
@<TRIPOS>SUBSTRUCTURE
      1 S1             1
@<TRIPOS>SET
LONE_PAIRS      STATIC     ATOMS    <user>   **** ""
7 59 60 61 62 63 64 65
DONOR_HYDROGENS      STATIC     ATOMS    <user>   **** ""
2 58 45
ATOM$BLUE        STATIC     ATOMS    COLORGROUP SYSTEM
7 59 60 61 62 63 64 65
ATOM$RED        STATIC     ATOMS    COLORGROUP SYSTEM
2 58 45
