AV-unprocessed.smi:676|AV-procd|sdf|3307|dock7
  -GOLD-   22720 0273D 1   1.00000     0.00000
 Structure written by MMmdl.
 42 43  0  0  0  0  0  0  0  0  1 V2000
  146.2739  142.3498  156.7362 C   0  0  0  0  0  0  0  0  0  0  0  0
  147.5028  142.1228  156.0564 O   0  0  0  0  0  0  0  0  0  0  0  0
  147.4341  141.5800  154.7311 C   0  0  1  0  0  0  0  0  0  0  0  0
  146.3250  142.2751  153.9305 C   0  0  0  0  0  0  0  0  0  0  0  0
  148.8468  141.4691  154.1249 C   0  0  0  0  0  0  0  0  0  0  0  0
  148.9750  140.0805  154.7570 C   0  0  1  0  0  0  0  0  0  0  0  0
  149.6259  140.1396  156.0651 N   0  0  0  0  0  0  0  0  0  0  0  0
  150.9377  140.3289  156.2609 C   0  0  0  0  0  0  0  0  0  0  0  0
  151.7422  140.4860  155.3419 O   0  0  0  0  0  0  0  0  0  0  0  0
  151.4008  140.3721  157.7231 C   0  0  0  0  0  0  0  0  0  0  0  0
  151.7392  141.7312  158.1752 N   0  0  0  0  0  0  0  0  0  0  0  0
  151.2008  142.8065  157.4404 C   0  0  0  0  0  0  0  0  0  0  0  0
  151.4490  144.0844  157.7676 C   0  0  0  0  0  0  0  0  0  0  0  0
  152.2927  144.3453  158.9100 C   0  0  0  0  0  0  0  0  0  0  0  0
  152.8161  143.3240  159.6169 C   0  0  0  0  0  0  0  0  0  0  0  0
  152.5522  141.9253  159.2593 C   0  0  0  0  0  0  0  0  0  0  0  0
  153.0309  140.9864  159.8965 O   0  0  0  0  0  0  0  0  0  0  0  0
  147.4275  140.0197  154.8357 C   0  0  0  0  0  0  0  0  0  0  0  0
  146.7899  139.4032  156.0920 C   0  0  0  0  0  0  0  0  0  0  0  0
  146.7918  139.2746  153.6523 C   0  0  0  0  0  0  0  0  0  0  0  0
  146.4737  142.9046  157.6526 H   0  0  0  0  0  0  0  0  0  0  0  0
  145.7955  141.4142  157.0255 H   0  0  0  0  0  0  0  0  0  0  0  0
  145.5709  142.9347  156.1441 H   0  0  0  0  0  0  0  0  0  0  0  0
  146.1814  141.8174  152.9525 H   0  0  0  0  0  0  0  0  0  0  0  0
  146.5539  143.3233  153.7405 H   0  0  0  0  0  0  0  0  0  0  0  0
  145.3706  142.2301  154.4556 H   0  0  0  0  0  0  0  0  0  0  0  0
  148.8312  141.4257  153.0348 H   0  0  0  0  0  0  0  0  0  0  0  0
  149.5800  142.1984  154.4688 H   0  0  0  0  0  0  0  0  0  0  0  0
  149.4026  139.3367  154.0822 H   0  0  0  0  0  0  0  0  0  0  0  0
  149.0312  140.0339  156.8745 H   0  0  0  0  0  0  0  0  0  0  0  0
  150.6081  139.9488  158.3414 H   0  0  0  0  0  0  0  0  0  0  0  0
  152.2551  139.7062  157.8613 H   0  0  0  0  0  0  0  0  0  0  0  0
  150.5868  142.5259  156.5969 H   0  0  0  0  0  0  0  0  0  0  0  0
  151.0321  144.8957  157.1891 H   0  0  0  0  0  0  0  0  0  0  0  0
  152.5051  145.3640  159.1990 H   0  0  0  0  0  0  0  0  0  0  0  0
  153.4449  143.5379  160.4687 H   0  0  0  0  0  0  0  0  0  0  0  0
  146.9937  138.3338  156.1576 H   0  0  0  0  0  0  0  0  0  0  0  0
  145.7071  139.5314  156.0913 H   0  0  0  0  0  0  0  0  0  0  0  0
  147.1577  139.8493  157.0157 H   0  0  0  0  0  0  0  0  0  0  0  0
  146.9964  138.2045  153.6996 H   0  0  0  0  0  0  0  0  0  0  0  0
  147.1767  139.6258  152.6945 H   0  0  0  0  0  0  0  0  0  0  0  0
  145.7086  139.3989  153.6309 H   0  0  0  0  0  0  0  0  0  0  0  0
  1  2  1  0  0  0  0
  1 21  1  0  0  0  0
  1 22  1  0  0  0  0
  1 23  1  0  0  0  0
  2  3  1  0  0  0  0
  3 18  1  0  0  0  0
  3  4  1  0  0  0  0
  3  5  1  0  0  0  0
  4 24  1  0  0  0  0
  4 25  1  0  0  0  0
  4 26  1  0  0  0  0
  5  6  1  0  0  0  0
  5 27  1  0  0  0  0
  5 28  1  0  0  0  0
  6  7  1  0  0  0  0
  6 18  1  0  0  0  0
  6 29  1  0  0  0  0
  7  8  1  0  0  0  0
  7 30  1  0  0  0  0
  8  9  2  0  0  0  0
  8 10  1  0  0  0  0
 10 11  1  0  0  0  0
 10 31  1  0  0  0  0
 10 32  1  0  0  0  0
 11 16  1  0  0  0  0
 11 12  1  0  0  0  0
 12 13  2  0  0  0  0
 12 33  1  0  0  0  0
 13 14  1  0  0  0  0
 13 34  1  0  0  0  0
 14 15  2  0  0  0  0
 14 35  1  0  0  0  0
 15 16  1  0  0  0  0
 15 36  1  0  0  0  0
 16 17  2  0  0  0  0
 18 19  1  0  0  0  0
 18 20  1  0  0  0  0
 19 37  1  0  0  0  0
 19 38  1  0  0  0  0
 19 39  1  0  0  0  0
 20 40  1  0  0  0  0
 20 41  1  0  0  0  0
 20 42  1  0  0  0  0
M  END
> <s_m_source_file>
AV-unprocessed.smi

> <i_m_source_file_index>
676

> <i_lp_mmshare_version>
43012

> <i_f3d_flags>
0

> <s_epik_input>
W0NIM11PW0NAQF0xKFtDSDNdKVtDSDJdW0NASF0oQzEoW0NIM10pW0NIM10pW05IXUMoPU8pW0NIMl1uMltjSF1bY0hdW2NIXVtjSF1jMj1P

> <s_epik_cmdline>
J2VwaWtfcHl0aG9uJywgJy1waCcsICc3LjAnLCAnLXRuJywgJzgnLCAnLW1hJywgJzIwMCcsICctbWV0YWxfYmluZGluZycsICctaW1hZScsICc8aW5maWxlLm1hZT4nLCAnLW9tYWUnLCAnPG91dGZpbGUubWFlPic=

> <r_lp_tautomer_probability>
1

> <r_epik_Ionization_Penalty>
4.09771e-07

> <r_epik_Ionization_Penalty_Charging>
3.90712e-07

> <r_epik_Ionization_Penalty_Neutral>
1.90591e-08

> <r_epik_State_Penalty>
-0

> <r_epik_Charging_Adjusted_Penalty>
3.90712e-07

> <i_epik_Tot_Q>
0

> <i_epik_Tot_abs_Q>
0

> <r_epik_Metal_State_Penalty>
-0

> <b_epik_Metal_Only>
0

> <s_lp_Force_Field>
OPLS_2005

> <r_lp_Energy>
33.6273

> <b_lp_Chiralities_Consistent>
1

> <s_lp_Variant>
AV-unprocessed.smi:676-1

> <Gold.Version>
5.8.1

> <Gold.Id.Protein>
6NUR|6NUR_protein|mol2

> <Gold.PLP.Fitness>
39.6392

> <Gold.PLP.PLP>
-38.5080

> <Gold.PLP.part.hbond>
-1.0000

> <Gold.PLP.part.metal>
0.0000

> <Gold.PLP.part.buried>
-3.7757

> <Gold.PLP.part.nonpolar>
-35.2287

> <Gold.PLP.part.repulsive>
1.7674

> <Gold.PLP.ligand.clash>
0.0000

> <Gold.PLP.ligand.torsion>
0.8046

> <Gold.PLP.Chemscore.Hbond>
0.7840

> <Gold.PLP.Chemscore.CHOScore>
0.0000

> <Gold.PLP.Chemscore.Metal>
0.0000

> <Gold.Chemscore.Hbonds>
donor molecule, donor type, donor heavy atom, donor atom, acceptor molecule, acceptor atom, score
      P1  H  7989  7998       L1     9  0.75
      L1  C    12    33       P1  8028  0.01

> <Gold.PLP.Chemscore.Internal.Correction>
0.3884

> <Gold.Rescore>
     Score         DG    S(hbond)    S(metal)    S(lipo)     H(rot)  DE(clash)    DE(int)     intcor
     13.69     -14.56       0.86        0.00      88.39       1.62       0.05       0.82       ----

> <Gold.Chemscore.Fitness>
13.6927

> <Gold.Chemscore.DG>
-14.5633

> <Gold.Chemscore.ZeroCoef>
-5.4800

> <Gold.Chemscore.Hbond>
0.8629

> <Gold.Chemscore.Metal>
0.0000

> <Gold.Chemscore.Lipo>
88.3927

> <Gold.Chemscore.Internal_Hbond>
0.0000

> <Gold.Chemscore.DEClash>
0.0524

> <Gold.Chemscore.DEInternal>
0.8183

> <Gold.Chemscore.Rot>
1.6175

> <Gold.Chemscore.Internal.Correction>
   9.000000E+99

> <Gold.Chemscore.Hbonds>
donor molecule, donor type, donor heavy atom, donor atom, acceptor molecule, acceptor atom, score
      P1  H  7989  7998       L1     9  0.76

> <Gold.Chemscore.Hbond.Weighted>
-2.8821

> <Gold.Chemscore.Metal.Weighted>
-0.0000

> <Gold.Chemscore.Lipo.Weighted>
-10.3419

> <Gold.Chemscore.Internal_Hbond.Weighted>
0.0000

> <Gold.Chemscore.DEClash.Weighted>
0.0524

> <Gold.Chemscore.DEInternal.Weighted>
0.8183

> <Gold.Chemscore.Rot.Weighted>
4.1408

> <Gold.Chemscore.Internal.Correction.Weighted>
   9.000000E+99

> <Gold.Protein.RotatedTorsions>
[ 6907 6896 6895 6894 ] final   68.85 input  -60.11 | X-H torsion
[ 7974 7965 7964 7962 ] final  129.08 input  175.53 | X-H torsion
[ 8008 7997 7996 7995 ] final   40.13 input   59.86 | X-H torsion
[ 10167 10162 10161 10158 ] final  158.04 input  -65.29 | X-H torsion
[ 10718 10713 10712 10709 ] final  133.73 input   66.30 | X-H torsion
[ 10763 10752 10751 10750 ] final  109.84 input  -60.55 | X-H torsion
[ 11005 11000 10999 10996 ] final -160.99 input  -57.11 | X-H torsion

> <Gold.Protein.ActiveResidues>
 VAL166  LYS551  ARG553  GLY616  TRP617  ASP618  TYR619  PRO620  LYS621  CYS622 
 ASP623  PHE694  ASN695  SER759  ASP760  ASP761  ALA762  ILE779  LEU786  VAL792 
 PHE793  MET794  SER795  GLU796  ALA797  LYS798  CYS799  TRP800  GLU811  SER814 

> <Gold.Protein.RotatedAtoms>
  152.4647  134.5102  159.9751 H   0  0  0  0  0  0  0  0  0  0  0  0  # atno 6907 bound_to 6896
  151.5143  133.3473  159.2898 H   0  0  0  0  0  0  0  0  0  0  0  0  # atno 6908 bound_to 6896
  150.8626  134.8011  159.7156 H   0  0  0  0  0  0  0  0  0  0  0  0  # atno 6909 bound_to 6896
  145.0325  139.4034  143.5142 H   0  0  0  0  0  0  0  0  0  0  0  0  # atno 7974 bound_to 7965
  155.2480  140.3350  155.4285 H   0  0  0  0  0  0  0  0  0  0  0  0  # atno 8008 bound_to 7997
  156.2228  140.1816  156.7481 H   0  0  0  0  0  0  0  0  0  0  0  0  # atno 8009 bound_to 7997
  154.5851  140.0647  156.9145 H   0  0  0  0  0  0  0  0  0  0  0  0  # atno 8010 bound_to 7997
  139.4825  144.4861  151.8374 H   0  0  0  0  0  0  0  0  0  0  0  0  # atno 10167 bound_to 10162
  157.4744  131.1082  150.9762 H   0  0  0  0  0  0  0  0  0  0  0  0  # atno 10718 bound_to 10713
  153.4404  135.3767  155.2224 H   0  0  0  0  0  0  0  0  0  0  0  0  # atno 10763 bound_to 10752
  154.8753  135.3861  154.4160 H   0  0  0  0  0  0  0  0  0  0  0  0  # atno 10764 bound_to 10752
  153.4704  135.7087  153.6060 H   0  0  0  0  0  0  0  0  0  0  0  0  # atno 10765 bound_to 10752
  140.6253  134.4707  157.5226 H   0  0  0  0  0  0  0  0  0  0  0  0  # atno 11005 bound_to 11000
  146.3500  139.9883  142.8688 LP  0  0  0  0  0  0  0  0  0  0  0  0  # atno 17320 bound_to 7965
  145.1752  140.9740  143.4298 LP  0  0  0  0  0  0  0  0  0  0  0  0  # atno 17321 bound_to 7965
  140.4342  144.2075  150.5889 LP  0  0  0  0  0  0  0  0  0  0  0  0  # atno 17342 bound_to 10162
  140.4749  143.2399  151.9037 LP  0  0  0  0  0  0  0  0  0  0  0  0  # atno 17343 bound_to 10162
  157.0516  130.5789  149.5371 LP  0  0  0  0  0  0  0  0  0  0  0  0  # atno 17370 bound_to 10713
  156.0089  130.5179  150.7924 LP  0  0  0  0  0  0  0  0  0  0  0  0  # atno 17371 bound_to 10713
  139.9137  134.8291  156.1439 LP  0  0  0  0  0  0  0  0  0  0  0  0  # atno 17394 bound_to 11000
  141.0713  133.6795  156.2147 LP  0  0  0  0  0  0  0  0  0  0  0  0  # atno 17395 bound_to 11000

$$$$
