AV-unprocessed.smi:844|AV-procd|sdf|3926|dock5
  -GOLD-   22720 1383D 1   1.00000     0.00000
 Structure written by MMmdl.
 33 35  0  0  0  0  0  0  0  0  2 V2000
  151.0795  143.4013  156.5610 O   0  0  0  0  0  0  0  0  0  0  0  0
  150.5583  142.5079  157.5234 C   0  0  1  0  0  0  0  0  0  0  0  0
  150.5291  141.0979  156.8993 C   0  0  0  0  0  0  0  0  0  0  0  0
  149.7842  141.0562  155.6347 N   0  0  0  0  0  0  0  0  0  0  0  0
  150.1700  140.6173  154.4057 C   0  0  0  0  0  0  0  0  0  0  0  0
  149.1101  140.7691  153.5641 N   0  3  0  0  0  0  0  0  0  0  0  0
  148.0331  141.3171  154.2645 C   0  0  0  0  0  0  0  0  0  0  0  0
  146.7487  141.6517  153.8470 C   0  0  0  0  0  0  0  0  0  0  0  0
  145.8876  142.1953  154.8232 C   0  0  0  0  0  0  0  0  0  0  0  0
  146.3130  142.3873  156.1540 C   0  0  0  0  0  0  0  0  0  0  0  0
  147.6173  142.0437  156.5663 C   0  0  0  0  0  0  0  0  0  0  0  0
  148.4612  141.5070  155.5951 C   0  0  0  0  0  0  0  0  0  0  0  0
  151.3408  142.5416  158.8317 C   0  0  0  0  0  0  0  0  0  0  0  0
  152.0004  141.3822  159.2974 C   0  0  0  0  0  0  0  0  0  0  0  0
  152.7076  141.4053  160.5149 C   0  0  0  0  0  0  0  0  0  0  0  0
  152.7581  142.5874  161.2775 C   0  0  0  0  0  0  0  0  0  0  0  0
  153.4349  142.6091  162.4499 F   0  0  0  0  0  0  0  0  0  0  0  0
  152.1001  143.7455  160.8222 C   0  0  0  0  0  0  0  0  0  0  0  0
  151.3920  143.7246  159.6048 C   0  0  0  0  0  0  0  0  0  0  0  0
  150.7528  144.8449  159.1897 F   0  0  0  0  0  0  0  0  0  0  0  0
  150.3656  143.9062  156.2023 H   0  0  0  0  0  0  0  0  0  0  0  0
  149.5369  142.8377  157.7133 H   0  0  0  0  0  0  0  0  0  0  0  0
  151.5392  140.7321  156.7093 H   0  0  0  0  0  0  0  0  0  0  0  0
  150.0641  140.3848  157.5816 H   0  0  0  0  0  0  0  0  0  0  0  0
  151.1380  140.2120  154.1481 H   0  0  0  0  0  0  0  0  0  0  0  0
  146.4197  141.5052  152.8287 H   0  0  0  0  0  0  0  0  0  0  0  0
  144.8803  142.4705  154.5457 H   0  0  0  0  0  0  0  0  0  0  0  0
  145.6250  142.8067  156.8738 H   0  0  0  0  0  0  0  0  0  0  0  0
  147.9343  142.1928  157.5881 H   0  0  0  0  0  0  0  0  0  0  0  0
  151.9627  140.4673  158.7241 H   0  0  0  0  0  0  0  0  0  0  0  0
  153.2097  140.5153  160.8644 H   0  0  0  0  0  0  0  0  0  0  0  0
  152.1359  144.6513  161.4094 H   0  0  0  0  0  0  0  0  0  0  0  0
  149.1235  140.5159  152.5843 H   0  0  0  0  0  0  0  0  0  0  0  0
  1  2  1  0  0  0  0
  1 21  1  0  0  0  0
  2  3  1  0  0  0  0
  2 13  1  0  0  0  0
  2 22  1  0  0  0  0
  3  4  1  0  0  0  0
  3 23  1  0  0  0  0
  3 24  1  0  0  0  0
  4 12  1  0  0  0  0
  4  5  1  0  0  0  0
  5  6  2  0  0  0  0
  5 25  1  0  0  0  0
  6  7  1  0  0  0  0
  6 33  1  0  0  0  0
  7 12  2  0  0  0  0
  7  8  1  0  0  0  0
  8  9  2  0  0  0  0
  8 26  1  0  0  0  0
  9 10  1  0  0  0  0
  9 27  1  0  0  0  0
 10 11  2  0  0  0  0
 10 28  1  0  0  0  0
 11 12  1  0  0  0  0
 11 29  1  0  0  0  0
 13 19  1  0  0  0  0
 13 14  2  0  0  0  0
 14 15  1  0  0  0  0
 14 30  1  0  0  0  0
 15 16  2  0  0  0  0
 15 31  1  0  0  0  0
 16 17  1  0  0  0  0
 16 18  1  0  0  0  0
 18 19  2  0  0  0  0
 18 32  1  0  0  0  0
 19 20  1  0  0  0  0
M  CHG  1   6   1
M  END
> <s_m_source_file>
AV-unprocessed.smi

> <i_m_source_file_index>
844

> <i_lp_mmshare_version>
43012

> <i_f3d_flags>
0

> <s_epik_input>
RmMxW2NIXWMoRilbY0hdW2NIXWMxW0NASF0oW09IXSlbQ0gyXW4oW2NIXW4yKWMoYzIzKVtjSF1bY0hdW2NIXVtjSF0z

> <s_epik_cmdline>
J2VwaWtfcHl0aG9uJywgJy1waCcsICc3LjAnLCAnLXRuJywgJzgnLCAnLW1hJywgJzIwMCcsICctbWV0YWxfYmluZGluZycsICctaW1hZScsICc8aW5maWxlLm1hZT4nLCAnLW9tYWUnLCAnPG91dGZpbGUubWFlPic=

> <r_epik_Ionization_Penalty>
1.3029

> <r_epik_Ionization_Penalty_Charging>
1.3029

> <r_epik_Ionization_Penalty_Neutral>
1.79538e-06

> <r_epik_State_Penalty>
1.377

> <r_epik_Charging_Adjusted_Penalty>
2.6799

> <i_epik_Tot_Q>
1

> <i_epik_Tot_abs_Q>
1

> <r_epik_Metal_State_Penalty>
5.40879

> <b_epik_Metal_Only>
0

> <s_lp_Force_Field>
OPLS_2005

> <r_lp_Energy>
17.7817

> <b_lp_Chiralities_Consistent>
1

> <s_lp_Variant>
AV-unprocessed.smi:844-4

> <Gold.Version>
5.8.1

> <Gold.Id.Protein>
6NUR|6NUR_protein|mol2

> <Gold.PLP.Fitness>
49.8246

> <Gold.PLP.PLP>
-43.9184

> <Gold.PLP.part.hbond>
-2.0000

> <Gold.PLP.part.metal>
0.0000

> <Gold.PLP.part.buried>
-2.0706

> <Gold.PLP.part.nonpolar>
-40.0990

> <Gold.PLP.part.repulsive>
0.5884

> <Gold.PLP.ligand.clash>
0.0000

> <Gold.PLP.ligand.torsion>
0.0538

> <Gold.PLP.Chemscore.Hbond>
2.0000

> <Gold.PLP.Chemscore.CHOScore>
0.0000

> <Gold.PLP.Chemscore.Metal>
0.0000

> <Gold.Chemscore.Hbonds>
donor molecule, donor type, donor heavy atom, donor atom, acceptor molecule, acceptor atom, score
      L1  H     1    21       P1  8028  1.00
      L1  H     6    33       P1  7957  1.00

> <Gold.PLP.Chemscore.Internal.Correction>
0.0138

> <Gold.Rescore>
     Score         DG    S(hbond)    S(metal)    S(lipo)     H(rot)  DE(clash)    DE(int)     intcor
     17.05     -18.51       2.00        0.00      99.40       2.06       1.29       0.17       ----

> <Gold.Chemscore.Fitness>
17.0524

> <Gold.Chemscore.DG>
-18.5092

> <Gold.Chemscore.ZeroCoef>
-5.4800

> <Gold.Chemscore.Hbond>
1.9978

> <Gold.Chemscore.Metal>
0.0000

> <Gold.Chemscore.Lipo>
99.3955

> <Gold.Chemscore.Internal_Hbond>
0.0000

> <Gold.Chemscore.DEClash>
1.2917

> <Gold.Chemscore.DEInternal>
0.1651

> <Gold.Chemscore.Rot>
2.0597

> <Gold.Chemscore.Internal.Correction>
   9.000000E+99

> <Gold.Chemscore.Hbonds>
donor molecule, donor type, donor heavy atom, donor atom, acceptor molecule, acceptor atom, score
      L1  H     1    21       P1  8028  1.00
      L1  H     6    33       P1  7957  0.97

> <Gold.Chemscore.Hbond.Weighted>
-6.6727

> <Gold.Chemscore.Metal.Weighted>
-0.0000

> <Gold.Chemscore.Lipo.Weighted>
-11.6293

> <Gold.Chemscore.Internal_Hbond.Weighted>
0.0000

> <Gold.Chemscore.DEClash.Weighted>
1.2917

> <Gold.Chemscore.DEInternal.Weighted>
0.1651

> <Gold.Chemscore.Rot.Weighted>
5.2728

> <Gold.Chemscore.Internal.Correction.Weighted>
   9.000000E+99

> <Gold.Protein.RotatedTorsions>
[ 6907 6896 6895 6894 ] final -156.46 input  -60.11 | X-H torsion
[ 7974 7965 7964 7962 ] final  -71.98 input  175.53 | X-H torsion
[ 8008 7997 7996 7995 ] final  -98.02 input   59.86 | X-H torsion
[ 10167 10162 10161 10158 ] final  146.32 input  -65.29 | X-H torsion
[ 10718 10713 10712 10709 ] final   -3.24 input   66.30 | X-H torsion
[ 10763 10752 10751 10750 ] final   94.67 input  -60.55 | X-H torsion
[ 11005 11000 10999 10996 ] final   27.69 input  -57.11 | X-H torsion

> <Gold.Protein.ActiveResidues>
 VAL166  LYS551  ARG553  GLY616  TRP617  ASP618  TYR619  PRO620  LYS621  CYS622 
 ASP623  PHE694  ASN695  SER759  ASP760  ASP761  ALA762  ILE779  LEU786  VAL792 
 PHE793  MET794  SER795  GLU796  ALA797  LYS798  CYS799  TRP800  GLU811  SER814 

> <Gold.Protein.RotatedAtoms>
  151.2879  133.4179  159.2630 H   0  0  0  0  0  0  0  0  0  0  0  0  # atno 6907 bound_to 6896
  151.0303  134.9535  159.8118 H   0  0  0  0  0  0  0  0  0  0  0  0  # atno 6908 bound_to 6896
  152.5344  134.2840  159.9071 H   0  0  0  0  0  0  0  0  0  0  0  0  # atno 6909 bound_to 6896
  145.6711  140.9220  143.0882 H   0  0  0  0  0  0  0  0  0  0  0  0  # atno 7974 bound_to 7965
  154.7956  140.0458  157.1234 H   0  0  0  0  0  0  0  0  0  0  0  0  # atno 8008 bound_to 7997
  154.9539  140.3069  155.5042 H   0  0  0  0  0  0  0  0  0  0  0  0  # atno 8009 bound_to 7997
  156.2955  140.2283  156.4619 H   0  0  0  0  0  0  0  0  0  0  0  0  # atno 8010 bound_to 7997
  139.4909  144.5838  151.6819 H   0  0  0  0  0  0  0  0  0  0  0  0  # atno 10167 bound_to 10162
  156.7790  130.5324  149.5754 H   0  0  0  0  0  0  0  0  0  0  0  0  # atno 10718 bound_to 10713
  153.2443  135.4281  155.0730 H   0  0  0  0  0  0  0  0  0  0  0  0  # atno 10763 bound_to 10752
  154.8354  135.3410  154.6605 H   0  0  0  0  0  0  0  0  0  0  0  0  # atno 10764 bound_to 10752
  153.7027  135.7027  153.5115 H   0  0  0  0  0  0  0  0  0  0  0  0  # atno 10765 bound_to 10752
  140.3236  134.2516  155.7713 H   0  0  0  0  0  0  0  0  0  0  0  0  # atno 11005 bound_to 11000
  144.7056  139.8573  143.7431 LP  0  0  0  0  0  0  0  0  0  0  0  0  # atno 17320 bound_to 7965
  146.1044  139.4043  143.0326 LP  0  0  0  0  0  0  0  0  0  0  0  0  # atno 17321 bound_to 7965
  140.5450  144.0518  150.6103 LP  0  0  0  0  0  0  0  0  0  0  0  0  # atno 17342 bound_to 10162
  140.3553  143.2939  152.0442 LP  0  0  0  0  0  0  0  0  0  0  0  0  # atno 17343 bound_to 10162
  156.1230  130.6123  151.0222 LP  0  0  0  0  0  0  0  0  0  0  0  0  # atno 17370 bound_to 10713
  157.6655  131.0872  150.7737 LP  0  0  0  0  0  0  0  0  0  0  0  0  # atno 17371 bound_to 10713
  141.2081  133.7788  157.0082 LP  0  0  0  0  0  0  0  0  0  0  0  0  # atno 17394 bound_to 11000
  140.0921  134.9586  157.1792 LP  0  0  0  0  0  0  0  0  0  0  0  0  # atno 17395 bound_to 11000

$$$$
