AV-unprocessed.smi:3230|AV-procd|sdf|12329|dock3
  -GOLD-   2272018183D 1   1.00000     0.00000
 Structure written by MMmdl.
 40 40  0  0  0  0  0  0  0  0  1 V2000
  146.0160  142.9529  153.8513 C   0  0  0  0  0  0  0  0  0  0  0  0
  146.3321  141.4771  154.1375 C   0  0  0  0  0  0  0  0  0  0  0  0
  147.6120  140.9473  153.4399 C   0  0  0  0  0  0  0  0  0  0  0  0
  147.6024  139.4012  153.3282 C   0  0  0  0  0  0  0  0  0  0  0  0
  147.3715  138.8634  151.9079 C   0  0  0  0  0  0  0  0  0  0  0  0
  148.9135  141.4817  154.1021 C   0  0  2  0  0  0  0  0  0  0  0  0
  150.0283  140.7836  153.5804 O   0  0  0  0  0  0  0  0  0  0  0  0
  148.9209  141.3445  155.6419 C   0  0  0  0  0  0  0  0  0  0  0  0
  149.5703  142.4776  156.2932 N   0  0  0  0  0  0  0  0  0  0  0  0
  150.4154  142.3924  157.3327 C   0  0  0  0  0  0  0  0  0  0  0  0
  150.7251  141.3277  157.8680 O   0  0  0  0  0  0  0  0  0  0  0  0
  151.0018  143.7071  157.8489 C   0  0  0  0  0  0  0  0  0  0  0  0
  151.2681  143.6094  159.3263 C   0  0  0  0  0  0  0  0  0  0  0  0
  152.0048  142.6138  160.0264 C   0  0  0  0  0  0  0  0  0  0  0  0
  151.9303  143.0130  161.3302 C   0  0  0  0  0  0  0  0  0  0  0  0
  152.4754  142.4505  162.5980 C   0  0  0  0  0  0  0  0  0  0  0  0
  151.2047  144.1564  161.4298 O   0  0  0  0  0  0  0  0  0  0  0  0
  150.7837  144.5277  160.1481 N   0  0  0  0  0  0  0  0  0  0  0  0
  145.1684  143.2849  154.4511 H   0  0  0  0  0  0  0  0  0  0  0  0
  145.7557  143.1226  152.8072 H   0  0  0  0  0  0  0  0  0  0  0  0
  146.8636  143.5930  154.0974 H   0  0  0  0  0  0  0  0  0  0  0  0
  146.4328  141.3803  155.2177 H   0  0  0  0  0  0  0  0  0  0  0  0
  145.4740  140.8624  153.8631 H   0  0  0  0  0  0  0  0  0  0  0  0
  147.5998  141.3354  152.4203 H   0  0  0  0  0  0  0  0  0  0  0  0
  148.5277  138.9874  153.7301 H   0  0  0  0  0  0  0  0  0  0  0  0
  146.8059  138.9957  153.9499 H   0  0  0  0  0  0  0  0  0  0  0  0
  147.2480  137.7805  151.9254 H   0  0  0  0  0  0  0  0  0  0  0  0
  148.2097  139.0791  151.2461 H   0  0  0  0  0  0  0  0  0  0  0  0
  146.4713  139.2906  151.4653 H   0  0  0  0  0  0  0  0  0  0  0  0
  149.0294  142.5341  153.8478 H   0  0  0  0  0  0  0  0  0  0  0  0
  149.8543  140.5781  152.6745 H   0  0  0  0  0  0  0  0  0  0  0  0
  147.8990  141.2746  156.0184 H   0  0  0  0  0  0  0  0  0  0  0  0
  149.4211  140.4275  155.9547 H   0  0  0  0  0  0  0  0  0  0  0  0
  149.3688  143.3934  155.9181 H   0  0  0  0  0  0  0  0  0  0  0  0
  151.9144  143.9529  157.3036 H   0  0  0  0  0  0  0  0  0  0  0  0
  150.2949  144.5118  157.6445 H   0  0  0  0  0  0  0  0  0  0  0  0
  152.5121  141.7461  159.6314 H   0  0  0  0  0  0  0  0  0  0  0  0
  152.8698  141.4466  162.4403 H   0  0  0  0  0  0  0  0  0  0  0  0
  151.6997  142.3922  163.3618 H   0  0  0  0  0  0  0  0  0  0  0  0
  153.2826  143.0751  162.9809 H   0  0  0  0  0  0  0  0  0  0  0  0
  1  2  1  0  0  0  0
  1 19  1  0  0  0  0
  1 20  1  0  0  0  0
  1 21  1  0  0  0  0
  2  3  1  0  0  0  0
  2 22  1  0  0  0  0
  2 23  1  0  0  0  0
  3  4  1  0  0  0  0
  3  6  1  0  0  0  0
  3 24  1  0  0  0  0
  4  5  1  0  0  0  0
  4 25  1  0  0  0  0
  4 26  1  0  0  0  0
  5 27  1  0  0  0  0
  5 28  1  0  0  0  0
  5 29  1  0  0  0  0
  6  7  1  0  0  0  0
  6  8  1  0  0  0  0
  6 30  1  0  0  0  0
  7 31  1  0  0  0  0
  8  9  1  0  0  0  0
  8 32  1  0  0  0  0
  8 33  1  0  0  0  0
  9 10  1  0  0  0  0
  9 34  1  0  0  0  0
 10 11  2  0  0  0  0
 10 12  1  0  0  0  0
 12 13  1  0  0  0  0
 12 35  1  0  0  0  0
 12 36  1  0  0  0  0
 13 18  2  0  0  0  0
 13 14  1  0  0  0  0
 14 15  2  0  0  0  0
 14 37  1  0  0  0  0
 15 16  1  0  0  0  0
 15 17  1  0  0  0  0
 16 38  1  0  0  0  0
 16 39  1  0  0  0  0
 16 40  1  0  0  0  0
 17 18  1  0  0  0  0
M  END
> <s_m_source_file>
AV-unprocessed.smi

> <i_m_source_file_index>
3230

> <i_lp_mmshare_version>
43012

> <i_f3d_flags>
0

> <s_epik_input>
W0NIM11bQ0gyXVtDSF0oW0NIMl1bQ0gzXSlbQ0BIXShbT0hdKVtDSDJdW05IXUMoPU8pW0NIMl1jMVtjSF1jKFtDSDNdKW9uMQ==

> <s_epik_cmdline>
J2VwaWtfcHl0aG9uJywgJy1waCcsICc3LjAnLCAnLXRuJywgJzgnLCAnLW1hJywgJzIwMCcsICctbWV0YWxfYmluZGluZycsICctaW1hZScsICc8aW5maWxlLm1hZT4nLCAnLW9tYWUnLCAnPG91dGZpbGUubWFlPic=

> <r_lp_tautomer_probability>
1

> <r_epik_Ionization_Penalty>
2.40054e-07

> <r_epik_Ionization_Penalty_Charging>
0

> <r_epik_Ionization_Penalty_Neutral>
2.40054e-07

> <r_epik_State_Penalty>
-0

> <r_epik_Charging_Adjusted_Penalty>
0

> <i_epik_Tot_Q>
0

> <i_epik_Tot_abs_Q>
0

> <r_epik_Metal_State_Penalty>
-0

> <b_epik_Metal_Only>
0

> <s_lp_Force_Field>
OPLS_2005

> <r_lp_Energy>
9.05643

> <b_lp_Chiralities_Consistent>
1

> <s_lp_Variant>
AV-unprocessed.smi:3230-1

> <Gold.Version>
5.8.1

> <Gold.Id.Protein>
6NUR|6NUR_protein|mol2

> <Gold.PLP.Fitness>
49.2915

> <Gold.PLP.PLP>
-46.0198

> <Gold.PLP.part.hbond>
-3.3692

> <Gold.PLP.part.metal>
0.0000

> <Gold.PLP.part.buried>
-4.9055

> <Gold.PLP.part.nonpolar>
-37.9807

> <Gold.PLP.part.repulsive>
0.3061

> <Gold.PLP.ligand.clash>
0.0000

> <Gold.PLP.ligand.torsion>
2.1095

> <Gold.PLP.Chemscore.Hbond>
2.4160

> <Gold.PLP.Chemscore.CHOScore>
0.0000

> <Gold.PLP.Chemscore.Metal>
0.0000

> <Gold.Chemscore.Hbonds>
donor molecule, donor type, donor heavy atom, donor atom, acceptor molecule, acceptor atom, score
      L1  H     7    31       P1  7957  1.00
      L1  H     9    34       P1  8028  0.76
      P1  H  7989  7998       L1     7  0.34

> <Gold.PLP.Chemscore.Internal.Correction>
0.2426

> <Gold.Rescore>
     Score         DG    S(hbond)    S(metal)    S(lipo)     H(rot)  DE(clash)    DE(int)     intcor
     14.09     -16.14       1.87        0.00      94.05       2.57       0.03       2.02       ----

> <Gold.Chemscore.Fitness>
14.0856

> <Gold.Chemscore.DG>
-16.1374

> <Gold.Chemscore.ZeroCoef>
-5.4800

> <Gold.Chemscore.Hbond>
1.8671

> <Gold.Chemscore.Metal>
0.0000

> <Gold.Chemscore.Lipo>
94.0547

> <Gold.Chemscore.Internal_Hbond>
0.0000

> <Gold.Chemscore.DEClash>
0.0339

> <Gold.Chemscore.DEInternal>
2.0179

> <Gold.Chemscore.Rot>
2.5715

> <Gold.Chemscore.Internal.Correction>
   9.000000E+99

> <Gold.Chemscore.Hbonds>
donor molecule, donor type, donor heavy atom, donor atom, acceptor molecule, acceptor atom, score
      L1  H     7    31       P1  7957  0.99
      L1  H     9    34       P1  8028  0.75
      P1  H  7989  7998       L1     7  0.06

> <Gold.Chemscore.Hbond.Weighted>
-6.2360

> <Gold.Chemscore.Metal.Weighted>
-0.0000

> <Gold.Chemscore.Lipo.Weighted>
-11.0044

> <Gold.Chemscore.Internal_Hbond.Weighted>
0.0000

> <Gold.Chemscore.DEClash.Weighted>
0.0339

> <Gold.Chemscore.DEInternal.Weighted>
2.0179

> <Gold.Chemscore.Rot.Weighted>
6.5831

> <Gold.Chemscore.Internal.Correction.Weighted>
   9.000000E+99

> <Gold.Protein.RotatedTorsions>
[ 6907 6896 6895 6894 ] final   -8.02 input  -60.11 | X-H torsion
[ 7974 7965 7964 7962 ] final  139.89 input  175.53 | X-H torsion
[ 8008 7997 7996 7995 ] final -176.68 input   59.86 | X-H torsion
[ 10167 10162 10161 10158 ] final  -51.72 input  -65.29 | X-H torsion
[ 10718 10713 10712 10709 ] final -114.92 input   66.30 | X-H torsion
[ 10763 10752 10751 10750 ] final   38.40 input  -60.55 | X-H torsion
[ 11005 11000 10999 10996 ] final  -98.78 input  -57.11 | X-H torsion

> <Gold.Protein.ActiveResidues>
 VAL166  LYS551  ARG553  GLY616  TRP617  ASP618  TYR619  PRO620  LYS621  CYS622 
 ASP623  PHE694  ASN695  SER759  ASP760  ASP761  ALA762  ILE779  LEU786  VAL792 
 PHE793  MET794  SER795  GLU796  ALA797  LYS798  CYS799  TRP800  GLU811  SER814 

> <Gold.Protein.RotatedAtoms>
  151.4402  135.1019  159.9667 H   0  0  0  0  0  0  0  0  0  0  0  0  # atno 6907 bound_to 6896
  152.4925  133.8535  159.7224 H   0  0  0  0  0  0  0  0  0  0  0  0  # atno 6908 bound_to 6896
  150.9093  133.6959  159.2886 H   0  0  0  0  0  0  0  0  0  0  0  0  # atno 6909 bound_to 6896
  144.9237  139.5135  143.5651 H   0  0  0  0  0  0  0  0  0  0  0  0  # atno 7974 bound_to 7965
  155.9978  140.1214  157.0577 H   0  0  0  0  0  0  0  0  0  0  0  0  # atno 8008 bound_to 7997
  154.4232  140.1113  156.5723 H   0  0  0  0  0  0  0  0  0  0  0  0  # atno 8009 bound_to 7997
  155.6255  140.3472  155.4668 H   0  0  0  0  0  0  0  0  0  0  0  0  # atno 8010 bound_to 7997
  140.6574  143.2609  151.4544 H   0  0  0  0  0  0  0  0  0  0  0  0  # atno 10167 bound_to 10162
  156.0861  130.6053  150.8838 H   0  0  0  0  0  0  0  0  0  0  0  0  # atno 10718 bound_to 10713
  153.0002  135.6250  154.2298 H   0  0  0  0  0  0  0  0  0  0  0  0  # atno 10763 bound_to 10752
  154.2040  135.2803  155.2983 H   0  0  0  0  0  0  0  0  0  0  0  0  # atno 10764 bound_to 10752
  154.5660  135.5691  153.7110 H   0  0  0  0  0  0  0  0  0  0  0  0  # atno 10765 bound_to 10752
  141.1332  133.8272  157.0885 H   0  0  0  0  0  0  0  0  0  0  0  0  # atno 11005 bound_to 11000
  146.3216  139.8136  142.8941 LP  0  0  0  0  0  0  0  0  0  0  0  0  # atno 17320 bound_to 7965
  145.3254  141.0254  143.3476 LP  0  0  0  0  0  0  0  0  0  0  0  0  # atno 17321 bound_to 7965
  139.5799  144.1732  152.1955 LP  0  0  0  0  0  0  0  0  0  0  0  0  # atno 17342 bound_to 10162
  140.1054  144.5503  150.6960 LP  0  0  0  0  0  0  0  0  0  0  0  0  # atno 17343 bound_to 10162
  157.5996  131.0942  150.8983 LP  0  0  0  0  0  0  0  0  0  0  0  0  # atno 17370 bound_to 10713
  156.9142  130.5292  149.5280 LP  0  0  0  0  0  0  0  0  0  0  0  0  # atno 17371 bound_to 10713
  140.0407  134.9856  157.0956 LP  0  0  0  0  0  0  0  0  0  0  0  0  # atno 17394 bound_to 11000
  140.4140  134.1951  155.7163 LP  0  0  0  0  0  0  0  0  0  0  0  0  # atno 17395 bound_to 11000

$$$$
