AV-unprocessed.smi:2046|AV-procd|sdf|8312|dock1
  -GOLD-   2272010583D 1   1.00000     0.00000
 Structure written by MMmdl.
 30 31  0  0  0  0  0  0  0  0  1 V2000
  149.9347  140.6892  157.4255 O   0  0  0  0  0  0  0  0  0  0  0  0
  149.8583  141.8016  156.9033 C   0  0  0  0  0  0  0  0  0  0  0  0
  150.3851  142.9339  157.4022 N   0  0  0  0  0  0  0  0  0  0  0  0
  151.1240  143.1073  158.6022 C   0  0  0  0  0  0  0  0  0  0  0  0
  151.1249  142.2215  159.6109 N   0  0  0  0  0  0  0  0  0  0  0  0
  151.9307  142.6342  160.6642 N   0  0  0  0  0  0  0  0  0  0  0  0
  152.5048  143.8132  160.4091 C   0  0  0  0  0  0  0  0  0  0  0  0
  152.1166  144.5356  158.8572 S   0  0  0  0  0  0  0  0  0  0  0  0
  149.2253  142.0329  155.7439 N   0  0  0  0  0  0  0  0  0  0  0  0
  148.5667  141.0233  154.9132 C   0  0  1  0  0  0  0  0  0  0  0  0
  147.7516  141.7047  153.7909 C   0  0  0  0  0  0  0  0  0  0  0  0
  146.6208  140.8324  153.2220 C   0  0  0  0  0  0  0  0  0  0  0  0
  147.0853  139.5403  152.5335 C   0  0  0  0  0  0  0  0  0  0  0  0
  147.7540  138.5374  153.4896 C   0  0  0  0  0  0  0  0  0  0  0  0
  149.1391  138.8830  153.7843 N   0  0  0  0  0  0  0  0  0  0  0  0
  149.5849  139.9821  154.4115 C   0  0  0  0  0  0  0  0  0  0  0  0
  150.7915  140.1605  154.5773 O   0  0  0  0  0  0  0  0  0  0  0  0
  150.2433  143.7712  156.8572 H   0  0  0  0  0  0  0  0  0  0  0  0
  153.1613  144.2608  161.1405 H   0  0  0  0  0  0  0  0  0  0  0  0
  149.2166  142.9773  155.3873 H   0  0  0  0  0  0  0  0  0  0  0  0
  147.8747  140.4836  155.5629 H   0  0  0  0  0  0  0  0  0  0  0  0
  147.2925  142.6161  154.1754 H   0  0  0  0  0  0  0  0  0  0  0  0
  148.4158  142.0272  152.9878 H   0  0  0  0  0  0  0  0  0  0  0  0
  145.9161  140.5880  154.0176 H   0  0  0  0  0  0  0  0  0  0  0  0
  146.0575  141.4253  152.5006 H   0  0  0  0  0  0  0  0  0  0  0  0
  146.2099  139.0617  152.0932 H   0  0  0  0  0  0  0  0  0  0  0  0
  147.7495  139.7710  151.6994 H   0  0  0  0  0  0  0  0  0  0  0  0
  147.1829  138.4307  154.4129 H   0  0  0  0  0  0  0  0  0  0  0  0
  147.7653  137.5524  153.0226 H   0  0  0  0  0  0  0  0  0  0  0  0
  149.8363  138.2233  153.4703 H   0  0  0  0  0  0  0  0  0  0  0  0
  1  2  2  0  0  0  0
  2  3  1  0  0  0  0
  2  9  1  0  0  0  0
  3  4  1  0  0  0  0
  3 18  1  0  0  0  0
  4  8  1  0  0  0  0
  4  5  2  0  0  0  0
  5  6  1  0  0  0  0
  6  7  2  0  0  0  0
  7  8  1  0  0  0  0
  7 19  1  0  0  0  0
  9 10  1  0  0  0  0
  9 20  1  0  0  0  0
 10 16  1  0  0  0  0
 10 11  1  0  0  0  0
 10 21  1  0  0  0  0
 11 12  1  0  0  0  0
 11 22  1  0  0  0  0
 11 23  1  0  0  0  0
 12 13  1  0  0  0  0
 12 24  1  0  0  0  0
 12 25  1  0  0  0  0
 13 14  1  0  0  0  0
 13 26  1  0  0  0  0
 13 27  1  0  0  0  0
 14 15  1  0  0  0  0
 14 28  1  0  0  0  0
 14 29  1  0  0  0  0
 15 16  1  0  0  0  0
 15 30  1  0  0  0  0
 16 17  2  0  0  0  0
M  END
> <s_m_source_file>
AV-unprocessed.smi

> <i_m_source_file_index>
2046

> <i_lp_mmshare_version>
43012

> <i_f3d_flags>
0

> <s_epik_input>
czFbY0hdbm5jMVtOSF1DKD1PKVtOSF1bQ0BASF0yW0NIMl1bQ0gyXVtDSDJdW0NIMl1bTkhdQzI9Tw==

> <s_epik_cmdline>
J2VwaWtfcHl0aG9uJywgJy1waCcsICc3LjAnLCAnLXRuJywgJzgnLCAnLW1hJywgJzIwMCcsICctbWV0YWxfYmluZGluZycsICctaW1hZScsICc8aW5maWxlLm1hZT4nLCAnLW9tYWUnLCAnPG91dGZpbGUubWFlPic=

> <r_lp_tautomer_probability>
1

> <r_epik_Ionization_Penalty>
0.000691558

> <r_epik_Ionization_Penalty_Charging>
0

> <r_epik_Ionization_Penalty_Neutral>
0.000691558

> <r_epik_State_Penalty>
-0

> <r_epik_Charging_Adjusted_Penalty>
0

> <i_epik_Tot_Q>
0

> <i_epik_Tot_abs_Q>
0

> <r_epik_Metal_State_Penalty>
0.252698

> <b_epik_Metal_Only>
0

> <s_lp_Force_Field>
OPLS_2005

> <r_lp_Energy>
9.05746

> <b_lp_Chiralities_Consistent>
1

> <s_lp_Variant>
AV-unprocessed.smi:2046-2

> <Gold.Version>
5.8.1

> <Gold.Id.Protein>
6NUR|6NUR_protein|mol2

> <Gold.PLP.Fitness>
39.6989

> <Gold.PLP.PLP>
-31.2903

> <Gold.PLP.part.hbond>
-5.8130

> <Gold.PLP.part.metal>
0.0000

> <Gold.PLP.part.buried>
-0.4863

> <Gold.PLP.part.nonpolar>
-24.8742

> <Gold.PLP.part.repulsive>
0.3552

> <Gold.PLP.ligand.clash>
0.0000

> <Gold.PLP.ligand.torsion>
0.1176

> <Gold.PLP.Chemscore.Hbond>
2.8720

> <Gold.PLP.Chemscore.CHOScore>
0.0000

> <Gold.PLP.Chemscore.Metal>
0.0000

> <Gold.Chemscore.Hbonds>
donor molecule, donor type, donor heavy atom, donor atom, acceptor molecule, acceptor atom, score
      L1  H     3    18       P1  8028  0.88
      L1  H     9    20       P1  8028  0.99
      P1  H  7989  7998       L1    17  1.00

> <Gold.PLP.Chemscore.Internal.Correction>
0.0278

> <Gold.Rescore>
     Score         DG    S(hbond)    S(metal)    S(lipo)     H(rot)  DE(clash)    DE(int)     intcor
     16.70     -19.11       2.80        0.00      58.33       1.00       0.21       2.20       ----

> <Gold.Chemscore.Fitness>
16.7006

> <Gold.Chemscore.DG>
-19.1066

> <Gold.Chemscore.ZeroCoef>
-5.4800

> <Gold.Chemscore.Hbond>
2.8031

> <Gold.Chemscore.Metal>
0.0000

> <Gold.Chemscore.Lipo>
58.3266

> <Gold.Chemscore.Internal_Hbond>
0.0000

> <Gold.Chemscore.DEClash>
0.2101

> <Gold.Chemscore.DEInternal>
2.1959

> <Gold.Chemscore.Rot>
1.0000

> <Gold.Chemscore.Internal.Correction>
   9.000000E+99

> <Gold.Chemscore.Hbonds>
donor molecule, donor type, donor heavy atom, donor atom, acceptor molecule, acceptor atom, score
      L1  H     3    18       P1  8028  0.81
      L1  H     9    20       P1  8028  0.94
      P1  H  7989  7998       L1    17  0.92

> <Gold.Chemscore.Hbond.Weighted>
-9.3624

> <Gold.Chemscore.Metal.Weighted>
-0.0000

> <Gold.Chemscore.Lipo.Weighted>
-6.8242

> <Gold.Chemscore.Internal_Hbond.Weighted>
0.0000

> <Gold.Chemscore.DEClash.Weighted>
0.2101

> <Gold.Chemscore.DEInternal.Weighted>
2.1959

> <Gold.Chemscore.Rot.Weighted>
2.5600

> <Gold.Chemscore.Internal.Correction.Weighted>
   9.000000E+99

> <Gold.Protein.RotatedTorsions>
[ 6907 6896 6895 6894 ] final  138.88 input  -60.11 | X-H torsion
[ 7974 7965 7964 7962 ] final -152.82 input  175.53 | X-H torsion
[ 8008 7997 7996 7995 ] final  -70.59 input   59.86 | X-H torsion
[ 10167 10162 10161 10158 ] final   34.55 input  -65.29 | X-H torsion
[ 10718 10713 10712 10709 ] final  -60.22 input   66.30 | X-H torsion
[ 10763 10752 10751 10750 ] final  -97.02 input  -60.55 | X-H torsion
[ 11005 11000 10999 10996 ] final  107.80 input  -57.11 | X-H torsion

> <Gold.Protein.ActiveResidues>
 VAL166  LYS551  ARG553  GLY616  TRP617  ASP618  TYR619  PRO620  LYS621  CYS622 
 ASP623  PHE694  ASN695  SER759  ASP760  ASP761  ALA762  ILE779  LEU786  VAL792 
 PHE793  MET794  SER795  GLU796  ALA797  LYS798  CYS799  TRP800  GLU811  SER814 

> <Gold.Protein.RotatedAtoms>
  152.2614  133.5301  159.5383 H   0  0  0  0  0  0  0  0  0  0  0  0  # atno 6907 bound_to 6896
  150.7126  134.0824  159.3911 H   0  0  0  0  0  0  0  0  0  0  0  0  # atno 6908 bound_to 6896
  151.8742  135.0478  160.0533 H   0  0  0  0  0  0  0  0  0  0  0  0  # atno 6909 bound_to 6896
  144.7774  140.4610  143.5864 H   0  0  0  0  0  0  0  0  0  0  0  0  # atno 7974 bound_to 7965
  154.5024  140.0831  156.7824 H   0  0  0  0  0  0  0  0  0  0  0  0  # atno 8008 bound_to 7997
  155.3973  140.3435  155.4236 H   0  0  0  0  0  0  0  0  0  0  0  0  # atno 8009 bound_to 7997
  156.1473  140.1547  156.8814 H   0  0  0  0  0  0  0  0  0  0  0  0  # atno 8010 bound_to 7997
  140.4305  144.1331  150.6159 H   0  0  0  0  0  0  0  0  0  0  0  0  # atno 10167 bound_to 10162
  156.1006  130.4187  150.0824 H   0  0  0  0  0  0  0  0  0  0  0  0  # atno 10718 bound_to 10713
  154.7291  135.5062  153.8934 H   0  0  0  0  0  0  0  0  0  0  0  0  # atno 10763 bound_to 10752
  153.0932  135.6665  153.9821 H   0  0  0  0  0  0  0  0  0  0  0  0  # atno 10764 bound_to 10752
  153.9627  135.3046  155.3412 H   0  0  0  0  0  0  0  0  0  0  0  0  # atno 10765 bound_to 10752
  139.8834  134.9412  156.5875 H   0  0  0  0  0  0  0  0  0  0  0  0  # atno 11005 bound_to 11000
  145.6148  139.1517  143.3055 LP  0  0  0  0  0  0  0  0  0  0  0  0  # atno 17320 bound_to 7965
  146.1961  140.6262  142.9123 LP  0  0  0  0  0  0  0  0  0  0  0  0  # atno 17321 bound_to 7965
  140.4432  143.2517  151.9445 LP  0  0  0  0  0  0  0  0  0  0  0  0  # atno 17342 bound_to 10162
  139.4785  144.5634  151.8204 LP  0  0  0  0  0  0  0  0  0  0  0  0  # atno 17343 bound_to 10162
  156.8812  130.9557  151.3599 LP  0  0  0  0  0  0  0  0  0  0  0  0  # atno 17370 bound_to 10713
  157.6175  130.8630  149.9053 LP  0  0  0  0  0  0  0  0  0  0  0  0  # atno 17371 bound_to 10713
  140.7980  133.8528  155.8702 LP  0  0  0  0  0  0  0  0  0  0  0  0  # atno 17394 bound_to 11000
  140.9618  134.1646  157.4648 LP  0  0  0  0  0  0  0  0  0  0  0  0  # atno 17395 bound_to 11000

$$$$
