AV-unprocessed.smi:577|AV-procd|sdf|2980|dock5
  -GOLD-   2262023493D 1   1.00000     0.00000
 Structure written by MMmdl.
 41 42  0  0  0  0  0  0  0  0  1 V2000
  145.2945  140.4161  156.2965 C   0  0  0  0  0  0  0  0  0  0  0  0
  146.3506  140.3494  155.2065 C   0  0  0  0  0  0  0  0  0  0  0  0
  146.2343  139.6844  154.0524 C   0  0  0  0  0  0  0  0  0  0  0  0
  147.6341  139.8653  153.0236 S   0  0  0  0  0  0  0  0  0  0  0  0
  148.4143  140.9199  154.2562 C   0  0  0  0  0  0  0  0  0  0  0  0
  149.5282  141.4173  154.0991 O   0  0  0  0  0  0  0  0  0  0  0  0
  147.5594  141.0452  155.3509 N   0  0  0  0  0  0  0  0  0  0  0  0
  147.9071  141.8306  156.5426 C   0  0  0  0  0  0  0  0  0  0  0  0
  149.3620  141.6416  156.9932 C   0  0  0  0  0  0  0  0  0  0  0  0
  149.8640  140.5189  157.0636 O   0  0  0  0  0  0  0  0  0  0  0  0
  150.0274  142.7692  157.2874 N   0  0  0  0  0  0  0  0  0  0  0  0
  151.4189  142.8623  157.7268 C   0  0  0  0  0  0  0  0  0  0  0  0
  151.5928  142.0283  159.0131 C   0  0  0  0  0  0  0  0  0  0  0  0
  152.9426  142.2264  159.7278 C   0  0  0  0  0  0  0  0  0  0  0  0
  152.8434  142.8919  161.1131 C   0  0  0  0  0  0  0  0  0  0  0  0
  151.9017  144.1073  161.2455 C   0  0  0  0  0  0  0  0  0  0  0  0
  152.1146  145.2503  160.2371 C   0  0  0  0  0  0  0  0  0  0  0  0
  151.2479  145.1776  158.9610 C   0  0  0  0  0  0  0  0  0  0  0  0
  151.8441  144.3476  157.8085 C   0  0  0  0  0  0  0  0  0  0  0  0
  144.3171  140.1543  155.8904 H   0  0  0  0  0  0  0  0  0  0  0  0
  145.2107  141.4155  156.7227 H   0  0  0  0  0  0  0  0  0  0  0  0
  145.5292  139.7117  157.0944 H   0  0  0  0  0  0  0  0  0  0  0  0
  145.3862  139.0959  153.7349 H   0  0  0  0  0  0  0  0  0  0  0  0
  147.7118  142.8903  156.3780 H   0  0  0  0  0  0  0  0  0  0  0  0
  147.2537  141.5437  157.3685 H   0  0  0  0  0  0  0  0  0  0  0  0
  149.5290  143.6424  157.1949 H   0  0  0  0  0  0  0  0  0  0  0  0
  152.0665  142.4092  156.9742 H   0  0  0  0  0  0  0  0  0  0  0  0
  150.7631  142.2043  159.6965 H   0  0  0  0  0  0  0  0  0  0  0  0
  151.4984  140.9755  158.7423 H   0  0  0  0  0  0  0  0  0  0  0  0
  153.4155  141.2523  159.8581 H   0  0  0  0  0  0  0  0  0  0  0  0
  153.6397  142.7810  159.1017 H   0  0  0  0  0  0  0  0  0  0  0  0
  152.5200  142.1410  161.8351 H   0  0  0  0  0  0  0  0  0  0  0  0
  153.8470  143.1825  161.4260 H   0  0  0  0  0  0  0  0  0  0  0  0
  150.8578  143.7947  161.2398 H   0  0  0  0  0  0  0  0  0  0  0  0
  152.0568  144.5139  162.2456 H   0  0  0  0  0  0  0  0  0  0  0  0
  151.8392  146.1741  160.7477 H   0  0  0  0  0  0  0  0  0  0  0  0
  153.1716  145.3648  159.9938 H   0  0  0  0  0  0  0  0  0  0  0  0
  150.2294  144.8636  159.1911 H   0  0  0  0  0  0  0  0  0  0  0  0
  151.1520  146.1995  158.5925 H   0  0  0  0  0  0  0  0  0  0  0  0
  152.9302  144.4361  157.8168 H   0  0  0  0  0  0  0  0  0  0  0  0
  151.5505  144.8194  156.8695 H   0  0  0  0  0  0  0  0  0  0  0  0
  1  2  1  0  0  0  0
  1 20  1  0  0  0  0
  1 21  1  0  0  0  0
  1 22  1  0  0  0  0
  2  7  1  0  0  0  0
  2  3  2  0  0  0  0
  3  4  1  0  0  0  0
  3 23  1  0  0  0  0
  4  5  1  0  0  0  0
  5  6  2  0  0  0  0
  5  7  1  0  0  0  0
  7  8  1  0  0  0  0
  8  9  1  0  0  0  0
  8 24  1  0  0  0  0
  8 25  1  0  0  0  0
  9 10  2  0  0  0  0
  9 11  1  0  0  0  0
 11 12  1  0  0  0  0
 11 26  1  0  0  0  0
 12 19  1  0  0  0  0
 12 13  1  0  0  0  0
 12 27  1  0  0  0  0
 13 14  1  0  0  0  0
 13 28  1  0  0  0  0
 13 29  1  0  0  0  0
 14 15  1  0  0  0  0
 14 30  1  0  0  0  0
 14 31  1  0  0  0  0
 15 16  1  0  0  0  0
 15 32  1  0  0  0  0
 15 33  1  0  0  0  0
 16 17  1  0  0  0  0
 16 34  1  0  0  0  0
 16 35  1  0  0  0  0
 17 18  1  0  0  0  0
 17 36  1  0  0  0  0
 17 37  1  0  0  0  0
 18 19  1  0  0  0  0
 18 38  1  0  0  0  0
 18 39  1  0  0  0  0
 19 40  1  0  0  0  0
 19 41  1  0  0  0  0
M  END
> <s_m_source_file>
AV-unprocessed.smi

> <i_m_source_file_index>
577

> <i_lp_mmshare_version>
43012

> <i_f3d_flags>
0

> <s_epik_input>
W0NIM11jMVtjSF1zYyg9TyluMVtDSDJdQyg9TylbTkhdW0NIXTJbQ0gyXVtDSDJdW0NIMl1bQ0gyXVtDSDJdW0NIMl1bQ0gyXTI=

> <s_epik_cmdline>
J2VwaWtfcHl0aG9uJywgJy1waCcsICc3LjAnLCAnLXRuJywgJzgnLCAnLW1hJywgJzIwMCcsICctbWV0YWxfYmluZGluZycsICctaW1hZScsICc8aW5maWxlLm1hZT4nLCAnLW9tYWUnLCAnPG91dGZpbGUubWFlPic=

> <r_lp_tautomer_probability>
1

> <r_epik_Ionization_Penalty>
1.32564e-06

> <r_epik_Ionization_Penalty_Charging>
1.22505e-06

> <r_epik_Ionization_Penalty_Neutral>
1.00582e-07

> <r_epik_State_Penalty>
-0

> <r_epik_Charging_Adjusted_Penalty>
1.22505e-06

> <i_epik_Tot_Q>
0

> <i_epik_Tot_abs_Q>
0

> <r_epik_Metal_State_Penalty>
-0

> <b_epik_Metal_Only>
0

> <s_lp_Force_Field>
OPLS_2005

> <r_lp_Energy>
25.6493

> <b_lp_Chiralities_Consistent>
1

> <s_lp_Variant>
AV-unprocessed.smi:577-1

> <Gold.Version>
5.8.1

> <Gold.Id.Protein>
6NUR|6NUR_protein|mol2

> <Gold.PLP.Fitness>
44.5701

> <Gold.PLP.PLP>
-38.8312

> <Gold.PLP.part.hbond>
-3.0000

> <Gold.PLP.part.metal>
0.0000

> <Gold.PLP.part.buried>
0.0587

> <Gold.PLP.part.nonpolar>
-34.9061

> <Gold.PLP.part.repulsive>
0.2309

> <Gold.PLP.ligand.clash>
0.0000

> <Gold.PLP.ligand.torsion>
0.4374

> <Gold.PLP.Chemscore.Hbond>
1.5406

> <Gold.PLP.Chemscore.CHOScore>
0.6517

> <Gold.PLP.Chemscore.Metal>
0.0000

> <Gold.Chemscore.Hbonds>
donor molecule, donor type, donor heavy atom, donor atom, acceptor molecule, acceptor atom, score
      L1  H    11    26       P1  8028  0.72
      P1  H  7989  7998       L1     6  0.15
      P1  H  8011  8017       L1     6  0.67
      L1  C     3    23       P1 10175  0.65

> <Gold.PLP.Chemscore.Internal.Correction>
0.0370

> <Gold.Rescore>
     Score         DG    S(hbond)    S(metal)    S(lipo)     H(rot)  DE(clash)    DE(int)     intcor
     16.65     -19.65       1.58        0.00     106.41       1.39       0.41       2.59       ----

> <Gold.Chemscore.Fitness>
16.6516

> <Gold.Chemscore.DG>
-19.6486

> <Gold.Chemscore.ZeroCoef>
-5.4800

> <Gold.Chemscore.Hbond>
1.5766

> <Gold.Chemscore.Metal>
0.0000

> <Gold.Chemscore.Lipo>
106.4145

> <Gold.Chemscore.Internal_Hbond>
0.0000

> <Gold.Chemscore.DEClash>
0.4092

> <Gold.Chemscore.DEInternal>
2.5878

> <Gold.Chemscore.Rot>
1.3858

> <Gold.Chemscore.Internal.Correction>
   9.000000E+99

> <Gold.Chemscore.Hbonds>
donor molecule, donor type, donor heavy atom, donor atom, acceptor molecule, acceptor atom, score
      L1  H    11    26       P1  8028  0.55
      P1  H  7989  7998       L1     6  0.15
      P1  H  8011  8017       L1     6  0.57

> <Gold.Chemscore.Hbond.Weighted>
-5.2657

> <Gold.Chemscore.Metal.Weighted>
-0.0000

> <Gold.Chemscore.Lipo.Weighted>
-12.4505

> <Gold.Chemscore.Internal_Hbond.Weighted>
0.0000

> <Gold.Chemscore.DEClash.Weighted>
0.4092

> <Gold.Chemscore.DEInternal.Weighted>
2.5878

> <Gold.Chemscore.Rot.Weighted>
3.5476

> <Gold.Chemscore.Internal.Correction.Weighted>
   9.000000E+99

> <Gold.Protein.RotatedTorsions>
[ 6907 6896 6895 6894 ] final   -1.63 input  -60.11 | X-H torsion
[ 7974 7965 7964 7962 ] final  166.92 input  175.53 | X-H torsion
[ 8008 7997 7996 7995 ] final  157.66 input   59.86 | X-H torsion
[ 10167 10162 10161 10158 ] final   17.93 input  -65.29 | X-H torsion
[ 10718 10713 10712 10709 ] final   96.50 input   66.30 | X-H torsion
[ 10763 10752 10751 10750 ] final  -94.38 input  -60.55 | X-H torsion
[ 11005 11000 10999 10996 ] final  126.56 input  -57.11 | X-H torsion

> <Gold.Protein.ActiveResidues>
 VAL166  LYS551  ARG553  GLY616  TRP617  ASP618  TYR619  PRO620  LYS621  CYS622 
 ASP623  PHE694  ASN695  SER759  ASP760  ASP761  ALA762  ILE779  LEU786  VAL792 
 PHE793  MET794  SER795  GLU796  ALA797  LYS798  CYS799  TRP800  GLU811  SER814 

> <Gold.Protein.RotatedAtoms>
  151.5429  135.1068  159.9930 H   0  0  0  0  0  0  0  0  0  0  0  0  # atno 6907 bound_to 6896
  152.4527  133.7657  159.6781 H   0  0  0  0  0  0  0  0  0  0  0  0  # atno 6908 bound_to 6896
  150.8460  133.7794  159.3067 H   0  0  0  0  0  0  0  0  0  0  0  0  # atno 6909 bound_to 6896
  144.7444  139.8686  143.6387 H   0  0  0  0  0  0  0  0  0  0  0  0  # atno 7974 bound_to 7965
  156.2350  140.1879  156.7143 H   0  0  0  0  0  0  0  0  0  0  0  0  # atno 8008 bound_to 7997
  154.6090  140.0624  156.9496 H   0  0  0  0  0  0  0  0  0  0  0  0  # atno 8009 bound_to 7997
  155.2047  140.3295  155.4340 H   0  0  0  0  0  0  0  0  0  0  0  0  # atno 8010 bound_to 7997
  140.5690  143.9196  150.6698 H   0  0  0  0  0  0  0  0  0  0  0  0  # atno 10167 bound_to 10162
  157.6926  131.0580  150.4501 H   0  0  0  0  0  0  0  0  0  0  0  0  # atno 10718 bound_to 10713
  154.7050  135.5159  153.8581 H   0  0  0  0  0  0  0  0  0  0  0  0  # atno 10763 bound_to 10752
  153.0734  135.6608  154.0208 H   0  0  0  0  0  0  0  0  0  0  0  0  # atno 10764 bound_to 10752
  154.0060  135.3006  155.3377 H   0  0  0  0  0  0  0  0  0  0  0  0  # atno 10765 bound_to 10752
  139.9462  134.9629  156.8725 H   0  0  0  0  0  0  0  0  0  0  0  0  # atno 11005 bound_to 11000
  146.1297  139.4330  143.0176 LP  0  0  0  0  0  0  0  0  0  0  0  0  # atno 17320 bound_to 7965
  145.7182  141.0084  143.1417 LP  0  0  0  0  0  0  0  0  0  0  0  0  # atno 17321 bound_to 7965
  140.2667  143.3485  152.1275 LP  0  0  0  0  0  0  0  0  0  0  0  0  # atno 17342 bound_to 10162
  139.5108  144.6889  151.5812 LP  0  0  0  0  0  0  0  0  0  0  0  0  # atno 17343 bound_to 10162
  156.4853  130.4083  149.6438 LP  0  0  0  0  0  0  0  0  0  0  0  0  # atno 17370 bound_to 10713
  156.3468  130.7411  151.2364 LP  0  0  0  0  0  0  0  0  0  0  0  0  # atno 17371 bound_to 10713
  140.5828  134.0336  155.7470 LP  0  0  0  0  0  0  0  0  0  0  0  0  # atno 17394 bound_to 11000
  141.1113  133.9611  157.2904 LP  0  0  0  0  0  0  0  0  0  0  0  0  # atno 17395 bound_to 11000

$$$$
