#       Name:                AV-unprocessed.smi:2877
#       Creating user name   scv26
#       Creation time:       Fri Mar 27 15:51:01 2020


#       File generated by GOLD software.
#

@<TRIPOS>MOLECULE
AV-unprocessed.smi:2877
    46    47     1
SMALL
NO_CHARGES


@<TRIPOS>ATOM
      1 ****        -3.2185  -1.1895   0.4778 O.2            1 S1                 0.0000
      2 ****        -2.5056  -0.1849   0.5106 C.2            1 S1                 0.0000
      3 ****        -0.9764  -0.3562   0.4955 C.3            1 S1                 0.0000
      4 ****        -0.5098  -1.8252   0.4244 C.3            1 S1                 0.0000
      5 ****         0.9433  -1.9291   0.4999 N.am           1 S1                 0.0000
      6 ****         1.7930  -1.6773  -0.5096 C.2            1 S1                 0.0000
      7 ****         1.4134  -1.3297  -1.6294 O.2            1 S1                 0.0000
      8 ****         3.2906  -1.8198  -0.1873 C.3            1 S1                 0.0000
      9 ****         3.6326  -0.8161   0.6229 F              1 S1                 0.0000
     10 ****         3.4833  -2.9617   0.4777 F              1 S1                 0.0000
     11 ****         4.1586  -1.8026  -1.4454 C.ar           1 S1                 0.0000
     12 ****         4.7952  -0.6155  -1.8751 C.ar           1 S1                 0.0000
     13 ****         5.5751  -0.6531  -3.0468 C.ar           1 S1                 0.0000
     14 ****         5.6911  -1.8693  -3.7460 C.ar           1 S1                 0.0000
     15 ****         5.0166  -2.9983  -3.2415 C.ar           1 S1                 0.0000
     16 ****         4.2662  -2.9730  -2.1194 N.ar           1 S1                 0.0000
     17 ****        -3.0248   1.0666   0.5634 N.am           1 S1                 0.0000
     18 ****        -4.4688   1.3225   0.6541 C.3            1 S1                 0.0000
     19 ****        -4.7907   1.8712   2.0565 C.3            1 S1                 0.0000
     20 ****        -3.9579   3.1308   2.3608 C.3            1 S1                 0.0000
     21 ****        -2.4604   2.9032   2.0815 C.3            1 S1                 0.0000
     22 ****        -2.2483   2.3099   0.6769 C.3            1 S1                 0.0000
     23 ****        -0.5754   0.1879  -0.3602 H              1 S1                 0.0000
     24 ****        -0.5675   0.1054   1.3953 H              1 S1                 0.0000
     25 ****        -0.9241  -2.3940   1.2578 H              1 S1                 0.0000
     26 ****        -0.8683  -2.3022  -0.4897 H              1 S1                 0.0000
     27 ****         1.3348  -2.2089   1.3878 H              1 S1                 0.0000
     28 ****         4.6861   0.3078  -1.3258 H              1 S1                 0.0000
     29 ****         6.0742   0.2359  -3.4033 H              1 S1                 0.0000
     30 ****         6.2812  -1.9346  -4.6481 H              1 S1                 0.0000
     31 ****         5.0816  -3.9473  -3.7529 H              1 S1                 0.0000
     32 ****        -4.7557   2.0484  -0.1081 H              1 S1                 0.0000
     33 ****        -5.0711   0.4346   0.4571 H              1 S1                 0.0000
     34 ****        -5.8541   2.0984   2.1365 H              1 S1                 0.0000
     35 ****        -4.5803   1.1042   2.8031 H              1 S1                 0.0000
     36 ****        -4.3146   3.9520   1.7379 H              1 S1                 0.0000
     37 ****        -4.1067   3.4419   3.3951 H              1 S1                 0.0000
     38 ****        -1.9162   3.8430   2.1788 H              1 S1                 0.0000
     39 ****        -2.0464   2.2257   2.8295 H              1 S1                 0.0000
     40 ****        -1.1834   2.1851   0.4883 H              1 S1                 0.0000
     41 ****        -2.5936   3.0157  -0.0800 H              1 S1                 0.0000
     42 ****        -2.8013  -2.0977   0.4420 LP             1 S1                 0.0000
     43 ****        -4.2141  -1.0966   0.4869 LP             1 S1                 0.0000
     44 ****         0.4366  -1.2247  -1.8160 LP             1 S1                 0.0000
     45 ****         2.0822  -1.1528  -2.3515 LP             1 S1                 0.0000
     46 ****         3.8019  -3.7968  -1.7942 LP             1 S1                 0.0000
@<TRIPOS>BOND
    1    1    2 2     
    2    2    3 1     
    3    2   17 am    
    4    3    4 1     
    5    3   23 1     
    6    3   24 1     
    7    4    5 1     
    8    4   25 1     
    9    4   26 1     
   10    5    6 am    
   11    5   27 1     
   12    6    7 2     
   13    6    8 1     
   14    8    9 1     
   15    8   10 1     
   16    8   11 1     
   17   11   16 ar    
   18   11   12 ar    
   19   12   13 ar    
   20   12   28 1     
   21   13   14 ar    
   22   13   29 1     
   23   14   15 ar    
   24   14   30 1     
   25   15   16 ar    
   26   15   31 1     
   27   17   22 1     
   28   17   18 1     
   29   18   19 1     
   30   18   32 1     
   31   18   33 1     
   32   19   20 1     
   33   19   34 1     
   34   19   35 1     
   35   20   21 1     
   36   20   36 1     
   37   20   37 1     
   38   21   22 1     
   39   21   38 1     
   40   21   39 1     
   41   22   40 1     
   42   22   41 1     
   43    1   42 1     
   44    1   43 1     
   45    7   44 1     
   46    7   45 1     
   47   16   46 1     
@<TRIPOS>SUBSTRUCTURE
      1 S1             1
@<TRIPOS>SET
LONE_PAIRS      STATIC     ATOMS    <user>   **** ""
5 42 43 44 45 46
DONOR_HYDROGENS      STATIC     ATOMS    <user>   **** ""
1 27
ATOM$BLUE        STATIC     ATOMS    COLORGROUP SYSTEM
5 42 43 44 45 46
ATOM$RED        STATIC     ATOMS    COLORGROUP SYSTEM
1 27
