AV-unprocessed.smi:509|AV-procd|sdf|2760|dock6
  -GOLD-   2262023223D 1   1.00000     0.00000
 Structure written by MMmdl.
 46 48  0  0  0  0  0  0  0  0  2 V2000
  153.6049  136.0295  157.6816 C   0  0  0  0  0  0  0  0  0  0  0  0
  152.6393  136.4520  156.7357 O   0  0  0  0  0  0  0  0  0  0  0  0
  151.9268  137.6018  157.1624 C   0  0  0  0  0  0  0  0  0  0  0  0
  152.9157  138.7397  157.4493 C   0  0  0  0  0  0  0  0  0  0  0  0
  152.2325  140.0153  157.6610 N   0  0  0  0  0  0  0  0  0  0  0  0
  151.3752  140.6796  156.8360 C   0  0  0  0  0  0  0  0  0  0  0  0
  150.9789  140.1794  155.5937 N   0  0  0  0  0  0  0  0  0  0  0  0
  149.7768  140.5499  154.8477 C   0  0  0  0  0  0  0  0  0  0  0  0
  149.0199  139.3072  154.3439 C   0  0  0  0  0  0  0  0  0  0  0  0
  149.9080  138.4646  153.5167 N   0  3  0  0  0  0  0  0  0  0  0  0
  151.1764  138.1349  154.1991 C   0  0  0  0  0  0  0  0  0  0  0  0
  151.8636  139.4108  154.7198 C   0  0  0  0  0  0  0  0  0  0  0  0
  150.9858  141.8734  157.2898 N   0  0  0  0  0  0  0  0  0  0  0  0
  151.6252  141.9704  158.5154 C   0  0  0  0  0  0  0  0  0  0  0  0
  152.3832  140.8751  158.7535 C   0  0  0  0  0  0  0  0  0  0  0  0
  153.2088  140.7329  159.9601 C   0  0  0  0  0  0  0  0  0  0  0  0
  153.9198  139.7436  160.1417 O   0  0  0  0  0  0  0  0  0  0  0  0
  153.1184  141.7878  160.8290 N   0  0  0  0  0  0  0  0  0  0  0  0
  153.9252  141.6880  162.0602 C   0  0  0  0  0  0  0  0  0  0  0  0
  152.3659  142.9309  160.6190 C   0  0  0  0  0  0  0  0  0  0  0  0
  152.3671  143.8619  161.4289 O   0  0  0  0  0  0  0  0  0  0  0  0
  151.6139  143.0154  159.4745 N   0  0  0  0  0  0  0  0  0  0  0  0
  150.7982  144.2065  159.2200 C   0  0  0  0  0  0  0  0  0  0  0  0
  154.1174  135.1422  157.3101 H   0  0  0  0  0  0  0  0  0  0  0  0
  153.1391  135.7755  158.6345 H   0  0  0  0  0  0  0  0  0  0  0  0
  154.3538  136.8040  157.8523 H   0  0  0  0  0  0  0  0  0  0  0  0
  151.2230  137.9111  156.3887 H   0  0  0  0  0  0  0  0  0  0  0  0
  151.3472  137.3728  158.0580 H   0  0  0  0  0  0  0  0  0  0  0  0
  153.5216  138.4811  158.3106 H   0  0  0  0  0  0  0  0  0  0  0  0
  153.6268  138.8448  156.6314 H   0  0  0  0  0  0  0  0  0  0  0  0
  149.1286  141.1848  155.4504 H   0  0  0  0  0  0  0  0  0  0  0  0
  150.0741  141.1658  153.9977 H   0  0  0  0  0  0  0  0  0  0  0  0
  148.6520  138.7170  155.1841 H   0  0  0  0  0  0  0  0  0  0  0  0
  148.1515  139.6010  153.7540 H   0  0  0  0  0  0  0  0  0  0  0  0
  149.4279  137.6117  153.2678 H   0  0  0  0  0  0  0  0  0  0  0  0
  150.9681  137.4557  155.0263 H   0  0  0  0  0  0  0  0  0  0  0  0
  151.8304  137.6034  153.5076 H   0  0  0  0  0  0  0  0  0  0  0  0
  152.1795  140.0394  153.8860 H   0  0  0  0  0  0  0  0  0  0  0  0
  152.7694  139.1378  155.2628 H   0  0  0  0  0  0  0  0  0  0  0  0
  153.6220  142.3727  162.8531 H   0  0  0  0  0  0  0  0  0  0  0  0
  154.9731  141.8918  161.8359 H   0  0  0  0  0  0  0  0  0  0  0  0
  153.8651  140.6915  162.5014 H   0  0  0  0  0  0  0  0  0  0  0  0
  150.1286  144.4040  160.0584 H   0  0  0  0  0  0  0  0  0  0  0  0
  150.1751  144.1092  158.3311 H   0  0  0  0  0  0  0  0  0  0  0  0
  151.4357  145.0802  159.0797 H   0  0  0  0  0  0  0  0  0  0  0  0
  150.1295  138.9743  152.6734 H   0  0  0  0  0  0  0  0  0  0  0  0
  1  2  1  0  0  0  0
  1 24  1  0  0  0  0
  1 25  1  0  0  0  0
  1 26  1  0  0  0  0
  2  3  1  0  0  0  0
  3  4  1  0  0  0  0
  3 27  1  0  0  0  0
  3 28  1  0  0  0  0
  4  5  1  0  0  0  0
  4 29  1  0  0  0  0
  4 30  1  0  0  0  0
  5 15  1  0  0  0  0
  5  6  1  0  0  0  0
  6  7  1  0  0  0  0
  6 13  2  0  0  0  0
  7 12  1  0  0  0  0
  7  8  1  0  0  0  0
  8  9  1  0  0  0  0
  8 31  1  0  0  0  0
  8 32  1  0  0  0  0
  9 10  1  0  0  0  0
  9 33  1  0  0  0  0
  9 34  1  0  0  0  0
 10 11  1  0  0  0  0
 10 35  1  0  0  0  0
 10 46  1  0  0  0  0
 11 12  1  0  0  0  0
 11 36  1  0  0  0  0
 11 37  1  0  0  0  0
 12 38  1  0  0  0  0
 12 39  1  0  0  0  0
 13 14  1  0  0  0  0
 14 22  1  0  0  0  0
 14 15  2  0  0  0  0
 15 16  1  0  0  0  0
 16 17  2  0  0  0  0
 16 18  1  0  0  0  0
 18 19  1  0  0  0  0
 18 20  1  0  0  0  0
 19 40  1  0  0  0  0
 19 41  1  0  0  0  0
 19 42  1  0  0  0  0
 20 21  2  0  0  0  0
 20 22  1  0  0  0  0
 22 23  1  0  0  0  0
 23 43  1  0  0  0  0
 23 44  1  0  0  0  0
 23 45  1  0  0  0  0
M  CHG  1  10   1
M  END
> <s_m_source_file>
AV-unprocessed.smi

> <i_m_source_file_index>
509

> <i_lp_mmshare_version>
43012

> <i_f3d_flags>
0

> <s_epik_input>
W0NIM11uMWMoPU8pbihbQ0gzXSljKD1PKWMoYzEyKW4oW0NIMl1bQ0gyXU9bQ0gzXSljKG4yKU4zW0NIMl1bQ0gyXVtOSF1bQ0gyXVtDSDJdMw==

> <s_epik_cmdline>
J2VwaWtfcHl0aG9uJywgJy1waCcsICc3LjAnLCAnLXRuJywgJzgnLCAnLW1hJywgJzIwMCcsICctbWV0YWxfYmluZGluZycsICctaW1hZScsICc8aW5maWxlLm1hZT4nLCAnLW9tYWUnLCAnPG91dGZpbGUubWFlPic=

> <r_epik_Ionization_Penalty>
0.00857468

> <r_epik_Ionization_Penalty_Charging>
0.00857162

> <r_epik_Ionization_Penalty_Neutral>
3.06002e-06

> <r_epik_State_Penalty>
0.00646614

> <r_epik_Charging_Adjusted_Penalty>
0.0150378

> <i_epik_Tot_Q>
1

> <i_epik_Tot_abs_Q>
1

> <r_epik_Metal_State_Penalty>
0.00646904

> <b_epik_Metal_Only>
0

> <s_lp_Force_Field>
OPLS_2005

> <r_lp_Energy>
52.9694

> <b_lp_Chiralities_Consistent>
1

> <s_lp_Variant>
AV-unprocessed.smi:509-1

> <Gold.Version>
5.8.1

> <Gold.Id.Protein>
6NUR|6NUR_protein|mol2

> <Gold.PLP.Fitness>
55.4429

> <Gold.PLP.PLP>
-44.1487

> <Gold.PLP.part.hbond>
-3.0000

> <Gold.PLP.part.metal>
0.0000

> <Gold.PLP.part.buried>
-0.4585

> <Gold.PLP.part.nonpolar>
-38.7655

> <Gold.PLP.part.repulsive>
0.2748

> <Gold.PLP.ligand.clash>
0.0000

> <Gold.PLP.ligand.torsion>
0.4456

> <Gold.PLP.Chemscore.Hbond>
3.9440

> <Gold.PLP.Chemscore.CHOScore>
0.0000

> <Gold.PLP.Chemscore.Metal>
0.0000

> <Gold.Chemscore.Hbonds>
donor molecule, donor type, donor heavy atom, donor atom, acceptor molecule, acceptor atom, score
      L1  H    10    35       P1  7948  1.92
      L1  H    10    46       P1  7957  1.00
      P1  H 10752 10764       L1     2  1.00

> <Gold.PLP.Chemscore.Internal.Correction>
0.3535

> <Gold.Rescore>
     Score         DG    S(hbond)    S(metal)    S(lipo)     H(rot)  DE(clash)    DE(int)     intcor
     16.15     -18.68       2.78        0.00      66.54       1.51       1.88       0.65       ----

> <Gold.Chemscore.Fitness>
16.1508

> <Gold.Chemscore.DG>
-18.6823

> <Gold.Chemscore.ZeroCoef>
-5.4800

> <Gold.Chemscore.Hbond>
2.7782

> <Gold.Chemscore.Metal>
0.0000

> <Gold.Chemscore.Lipo>
66.5392

> <Gold.Chemscore.Internal_Hbond>
0.0000

> <Gold.Chemscore.DEClash>
1.8831

> <Gold.Chemscore.DEInternal>
0.6483

> <Gold.Chemscore.Rot>
1.5086

> <Gold.Chemscore.Internal.Correction>
   9.000000E+99

> <Gold.Chemscore.Hbonds>
donor molecule, donor type, donor heavy atom, donor atom, acceptor molecule, acceptor atom, score
      L1  H    10    35       P1  7948  0.84
      L1  H    10    46       P1  7957  0.53
      P1  H 10752 10764       L1     2  0.29

> <Gold.Chemscore.Hbond.Weighted>
-9.2792

> <Gold.Chemscore.Metal.Weighted>
-0.0000

> <Gold.Chemscore.Lipo.Weighted>
-7.7851

> <Gold.Chemscore.Internal_Hbond.Weighted>
0.0000

> <Gold.Chemscore.DEClash.Weighted>
1.8831

> <Gold.Chemscore.DEInternal.Weighted>
0.6483

> <Gold.Chemscore.Rot.Weighted>
3.8620

> <Gold.Chemscore.Internal.Correction.Weighted>
   9.000000E+99

> <Gold.Protein.RotatedTorsions>
[ 6907 6896 6895 6894 ] final   74.55 input  -60.11 | X-H torsion
[ 7974 7965 7964 7962 ] final  -33.61 input  175.53 | X-H torsion
[ 8008 7997 7996 7995 ] final  -92.22 input   59.86 | X-H torsion
[ 10167 10162 10161 10158 ] final -145.54 input  -65.29 | X-H torsion
[ 10718 10713 10712 10709 ] final   54.77 input   66.30 | X-H torsion
[ 10763 10752 10751 10750 ] final  -23.75 input  -60.55 | X-H torsion
[ 11005 11000 10999 10996 ] final -154.51 input  -57.11 | X-H torsion

> <Gold.Protein.ActiveResidues>
 VAL166  LYS551  ARG553  GLY616  TRP617  ASP618  TYR619  PRO620  LYS621  CYS622 
 ASP623  PHE694  ASN695  SER759  ASP760  ASP761  ALA762  ILE779  LEU786  VAL792 
 PHE793  MET794  SER795  GLU796  ALA797  LYS798  CYS799  TRP800  GLU811  SER814 

> <Gold.Protein.RotatedAtoms>
  152.4981  134.4255  159.9494 H   0  0  0  0  0  0  0  0  0  0  0  0  # atno 6907 bound_to 6896
  151.4230  133.3686  159.2766 H   0  0  0  0  0  0  0  0  0  0  0  0  # atno 6908 bound_to 6896
  150.9209  134.8649  159.7548 H   0  0  0  0  0  0  0  0  0  0  0  0  # atno 6909 bound_to 6896
  146.0897  140.5937  142.8870 H   0  0  0  0  0  0  0  0  0  0  0  0  # atno 7974 bound_to 7965
  154.7204  140.0511  157.0634 H   0  0  0  0  0  0  0  0  0  0  0  0  # atno 8008 bound_to 7997
  155.0435  140.3171  155.4697 H   0  0  0  0  0  0  0  0  0  0  0  0  # atno 8009 bound_to 7997
  156.2815  140.2128  156.5559 H   0  0  0  0  0  0  0  0  0  0  0  0  # atno 8010 bound_to 7997
  139.7796  143.8120  152.2637 H   0  0  0  0  0  0  0  0  0  0  0  0  # atno 10167 bound_to 10162
  157.5286  130.8615  149.8656 H   0  0  0  0  0  0  0  0  0  0  0  0  # atno 10718 bound_to 10713
  153.6728  135.6971  153.5142 H   0  0  0  0  0  0  0  0  0  0  0  0  # atno 10763 bound_to 10752
  153.2544  135.4264  155.0830 H   0  0  0  0  0  0  0  0  0  0  0  0  # atno 10764 bound_to 10752
  154.8422  135.3539  154.6272 H   0  0  0  0  0  0  0  0  0  0  0  0  # atno 10765 bound_to 10752
  140.6965  134.3984  157.5214 H   0  0  0  0  0  0  0  0  0  0  0  0  # atno 11005 bound_to 11000
  144.7351  140.4785  143.6909 LP  0  0  0  0  0  0  0  0  0  0  0  0  # atno 17320 bound_to 7965
  145.6063  139.1508  143.3101 LP  0  0  0  0  0  0  0  0  0  0  0  0  # atno 17321 bound_to 7965
  139.8178  144.7308  150.9612 LP  0  0  0  0  0  0  0  0  0  0  0  0  # atno 17342 bound_to 10162
  140.7818  143.4188  151.0875 LP  0  0  0  0  0  0  0  0  0  0  0  0  # atno 17343 bound_to 10162
  156.0405  130.3740  150.1447 LP  0  0  0  0  0  0  0  0  0  0  0  0  # atno 17370 bound_to 10713
  156.9632  130.9811  151.3474 LP  0  0  0  0  0  0  0  0  0  0  0  0  # atno 17371 bound_to 10713
  139.8908  134.8794  156.2349 LP  0  0  0  0  0  0  0  0  0  0  0  0  # atno 17394 bound_to 11000
  141.0199  133.7047  156.1250 LP  0  0  0  0  0  0  0  0  0  0  0  0  # atno 17395 bound_to 11000

$$$$
