AV-unprocessed.smi:3055|AV-procd|sdf|11644|dock2
  -GOLD-   2272017 33D 1   1.00000     0.00000
 Structure written by MMmdl.
 47 49  0  0  0  0  0  0  0  0  2 V2000
  146.5504  138.1586  150.8870 O   0  0  0  0  0  0  0  0  0  0  0  0
  146.3496  138.0256  152.0950 C   0  0  0  0  0  0  0  0  0  0  0  0
  146.5538  139.0264  152.9663 N   0  0  0  0  0  0  0  0  0  0  0  0
  146.9986  140.3638  152.6015 C   0  0  0  0  0  0  0  0  0  0  0  0
  147.3249  141.1831  153.8570 C   0  0  0  0  0  0  0  0  0  0  0  0
  148.6514  140.8827  154.3557 N   0  0  0  0  0  0  0  0  0  0  0  0
  149.3063  141.4972  155.4148 C   0  0  0  0  0  0  0  0  0  0  0  0
  150.5376  140.8910  155.5200 C   0  0  0  0  0  0  0  0  0  0  0  0
  150.6605  139.9063  154.5423 N   0  0  0  0  0  0  0  0  0  0  0  0
  149.5053  139.9602  153.8917 C   0  0  0  0  0  0  0  0  0  0  0  0
  145.9398  136.8587  152.6545 N   0  0  0  0  0  0  0  0  0  0  0  0
  145.5155  136.6701  154.0506 C   0  0  0  0  0  0  0  0  0  0  0  0
  143.9794  136.6104  154.0842 C   0  0  0  0  0  0  0  0  0  0  0  0
  143.4471  135.5058  153.1506 C   0  0  0  0  0  0  0  0  0  0  0  0
  144.0492  135.5951  151.7230 C   0  0  2  0  0  0  0  0  0  0  0  0
  143.6395  134.4412  150.8746 N   0  3  0  0  0  0  0  0  0  0  0  0
  144.3673  134.3014  149.5944 C   0  0  0  0  0  0  0  0  0  0  0  0
  144.1693  132.8475  149.1831 C   0  0  0  0  0  0  0  0  0  0  0  0
  144.2262  132.1082  150.5144 C   0  0  0  0  0  0  0  0  0  0  0  0
  143.6964  133.1163  151.5437 C   0  0  0  0  0  0  0  0  0  0  0  0
  145.5915  135.6923  151.8339 C   0  0  0  0  0  0  0  0  0  0  0  0
  146.3863  138.8484  153.9460 H   0  0  0  0  0  0  0  0  0  0  0  0
  147.8787  140.2867  151.9611 H   0  0  0  0  0  0  0  0  0  0  0  0
  146.2197  140.8630  152.0222 H   0  0  0  0  0  0  0  0  0  0  0  0
  147.2714  142.2513  153.6419 H   0  0  0  0  0  0  0  0  0  0  0  0
  146.6001  140.9802  154.6470 H   0  0  0  0  0  0  0  0  0  0  0  0
  148.8553  142.2936  155.9886 H   0  0  0  0  0  0  0  0  0  0  0  0
  151.3385  141.0864  156.2177 H   0  0  0  0  0  0  0  0  0  0  0  0
  149.2760  139.3140  153.0568 H   0  0  0  0  0  0  0  0  0  0  0  0
  145.9335  135.7371  154.4317 H   0  0  0  0  0  0  0  0  0  0  0  0
  145.8726  137.4435  154.7306 H   0  0  0  0  0  0  0  0  0  0  0  0
  143.6328  136.4356  155.1031 H   0  0  0  0  0  0  0  0  0  0  0  0
  143.5707  137.5751  153.7795 H   0  0  0  0  0  0  0  0  0  0  0  0
  143.6882  134.5339  153.5837 H   0  0  0  0  0  0  0  0  0  0  0  0
  142.3592  135.5683  153.1202 H   0  0  0  0  0  0  0  0  0  0  0  0
  143.6750  136.5053  151.2505 H   0  0  0  0  0  0  0  0  0  0  0  0
  143.9999  134.9952  148.8375 H   0  0  0  0  0  0  0  0  0  0  0  0
  145.4298  134.4968  149.7512 H   0  0  0  0  0  0  0  0  0  0  0  0
  143.1860  132.7200  148.7281 H   0  0  0  0  0  0  0  0  0  0  0  0
  144.9194  132.5013  148.4713 H   0  0  0  0  0  0  0  0  0  0  0  0
  143.6542  131.1800  150.5008 H   0  0  0  0  0  0  0  0  0  0  0  0
  145.2617  131.8562  150.7480 H   0  0  0  0  0  0  0  0  0  0  0  0
  144.3512  133.1291  152.4165 H   0  0  0  0  0  0  0  0  0  0  0  0
  142.6960  132.8461  151.8832 H   0  0  0  0  0  0  0  0  0  0  0  0
  146.0617  135.7423  150.8512 H   0  0  0  0  0  0  0  0  0  0  0  0
  145.9936  134.7903  152.2981 H   0  0  0  0  0  0  0  0  0  0  0  0
  142.6716  134.5854  150.6246 H   0  0  0  0  0  0  0  0  0  0  0  0
  1  2  2  0  0  0  0
  2  3  1  0  0  0  0
  2 11  1  0  0  0  0
  3  4  1  0  0  0  0
  3 22  1  0  0  0  0
  4  5  1  0  0  0  0
  4 23  1  0  0  0  0
  4 24  1  0  0  0  0
  5  6  1  0  0  0  0
  5 25  1  0  0  0  0
  5 26  1  0  0  0  0
  6 10  1  0  0  0  0
  6  7  1  0  0  0  0
  7  8  2  0  0  0  0
  7 27  1  0  0  0  0
  8  9  1  0  0  0  0
  8 28  1  0  0  0  0
  9 10  2  0  0  0  0
 10 29  1  0  0  0  0
 11 21  1  0  0  0  0
 11 12  1  0  0  0  0
 12 13  1  0  0  0  0
 12 30  1  0  0  0  0
 12 31  1  0  0  0  0
 13 14  1  0  0  0  0
 13 32  1  0  0  0  0
 13 33  1  0  0  0  0
 14 15  1  0  0  0  0
 14 34  1  0  0  0  0
 14 35  1  0  0  0  0
 15 16  1  0  0  0  0
 15 21  1  0  0  0  0
 15 36  1  0  0  0  0
 16 20  1  0  0  0  0
 16 17  1  0  0  0  0
 16 47  1  0  0  0  0
 17 18  1  0  0  0  0
 17 37  1  0  0  0  0
 17 38  1  0  0  0  0
 18 19  1  0  0  0  0
 18 39  1  0  0  0  0
 18 40  1  0  0  0  0
 19 20  1  0  0  0  0
 19 41  1  0  0  0  0
 19 42  1  0  0  0  0
 20 43  1  0  0  0  0
 20 44  1  0  0  0  0
 21 45  1  0  0  0  0
 21 46  1  0  0  0  0
M  CHG  1  16   1
M  END
> <s_m_source_file>
AV-unprocessed.smi

> <i_m_source_file_index>
3055

> <i_lp_mmshare_version>
43012

> <i_f3d_flags>
0

> <s_epik_input>
W2NIXTFuW2NIXVtjSF1uMVtDSDJdW0NIMl1bTkhdQyg9TylOMltDSDJdW0NIMl1bQ0gyXVtDQEhdKFtDSDJdMilOM1tDSDJdW0NIMl1bQ0gyXVtDSDJdMw==

> <s_epik_cmdline>
J2VwaWtfcHl0aG9uJywgJy1waCcsICc3LjAnLCAnLXRuJywgJzgnLCAnLW1hJywgJzIwMCcsICctbWV0YWxfYmluZGluZycsICctaW1hZScsICc8aW5maWxlLm1hZT4nLCAnLW9tYWUnLCAnPG91dGZpbGUubWFlPic=

> <r_lp_tautomer_probability>
1

> <r_epik_Ionization_Penalty>
0.618392

> <r_epik_Ionization_Penalty_Charging>
0.618355

> <r_epik_Ionization_Penalty_Neutral>
3.68592e-05

> <r_epik_State_Penalty>
0.635579

> <r_epik_Charging_Adjusted_Penalty>
1.25393

> <i_epik_Tot_Q>
1

> <i_epik_Tot_abs_Q>
1

> <r_epik_Metal_State_Penalty>
0.306847

> <b_epik_Metal_Only>
0

> <s_lp_Force_Field>
OPLS_2005

> <r_lp_Energy>
57.1272

> <b_lp_Chiralities_Consistent>
1

> <s_lp_Variant>
AV-unprocessed.smi:3055-4

> <Gold.Version>
5.8.1

> <Gold.Id.Protein>
6NUR|6NUR_protein|mol2

> <Gold.PLP.Fitness>
53.0172

> <Gold.PLP.PLP>
-36.3724

> <Gold.PLP.part.hbond>
-3.6618

> <Gold.PLP.part.metal>
0.0000

> <Gold.PLP.part.buried>
2.9771

> <Gold.PLP.part.nonpolar>
-36.6810

> <Gold.PLP.part.repulsive>
1.8534

> <Gold.PLP.ligand.clash>
0.0000

> <Gold.PLP.ligand.torsion>
0.4096

> <Gold.PLP.Chemscore.Hbond>
4.0000

> <Gold.PLP.Chemscore.CHOScore>
1.7904

> <Gold.PLP.Chemscore.Metal>
0.0000

> <Gold.Chemscore.Hbonds>
donor molecule, donor type, donor heavy atom, donor atom, acceptor molecule, acceptor atom, score
      L1  H    16    47       P1 10186  2.00
      P1  H  7954  7966       L1     1  1.00
      P1  H  7989  7998       L1     9  0.75
      L1  C     7    27       P1  8028  1.00
      L1  C    10    29       P1  7957  0.77

> <Gold.PLP.Chemscore.Internal.Correction>
0.0928

> <Gold.Rescore>
     Score         DG    S(hbond)    S(metal)    S(lipo)     H(rot)  DE(clash)    DE(int)     intcor
     11.65     -14.01       1.26        0.00      76.55       1.81       1.90       0.46       ----

> <Gold.Chemscore.Fitness>
11.6524

> <Gold.Chemscore.DG>
-14.0109

> <Gold.Chemscore.ZeroCoef>
-5.4800

> <Gold.Chemscore.Hbond>
1.2572

> <Gold.Chemscore.Metal>
0.0000

> <Gold.Chemscore.Lipo>
76.5531

> <Gold.Chemscore.Internal_Hbond>
0.0000

> <Gold.Chemscore.DEClash>
1.8994

> <Gold.Chemscore.DEInternal>
0.4592

> <Gold.Chemscore.Rot>
1.8066

> <Gold.Chemscore.Internal.Correction>
   9.000000E+99

> <Gold.Chemscore.Hbonds>
donor molecule, donor type, donor heavy atom, donor atom, acceptor molecule, acceptor atom, score
      L1  H    16    47       P1 10186  0.25
      P1  H  7954  7966       L1     1  0.98
      P1  H  7989  7998       L1     9  0.02

> <Gold.Chemscore.Hbond.Weighted>
-4.1992

> <Gold.Chemscore.Metal.Weighted>
-0.0000

> <Gold.Chemscore.Lipo.Weighted>
-8.9567

> <Gold.Chemscore.Internal_Hbond.Weighted>
0.0000

> <Gold.Chemscore.DEClash.Weighted>
1.8994

> <Gold.Chemscore.DEInternal.Weighted>
0.4592

> <Gold.Chemscore.Rot.Weighted>
4.6249

> <Gold.Chemscore.Internal.Correction.Weighted>
   9.000000E+99

> <Gold.Protein.RotatedTorsions>
[ 6907 6896 6895 6894 ] final  135.95 input  -60.11 | X-H torsion
[ 7974 7965 7964 7962 ] final  145.91 input  175.53 | X-H torsion
[ 8008 7997 7996 7995 ] final   84.01 input   59.86 | X-H torsion
[ 10167 10162 10161 10158 ] final  154.65 input  -65.29 | X-H torsion
[ 10718 10713 10712 10709 ] final -123.57 input   66.30 | X-H torsion
[ 10763 10752 10751 10750 ] final   48.20 input  -60.55 | X-H torsion
[ 11005 11000 10999 10996 ] final   54.34 input  -57.11 | X-H torsion

> <Gold.Protein.ActiveResidues>
 VAL166  LYS551  ARG553  GLY616  TRP617  ASP618  TYR619  PRO620  LYS621  CYS622 
 ASP623  PHE694  ASN695  SER759  ASP760  ASP761  ALA762  ILE779  LEU786  VAL792 
 PHE793  MET794  SER795  GLU796  ALA797  LYS798  CYS799  TRP800  GLU811  SER814 

> <Gold.Protein.RotatedAtoms>
  152.2947  133.5596  159.5579 H   0  0  0  0  0  0  0  0  0  0  0  0  # atno 6907 bound_to 6896
  150.7251  134.0377  159.3764 H   0  0  0  0  0  0  0  0  0  0  0  0  # atno 6908 bound_to 6896
  151.8281  135.0630  160.0484 H   0  0  0  0  0  0  0  0  0  0  0  0  # atno 6909 bound_to 6896
  144.8714  139.5840  143.5885 H   0  0  0  0  0  0  0  0  0  0  0  0  # atno 7974 bound_to 7965
  155.9315  140.3414  155.6253 H   0  0  0  0  0  0  0  0  0  0  0  0  # atno 8008 bound_to 7997
  155.7151  140.0776  157.2373 H   0  0  0  0  0  0  0  0  0  0  0  0  # atno 8009 bound_to 7997
  154.4086  140.1615  156.2327 H   0  0  0  0  0  0  0  0  0  0  0  0  # atno 8010 bound_to 7997
  139.4823  144.5168  151.7939 H   0  0  0  0  0  0  0  0  0  0  0  0  # atno 10167 bound_to 10162
  156.1513  130.6537  150.9918 H   0  0  0  0  0  0  0  0  0  0  0  0  # atno 10718 bound_to 10713
  152.9793  135.5952  154.3887 H   0  0  0  0  0  0  0  0  0  0  0  0  # atno 10763 bound_to 10752
  154.3545  135.2767  155.2356 H   0  0  0  0  0  0  0  0  0  0  0  0  # atno 10764 bound_to 10752
  154.4380  135.6020  153.6166 H   0  0  0  0  0  0  0  0  0  0  0  0  # atno 10765 bound_to 10752
  140.0694  134.5490  155.9063 H   0  0  0  0  0  0  0  0  0  0  0  0  # atno 11005 bound_to 11000
  146.2933  139.7202  142.9145 LP  0  0  0  0  0  0  0  0  0  0  0  0  # atno 17320 bound_to 7965
  145.4124  141.0398  143.3010 LP  0  0  0  0  0  0  0  0  0  0  0  0  # atno 17321 bound_to 7965
  140.4677  144.1631  150.5914 LP  0  0  0  0  0  0  0  0  0  0  0  0  # atno 17342 bound_to 10162
  140.4416  143.2524  151.9466 LP  0  0  0  0  0  0  0  0  0  0  0  0  # atno 17343 bound_to 10162
  157.6659  131.0871  150.7729 LP  0  0  0  0  0  0  0  0  0  0  0  0  # atno 17370 bound_to 10713
  156.7797  130.4855  149.5403 LP  0  0  0  0  0  0  0  0  0  0  0  0  # atno 17371 bound_to 10713
  141.2006  133.6613  156.5904 LP  0  0  0  0  0  0  0  0  0  0  0  0  # atno 17394 bound_to 11000
  140.3649  134.7655  157.4559 LP  0  0  0  0  0  0  0  0  0  0  0  0  # atno 17395 bound_to 11000

$$$$
