#       Name:                AV-unprocessed.smi:153
#       Creating user name   scv26
#       Creation time:       Thu Mar 26 18:50:07 2020


#       File generated by GOLD software.
#

@<TRIPOS>MOLECULE
AV-unprocessed.smi:153
    71    74     1
SMALL
NO_CHARGES


@<TRIPOS>ATOM
      1 ****        -6.4489  -2.4784   1.2827 C.3            1 S1                 0.0000
      2 ****        -5.4194  -2.8531   0.2058 C.3            1 S1                 0.0000
      3 ****        -5.4079  -4.2708   0.0699 O.3            1 S1                 0.0000
      4 ****        -4.1368  -4.6602  -0.4178 C.3            1 S1                 0.0000
      5 ****        -3.1998  -3.7829   0.3977 C.3            1 S1                 0.0000
      6 ****        -3.9407  -2.4478   0.4681 C.3            1 S1                 0.0000
      7 ****        -3.5134  -1.6563  -0.6275 O.3            1 S1                 0.0000
      8 ****        -3.6613  -1.6566   1.7739 C.3            1 S1                 0.0000
      9 ****        -2.2462  -1.4053   2.0043 N.pl3          1 S1                 0.0000
     10 ****        -1.3792  -2.1899   2.7280 C.2            1 S1                 0.0000
     11 ****        -0.1509  -1.7553   2.7799 N.2            1 S1                 0.0000
     12 ****        -0.1640  -0.5745   2.0430 C.ar           1 S1                 0.0000
     13 ****         0.8197   0.4012   1.6888 C.ar           1 S1                 0.0000
     14 ****         2.1406   0.3352   2.0330 N.pl3          1 S1                 0.0000
     15 ****         2.7202  -0.9636   2.3551 C.3            1 S1                 0.0000
     16 ****         3.0597   1.3999   1.6226 C.3            1 S1                 0.0000
     17 ****         3.4839   1.2837   0.1411 C.3            1 S1                 0.0000
     18 ****         4.7339   0.6254   0.0862 O.3            1 S1                 0.0000
     19 ****         3.6593   2.6722  -0.5105 C.3            1 S1                 0.0000
     20 ****         3.6520   2.6842  -1.9741 N.3            1 S1                 0.0000
     21 ****         4.1301   3.9641  -2.4864 C.3            1 S1                 0.0000
     22 ****         4.1278   4.0067  -4.0243 C.3            1 S1                 0.0000
     23 ****         2.8152   3.7371  -4.5051 O.3            1 S1                 0.0000
     24 ****         2.3201   2.4764  -4.0668 C.3            1 S1                 0.0000
     25 ****         2.3226   2.4246  -2.5291 C.3            1 S1                 0.0000
     26 ****         0.3859   1.4631   0.9550 N.ar           1 S1                 0.0000
     27 ****        -0.8900   1.5647   0.5760 C.ar           1 S1                 0.0000
     28 ****        -1.8981   0.7284   0.8186 N.ar           1 S1                 0.0000
     29 ****        -1.4861  -0.3358   1.5634 C.ar           1 S1                 0.0000
     30 ****        -6.5023  -1.3988   1.4221 H              1 S1                 0.0000
     31 ****        -6.2130  -2.9375   2.2425 H              1 S1                 0.0000
     32 ****        -7.4439  -2.8193   0.9958 H              1 S1                 0.0000
     33 ****        -5.7593  -2.4435  -0.7476 H              1 S1                 0.0000
     34 ****        -3.9561  -5.7250  -0.2704 H              1 S1                 0.0000
     35 ****        -4.0612  -4.4365  -1.4832 H              1 S1                 0.0000
     36 ****        -3.1062  -4.2130   1.3955 H              1 S1                 0.0000
     37 ****        -2.1978  -3.7123  -0.0281 H              1 S1                 0.0000
     38 ****        -2.6078  -1.4215  -0.4936 H              1 S1                 0.0000
     39 ****        -4.1828  -0.6985   1.7622 H              1 S1                 0.0000
     40 ****        -4.0395  -2.2038   2.6377 H              1 S1                 0.0000
     41 ****        -1.6860  -3.1044   3.2149 H              1 S1                 0.0000
     42 ****         2.4291  -1.2741   3.3587 H              1 S1                 0.0000
     43 ****         3.8095  -0.9252   2.3269 H              1 S1                 0.0000
     44 ****         2.3992  -1.7236   1.6418 H              1 S1                 0.0000
     45 ****         2.5803   2.3614   1.8103 H              1 S1                 0.0000
     46 ****         3.9346   1.3993   2.2745 H              1 S1                 0.0000
     47 ****         2.7539   0.6881  -0.4047 H              1 S1                 0.0000
     48 ****         5.3735   1.1565   0.5350 H              1 S1                 0.0000
     49 ****         2.8677   3.3365  -0.1600 H              1 S1                 0.0000
     50 ****         4.5881   3.1103  -0.1412 H              1 S1                 0.0000
     51 ****         3.5064   4.7733  -2.1031 H              1 S1                 0.0000
     52 ****         5.1419   4.1520  -2.1253 H              1 S1                 0.0000
     53 ****         4.4421   4.9891  -4.3769 H              1 S1                 0.0000
     54 ****         4.8304   3.2785  -4.4328 H              1 S1                 0.0000
     55 ****         1.3086   2.3386  -4.4488 H              1 S1                 0.0000
     56 ****         2.9321   1.6735  -4.4807 H              1 S1                 0.0000
     57 ****         1.9579   1.4471  -2.2181 H              1 S1                 0.0000
     58 ****         1.6113   3.1576  -2.1449 H              1 S1                 0.0000
     59 ****        -1.1368   2.4396  -0.0075 H              1 S1                 0.0000
     60 ****        -6.1186  -4.5546  -0.5739 LP             1 S1                 0.0000
     61 ****        -5.5741  -4.6971   0.9590 LP             1 S1                 0.0000
     62 ****        -4.0716  -0.8285  -0.6834 LP             1 S1                 0.0000
     63 ****        -3.6046  -2.1777  -1.4760 LP             1 S1                 0.0000
     64 ****         0.6273  -2.1766   3.2455 LP             1 S1                 0.0000
     65 ****         5.0080   0.5016  -0.8675 LP             1 S1                 0.0000
     66 ****         4.6646  -0.2672   0.5316 LP             1 S1                 0.0000
     67 ****         4.2647   1.9479  -2.2613 LP             1 S1                 0.0000
     68 ****         2.8325   3.7444  -5.5050 LP             1 S1                 0.0000
     69 ****         2.2003   4.4543  -4.1772 LP             1 S1                 0.0000
     70 ****         1.0341   2.1790   0.6956 LP             1 S1                 0.0000
     71 ****        -2.8350   0.8639   0.4962 LP             1 S1                 0.0000
@<TRIPOS>BOND
    1    1    2 1     
    2    1   30 1     
    3    1   31 1     
    4    1   32 1     
    5    2    6 1     
    6    2    3 1     
    7    2   33 1     
    8    3    4 1     
    9    4    5 1     
   10    4   34 1     
   11    4   35 1     
   12    5    6 1     
   13    5   36 1     
   14    5   37 1     
   15    6    7 1     
   16    6    8 1     
   17    7   38 1     
   18    8    9 1     
   19    8   39 1     
   20    8   40 1     
   21    9   29 1     
   22    9   10 1     
   23   10   11 2     
   24   10   41 1     
   25   11   12 1     
   26   12   29 ar    
   27   12   13 ar    
   28   13   14 1     
   29   13   26 ar    
   30   14   15 1     
   31   14   16 1     
   32   15   42 1     
   33   15   43 1     
   34   15   44 1     
   35   16   17 1     
   36   16   45 1     
   37   16   46 1     
   38   17   18 1     
   39   17   19 1     
   40   17   47 1     
   41   18   48 1     
   42   19   20 1     
   43   19   49 1     
   44   19   50 1     
   45   20   25 1     
   46   20   21 1     
   47   21   22 1     
   48   21   51 1     
   49   21   52 1     
   50   22   23 1     
   51   22   53 1     
   52   22   54 1     
   53   23   24 1     
   54   24   25 1     
   55   24   55 1     
   56   24   56 1     
   57   25   57 1     
   58   25   58 1     
   59   26   27 ar    
   60   27   28 ar    
   61   27   59 1     
   62   28   29 ar    
   63    3   60 1     
   64    3   61 1     
   65    7   62 1     
   66    7   63 1     
   67   11   64 1     
   68   18   65 1     
   69   18   66 1     
   70   20   67 1     
   71   23   68 1     
   72   23   69 1     
   73   26   70 1     
   74   28   71 1     
@<TRIPOS>SUBSTRUCTURE
      1 S1             1
@<TRIPOS>SET
LONE_PAIRS      STATIC     ATOMS    <user>   **** ""
12 60 61 62 63 64 65 66 67 68 69 70 71
DONOR_HYDROGENS      STATIC     ATOMS    <user>   **** ""
2 38 48
ATOM$BLUE        STATIC     ATOMS    COLORGROUP SYSTEM
12 60 61 62 63 64 65 66 67 68 69 70 71
ATOM$RED        STATIC     ATOMS    COLORGROUP SYSTEM
2 38 48
