AV-unprocessed.smi:771|AV-procd|sdf|3684|dock6
  -GOLD-   22720 1103D 1   1.00000     0.00000
 Structure written by MMmdl.
 41 42  0  0  0  0  0  0  0  0  3 V2000
  149.6603  143.5660  158.2726 O   0  0  0  0  0  0  0  0  0  0  0  0
  150.8255  143.3017  157.9722 C   0  0  0  0  0  0  0  0  0  0  0  0
  152.0027  144.0091  158.6589 C   0  0  0  0  0  0  0  0  0  0  0  0
  152.4958  143.2992  159.8510 N   0  0  0  0  0  0  0  0  0  0  0  0
  153.3242  142.1822  159.6256 C   0  0  0  0  0  0  0  0  0  0  0  0
  153.8434  141.4595  160.6374 C   0  0  0  0  0  0  0  0  0  0  0  0
  154.6967  140.3188  160.3868 N   0  3  0  0  0  0  0  0  0  0  0  0
  155.3216  139.8340  161.3246 O   0  0  0  0  0  0  0  0  0  0  0  0
  154.7708  139.8699  159.2466 O   0  5  0  0  0  0  0  0  0  0  0  0
  153.5207  141.8669  161.9911 C   0  0  0  0  0  0  0  0  0  0  0  0
  152.7328  142.9374  162.2135 C   0  0  0  0  0  0  0  0  0  0  0  0
  152.1741  143.7261  161.1104 C   0  0  0  0  0  0  0  0  0  0  0  0
  151.4620  144.7108  161.3073 O   0  0  0  0  0  0  0  0  0  0  0  0
  151.1535  142.3954  157.0392 N   0  0  0  0  0  0  0  0  0  0  0  0
  150.2009  141.6247  156.2456 C   0  0  0  0  0  0  0  0  0  0  0  0
  150.8874  140.6277  155.2792 C   0  0  1  0  0  0  0  0  0  0  0  0
  151.9742  139.7950  155.9996 C   0  0  0  0  0  0  0  0  0  0  0  0
  152.6457  138.7822  155.0599 C   0  0  0  0  0  0  0  0  0  0  0  0
  151.6083  137.8540  154.4149 C   0  0  0  0  0  0  0  0  0  0  0  0
  150.5392  138.6660  153.6715 C   0  0  0  0  0  0  0  0  0  0  0  0
  149.8595  139.6875  154.6022 C   0  0  2  0  0  0  0  0  0  0  0  0
  148.9433  140.4354  153.8279 O   0  0  0  0  0  0  0  0  0  0  0  0
  152.8012  144.1479  157.9281 H   0  0  0  0  0  0  0  0  0  0  0  0
  151.6922  145.0188  158.9332 H   0  0  0  0  0  0  0  0  0  0  0  0
  153.5091  141.9662  158.5830 H   0  0  0  0  0  0  0  0  0  0  0  0
  153.9087  141.3177  162.8364 H   0  0  0  0  0  0  0  0  0  0  0  0
  152.5061  143.2234  163.2302 H   0  0  0  0  0  0  0  0  0  0  0  0
  152.1337  142.2334  156.8579 H   0  0  0  0  0  0  0  0  0  0  0  0
  149.5507  141.0844  156.9342 H   0  0  0  0  0  0  0  0  0  0  0  0
  149.5575  142.3160  155.6992 H   0  0  0  0  0  0  0  0  0  0  0  0
  151.3802  141.1998  154.4914 H   0  0  0  0  0  0  0  0  0  0  0  0
  152.7416  140.4476  156.4166 H   0  0  0  0  0  0  0  0  0  0  0  0
  151.5299  139.2653  156.8434 H   0  0  0  0  0  0  0  0  0  0  0  0
  153.1971  139.3133  154.2829 H   0  0  0  0  0  0  0  0  0  0  0  0
  153.3788  138.1933  155.6120 H   0  0  0  0  0  0  0  0  0  0  0  0
  152.1003  137.1664  153.7265 H   0  0  0  0  0  0  0  0  0  0  0  0
  151.1360  137.2400  155.1829 H   0  0  0  0  0  0  0  0  0  0  0  0
  151.0024  139.1821  152.8290 H   0  0  0  0  0  0  0  0  0  0  0  0
  149.7941  137.9909  153.2485 H   0  0  0  0  0  0  0  0  0  0  0  0
  149.2954  139.1536  155.3682 H   0  0  0  0  0  0  0  0  0  0  0  0
  149.1909  140.3662  152.9183 H   0  0  0  0  0  0  0  0  0  0  0  0
  1  2  2  0  0  0  0
  2  3  1  0  0  0  0
  2 14  1  0  0  0  0
  3  4  1  0  0  0  0
  3 23  1  0  0  0  0
  3 24  1  0  0  0  0
  4 12  1  0  0  0  0
  4  5  1  0  0  0  0
  5  6  2  0  0  0  0
  5 25  1  0  0  0  0
  6  7  1  0  0  0  0
  6 10  1  0  0  0  0
  7  8  2  0  0  0  0
  7  9  1  0  0  0  0
 10 11  2  0  0  0  0
 10 26  1  0  0  0  0
 11 12  1  0  0  0  0
 11 27  1  0  0  0  0
 12 13  2  0  0  0  0
 14 15  1  0  0  0  0
 14 28  1  0  0  0  0
 15 16  1  0  0  0  0
 15 29  1  0  0  0  0
 15 30  1  0  0  0  0
 16 21  1  0  0  0  0
 16 17  1  0  0  0  0
 16 31  1  0  0  0  0
 17 18  1  0  0  0  0
 17 32  1  0  0  0  0
 17 33  1  0  0  0  0
 18 19  1  0  0  0  0
 18 34  1  0  0  0  0
 18 35  1  0  0  0  0
 19 20  1  0  0  0  0
 19 36  1  0  0  0  0
 19 37  1  0  0  0  0
 20 21  1  0  0  0  0
 20 38  1  0  0  0  0
 20 39  1  0  0  0  0
 21 22  1  0  0  0  0
 21 40  1  0  0  0  0
 22 41  1  0  0  0  0
M  CHG  1   7   1
M  CHG  1   9  -1
M  END
> <s_m_source_file>
AV-unprocessed.smi

> <i_m_source_file_index>
771

> <i_lp_mmshare_version>
43012

> <i_f3d_flags>
0

> <s_epik_input>
Tz1jMVtjSF1bY0hdYyhbTitdKD1PKVtPLV0pW2NIXW4xW0NIMl1DKD1PKVtOSF1bQ0gyXVtDQEBIXTJbQ0gyXVtDSDJdW0NIMl1bQ0gyXVtDQEhdMltPSF0=

> <s_epik_cmdline>
J2VwaWtfcHl0aG9uJywgJy1waCcsICc3LjAnLCAnLXRuJywgJzgnLCAnLW1hJywgJzIwMCcsICctbWV0YWxfYmluZGluZycsICctaW1hZScsICc8aW5maWxlLm1hZT4nLCAnLW9tYWUnLCAnPG91dGZpbGUubWFlPic=

> <r_lp_tautomer_probability>
1

> <r_epik_Ionization_Penalty>
3.77175e-07

> <r_epik_Ionization_Penalty_Charging>
7.70067e-11

> <r_epik_Ionization_Penalty_Neutral>
3.77098e-07

> <r_epik_State_Penalty>
-0

> <r_epik_Charging_Adjusted_Penalty>
7.70067e-11

> <i_epik_Tot_Q>
0

> <i_epik_Tot_abs_Q>
2

> <r_epik_Metal_State_Penalty>
-0

> <b_epik_Metal_Only>
0

> <s_lp_Force_Field>
OPLS_2005

> <r_lp_Energy>
22.9473

> <b_lp_Chiralities_Consistent>
1

> <s_lp_Variant>
AV-unprocessed.smi:771-4

> <Gold.Version>
5.8.1

> <Gold.Id.Protein>
6NUR|6NUR_protein|mol2

> <Gold.PLP.Fitness>
56.1706

> <Gold.PLP.PLP>
-51.6043

> <Gold.PLP.part.hbond>
-2.0000

> <Gold.PLP.part.metal>
0.0000

> <Gold.PLP.part.buried>
-4.6427

> <Gold.PLP.part.nonpolar>
-47.3255

> <Gold.PLP.part.repulsive>
2.7319

> <Gold.PLP.ligand.clash>
0.0000

> <Gold.PLP.ligand.torsion>
0.7356

> <Gold.PLP.Chemscore.Hbond>
2.0000

> <Gold.PLP.Chemscore.CHOScore>
0.0000

> <Gold.PLP.Chemscore.Metal>
0.0000

> <Gold.Chemscore.Hbonds>
donor molecule, donor type, donor heavy atom, donor atom, acceptor molecule, acceptor atom, score
      L1  H    22    41       P1  7957  1.00
      P1  H  7997  8008       L1     9  1.00

> <Gold.PLP.Chemscore.Internal.Correction>
0.0375

> <Gold.Rescore>
     Score         DG    S(hbond)    S(metal)    S(lipo)     H(rot)  DE(clash)    DE(int)     intcor
     15.88     -17.99       1.85        0.00     108.19       2.48       1.43       0.68       ----

> <Gold.Chemscore.Fitness>
15.8773

> <Gold.Chemscore.DG>
-17.9939

> <Gold.Chemscore.ZeroCoef>
-5.4800

> <Gold.Chemscore.Hbond>
1.8540

> <Gold.Chemscore.Metal>
0.0000

> <Gold.Chemscore.Lipo>
108.1909

> <Gold.Chemscore.Internal_Hbond>
0.0000

> <Gold.Chemscore.DEClash>
1.4318

> <Gold.Chemscore.DEInternal>
0.6848

> <Gold.Chemscore.Rot>
2.4753

> <Gold.Chemscore.Internal.Correction>
   9.000000E+99

> <Gold.Chemscore.Hbonds>
donor molecule, donor type, donor heavy atom, donor atom, acceptor molecule, acceptor atom, score
      L1  H    22    41       P1  7957  1.00
      P1  H  7997  8008       L1     9  0.93

> <Gold.Chemscore.Hbond.Weighted>
-6.1924

> <Gold.Chemscore.Metal.Weighted>
-0.0000

> <Gold.Chemscore.Lipo.Weighted>
-12.6583

> <Gold.Chemscore.Internal_Hbond.Weighted>
0.0000

> <Gold.Chemscore.DEClash.Weighted>
1.4318

> <Gold.Chemscore.DEInternal.Weighted>
0.6848

> <Gold.Chemscore.Rot.Weighted>
6.3369

> <Gold.Chemscore.Internal.Correction.Weighted>
   9.000000E+99

> <Gold.Protein.RotatedTorsions>
[ 6907 6896 6895 6894 ] final  -57.13 input  -60.11 | X-H torsion
[ 7974 7965 7964 7962 ] final -173.15 input  175.53 | X-H torsion
[ 8008 7997 7996 7995 ] final -135.04 input   59.86 | X-H torsion
[ 10167 10162 10161 10158 ] final  162.63 input  -65.29 | X-H torsion
[ 10718 10713 10712 10709 ] final    0.66 input   66.30 | X-H torsion
[ 10763 10752 10751 10750 ] final -139.55 input  -60.55 | X-H torsion
[ 11005 11000 10999 10996 ] final  -68.57 input  -57.11 | X-H torsion

> <Gold.Protein.ActiveResidues>
 VAL166  LYS551  ARG553  GLY616  TRP617  ASP618  TYR619  PRO620  LYS621  CYS622 
 ASP623  PHE694  ASN695  SER759  ASP760  ASP761  ALA762  ILE779  LEU786  VAL792 
 PHE793  MET794  SER795  GLU796  ALA797  LYS798  CYS799  TRP800  GLU811  SER814 

> <Gold.Protein.RotatedAtoms>
  150.8111  134.7266  159.6688 H   0  0  0  0  0  0  0  0  0  0  0  0  # atno 6907 bound_to 6896
  152.4231  134.5916  159.9985 H   0  0  0  0  0  0  0  0  0  0  0  0  # atno 6908 bound_to 6896
  151.6125  133.3309  159.3106 H   0  0  0  0  0  0  0  0  0  0  0  0  # atno 6909 bound_to 6896
  144.7140  140.1665  143.6371 H   0  0  0  0  0  0  0  0  0  0  0  0  # atno 7974 bound_to 7965
  155.3721  140.0489  157.3045 H   0  0  0  0  0  0  0  0  0  0  0  0  # atno 8008 bound_to 7997
  154.5125  140.2196  155.9092 H   0  0  0  0  0  0  0  0  0  0  0  0  # atno 8009 bound_to 7997
  156.1599  140.3118  155.8794 H   0  0  0  0  0  0  0  0  0  0  0  0  # atno 8010 bound_to 7997
  139.4863  144.4418  151.8941 H   0  0  0  0  0  0  0  0  0  0  0  0  # atno 10167 bound_to 10162
  156.8367  130.5507  149.5681 H   0  0  0  0  0  0  0  0  0  0  0  0  # atno 10718 bound_to 10713
  154.8605  135.3579  154.5565 H   0  0  0  0  0  0  0  0  0  0  0  0  # atno 10763 bound_to 10752
  153.6181  135.7007  153.5325 H   0  0  0  0  0  0  0  0  0  0  0  0  # atno 10764 bound_to 10752
  153.3152  135.4167  155.1330 H   0  0  0  0  0  0  0  0  0  0  0  0  # atno 10765 bound_to 10752
  141.1535  133.6744  156.6467 H   0  0  0  0  0  0  0  0  0  0  0  0  # atno 11005 bound_to 11000
  145.8983  139.2415  143.1509 LP  0  0  0  0  0  0  0  0  0  0  0  0  # atno 17320 bound_to 7965
  145.9836  140.8662  143.0102 LP  0  0  0  0  0  0  0  0  0  0  0  0  # atno 17321 bound_to 7965
  140.3871  144.2663  150.5903 LP  0  0  0  0  0  0  0  0  0  0  0  0  # atno 17342 bound_to 10162
  140.5180  143.2273  151.8432 LP  0  0  0  0  0  0  0  0  0  0  0  0  # atno 17343 bound_to 10162
  156.0903  130.5891  150.9721 LP  0  0  0  0  0  0  0  0  0  0  0  0  # atno 17370 bound_to 10713
  157.6377  131.0914  150.8314 LP  0  0  0  0  0  0  0  0  0  0  0  0  # atno 17371 bound_to 10713
  140.3352  134.7895  157.4356 LP  0  0  0  0  0  0  0  0  0  0  0  0  # atno 17394 bound_to 11000
  140.0983  134.5506  155.8377 LP  0  0  0  0  0  0  0  0  0  0  0  0  # atno 17395 bound_to 11000

$$$$
