AV-unprocessed.smi:1068|AV-procd|sdf|4674|dock8
  -GOLD-   22720 3183D 1   1.00000     0.00000
 Structure written by MMmdl.
 51 52  0  0  0  0  0  0  0  0  1 V2000
  152.5422  142.3381  158.8415 C   0  0  0  0  0  0  0  0  0  0  0  0
  151.4466  143.0084  157.9790 C   0  0  0  0  0  0  0  0  0  0  0  0
  150.3222  143.4184  158.9589 C   0  0  0  0  0  0  0  0  0  0  0  0
  152.0224  144.2641  157.2991 C   0  0  0  0  0  0  0  0  0  0  0  0
  150.9185  142.0422  156.9046 C   0  0  0  0  0  0  0  0  0  0  0  0
  149.7995  142.3983  156.2601 N   0  0  0  0  0  0  0  0  0  0  0  0
  149.2554  141.5044  155.4086 C   0  0  0  0  0  0  0  0  0  0  0  0
  149.8116  140.2247  155.2126 C   0  0  0  0  0  0  0  0  0  0  0  0
  149.1725  139.3303  154.3124 N   0  0  0  0  0  0  0  0  0  0  0  0
  148.0410  139.5120  153.6113 C   0  0  0  0  0  0  0  0  0  0  0  0
  147.3166  140.5046  153.6692 O   0  0  0  0  0  0  0  0  0  0  0  0
  147.7854  138.4565  152.8242 N   0  0  0  0  0  0  0  0  0  0  0  0
  146.6415  138.3337  151.9195 C   0  0  0  0  0  0  0  0  0  0  0  0
  145.7906  137.0686  152.1188 C   0  0  0  0  0  0  0  0  0  0  0  0
  144.6023  137.1902  152.4131 O   0  0  0  0  0  0  0  0  0  0  0  0
  146.3837  135.8721  151.9660 N   0  0  0  0  0  0  0  0  0  0  0  0
  145.7311  134.5740  152.0996 C   0  0  0  0  0  0  0  0  0  0  0  0
  146.7433  133.4309  151.8793 C   0  0  0  0  0  0  0  0  0  0  0  0
  146.0584  132.0555  151.9312 C   0  0  0  0  0  0  0  0  0  0  0  0
  144.9020  131.9692  150.9232 C   0  0  0  0  0  0  0  0  0  0  0  0
  143.8880  133.1028  151.1441 C   0  0  0  0  0  0  0  0  0  0  0  0
  144.5702  134.4792  151.0913 C   0  0  0  0  0  0  0  0  0  0  0  0
  150.9641  139.9320  155.9808 C   0  0  0  0  0  0  0  0  0  0  0  0
  151.4973  140.8367  156.8295 N   0  0  0  0  0  0  0  0  0  0  0  0
  152.8832  143.0019  159.6368 H   0  0  0  0  0  0  0  0  0  0  0  0
  153.4221  142.0758  158.2531 H   0  0  0  0  0  0  0  0  0  0  0  0
  152.1748  141.4254  159.3121 H   0  0  0  0  0  0  0  0  0  0  0  0
  149.8747  142.5463  159.4374 H   0  0  0  0  0  0  0  0  0  0  0  0
  149.5237  143.9676  158.4591 H   0  0  0  0  0  0  0  0  0  0  0  0
  150.7013  144.0667  159.7497 H   0  0  0  0  0  0  0  0  0  0  0  0
  152.4068  144.9735  158.0328 H   0  0  0  0  0  0  0  0  0  0  0  0
  151.2627  144.7791  156.7100 H   0  0  0  0  0  0  0  0  0  0  0  0
  152.8422  144.0094  156.6265 H   0  0  0  0  0  0  0  0  0  0  0  0
  148.3627  141.8138  154.8844 H   0  0  0  0  0  0  0  0  0  0  0  0
  149.6218  138.4324  154.2056 H   0  0  0  0  0  0  0  0  0  0  0  0
  148.4324  137.6818  152.8432 H   0  0  0  0  0  0  0  0  0  0  0  0
  146.0007  139.2027  152.0693 H   0  0  0  0  0  0  0  0  0  0  0  0
  146.9780  138.3758  150.8823 H   0  0  0  0  0  0  0  0  0  0  0  0
  147.3632  135.8631  151.7214 H   0  0  0  0  0  0  0  0  0  0  0  0
  145.3133  134.4879  153.1048 H   0  0  0  0  0  0  0  0  0  0  0  0
  147.2339  133.5537  150.9126 H   0  0  0  0  0  0  0  0  0  0  0  0
  147.5308  133.4738  152.6323 H   0  0  0  0  0  0  0  0  0  0  0  0
  146.7868  131.2696  151.7299 H   0  0  0  0  0  0  0  0  0  0  0  0
  145.6793  131.8752  152.9380 H   0  0  0  0  0  0  0  0  0  0  0  0
  145.2969  132.0242  149.9080 H   0  0  0  0  0  0  0  0  0  0  0  0
  144.4042  131.0029  151.0097 H   0  0  0  0  0  0  0  0  0  0  0  0
  143.1011  133.0492  150.3912 H   0  0  0  0  0  0  0  0  0  0  0  0
  143.4001  132.9742  152.1111 H   0  0  0  0  0  0  0  0  0  0  0  0
  143.8357  135.2602  151.2925 H   0  0  0  0  0  0  0  0  0  0  0  0
  144.9417  134.6581  150.0812 H   0  0  0  0  0  0  0  0  0  0  0  0
  151.4621  138.9758  155.9536 H   0  0  0  0  0  0  0  0  0  0  0  0
  1  2  1  0  0  0  0
  1 25  1  0  0  0  0
  1 26  1  0  0  0  0
  1 27  1  0  0  0  0
  2  3  1  0  0  0  0
  2  4  1  0  0  0  0
  2  5  1  0  0  0  0
  3 28  1  0  0  0  0
  3 29  1  0  0  0  0
  3 30  1  0  0  0  0
  4 31  1  0  0  0  0
  4 32  1  0  0  0  0
  4 33  1  0  0  0  0
  5 24  1  0  0  0  0
  5  6  2  0  0  0  0
  6  7  1  0  0  0  0
  7  8  2  0  0  0  0
  7 34  1  0  0  0  0
  8  9  1  0  0  0  0
  8 23  1  0  0  0  0
  9 10  1  0  0  0  0
  9 35  1  0  0  0  0
 10 11  2  0  0  0  0
 10 12  1  0  0  0  0
 12 13  1  0  0  0  0
 12 36  1  0  0  0  0
 13 14  1  0  0  0  0
 13 37  1  0  0  0  0
 13 38  1  0  0  0  0
 14 15  2  0  0  0  0
 14 16  1  0  0  0  0
 16 17  1  0  0  0  0
 16 39  1  0  0  0  0
 17 22  1  0  0  0  0
 17 18  1  0  0  0  0
 17 40  1  0  0  0  0
 18 19  1  0  0  0  0
 18 41  1  0  0  0  0
 18 42  1  0  0  0  0
 19 20  1  0  0  0  0
 19 43  1  0  0  0  0
 19 44  1  0  0  0  0
 20 21  1  0  0  0  0
 20 45  1  0  0  0  0
 20 46  1  0  0  0  0
 21 22  1  0  0  0  0
 21 47  1  0  0  0  0
 21 48  1  0  0  0  0
 22 49  1  0  0  0  0
 22 50  1  0  0  0  0
 23 24  2  0  0  0  0
 23 51  1  0  0  0  0
M  END
> <s_m_source_file>
AV-unprocessed.smi

> <i_m_source_file_index>
1068

> <i_lp_mmshare_version>
43012

> <i_f3d_flags>
0

> <s_epik_input>
W0NIM11DKFtDSDNdKShbQ0gzXSljMW5bY0hdYyhbY0hdbjEpW05IXUMoPU8pW05IXVtDSDJdQyg9TylbTkhdW0NIXTJbQ0gyXVtDSDJdW0NIMl1bQ0gyXVtDSDJdMg==

> <s_epik_cmdline>
J2VwaWtfcHl0aG9uJywgJy1waCcsICc3LjAnLCAnLXRuJywgJzgnLCAnLW1hJywgJzIwMCcsICctbWV0YWxfYmluZGluZycsICctaW1hZScsICc8aW5maWxlLm1hZT4nLCAnLW9tYWUnLCAnPG91dGZpbGUubWFlPic=

> <r_lp_tautomer_probability>
1

> <r_epik_Ionization_Penalty>
2.47974e-05

> <r_epik_Ionization_Penalty_Charging>
0

> <r_epik_Ionization_Penalty_Neutral>
2.47974e-05

> <r_epik_State_Penalty>
-0

> <r_epik_Charging_Adjusted_Penalty>
0

> <i_epik_Tot_Q>
0

> <i_epik_Tot_abs_Q>
0

> <r_epik_Metal_State_Penalty>
-0

> <b_epik_Metal_Only>
0

> <s_lp_Force_Field>
OPLS_2005

> <r_lp_Energy>
3.00881

> <b_lp_Chiralities_Consistent>
1

> <s_lp_Variant>
AV-unprocessed.smi:1068-1

> <Gold.Version>
5.8.1

> <Gold.Id.Protein>
6NUR|6NUR_protein|mol2

> <Gold.PLP.Fitness>
48.2330

> <Gold.PLP.PLP>
-42.5535

> <Gold.PLP.part.hbond>
-3.8935

> <Gold.PLP.part.metal>
0.0000

> <Gold.PLP.part.buried>
-5.4667

> <Gold.PLP.part.nonpolar>
-38.5197

> <Gold.PLP.part.repulsive>
5.0036

> <Gold.PLP.ligand.clash>
0.0000

> <Gold.PLP.ligand.torsion>
0.2035

> <Gold.PLP.Chemscore.Hbond>
1.9760

> <Gold.PLP.Chemscore.CHOScore>
0.0000

> <Gold.PLP.Chemscore.Metal>
0.0000

> <Gold.Chemscore.Hbonds>
donor molecule, donor type, donor heavy atom, donor atom, acceptor molecule, acceptor atom, score
      L1  H    12    36       P1  7948  0.83
      L1  H    16    39       P1  7948  1.00

> <Gold.PLP.Chemscore.Internal.Correction>
0.1584

> <Gold.Rescore>
     Score         DG    S(hbond)    S(metal)    S(lipo)     H(rot)  DE(clash)    DE(int)     intcor
     15.06     -19.30       1.91        0.00      99.65       1.64       1.53       2.71       ----

> <Gold.Chemscore.Fitness>
15.0611

> <Gold.Chemscore.DG>
-19.3007

> <Gold.Chemscore.ZeroCoef>
-5.4800

> <Gold.Chemscore.Hbond>
1.9065

> <Gold.Chemscore.Metal>
0.0000

> <Gold.Chemscore.Lipo>
99.6520

> <Gold.Chemscore.Internal_Hbond>
0.0000

> <Gold.Chemscore.DEClash>
1.5268

> <Gold.Chemscore.DEInternal>
2.7128

> <Gold.Chemscore.Rot>
1.6431

> <Gold.Chemscore.Internal.Correction>
   9.000000E+99

> <Gold.Chemscore.Hbonds>
donor molecule, donor type, donor heavy atom, donor atom, acceptor molecule, acceptor atom, score
      L1  H    12    36       P1  7948  0.81
      L1  H    16    39       P1  7948  0.98

> <Gold.Chemscore.Hbond.Weighted>
-6.3678

> <Gold.Chemscore.Metal.Weighted>
-0.0000

> <Gold.Chemscore.Lipo.Weighted>
-11.6593

> <Gold.Chemscore.Internal_Hbond.Weighted>
0.0000

> <Gold.Chemscore.DEClash.Weighted>
1.5268

> <Gold.Chemscore.DEInternal.Weighted>
2.7128

> <Gold.Chemscore.Rot.Weighted>
4.2063

> <Gold.Chemscore.Internal.Correction.Weighted>
   9.000000E+99

> <Gold.Protein.RotatedTorsions>
[ 6907 6896 6895 6894 ] final  -33.49 input  -60.11 | X-H torsion
[ 7974 7965 7964 7962 ] final  -47.39 input  175.53 | X-H torsion
[ 8008 7997 7996 7995 ] final  -14.77 input   59.86 | X-H torsion
[ 10167 10162 10161 10158 ] final -118.29 input  -65.29 | X-H torsion
[ 10718 10713 10712 10709 ] final   29.33 input   66.30 | X-H torsion
[ 10763 10752 10751 10750 ] final  164.48 input  -60.55 | X-H torsion
[ 11005 11000 10999 10996 ] final -156.19 input  -57.11 | X-H torsion

> <Gold.Protein.ActiveResidues>
 VAL166  LYS551  ARG553  GLY616  TRP617  ASP618  TYR619  PRO620  LYS621  CYS622 
 ASP623  PHE694  ASN695  SER759  ASP760  ASP761  ALA762  ILE779  LEU786  VAL792 
 PHE793  MET794  SER795  GLU796  ALA797  LYS798  CYS799  TRP800  GLU811  SER814 

> <Gold.Protein.RotatedAtoms>
  151.0649  134.9761  159.8278 H   0  0  0  0  0  0  0  0  0  0  0  0  # atno 6907 bound_to 6896
  152.5400  134.2372  159.8858 H   0  0  0  0  0  0  0  0  0  0  0  0  # atno 6908 bound_to 6896
  151.2393  133.4365  159.2640 H   0  0  0  0  0  0  0  0  0  0  0  0  # atno 6909 bound_to 6896
  145.9621  140.7469  142.9452 H   0  0  0  0  0  0  0  0  0  0  0  0  # atno 7974 bound_to 7965
  154.5183  140.2214  155.9023 H   0  0  0  0  0  0  0  0  0  0  0  0  # atno 8008 bound_to 7997
  156.1633  140.3137  155.8810 H   0  0  0  0  0  0  0  0  0  0  0  0  # atno 8009 bound_to 7997
  155.3707  140.0466  157.3036 H   0  0  0  0  0  0  0  0  0  0  0  0  # atno 8010 bound_to 7997
  140.0591  143.4986  152.2041 H   0  0  0  0  0  0  0  0  0  0  0  0  # atno 10167 bound_to 10162
  157.2451  130.7088  149.6378 H   0  0  0  0  0  0  0  0  0  0  0  0  # atno 10718 bound_to 10713
  154.3095  135.2757  155.2573 H   0  0  0  0  0  0  0  0  0  0  0  0  # atno 10763 bound_to 10752
  154.4974  135.5817  153.6508 H   0  0  0  0  0  0  0  0  0  0  0  0  # atno 10764 bound_to 10752
  152.9890  135.6149  154.3271 H   0  0  0  0  0  0  0  0  0  0  0  0  # atno 10765 bound_to 10752
  140.6783  134.4172  157.5228 H   0  0  0  0  0  0  0  0  0  0  0  0  # atno 11005 bound_to 11000
  144.6817  140.2608  143.7319 LP  0  0  0  0  0  0  0  0  0  0  0  0  # atno 17320 bound_to 7965
  145.8025  139.1970  143.2039 LP  0  0  0  0  0  0  0  0  0  0  0  0  # atno 17321 bound_to 7965
  139.5905  144.7548  151.3412 LP  0  0  0  0  0  0  0  0  0  0  0  0  # atno 17342 bound_to 10162
  140.7180  143.7212  150.7694 LP  0  0  0  0  0  0  0  0  0  0  0  0  # atno 17343 bound_to 10162
  155.9668  130.4445  150.5465 LP  0  0  0  0  0  0  0  0  0  0  0  0  # atno 17370 bound_to 10713
  157.3337  131.0704  151.1841 LP  0  0  0  0  0  0  0  0  0  0  0  0  # atno 17371 bound_to 10713
  139.8960  134.8670  156.2108 LP  0  0  0  0  0  0  0  0  0  0  0  0  # atno 17394 bound_to 11000
  141.0338  133.6974  156.1476 LP  0  0  0  0  0  0  0  0  0  0  0  0  # atno 17395 bound_to 11000

$$$$
