AV-unprocessed.smi:2648|AV-procd|sdf|10286|dock2
  -GOLD-   2272014303D 1   1.00000     0.00000
 Structure written by MMmdl.
 33 34  0  0  0  0  0  0  0  0  2 V2000
  150.6039  135.0677  156.0314 O   0  0  0  0  0  0  0  0  0  0  0  0
  150.1107  135.3936  154.9520 C   0  0  0  0  0  0  0  0  0  0  0  0
  149.9750  136.6677  154.5568 N   0  0  0  0  0  0  0  0  0  0  0  0
  150.3889  137.8284  155.3364 C   0  0  0  0  0  0  0  0  0  0  0  0
  150.6093  139.0595  154.4386 C   0  0  0  0  0  0  0  0  0  0  0  0
  150.6757  140.2895  155.2311 N   0  0  0  0  0  0  0  0  0  0  0  0
  151.5997  140.5306  156.1703 C   0  0  0  0  0  0  0  0  0  0  0  0
  152.5142  139.7898  156.5296 O   0  0  0  0  0  0  0  0  0  0  0  0
  151.3507  141.9084  156.7444 C   0  0  0  0  0  0  0  0  0  0  0  0
  150.2013  142.2887  155.9515 N   0  0  0  0  0  0  0  0  0  0  0  0
  149.8396  141.3334  155.0853 C   0  0  0  0  0  0  0  0  0  0  0  0
  148.9025  141.4132  154.2924 O   0  0  0  0  0  0  0  0  0  0  0  0
  149.6223  134.5411  154.0340 N   0  0  0  0  0  0  0  0  0  0  0  0
  149.6067  133.1198  154.0685 C   0  0  0  0  0  0  0  0  0  0  0  0
  150.5296  132.4745  154.9215 C   0  0  0  0  0  0  0  0  0  0  0  0
  150.5369  131.0669  155.0015 C   0  0  0  0  0  0  0  0  0  0  0  0
  149.6578  130.3472  154.2719 N   0  3  0  0  0  0  0  0  0  0  0  0
  148.7486  130.9185  153.4533 C   0  0  0  0  0  0  0  0  0  0  0  0
  148.6938  132.3220  153.3320 C   0  0  0  0  0  0  0  0  0  0  0  0
  149.5546  136.8506  153.6572 H   0  0  0  0  0  0  0  0  0  0  0  0
  149.6458  138.0427  156.1068 H   0  0  0  0  0  0  0  0  0  0  0  0
  151.3118  137.5773  155.8599 H   0  0  0  0  0  0  0  0  0  0  0  0
  151.5257  138.9393  153.8579 H   0  0  0  0  0  0  0  0  0  0  0  0
  149.8052  139.1405  153.7050 H   0  0  0  0  0  0  0  0  0  0  0  0
  151.1106  141.8649  157.8073 H   0  0  0  0  0  0  0  0  0  0  0  0
  152.1966  142.5750  156.5738 H   0  0  0  0  0  0  0  0  0  0  0  0
  149.7382  143.1811  156.0459 H   0  0  0  0  0  0  0  0  0  0  0  0
  149.1628  134.9617  153.2396 H   0  0  0  0  0  0  0  0  0  0  0  0
  151.2321  133.0497  155.5073 H   0  0  0  0  0  0  0  0  0  0  0  0
  151.2132  130.4996  155.6242 H   0  0  0  0  0  0  0  0  0  0  0  0
  148.0918  130.2408  152.9275 H   0  0  0  0  0  0  0  0  0  0  0  0
  147.9456  132.7575  152.6875 H   0  0  0  0  0  0  0  0  0  0  0  0
  149.6778  129.3297  154.3457 H   0  0  0  0  0  0  0  0  0  0  0  0
  1  2  2  0  0  0  0
  2  3  1  0  0  0  0
  2 13  1  0  0  0  0
  3  4  1  0  0  0  0
  3 20  1  0  0  0  0
  4  5  1  0  0  0  0
  4 21  1  0  0  0  0
  4 22  1  0  0  0  0
  5  6  1  0  0  0  0
  5 23  1  0  0  0  0
  5 24  1  0  0  0  0
  6 11  1  0  0  0  0
  6  7  1  0  0  0  0
  7  8  2  0  0  0  0
  7  9  1  0  0  0  0
  9 10  1  0  0  0  0
  9 25  1  0  0  0  0
  9 26  1  0  0  0  0
 10 11  1  0  0  0  0
 10 27  1  0  0  0  0
 11 12  2  0  0  0  0
 13 14  1  0  0  0  0
 13 28  1  0  0  0  0
 14 19  1  0  0  0  0
 14 15  2  0  0  0  0
 15 16  1  0  0  0  0
 15 29  1  0  0  0  0
 16 17  2  0  0  0  0
 16 30  1  0  0  0  0
 17 18  1  0  0  0  0
 17 33  1  0  0  0  0
 18 19  2  0  0  0  0
 18 31  1  0  0  0  0
 19 32  1  0  0  0  0
M  CHG  1  17   1
M  END
> <s_m_source_file>
AV-unprocessed.smi

> <i_m_source_file_index>
2648

> <i_lp_mmshare_version>
43012

> <i_f3d_flags>
0

> <s_epik_input>
W2NIXTFbY0hdbltjSF1bY0hdYzFbTkhdQyg9TylbTkhdW0NIMl1bQ0gyXU4yQyg9TylbQ0gyXVtOSF1DMj1P

> <s_epik_cmdline>
J2VwaWtfcHl0aG9uJywgJy1waCcsICc3LjAnLCAnLXRuJywgJzgnLCAnLW1hJywgJzIwMCcsICctbWV0YWxfYmluZGluZycsICctaW1hZScsICc8aW5maWxlLm1hZT4nLCAnLW9tYWUnLCAnPG91dGZpbGUubWFlPic=

> <r_lp_tautomer_probability>
1

> <r_epik_Ionization_Penalty>
1.05701

> <r_epik_Ionization_Penalty_Charging>
1.05694

> <r_epik_Ionization_Penalty_Neutral>
7.31213e-05

> <r_epik_State_Penalty>
1.11031

> <r_epik_Charging_Adjusted_Penalty>
2.16725

> <i_epik_Tot_Q>
1

> <i_epik_Tot_abs_Q>
1

> <r_epik_Metal_State_Penalty>
1.22924

> <b_epik_Metal_Only>
0

> <s_lp_Force_Field>
OPLS_2005

> <r_lp_Energy>
27.1091

> <b_lp_Chiralities_Consistent>
1

> <s_lp_Variant>
AV-unprocessed.smi:2648-2

> <Gold.Version>
5.8.1

> <Gold.Id.Protein>
6NUR|6NUR_protein|mol2

> <Gold.PLP.Fitness>
45.9384

> <Gold.PLP.PLP>
-33.8616

> <Gold.PLP.part.hbond>
-4.9520

> <Gold.PLP.part.metal>
0.0000

> <Gold.PLP.part.buried>
-2.2076

> <Gold.PLP.part.nonpolar>
-25.3925

> <Gold.PLP.part.repulsive>
0.4067

> <Gold.PLP.ligand.clash>
0.0000

> <Gold.PLP.ligand.torsion>
0.3179

> <Gold.PLP.Chemscore.Hbond>
4.2339

> <Gold.PLP.Chemscore.CHOScore>
0.0000

> <Gold.PLP.Chemscore.Metal>
0.0000

> <Gold.Chemscore.Hbonds>
donor molecule, donor type, donor heavy atom, donor atom, acceptor molecule, acceptor atom, score
      L1  H     3    20       P1  7948  1.00
      L1  H    10    27       P1  8028  1.00
      L1  H    13    28       P1  7948  0.75
      P1  H  7997  8008       L1     8  1.00
      P1  H  8011  8017       L1    12  0.10

> <Gold.PLP.Chemscore.Internal.Correction>
0.0109

> <Gold.Rescore>
     Score         DG    S(hbond)    S(metal)    S(lipo)     H(rot)  DE(clash)    DE(int)     intcor
     15.53     -17.23       3.41        0.00      46.16       1.96       0.02       1.68       ----

> <Gold.Chemscore.Fitness>
15.5270

> <Gold.Chemscore.DG>
-17.2344

> <Gold.Chemscore.ZeroCoef>
-5.4800

> <Gold.Chemscore.Hbond>
3.4081

> <Gold.Chemscore.Metal>
0.0000

> <Gold.Chemscore.Lipo>
46.1642

> <Gold.Chemscore.Internal_Hbond>
0.0000

> <Gold.Chemscore.DEClash>
0.0234

> <Gold.Chemscore.DEInternal>
1.6839

> <Gold.Chemscore.Rot>
1.9648

> <Gold.Chemscore.Internal.Correction>
   9.000000E+99

> <Gold.Chemscore.Hbonds>
donor molecule, donor type, donor heavy atom, donor atom, acceptor molecule, acceptor atom, score
      L1  H     3    20       P1  7948  0.76
      L1  H    10    27       P1  8028  1.00
      L1  H    13    28       P1  7948  0.09
      P1  H  7997  8008       L1     8  1.00
      P1  H  8011  8017       L1    12  0.06

> <Gold.Chemscore.Hbond.Weighted>
-11.3831

> <Gold.Chemscore.Metal.Weighted>
-0.0000

> <Gold.Chemscore.Lipo.Weighted>
-5.4012

> <Gold.Chemscore.Internal_Hbond.Weighted>
0.0000

> <Gold.Chemscore.DEClash.Weighted>
0.0234

> <Gold.Chemscore.DEInternal.Weighted>
1.6839

> <Gold.Chemscore.Rot.Weighted>
5.0299

> <Gold.Chemscore.Internal.Correction.Weighted>
   9.000000E+99

> <Gold.Protein.RotatedTorsions>
[ 6907 6896 6895 6894 ] final -149.66 input  -60.11 | X-H torsion
[ 7974 7965 7964 7962 ] final -144.16 input  175.53 | X-H torsion
[ 8008 7997 7996 7995 ] final  -58.25 input   59.86 | X-H torsion
[ 10167 10162 10161 10158 ] final   56.50 input  -65.29 | X-H torsion
[ 10718 10713 10712 10709 ] final   90.30 input   66.30 | X-H torsion
[ 10763 10752 10751 10750 ] final   91.88 input  -60.55 | X-H torsion
[ 11005 11000 10999 10996 ] final  139.00 input  -57.11 | X-H torsion

> <Gold.Protein.ActiveResidues>
 VAL166  LYS551  ARG553  GLY616  TRP617  ASP618  TYR619  PRO620  LYS621  CYS622 
 ASP623  PHE694  ASN695  SER759  ASP760  ASP761  ALA762  ILE779  LEU786  VAL792 
 PHE793  MET794  SER795  GLU796  ALA797  LYS798  CYS799  TRP800  GLU811  SER814 

> <Gold.Protein.RotatedAtoms>
  151.1873  133.4688  159.2594 H   0  0  0  0  0  0  0  0  0  0  0  0  # atno 6907 bound_to 6896
  151.1198  135.0073  159.8543 H   0  0  0  0  0  0  0  0  0  0  0  0  # atno 6908 bound_to 6896
  152.5455  134.1786  159.8679 H   0  0  0  0  0  0  0  0  0  0  0  0  # atno 6909 bound_to 6896
  144.8317  140.5745  143.5510 H   0  0  0  0  0  0  0  0  0  0  0  0  # atno 7974 bound_to 7965
  154.4301  140.1088  156.5928 H   0  0  0  0  0  0  0  0  0  0  0  0  # atno 8008 bound_to 7997
  155.5994  140.3493  155.4570 H   0  0  0  0  0  0  0  0  0  0  0  0  # atno 8009 bound_to 7997
  156.0185  140.1234  157.0371 H   0  0  0  0  0  0  0  0  0  0  0  0  # atno 8010 bound_to 7997
  140.2081  144.3918  150.6500 H   0  0  0  0  0  0  0  0  0  0  0  0  # atno 10167 bound_to 10162
  157.6958  131.0365  150.3556 H   0  0  0  0  0  0  0  0  0  0  0  0  # atno 10718 bound_to 10713
  153.2131  135.4381  155.0402 H   0  0  0  0  0  0  0  0  0  0  0  0  # atno 10763 bound_to 10752
  154.8210  135.3338  154.7039 H   0  0  0  0  0  0  0  0  0  0  0  0  # atno 10764 bound_to 10752
  153.7476  135.7000  153.5008 H   0  0  0  0  0  0  0  0  0  0  0  0  # atno 10765 bound_to 10752
  140.0223  134.9391  157.0499 H   0  0  0  0  0  0  0  0  0  0  0  0  # atno 11005 bound_to 11000
  145.4881  139.1490  143.3725 LP  0  0  0  0  0  0  0  0  0  0  0  0  # atno 17320 bound_to 7965
  146.2620  140.5018  142.8850 LP  0  0  0  0  0  0  0  0  0  0  0  0  # atno 17321 bound_to 7965
  140.6343  143.2192  151.6428 LP  0  0  0  0  0  0  0  0  0  0  0  0  # atno 17342 bound_to 10162
  139.5191  144.3265  152.0864 LP  0  0  0  0  0  0  0  0  0  0  0  0  # atno 17343 bound_to 10162
  156.3999  130.3914  149.6967 LP  0  0  0  0  0  0  0  0  0  0  0  0  # atno 17370 bound_to 10713
  156.4288  130.7805  151.2824 LP  0  0  0  0  0  0  0  0  0  0  0  0  # atno 17371 bound_to 10713
  140.4366  134.1725  155.7171 LP  0  0  0  0  0  0  0  0  0  0  0  0  # atno 17394 bound_to 11000
  141.1781  133.8471  157.1351 LP  0  0  0  0  0  0  0  0  0  0  0  0  # atno 17395 bound_to 11000

$$$$
