AV-unprocessed.smi:1114|AV-procd|sdf|4801|dock5
  -GOLD-   22720 3343D 1   1.00000     0.00000
 Structure written by MMmdl.
 53 55  0  0  0  0  0  0  0  0  2 V2000
  143.4811  133.3164  151.5030 C   0  0  0  0  0  0  0  0  0  0  0  0
  143.1889  134.6404  152.2126 C   0  0  0  0  0  0  0  0  0  0  0  0
  142.5432  134.6043  153.2602 O   0  0  0  0  0  0  0  0  0  0  0  0
  143.6469  135.7962  151.6740 N   0  0  0  0  0  0  0  0  0  0  0  0
  143.4704  137.1005  152.3236 C   0  0  0  0  0  0  0  0  0  0  0  0
  144.8387  137.5988  152.8229 C   0  0  0  0  0  0  0  0  0  0  0  0
  145.8712  137.6562  151.6765 C   0  0  0  0  0  0  0  0  0  0  0  0
  147.1914  137.9599  152.2217 N   0  0  0  0  0  0  0  0  0  0  0  0
  147.4476  138.8815  153.1614 C   0  0  0  0  0  0  0  0  0  0  0  0
  146.5809  139.5897  153.6733 O   0  0  0  0  0  0  0  0  0  0  0  0
  148.7548  138.9093  153.4742 N   0  0  0  0  0  0  0  0  0  0  0  0
  149.4216  139.7664  154.3907 C   0  0  0  0  0  0  0  0  0  0  0  0
  150.6049  139.2965  154.9966 C   0  0  0  0  0  0  0  0  0  0  0  0
  151.3089  140.1225  155.8969 C   0  0  0  0  0  0  0  0  0  0  0  0
  150.8325  141.4278  156.1779 C   0  0  0  0  0  0  0  0  0  0  0  0
  151.4683  142.3264  157.0635 N   0  0  0  0  0  0  0  0  0  0  0  0
  151.1110  143.7435  156.9726 C   0  0  0  0  0  0  0  0  0  0  0  0
  152.1455  144.6316  157.6852 C   0  0  0  0  0  0  0  0  0  0  0  0
  152.3726  144.1675  159.1303 C   0  0  0  0  0  0  0  0  0  0  0  0
  152.7772  142.6869  159.1430 C   0  0  0  0  0  0  0  0  0  0  0  0
  151.7360  141.8210  158.4138 C   0  0  0  0  0  0  0  0  0  0  0  0
  149.6974  141.8368  155.5611 N   0  3  0  0  0  0  0  0  0  0  0  0
  148.9896  141.0780  154.6969 C   0  0  0  0  0  0  0  0  0  0  0  0
  145.8967  136.3327  150.8769 C   0  0  0  0  0  0  0  0  0  0  0  0
  144.4772  135.9012  150.4678 C   0  0  0  0  0  0  0  0  0  0  0  0
  144.5554  133.1599  151.4010 H   0  0  0  0  0  0  0  0  0  0  0  0
  143.0236  133.2996  150.5135 H   0  0  0  0  0  0  0  0  0  0  0  0
  143.0755  132.4782  152.0706 H   0  0  0  0  0  0  0  0  0  0  0  0
  143.0516  137.8079  151.6067 H   0  0  0  0  0  0  0  0  0  0  0  0
  142.7638  137.0671  153.1539 H   0  0  0  0  0  0  0  0  0  0  0  0
  144.7310  138.5831  153.2800 H   0  0  0  0  0  0  0  0  0  0  0  0
  145.1943  136.9304  153.6089 H   0  0  0  0  0  0  0  0  0  0  0  0
  145.5720  138.4609  151.0019 H   0  0  0  0  0  0  0  0  0  0  0  0
  147.9644  137.4217  151.8583 H   0  0  0  0  0  0  0  0  0  0  0  0
  149.3319  138.2066  153.0356 H   0  0  0  0  0  0  0  0  0  0  0  0
  150.9743  138.3051  154.7777 H   0  0  0  0  0  0  0  0  0  0  0  0
  152.2129  139.7397  156.3456 H   0  0  0  0  0  0  0  0  0  0  0  0
  151.0535  144.0525  155.9285 H   0  0  0  0  0  0  0  0  0  0  0  0
  150.1238  143.8921  157.4123 H   0  0  0  0  0  0  0  0  0  0  0  0
  153.0903  144.5996  157.1405 H   0  0  0  0  0  0  0  0  0  0  0  0
  151.8166  145.6713  157.6724 H   0  0  0  0  0  0  0  0  0  0  0  0
  153.1442  144.7742  159.6051 H   0  0  0  0  0  0  0  0  0  0  0  0
  151.4602  144.3074  159.7115 H   0  0  0  0  0  0  0  0  0  0  0  0
  153.7499  142.5699  158.6629 H   0  0  0  0  0  0  0  0  0  0  0  0
  152.8955  142.3404  160.1699 H   0  0  0  0  0  0  0  0  0  0  0  0
  150.7998  141.8164  158.9734 H   0  0  0  0  0  0  0  0  0  0  0  0
  152.0950  140.7923  158.3957 H   0  0  0  0  0  0  0  0  0  0  0  0
  148.1178  141.5590  154.2797 H   0  0  0  0  0  0  0  0  0  0  0  0
  146.5187  136.4404  149.9877 H   0  0  0  0  0  0  0  0  0  0  0  0
  146.3512  135.5437  151.4780 H   0  0  0  0  0  0  0  0  0  0  0  0
  144.5236  134.9816  149.8863 H   0  0  0  0  0  0  0  0  0  0  0  0
  144.0423  136.6448  149.7984 H   0  0  0  0  0  0  0  0  0  0  0  0
  149.3546  142.7765  155.7614 H   0  0  0  0  0  0  0  0  0  0  0  0
  1  2  1  0  0  0  0
  1 26  1  0  0  0  0
  1 27  1  0  0  0  0
  1 28  1  0  0  0  0
  2  3  2  0  0  0  0
  2  4  1  0  0  0  0
  4 25  1  0  0  0  0
  4  5  1  0  0  0  0
  5  6  1  0  0  0  0
  5 29  1  0  0  0  0
  5 30  1  0  0  0  0
  6  7  1  0  0  0  0
  6 31  1  0  0  0  0
  6 32  1  0  0  0  0
  7  8  1  0  0  0  0
  7 24  1  0  0  0  0
  7 33  1  0  0  0  0
  8  9  1  0  0  0  0
  8 34  1  0  0  0  0
  9 10  2  0  0  0  0
  9 11  1  0  0  0  0
 11 12  1  0  0  0  0
 11 35  1  0  0  0  0
 12 23  1  0  0  0  0
 12 13  2  0  0  0  0
 13 14  1  0  0  0  0
 13 36  1  0  0  0  0
 14 15  2  0  0  0  0
 14 37  1  0  0  0  0
 15 16  1  0  0  0  0
 15 22  1  0  0  0  0
 16 21  1  0  0  0  0
 16 17  1  0  0  0  0
 17 18  1  0  0  0  0
 17 38  1  0  0  0  0
 17 39  1  0  0  0  0
 18 19  1  0  0  0  0
 18 40  1  0  0  0  0
 18 41  1  0  0  0  0
 19 20  1  0  0  0  0
 19 42  1  0  0  0  0
 19 43  1  0  0  0  0
 20 21  1  0  0  0  0
 20 44  1  0  0  0  0
 20 45  1  0  0  0  0
 21 46  1  0  0  0  0
 21 47  1  0  0  0  0
 22 23  2  0  0  0  0
 22 53  1  0  0  0  0
 23 48  1  0  0  0  0
 24 25  1  0  0  0  0
 24 49  1  0  0  0  0
 24 50  1  0  0  0  0
 25 51  1  0  0  0  0
 25 52  1  0  0  0  0
M  CHG  1  22   1
M  END
> <s_m_source_file>
AV-unprocessed.smi

> <i_m_source_file_index>
1114

> <i_lp_mmshare_version>
43012

> <i_f3d_flags>
0

> <s_epik_input>
W0NIM11DKD1PKU4xW0NIMl1bQ0gyXVtDSF0oW0NIMl1bQ0gyXTEpW05IXUMoPU8pW05IXWMyW2NIXVtjSF1jKG5bY0hdMilOM1tDSDJdW0NIMl1bQ0gyXVtDSDJdW0NIMl0z

> <s_epik_cmdline>
J2VwaWtfcHl0aG9uJywgJy1waCcsICc3LjAnLCAnLXRuJywgJzgnLCAnLW1hJywgJzIwMCcsICctbWV0YWxfYmluZGluZycsICctaW1hZScsICc8aW5maWxlLm1hZT4nLCAnLW9tYWUnLCAnPG91dGZpbGUubWFlPic=

> <r_lp_tautomer_probability>
0.999994

> <r_epik_Ionization_Penalty>
1.08953

> <r_epik_Ionization_Penalty_Charging>
1.08951

> <r_epik_Ionization_Penalty_Neutral>
2.1351e-05

> <r_epik_State_Penalty>
1.14567

> <r_epik_Charging_Adjusted_Penalty>
2.23518

> <i_epik_Tot_Q>
1

> <i_epik_Tot_abs_Q>
1

> <r_epik_Metal_State_Penalty>
1.23466

> <b_epik_Metal_Only>
0

> <s_lp_Force_Field>
OPLS_2005

> <r_lp_Energy>
44.385

> <b_lp_Chiralities_Consistent>
1

> <s_lp_Variant>
AV-unprocessed.smi:1114-2

> <Gold.Version>
5.8.1

> <Gold.Id.Protein>
6NUR|6NUR_protein|mol2

> <Gold.PLP.Fitness>
56.3160

> <Gold.PLP.PLP>
-47.3442

> <Gold.PLP.part.hbond>
-3.5492

> <Gold.PLP.part.metal>
0.0000

> <Gold.PLP.part.buried>
5.0766

> <Gold.PLP.part.nonpolar>
-50.3339

> <Gold.PLP.part.repulsive>
1.3010

> <Gold.PLP.ligand.clash>
0.0000

> <Gold.PLP.ligand.torsion>
0.6368

> <Gold.PLP.Chemscore.Hbond>
3.2392

> <Gold.PLP.Chemscore.CHOScore>
0.0000

> <Gold.PLP.Chemscore.Metal>
0.0000

> <Gold.Chemscore.Hbonds>
donor molecule, donor type, donor heavy atom, donor atom, acceptor molecule, acceptor atom, score
      L1  H     8    34       P1  7948  0.98
      L1  H    11    35       P1  7948  0.25
      L1  H    22    53       P1  8028  2.00

> <Gold.PLP.Chemscore.Internal.Correction>
0.5278

> <Gold.Rescore>
     Score         DG    S(hbond)    S(metal)    S(lipo)     H(rot)  DE(clash)    DE(int)     intcor
     18.54     -23.65       2.15        0.00     120.47       1.21       2.54       2.57       ----

> <Gold.Chemscore.Fitness>
18.5372

> <Gold.Chemscore.DG>
-23.6499

> <Gold.Chemscore.ZeroCoef>
-5.4800

> <Gold.Chemscore.Hbond>
2.1478

> <Gold.Chemscore.Metal>
0.0000

> <Gold.Chemscore.Lipo>
120.4736

> <Gold.Chemscore.Internal_Hbond>
0.0000

> <Gold.Chemscore.DEClash>
2.5435

> <Gold.Chemscore.DEInternal>
2.5692

> <Gold.Chemscore.Rot>
1.2105

> <Gold.Chemscore.Internal.Correction>
   9.000000E+99

> <Gold.Chemscore.Hbonds>
donor molecule, donor type, donor heavy atom, donor atom, acceptor molecule, acceptor atom, score
      L1  H     8    34       P1  7948  0.90
      L1  H    11    35       P1  7948  0.25
      L1  H    22    53       P1  8028  0.96

> <Gold.Chemscore.Hbond.Weighted>
-7.1735

> <Gold.Chemscore.Metal.Weighted>
-0.0000

> <Gold.Chemscore.Lipo.Weighted>
-14.0954

> <Gold.Chemscore.Internal_Hbond.Weighted>
0.0000

> <Gold.Chemscore.DEClash.Weighted>
2.5435

> <Gold.Chemscore.DEInternal.Weighted>
2.5692

> <Gold.Chemscore.Rot.Weighted>
3.0990

> <Gold.Chemscore.Internal.Correction.Weighted>
   9.000000E+99

> <Gold.Protein.RotatedTorsions>
[ 6907 6896 6895 6894 ] final -110.87 input  -60.11 | X-H torsion
[ 7974 7965 7964 7962 ] final  178.32 input  175.53 | X-H torsion
[ 8008 7997 7996 7995 ] final   16.88 input   59.86 | X-H torsion
[ 10167 10162 10161 10158 ] final  141.32 input  -65.29 | X-H torsion
[ 10718 10713 10712 10709 ] final   91.19 input   66.30 | X-H torsion
[ 10763 10752 10751 10750 ] final  138.18 input  -60.55 | X-H torsion
[ 11005 11000 10999 10996 ] final  -25.50 input  -57.11 | X-H torsion

> <Gold.Protein.ActiveResidues>
 VAL166  LYS551  ARG553  GLY616  TRP617  ASP618  TYR619  PRO620  LYS621  CYS622 
 ASP623  PHE694  ASN695  SER759  ASP760  ASP761  ALA762  ILE779  LEU786  VAL792 
 PHE793  MET794  SER795  GLU796  ALA797  LYS798  CYS799  TRP800  GLU811  SER814 

> <Gold.Protein.RotatedAtoms>
  150.7653  133.9319  159.3429 H   0  0  0  0  0  0  0  0  0  0  0  0  # atno 6907 bound_to 6896
  151.7218  135.0891  160.0295 H   0  0  0  0  0  0  0  0  0  0  0  0  # atno 6908 bound_to 6896
  152.3645  133.6301  159.6076 H   0  0  0  0  0  0  0  0  0  0  0  0  # atno 6909 bound_to 6896
  144.7158  140.0379  143.6438 H   0  0  0  0  0  0  0  0  0  0  0  0  # atno 7974 bound_to 7965
  154.8834  140.2976  155.5412 H   0  0  0  0  0  0  0  0  0  0  0  0  # atno 8008 bound_to 7997
  156.3022  140.2438  156.3773 H   0  0  0  0  0  0  0  0  0  0  0  0  # atno 8009 bound_to 7997
  154.8694  140.0402  157.1704 H   0  0  0  0  0  0  0  0  0  0  0  0  # atno 8010 bound_to 7997
  139.5024  144.6178  151.6121 H   0  0  0  0  0  0  0  0  0  0  0  0  # atno 10167 bound_to 10162
  157.6960  131.0398  150.3692 H   0  0  0  0  0  0  0  0  0  0  0  0  # atno 10718 bound_to 10713
  153.8853  135.3039  155.3446 H   0  0  0  0  0  0  0  0  0  0  0  0  # atno 10763 bound_to 10752
  154.7742  135.4870  153.9713 H   0  0  0  0  0  0  0  0  0  0  0  0  # atno 10764 bound_to 10752
  153.1328  135.6807  153.9248 H   0  0  0  0  0  0  0  0  0  0  0  0  # atno 10765 bound_to 10752
  140.8943  133.7567  156.0461 H   0  0  0  0  0  0  0  0  0  0  0  0  # atno 11005 bound_to 11000
  146.0048  139.3121  143.0906 LP  0  0  0  0  0  0  0  0  0  0  0  0  # atno 17320 bound_to 7965
  145.8751  140.9396  143.0630 LP  0  0  0  0  0  0  0  0  0  0  0  0  # atno 17321 bound_to 7965
  140.5872  143.9843  150.6302 LP  0  0  0  0  0  0  0  0  0  0  0  0  # atno 17342 bound_to 10162
  140.3012  143.3259  152.0970 LP  0  0  0  0  0  0  0  0  0  0  0  0  # atno 17343 bound_to 10162
  156.4119  130.3936  149.6886 LP  0  0  0  0  0  0  0  0  0  0  0  0  # atno 17370 bound_to 10713
  156.4167  130.7748  151.2764 LP  0  0  0  0  0  0  0  0  0  0  0  0  # atno 17371 bound_to 10713
  140.8308  134.3180  157.5349 LP  0  0  0  0  0  0  0  0  0  0  0  0  # atno 17394 bound_to 11000
  139.8733  134.9362  156.3654 LP  0  0  0  0  0  0  0  0  0  0  0  0  # atno 17395 bound_to 11000

$$$$
