AV-unprocessed.smi:1996|AV-procd|sdf|8085|dock6
  -GOLD-   2272010303D 1   1.00000     0.00000
 Structure written by MMmdl.
 32 33  0  0  0  0  0  0  0  0  2 V2000
  153.2553  139.4791  157.7385 O   0  0  0  0  0  0  0  0  0  0  0  0
  152.5278  139.0282  158.6263 C   0  0  0  0  0  0  0  0  0  0  0  0
  152.6573  139.4724  159.8837 N   0  0  0  0  0  0  0  0  0  0  0  0
  153.6136  140.4801  160.3224 C   0  0  0  0  0  0  0  0  0  0  0  0
  152.8829  141.7051  160.8923 C   0  0  0  0  0  0  0  0  0  0  0  0
  152.4459  142.6852  159.8158 C   0  0  0  0  0  0  0  0  0  0  0  0
  152.6734  144.0091  159.9217 C   0  0  0  0  0  0  0  0  0  0  0  0
  152.2723  145.0310  158.8724 C   0  0  0  0  0  0  0  0  0  0  0  0
  151.8917  144.3781  157.5330 C   0  0  0  0  0  0  0  0  0  0  0  0
  151.0131  143.1400  157.7505 C   0  0  0  0  0  0  0  0  0  0  0  0
  151.7344  142.0848  158.6082 C   0  0  0  0  0  0  0  0  0  0  0  0
  151.5633  138.0920  158.4742 N   0  5  0  0  0  0  0  0  0  0  0  0
  151.2677  137.6262  157.2496 C   0  0  0  0  0  0  0  0  0  0  0  0
  151.1192  136.3161  156.9950 N   0  0  0  0  0  0  0  0  0  0  0  0
  150.8130  136.0488  155.6674 N   0  0  0  0  0  0  0  0  0  0  0  0
  150.7291  137.1709  154.9531 C   0  0  0  0  0  0  0  0  0  0  0  0
  151.0124  138.6553  155.8374 S   0  0  0  0  0  0  0  0  0  0  0  0
  152.0454  139.0802  160.5842 H   0  0  0  0  0  0  0  0  0  0  0  0
  154.2687  140.0480  161.0806 H   0  0  0  0  0  0  0  0  0  0  0  0
  154.2403  140.7689  159.4775 H   0  0  0  0  0  0  0  0  0  0  0  0
  152.0032  141.3897  161.4544 H   0  0  0  0  0  0  0  0  0  0  0  0
  153.5337  142.2168  161.6028 H   0  0  0  0  0  0  0  0  0  0  0  0
  153.1633  144.4013  160.8011 H   0  0  0  0  0  0  0  0  0  0  0  0
  151.4316  145.6038  159.2651 H   0  0  0  0  0  0  0  0  0  0  0  0
  153.0928  145.7330  158.7223 H   0  0  0  0  0  0  0  0  0  0  0  0
  151.3802  145.1012  156.8971 H   0  0  0  0  0  0  0  0  0  0  0  0
  152.7973  144.0843  157.0005 H   0  0  0  0  0  0  0  0  0  0  0  0
  150.0880  143.4398  158.2446 H   0  0  0  0  0  0  0  0  0  0  0  0
  150.7246  142.7060  156.7926 H   0  0  0  0  0  0  0  0  0  0  0  0
  152.4751  141.5635  158.0011 H   0  0  0  0  0  0  0  0  0  0  0  0
  151.0162  141.3355  158.9425 H   0  0  0  0  0  0  0  0  0  0  0  0
  150.4961  137.1250  153.8999 H   0  0  0  0  0  0  0  0  0  0  0  0
  1  2  2  0  0  0  0
  2  3  1  0  0  0  0
  2 12  1  0  0  0  0
  3  4  1  0  0  0  0
  3 18  1  0  0  0  0
  4  5  1  0  0  0  0
  4 19  1  0  0  0  0
  4 20  1  0  0  0  0
  5  6  1  0  0  0  0
  5 21  1  0  0  0  0
  5 22  1  0  0  0  0
  6 11  1  0  0  0  0
  6  7  2  0  0  0  0
  7  8  1  0  0  0  0
  7 23  1  0  0  0  0
  8  9  1  0  0  0  0
  8 24  1  0  0  0  0
  8 25  1  0  0  0  0
  9 10  1  0  0  0  0
  9 26  1  0  0  0  0
  9 27  1  0  0  0  0
 10 11  1  0  0  0  0
 10 28  1  0  0  0  0
 10 29  1  0  0  0  0
 11 30  1  0  0  0  0
 11 31  1  0  0  0  0
 12 13  1  0  0  0  0
 13 17  1  0  0  0  0
 13 14  2  0  0  0  0
 14 15  1  0  0  0  0
 15 16  2  0  0  0  0
 16 17  1  0  0  0  0
 16 32  1  0  0  0  0
M  CHG  1  12  -1
M  END
> <s_m_source_file>
AV-unprocessed.smi

> <i_m_source_file_index>
1996

> <i_lp_mmshare_version>
43012

> <i_f3d_flags>
0

> <s_epik_input>
czFbY0hdbm5jMVtOSF1DKD1PKVtOSF1bQ0gyXVtDSDJdQzI9W0NIXVtDSDJdW0NIMl1bQ0gyXVtDSDJdMg==

> <s_epik_cmdline>
J2VwaWtfcHl0aG9uJywgJy1waCcsICc3LjAnLCAnLXRuJywgJzgnLCAnLW1hJywgJzIwMCcsICctbWV0YWxfYmluZGluZycsICctaW1hZScsICc8aW5maWxlLm1hZT4nLCAnLW9tYWUnLCAnPG91dGZpbGUubWFlPic=

> <r_lp_tautomer_probability>
1

> <r_epik_Ionization_Penalty>
3.56684

> <r_epik_Ionization_Penalty_Charging>
3.52481

> <r_epik_Ionization_Penalty_Neutral>
0.0420339

> <r_epik_State_Penalty>
3.52326

> <r_epik_Charging_Adjusted_Penalty>
7.04807

> <i_epik_Tot_Q>
-1

> <i_epik_Tot_abs_Q>
1

> <r_epik_Metal_State_Penalty>
0.513455

> <b_epik_Metal_Only>
1

> <s_lp_Force_Field>
OPLS_2005

> <r_lp_Energy>
5.58763

> <b_lp_Chiralities_Consistent>
1

> <s_lp_Variant>
AV-unprocessed.smi:1996-2

> <Gold.Version>
5.8.1

> <Gold.Id.Protein>
6NUR|6NUR_protein|mol2

> <Gold.PLP.Fitness>
41.8546

> <Gold.PLP.PLP>
-34.5107

> <Gold.PLP.part.hbond>
-1.5111

> <Gold.PLP.part.metal>
0.0000

> <Gold.PLP.part.buried>
-3.8760

> <Gold.PLP.part.nonpolar>
-30.2846

> <Gold.PLP.part.repulsive>
0.1981

> <Gold.PLP.ligand.clash>
0.0000

> <Gold.PLP.ligand.torsion>
0.6660

> <Gold.PLP.Chemscore.Hbond>
1.8221

> <Gold.PLP.Chemscore.CHOScore>
1.0554

> <Gold.PLP.Chemscore.Metal>
0.0000

> <Gold.Chemscore.Hbonds>
donor molecule, donor type, donor heavy atom, donor atom, acceptor molecule, acceptor atom, score
      P1  H  7997  8009       L1     1  1.00
      L1  C    16    32       P1  7948  0.52
      L1  C    16    32       P1  7949  0.26

> <Gold.PLP.Chemscore.Internal.Correction>
0.0434

> <Gold.Rescore>
     Score         DG    S(hbond)    S(metal)    S(lipo)     H(rot)  DE(clash)    DE(int)     intcor
     17.43     -18.19       1.39        0.00     103.73       1.59       0.13       0.63       ----

> <Gold.Chemscore.Fitness>
17.4251

> <Gold.Chemscore.DG>
-18.1930

> <Gold.Chemscore.ZeroCoef>
-5.4800

> <Gold.Chemscore.Hbond>
1.3913

> <Gold.Chemscore.Metal>
0.0000

> <Gold.Chemscore.Lipo>
103.7262

> <Gold.Chemscore.Internal_Hbond>
0.0000

> <Gold.Chemscore.DEClash>
0.1330

> <Gold.Chemscore.DEInternal>
0.6349

> <Gold.Chemscore.Rot>
1.5898

> <Gold.Chemscore.Internal.Correction>
   9.000000E+99

> <Gold.Chemscore.Hbonds>
donor molecule, donor type, donor heavy atom, donor atom, acceptor molecule, acceptor atom, score
      P1  H  7997  8009       L1     1  0.97

> <Gold.Chemscore.Hbond.Weighted>
-4.6468

> <Gold.Chemscore.Metal.Weighted>
-0.0000

> <Gold.Chemscore.Lipo.Weighted>
-12.1360

> <Gold.Chemscore.Internal_Hbond.Weighted>
0.0000

> <Gold.Chemscore.DEClash.Weighted>
0.1330

> <Gold.Chemscore.DEInternal.Weighted>
0.6349

> <Gold.Chemscore.Rot.Weighted>
4.0698

> <Gold.Chemscore.Internal.Correction.Weighted>
   9.000000E+99

> <Gold.Protein.RotatedTorsions>
[ 6907 6896 6895 6894 ] final   67.34 input  -60.11 | X-H torsion
[ 7974 7965 7964 7962 ] final   75.98 input  175.53 | X-H torsion
[ 8008 7997 7996 7995 ] final  178.40 input   59.86 | X-H torsion
[ 10167 10162 10161 10158 ] final   62.54 input  -65.29 | X-H torsion
[ 10718 10713 10712 10709 ] final -178.76 input   66.30 | X-H torsion
[ 10763 10752 10751 10750 ] final -156.86 input  -60.55 | X-H torsion
[ 11005 11000 10999 10996 ] final  -47.28 input  -57.11 | X-H torsion

> <Gold.Protein.ActiveResidues>
 VAL166  LYS551  ARG553  GLY616  TRP617  ASP618  TYR619  PRO620  LYS621  CYS622 
 ASP623  PHE694  ASN695  SER759  ASP760  ASP761  ALA762  ILE779  LEU786  VAL792 
 PHE793  MET794  SER795  GLU796  ALA797  LYS798  CYS799  TRP800  GLU811  SER814 

> <Gold.Protein.RotatedAtoms>
  152.4545  134.5322  159.9814 H   0  0  0  0  0  0  0  0  0  0  0  0  # atno 6907 bound_to 6896
  151.5387  133.3430  159.2939 H   0  0  0  0  0  0  0  0  0  0  0  0  # atno 6908 bound_to 6896
  150.8484  134.7832  159.7052 H   0  0  0  0  0  0  0  0  0  0  0  0  # atno 6909 bound_to 6896
  145.7087  139.2607  143.1663 H   0  0  0  0  0  0  0  0  0  0  0  0  # atno 7974 bound_to 7965
  156.0551  140.1334  157.0006 H   0  0  0  0  0  0  0  0  0  0  0  0  # atno 8008 bound_to 7997
  154.4453  140.1003  156.6504 H   0  0  0  0  0  0  0  0  0  0  0  0  # atno 8009 bound_to 7997
  155.5464  140.3462  155.4460 H   0  0  0  0  0  0  0  0  0  0  0  0  # atno 8010 bound_to 7997
  140.1428  144.4537  150.6801 H   0  0  0  0  0  0  0  0  0  0  0  0  # atno 10167 bound_to 10162
  156.8491  130.9713  151.3094 H   0  0  0  0  0  0  0  0  0  0  0  0  # atno 10718 bound_to 10713
  154.7681  135.3137  154.8246 H   0  0  0  0  0  0  0  0  0  0  0  0  # atno 10763 bound_to 10752
  153.8989  135.6818  153.4760 H   0  0  0  0  0  0  0  0  0  0  0  0  # atno 10764 bound_to 10752
  153.1290  135.4788  154.9252 H   0  0  0  0  0  0  0  0  0  0  0  0  # atno 10765 bound_to 10752
  141.0631  133.6702  156.3276 H   0  0  0  0  0  0  0  0  0  0  0  0  # atno 11005 bound_to 11000
  146.0732  140.7846  142.9677 LP  0  0  0  0  0  0  0  0  0  0  0  0  # atno 17320 bound_to 7965
  144.6948  140.3375  143.7205 LP  0  0  0  0  0  0  0  0  0  0  0  0  # atno 17321 bound_to 7965
  140.6750  143.2301  151.5530 LP  0  0  0  0  0  0  0  0  0  0  0  0  # atno 17342 bound_to 10162
  139.5463  144.2511  152.1449 LP  0  0  0  0  0  0  0  0  0  0  0  0  # atno 17343 bound_to 10162
  157.6313  130.8732  149.9280 LP  0  0  0  0  0  0  0  0  0  0  0  0  # atno 17370 bound_to 10713
  156.0838  130.3670  150.0527 LP  0  0  0  0  0  0  0  0  0  0  0  0  # atno 17371 bound_to 10713
  140.5828  134.5728  157.5483 LP  0  0  0  0  0  0  0  0  0  0  0  0  # atno 17394 bound_to 11000
  139.9451  134.7717  156.0582 LP  0  0  0  0  0  0  0  0  0  0  0  0  # atno 17395 bound_to 11000

$$$$
