AV-unprocessed.smi:307|AV-procd|sdf|2284|dock1
  -GOLD-   2262022183D 1   1.00000     0.00000
 Structure written by MMmdl.
 38 39  0  0  0  0  0  0  0  0  1 V2000
  146.2669  139.0584  153.9941 O   0  0  0  0  0  0  0  0  0  0  0  0
  147.1306  138.4405  153.3758 C   0  0  0  0  0  0  0  0  0  0  0  0
  148.4577  138.6333  153.5099 N   0  0  0  0  0  0  0  0  0  0  0  0
  149.1463  139.5786  154.3174 C   0  0  0  0  0  0  0  0  0  0  0  0
  148.5309  140.6716  154.9730 C   0  0  0  0  0  0  0  0  0  0  0  0
  149.3303  141.5466  155.7336 C   0  0  0  0  0  0  0  0  0  0  0  0
  150.7171  141.3109  155.8103 C   0  0  0  0  0  0  0  0  0  0  0  0
  151.4920  142.1707  156.5607 O   0  0  0  0  0  0  0  0  0  0  0  0
  150.8472  143.0095  157.5157 C   0  0  0  0  0  0  0  0  0  0  0  0
  151.9025  143.8537  158.2394 C   0  0  0  0  0  0  0  0  0  0  0  0
  151.3217  144.5322  159.2283 F   0  0  0  0  0  0  0  0  0  0  0  0
  152.8461  143.0675  158.7567 F   0  0  0  0  0  0  0  0  0  0  0  0
  152.4573  144.7219  157.3938 F   0  0  0  0  0  0  0  0  0  0  0  0
  151.3157  140.2749  155.1728 N   0  0  0  0  0  0  0  0  0  0  0  0
  150.5437  139.4398  154.4459 C   0  0  0  0  0  0  0  0  0  0  0  0
  146.7992  137.4730  152.5011 N   0  0  0  0  0  0  0  0  0  0  0  0
  145.4634  137.0090  152.1190 C   0  0  0  0  0  0  0  0  0  0  0  0
  144.6404  136.6091  153.3571 C   0  0  0  0  0  0  0  0  0  0  0  0
  143.3067  135.9686  152.9401 C   0  0  0  0  0  0  0  0  0  0  0  0
  143.5461  134.8485  152.0949 O   0  0  0  0  0  0  0  0  0  0  0  0
  144.1997  135.2009  150.8804 C   0  0  0  0  0  0  0  0  0  0  0  0
  145.5846  135.7974  151.1822 C   0  0  0  0  0  0  0  0  0  0  0  0
  149.0474  137.9939  152.9975 H   0  0  0  0  0  0  0  0  0  0  0  0
  147.4726  140.8662  154.9005 H   0  0  0  0  0  0  0  0  0  0  0  0
  148.8864  142.3867  156.2471 H   0  0  0  0  0  0  0  0  0  0  0  0
  150.1305  143.6666  157.0200 H   0  0  0  0  0  0  0  0  0  0  0  0
  150.3000  142.4047  158.2411 H   0  0  0  0  0  0  0  0  0  0  0  0
  151.0616  138.6298  153.9532 H   0  0  0  0  0  0  0  0  0  0  0  0
  147.5689  136.9949  152.0550 H   0  0  0  0  0  0  0  0  0  0  0  0
  144.9392  137.7981  151.5769 H   0  0  0  0  0  0  0  0  0  0  0  0
  145.2049  135.8985  153.9628 H   0  0  0  0  0  0  0  0  0  0  0  0
  144.4513  137.4761  153.9906 H   0  0  0  0  0  0  0  0  0  0  0  0
  142.7608  135.6339  153.8223 H   0  0  0  0  0  0  0  0  0  0  0  0
  142.6710  136.6935  152.4293 H   0  0  0  0  0  0  0  0  0  0  0  0
  144.3030  134.3075  150.2644 H   0  0  0  0  0  0  0  0  0  0  0  0
  143.5868  135.9061  150.3171 H   0  0  0  0  0  0  0  0  0  0  0  0
  146.0774  136.0845  150.2526 H   0  0  0  0  0  0  0  0  0  0  0  0
  146.2098  135.0315  151.6436 H   0  0  0  0  0  0  0  0  0  0  0  0
  1  2  2  0  0  0  0
  2  3  1  0  0  0  0
  2 16  1  0  0  0  0
  3  4  1  0  0  0  0
  3 23  1  0  0  0  0
  4 15  1  0  0  0  0
  4  5  2  0  0  0  0
  5  6  1  0  0  0  0
  5 24  1  0  0  0  0
  6  7  2  0  0  0  0
  6 25  1  0  0  0  0
  7  8  1  0  0  0  0
  7 14  1  0  0  0  0
  8  9  1  0  0  0  0
  9 10  1  0  0  0  0
  9 26  1  0  0  0  0
  9 27  1  0  0  0  0
 10 11  1  0  0  0  0
 10 12  1  0  0  0  0
 10 13  1  0  0  0  0
 14 15  2  0  0  0  0
 15 28  1  0  0  0  0
 16 17  1  0  0  0  0
 16 29  1  0  0  0  0
 17 22  1  0  0  0  0
 17 18  1  0  0  0  0
 17 30  1  0  0  0  0
 18 19  1  0  0  0  0
 18 31  1  0  0  0  0
 18 32  1  0  0  0  0
 19 20  1  0  0  0  0
 19 33  1  0  0  0  0
 19 34  1  0  0  0  0
 20 21  1  0  0  0  0
 21 22  1  0  0  0  0
 21 35  1  0  0  0  0
 21 36  1  0  0  0  0
 22 37  1  0  0  0  0
 22 38  1  0  0  0  0
M  END
> <s_m_source_file>
AV-unprocessed.smi

> <i_m_source_file_index>
307

> <i_lp_mmshare_version>
43012

> <i_f3d_flags>
0

> <s_epik_input>
W0NIMl0xW0NIMl1PW0NIMl1bQ0gyXVtDSF0xW05IXUMoPU8pW05IXWMyW2NIXVtjSF1jKG5bY0hdMilPW0NIMl1DKEYpKEYpRg==

> <s_epik_cmdline>
J2VwaWtfcHl0aG9uJywgJy1waCcsICc3LjAnLCAnLXRuJywgJzgnLCAnLW1hJywgJzIwMCcsICctbWV0YWxfYmluZGluZycsICctaW1hZScsICc8aW5maWxlLm1hZT4nLCAnLW9tYWUnLCAnPG91dGZpbGUubWFlPic=

> <r_lp_tautomer_probability>
1

> <r_epik_Ionization_Penalty>
3.97058e-05

> <r_epik_Ionization_Penalty_Charging>
0

> <r_epik_Ionization_Penalty_Neutral>
3.97058e-05

> <r_epik_State_Penalty>
-0

> <r_epik_Charging_Adjusted_Penalty>
0

> <i_epik_Tot_Q>
0

> <i_epik_Tot_abs_Q>
0

> <r_epik_Metal_State_Penalty>
-0

> <b_epik_Metal_Only>
0

> <s_lp_Force_Field>
OPLS_2005

> <r_lp_Energy>
20.0098

> <b_lp_Chiralities_Consistent>
1

> <s_lp_Variant>
AV-unprocessed.smi:307-1

> <Gold.Version>
5.8.1

> <Gold.Id.Protein>
6NUR|6NUR_protein|mol2

> <Gold.PLP.Fitness>
47.3995

> <Gold.PLP.PLP>
-42.4979

> <Gold.PLP.part.hbond>
-3.9935

> <Gold.PLP.part.metal>
0.0000

> <Gold.PLP.part.buried>
-1.8022

> <Gold.PLP.part.nonpolar>
-38.2349

> <Gold.PLP.part.repulsive>
0.5488

> <Gold.PLP.ligand.clash>
0.0000

> <Gold.PLP.ligand.torsion>
0.3245

> <Gold.PLP.Chemscore.Hbond>
1.8268

> <Gold.PLP.Chemscore.CHOScore>
0.0000

> <Gold.PLP.Chemscore.Metal>
0.0000

> <Gold.Chemscore.Hbonds>
donor molecule, donor type, donor heavy atom, donor atom, acceptor molecule, acceptor atom, score
      L1  H     3    23       P1  7948  0.77
      L1  H    16    29       P1  7948  1.00

> <Gold.PLP.Chemscore.Internal.Correction>
0.0702

> <Gold.Rescore>
     Score         DG    S(hbond)    S(metal)    S(lipo)     H(rot)  DE(clash)    DE(int)     intcor
     13.36     -15.86       1.86        0.00      73.08       1.71       0.82       1.68       ----

> <Gold.Chemscore.Fitness>
13.3578

> <Gold.Chemscore.DG>
-15.8601

> <Gold.Chemscore.ZeroCoef>
-5.4800

> <Gold.Chemscore.Hbond>
1.8610

> <Gold.Chemscore.Metal>
0.0000

> <Gold.Chemscore.Lipo>
73.0763

> <Gold.Chemscore.Internal_Hbond>
0.0000

> <Gold.Chemscore.DEClash>
0.8224

> <Gold.Chemscore.DEInternal>
1.6799

> <Gold.Chemscore.Rot>
1.7132

> <Gold.Chemscore.Internal.Correction>
   9.000000E+99

> <Gold.Chemscore.Hbonds>
donor molecule, donor type, donor heavy atom, donor atom, acceptor molecule, acceptor atom, score
      L1  H     3    23       P1  7948  0.74
      L1  H    16    29       P1  7948  0.97

> <Gold.Chemscore.Hbond.Weighted>
-6.2159

> <Gold.Chemscore.Metal.Weighted>
-0.0000

> <Gold.Chemscore.Lipo.Weighted>
-8.5499

> <Gold.Chemscore.Internal_Hbond.Weighted>
0.0000

> <Gold.Chemscore.DEClash.Weighted>
0.8224

> <Gold.Chemscore.DEInternal.Weighted>
1.6799

> <Gold.Chemscore.Rot.Weighted>
4.3858

> <Gold.Chemscore.Internal.Correction.Weighted>
   9.000000E+99

> <Gold.Protein.RotatedTorsions>
[ 6907 6896 6895 6894 ] final  -22.18 input  -60.11 | X-H torsion
[ 7974 7965 7964 7962 ] final   72.67 input  175.53 | X-H torsion
[ 8008 7997 7996 7995 ] final   60.63 input   59.86 | X-H torsion
[ 10167 10162 10161 10158 ] final    2.64 input  -65.29 | X-H torsion
[ 10718 10713 10712 10709 ] final  -84.24 input   66.30 | X-H torsion
[ 10763 10752 10751 10750 ] final   38.96 input  -60.55 | X-H torsion
[ 11005 11000 10999 10996 ] final  -52.14 input  -57.11 | X-H torsion

> <Gold.Protein.ActiveResidues>
 VAL166  LYS551  ARG553  GLY616  TRP617  ASP618  TYR619  PRO620  LYS621  CYS622 
 ASP623  PHE694  ASN695  SER759  ASP760  ASP761  ALA762  ILE779  LEU786  VAL792 
 PHE793  MET794  SER795  GLU796  ALA797  LYS798  CYS799  TRP800  GLU811  SER814 

> <Gold.Protein.RotatedAtoms>
  151.2224  135.0523  159.8954 H   0  0  0  0  0  0  0  0  0  0  0  0  # atno 6907 bound_to 6896
  152.5414  134.0626  159.8169 H   0  0  0  0  0  0  0  0  0  0  0  0  # atno 6908 bound_to 6896
  151.0794  133.5354  159.2653 H   0  0  0  0  0  0  0  0  0  0  0  0  # atno 6909 bound_to 6896
  145.7505  139.2758  143.1434 H   0  0  0  0  0  0  0  0  0  0  0  0  # atno 7974 bound_to 7965
  155.5854  140.3492  155.4551 H   0  0  0  0  0  0  0  0  0  0  0  0  # atno 8008 bound_to 7997
  156.0342  140.1281  157.0251 H   0  0  0  0  0  0  0  0  0  0  0  0  # atno 8009 bound_to 7997
  154.4364  140.1037  156.6129 H   0  0  0  0  0  0  0  0  0  0  0  0  # atno 8010 bound_to 7997
  140.6625  143.7266  150.7765 H   0  0  0  0  0  0  0  0  0  0  0  0  # atno 10167 bound_to 10162
  156.0008  130.4691  150.4379 H   0  0  0  0  0  0  0  0  0  0  0  0  # atno 10718 bound_to 10713
  152.9983  135.6234  154.2388 H   0  0  0  0  0  0  0  0  0  0  0  0  # atno 10763 bound_to 10752
  154.2129  135.2799  155.2954 H   0  0  0  0  0  0  0  0  0  0  0  0  # atno 10764 bound_to 10752
  154.5592  135.5710  153.7050 H   0  0  0  0  0  0  0  0  0  0  0  0  # atno 10765 bound_to 10752
  141.0908  133.6633  156.3980 H   0  0  0  0  0  0  0  0  0  0  0  0  # atno 11005 bound_to 11000
  146.0361  140.8211  142.9852 LP  0  0  0  0  0  0  0  0  0  0  0  0  # atno 17320 bound_to 7965
  144.6851  140.2841  143.7288 LP  0  0  0  0  0  0  0  0  0  0  0  0  # atno 17321 bound_to 7965
  140.0937  143.4853  152.2464 LP  0  0  0  0  0  0  0  0  0  0  0  0  # atno 17342 bound_to 10162
  139.5863  144.7532  151.3511 LP  0  0  0  0  0  0  0  0  0  0  0  0  # atno 17343 bound_to 10162
  157.2422  131.0528  151.2429 LP  0  0  0  0  0  0  0  0  0  0  0  0  # atno 17370 bound_to 10713
  157.3609  130.7131  149.6501 LP  0  0  0  0  0  0  0  0  0  0  0  0  # atno 17371 bound_to 10713
  140.5256  134.6262  157.5333 LP  0  0  0  0  0  0  0  0  0  0  0  0  # atno 17394 bound_to 11000
  139.9734  134.7255  155.9997 LP  0  0  0  0  0  0  0  0  0  0  0  0  # atno 17395 bound_to 11000

$$$$
