AV-unprocessed.smi:2276|AV-procd|sdf|9175|dock1
  -GOLD-   2272012393D 1   1.00000     0.00000
 Structure written by MMmdl.
 53 54  0  0  0  0  0  0  0  0  2 V2000
  151.9753  145.7222  160.4111 C   0  0  0  0  0  0  0  0  0  0  0  0
  152.0142  144.3762  159.7181 C   0  0  0  0  0  0  0  0  0  0  0  0
  152.8794  143.3585  160.1629 C   0  0  0  0  0  0  0  0  0  0  0  0
  152.8691  142.1292  159.4751 C   0  0  0  0  0  0  0  0  0  0  0  0
  153.7706  140.9895  159.9010 C   0  0  0  0  0  0  0  0  0  0  0  0
  152.0720  141.8863  158.4126 N   0  0  0  0  0  0  0  0  0  0  0  0
  151.2343  142.8590  157.9756 C   0  0  0  0  0  0  0  0  0  0  0  0
  150.3568  142.7045  156.8698 N   0  0  0  0  0  0  0  0  0  0  0  0
  150.1981  141.6282  156.0794 C   0  0  0  0  0  0  0  0  0  0  0  0
  150.8063  140.5637  156.1929 O   0  0  0  0  0  0  0  0  0  0  0  0
  149.2849  141.8568  155.1243 N   0  0  0  0  0  0  0  0  0  0  0  0
  148.8805  140.8965  154.1009 C   0  0  0  0  0  0  0  0  0  0  0  0
  147.4113  141.0698  153.6526 C   0  0  1  0  0  0  0  0  0  0  0  0
  147.1049  140.1221  152.4805 C   0  0  0  0  0  0  0  0  0  0  0  0
  146.4190  140.8555  154.8199 C   0  0  0  0  0  0  0  0  0  0  0  0
  145.2483  141.7667  154.7559 N   0  3  0  0  0  0  0  0  0  0  0  0
  145.6109  143.1800  154.4807 C   0  0  0  0  0  0  0  0  0  0  0  0
  144.3424  144.0487  154.3474 C   0  0  0  0  0  0  0  0  0  0  0  0
  143.4908  143.9717  155.5357 N   0  0  0  0  0  0  0  0  0  0  0  0
  144.0533  144.6643  156.6897 C   0  0  0  0  0  0  0  0  0  0  0  0
  143.1470  142.5763  155.8141 C   0  0  0  0  0  0  0  0  0  0  0  0
  144.3993  141.6877  155.9687 C   0  0  0  0  0  0  0  0  0  0  0  0
  151.1826  144.1209  158.6090 C   0  0  0  0  0  0  0  0  0  0  0  0
  152.5171  145.6962  161.3571 H   0  0  0  0  0  0  0  0  0  0  0  0
  150.9452  146.0134  160.6176 H   0  0  0  0  0  0  0  0  0  0  0  0
  152.4285  146.4849  159.7776 H   0  0  0  0  0  0  0  0  0  0  0  0
  153.5325  143.5154  161.0090 H   0  0  0  0  0  0  0  0  0  0  0  0
  154.4007  141.2766  160.7431 H   0  0  0  0  0  0  0  0  0  0  0  0
  154.4192  140.6901  159.0773 H   0  0  0  0  0  0  0  0  0  0  0  0
  153.1743  140.1271  160.2004 H   0  0  0  0  0  0  0  0  0  0  0  0
  149.7855  143.5084  156.6560 H   0  0  0  0  0  0  0  0  0  0  0  0
  148.8278  142.7568  155.1095 H   0  0  0  0  0  0  0  0  0  0  0  0
  149.5514  140.9869  153.2448 H   0  0  0  0  0  0  0  0  0  0  0  0
  149.0315  139.8939  154.5027 H   0  0  0  0  0  0  0  0  0  0  0  0
  147.3062  142.0870  153.2772 H   0  0  0  0  0  0  0  0  0  0  0  0
  147.1811  139.0774  152.7837 H   0  0  0  0  0  0  0  0  0  0  0  0
  147.8020  140.2796  151.6569 H   0  0  0  0  0  0  0  0  0  0  0  0
  146.1007  140.2824  152.0878 H   0  0  0  0  0  0  0  0  0  0  0  0
  146.0799  139.8189  154.7916 H   0  0  0  0  0  0  0  0  0  0  0  0
  146.9056  140.9851  155.7872 H   0  0  0  0  0  0  0  0  0  0  0  0
  146.2640  143.5603  155.2670 H   0  0  0  0  0  0  0  0  0  0  0  0
  146.1772  143.2477  153.5527 H   0  0  0  0  0  0  0  0  0  0  0  0
  144.6111  145.0882  154.1559 H   0  0  0  0  0  0  0  0  0  0  0  0
  143.7637  143.7163  153.4844 H   0  0  0  0  0  0  0  0  0  0  0  0
  143.3517  144.6366  157.5240 H   0  0  0  0  0  0  0  0  0  0  0  0
  144.2366  145.7118  156.4483 H   0  0  0  0  0  0  0  0  0  0  0  0
  144.9929  144.2270  157.0251 H   0  0  0  0  0  0  0  0  0  0  0  0
  142.5288  142.5231  156.7112 H   0  0  0  0  0  0  0  0  0  0  0  0
  142.5332  142.2003  154.9942 H   0  0  0  0  0  0  0  0  0  0  0  0
  144.0818  140.6556  156.1211 H   0  0  0  0  0  0  0  0  0  0  0  0
  144.9776  141.9683  156.8499 H   0  0  0  0  0  0  0  0  0  0  0  0
  150.5113  144.8885  158.2513 H   0  0  0  0  0  0  0  0  0  0  0  0
  144.6738  141.4504  153.9876 H   0  0  0  0  0  0  0  0  0  0  0  0
  1  2  1  0  0  0  0
  1 24  1  0  0  0  0
  1 25  1  0  0  0  0
  1 26  1  0  0  0  0
  2 23  1  0  0  0  0
  2  3  2  0  0  0  0
  3  4  1  0  0  0  0
  3 27  1  0  0  0  0
  4  5  1  0  0  0  0
  4  6  2  0  0  0  0
  5 28  1  0  0  0  0
  5 29  1  0  0  0  0
  5 30  1  0  0  0  0
  6  7  1  0  0  0  0
  7  8  1  0  0  0  0
  7 23  2  0  0  0  0
  8  9  1  0  0  0  0
  8 31  1  0  0  0  0
  9 10  2  0  0  0  0
  9 11  1  0  0  0  0
 11 12  1  0  0  0  0
 11 32  1  0  0  0  0
 12 13  1  0  0  0  0
 12 33  1  0  0  0  0
 12 34  1  0  0  0  0
 13 14  1  0  0  0  0
 13 15  1  0  0  0  0
 13 35  1  0  0  0  0
 14 36  1  0  0  0  0
 14 37  1  0  0  0  0
 14 38  1  0  0  0  0
 15 16  1  0  0  0  0
 15 39  1  0  0  0  0
 15 40  1  0  0  0  0
 16 22  1  0  0  0  0
 16 17  1  0  0  0  0
 16 53  1  0  0  0  0
 17 18  1  0  0  0  0
 17 41  1  0  0  0  0
 17 42  1  0  0  0  0
 18 19  1  0  0  0  0
 18 43  1  0  0  0  0
 18 44  1  0  0  0  0
 19 20  1  0  0  0  0
 19 21  1  0  0  0  0
 20 45  1  0  0  0  0
 20 46  1  0  0  0  0
 20 47  1  0  0  0  0
 21 22  1  0  0  0  0
 21 48  1  0  0  0  0
 21 49  1  0  0  0  0
 22 50  1  0  0  0  0
 22 51  1  0  0  0  0
 23 52  1  0  0  0  0
M  CHG  1  16   1
M  END
> <s_m_source_file>
AV-unprocessed.smi

> <i_m_source_file_index>
2276

> <i_lp_mmshare_version>
43012

> <i_f3d_flags>
0

> <s_epik_input>
W0NIM11jMVtjSF1jKFtDSDNdKW5jKFtjSF0xKVtOSF1DKD1PKVtOSF1bQ0gyXVtDQEhdKFtDSDNdKVtDSDJdTjJbQ0gyXVtDSDJdTihbQ0gzXSlbQ0gyXVtDSDJdMg==

> <s_epik_cmdline>
J2VwaWtfcHl0aG9uJywgJy1waCcsICc3LjAnLCAnLXRuJywgJzgnLCAnLW1hJywgJzIwMCcsICctbWV0YWxfYmluZGluZycsICctaW1hZScsICc8aW5maWxlLm1hZT4nLCAnLW9tYWUnLCAnPG91dGZpbGUubWFlPic=

> <r_epik_Ionization_Penalty>
0.0485334

> <r_epik_Ionization_Penalty_Charging>
0.0462531

> <r_epik_Ionization_Penalty_Neutral>
0.00228028

> <r_epik_State_Penalty>
0.692588

> <r_epik_Charging_Adjusted_Penalty>
0.738841

> <i_epik_Tot_Q>
1

> <i_epik_Tot_abs_Q>
1

> <r_epik_Metal_State_Penalty>
0.692605

> <b_epik_Metal_Only>
0

> <s_lp_Force_Field>
OPLS_2005

> <r_lp_Energy>
21.6891

> <b_lp_Chiralities_Consistent>
1

> <s_lp_Variant>
AV-unprocessed.smi:2276-4

> <Gold.Version>
5.8.1

> <Gold.Id.Protein>
6NUR|6NUR_protein|mol2

> <Gold.PLP.Fitness>
57.5281

> <Gold.PLP.PLP>
-47.0231

> <Gold.PLP.part.hbond>
-2.9992

> <Gold.PLP.part.metal>
0.0000

> <Gold.PLP.part.buried>
-4.0557

> <Gold.PLP.part.nonpolar>
-41.9971

> <Gold.PLP.part.repulsive>
0.3393

> <Gold.PLP.ligand.clash>
0.0000

> <Gold.PLP.ligand.torsion>
0.7278

> <Gold.PLP.Chemscore.Hbond>
3.9440

> <Gold.PLP.Chemscore.CHOScore>
0.0000

> <Gold.PLP.Chemscore.Metal>
0.0000

> <Gold.Chemscore.Hbonds>
donor molecule, donor type, donor heavy atom, donor atom, acceptor molecule, acceptor atom, score
      L1  H     8    31       P1  8028  1.00
      L1  H    11    32       P1  8028  0.96
      L1  H    16    53       P1 10175  2.00

> <Gold.PLP.Chemscore.Internal.Correction>
0.1285

> <Gold.Rescore>
     Score         DG    S(hbond)    S(metal)    S(lipo)     H(rot)  DE(clash)    DE(int)     intcor
     19.33     -22.58       2.33        0.00     115.26       1.63       1.23       2.01       ----

> <Gold.Chemscore.Fitness>
19.3327

> <Gold.Chemscore.DG>
-22.5757

> <Gold.Chemscore.ZeroCoef>
-5.4800

> <Gold.Chemscore.Hbond>
2.3289

> <Gold.Chemscore.Metal>
0.0000

> <Gold.Chemscore.Lipo>
115.2590

> <Gold.Chemscore.Internal_Hbond>
0.0000

> <Gold.Chemscore.DEClash>
1.2285

> <Gold.Chemscore.DEInternal>
2.0144

> <Gold.Chemscore.Rot>
1.6282

> <Gold.Chemscore.Internal.Correction>
   9.000000E+99

> <Gold.Chemscore.Hbonds>
donor molecule, donor type, donor heavy atom, donor atom, acceptor molecule, acceptor atom, score
      L1  H     8    31       P1  8028  0.99
      L1  H    11    32       P1  8028  0.86
      L1  H    16    53       P1 10175  0.28

> <Gold.Chemscore.Hbond.Weighted>
-7.7785

> <Gold.Chemscore.Metal.Weighted>
-0.0000

> <Gold.Chemscore.Lipo.Weighted>
-13.4853

> <Gold.Chemscore.Internal_Hbond.Weighted>
0.0000

> <Gold.Chemscore.DEClash.Weighted>
1.2285

> <Gold.Chemscore.DEInternal.Weighted>
2.0144

> <Gold.Chemscore.Rot.Weighted>
4.1682

> <Gold.Chemscore.Internal.Correction.Weighted>
   9.000000E+99

> <Gold.Protein.RotatedTorsions>
[ 6907 6896 6895 6894 ] final  -96.08 input  -60.11 | X-H torsion
[ 7974 7965 7964 7962 ] final  100.45 input  175.53 | X-H torsion
[ 8008 7997 7996 7995 ] final   44.47 input   59.86 | X-H torsion
[ 10167 10162 10161 10158 ] final -154.28 input  -65.29 | X-H torsion
[ 10718 10713 10712 10709 ] final -154.55 input   66.30 | X-H torsion
[ 10763 10752 10751 10750 ] final   68.01 input  -60.55 | X-H torsion
[ 11005 11000 10999 10996 ] final  165.51 input  -57.11 | X-H torsion

> <Gold.Protein.ActiveResidues>
 VAL166  LYS551  ARG553  GLY616  TRP617  ASP618  TYR619  PRO620  LYS621  CYS622 
 ASP623  PHE694  ASN695  SER759  ASP760  ASP761  ALA762  ILE779  LEU786  VAL792 
 PHE793  MET794  SER795  GLU796  ALA797  LYS798  CYS799  TRP800  GLU811  SER814 

> <Gold.Protein.RotatedAtoms>
  150.6979  134.1558  159.4157 H   0  0  0  0  0  0  0  0  0  0  0  0  # atno 6907 bound_to 6896
  151.9540  135.0153  160.0553 H   0  0  0  0  0  0  0  0  0  0  0  0  # atno 6908 bound_to 6896
  152.1986  133.4789  159.5083 H   0  0  0  0  0  0  0  0  0  0  0  0  # atno 6909 bound_to 6896
  145.3854  139.2372  143.3381 H   0  0  0  0  0  0  0  0  0  0  0  0  # atno 7974 bound_to 7965
  155.3198  140.3396  155.4241 H   0  0  0  0  0  0  0  0  0  0  0  0  # atno 8008 bound_to 7997
  156.1915  140.1699  156.8121 H   0  0  0  0  0  0  0  0  0  0  0  0  # atno 8009 bound_to 7997
  154.5447  140.0717  156.8553 H   0  0  0  0  0  0  0  0  0  0  0  0  # atno 8010 bound_to 7997
  139.7026  143.9238  152.2435 H   0  0  0  0  0  0  0  0  0  0  0  0  # atno 10167 bound_to 10162
  156.5008  130.8390  151.2608 H   0  0  0  0  0  0  0  0  0  0  0  0  # atno 10718 bound_to 10713
  153.0214  135.5263  154.7068 H   0  0  0  0  0  0  0  0  0  0  0  0  # atno 10763 bound_to 10752
  154.6162  135.2884  155.0380 H   0  0  0  0  0  0  0  0  0  0  0  0  # atno 10764 bound_to 10752
  154.1383  135.6582  153.4989 H   0  0  0  0  0  0  0  0  0  0  0  0  # atno 10765 bound_to 10752
  140.2569  134.7933  157.3554 H   0  0  0  0  0  0  0  0  0  0  0  0  # atno 11005 bound_to 11000
  146.2823  140.4528  142.8771 LP  0  0  0  0  0  0  0  0  0  0  0  0  # atno 17320 bound_to 7965
  144.8478  140.6955  143.6188 LP  0  0  0  0  0  0  0  0  0  0  0  0  # atno 17321 bound_to 7965
  139.9085  144.6870  150.8588 LP  0  0  0  0  0  0  0  0  0  0  0  0  # atno 17342 bound_to 10162
  140.7713  143.3461  151.2108 LP  0  0  0  0  0  0  0  0  0  0  0  0  # atno 17343 bound_to 10162
  157.7463  130.9982  150.2844 LP  0  0  0  0  0  0  0  0  0  0  0  0  # atno 17370 bound_to 10713
  156.3334  130.3804  149.7471 LP  0  0  0  0  0  0  0  0  0  0  0  0  # atno 17371 bound_to 10713
  140.1503  134.4858  155.7966 LP  0  0  0  0  0  0  0  0  0  0  0  0  # atno 17394 bound_to 11000
  141.2195  133.6860  156.7366 LP  0  0  0  0  0  0  0  0  0  0  0  0  # atno 17395 bound_to 11000

$$$$
