AV-unprocessed.smi:109|AV-procd|sdf|1037|dock6
  -GOLD-   2262018 53D 1   1.00000     0.00000
 Structure written by MMmdl.
 58 61  0  0  0  0  0  0  0  0  1 V2000
  141.7783  136.4842  157.2323 O   0  0  0  0  0  0  0  0  0  0  0  0
  142.1872  136.9526  158.4993 C   0  0  0  0  0  0  0  0  0  0  0  0
  143.4614  137.8025  158.3561 C   0  0  0  0  0  0  0  0  0  0  0  0
  144.7669  136.9759  158.2530 C   0  0  2  0  0  0  0  0  0  0  0  0
  144.6308  135.9809  157.1867 N   0  0  0  0  0  0  0  0  0  0  0  0
  144.7950  136.2953  155.8820 C   0  0  0  0  0  0  0  0  0  0  0  0
  144.6414  137.5679  155.4313 N   0  0  0  0  0  0  0  0  0  0  0  0
  144.8093  137.8452  154.1348 C   0  0  0  0  0  0  0  0  0  0  0  0
  145.1270  137.0160  153.1380 N   0  0  0  0  0  0  0  0  0  0  0  0
  145.2800  135.7367  153.5871 C   0  0  0  0  0  0  0  0  0  0  0  0
  145.1335  135.2980  154.9316 C   0  0  0  0  0  0  0  0  0  0  0  0
  145.3715  133.9318  155.0078 N   0  0  0  0  0  0  0  0  0  0  0  0
  145.6454  133.5890  153.7770 C   0  0  0  0  0  0  0  0  0  0  0  0
  145.6002  134.6146  152.8562 N   0  0  0  0  0  0  0  0  0  0  0  0
  145.8645  134.5848  151.3831 C   0  0  1  0  0  0  0  0  0  0  0  0
  146.1564  133.2683  151.0010 O   0  0  0  0  0  0  0  0  0  0  0  0
  145.2242  132.7814  150.0339 C   0  0  1  0  0  0  0  0  0  0  0  0
  144.1466  131.9337  150.7453 C   0  0  0  0  0  0  0  0  0  0  0  0
  143.1495  131.5536  149.8215 O   0  0  0  0  0  0  0  0  0  0  0  0
  144.7204  134.0775  149.3849 C   0  0  1  0  0  0  0  0  0  0  0  0
  143.5112  133.9643  148.6570 O   0  0  0  0  0  0  0  0  0  0  0  0
  144.6600  135.0594  150.5437 C   0  0  1  0  0  0  0  0  0  0  0  0
  143.4201  135.0109  151.2334 O   0  0  0  0  0  0  0  0  0  0  0  0
  145.1575  136.2620  159.5795 C   0  0  0  0  0  0  0  0  0  0  0  0
  145.0684  137.1896  160.8178 C   0  0  0  0  0  0  0  0  0  0  0  0
  145.5030  136.4870  162.1148 C   0  0  0  0  0  0  0  0  0  0  0  0
  146.9177  135.9088  161.9940 C   0  0  0  0  0  0  0  0  0  0  0  0
  147.0102  134.9609  160.7930 C   0  0  0  0  0  0  0  0  0  0  0  0
  146.5877  135.6675  159.4958 C   0  0  0  0  0  0  0  0  0  0  0  0
  146.7517  135.2055  151.2501 H   0  0  0  0  0  0  0  0  0  0  0  0
  145.7366  132.1720  149.2880 H   0  0  0  0  0  0  0  0  0  0  0  0
  145.4867  134.4231  148.6889 H   0  0  0  0  0  0  0  0  0  0  0  0
  144.8263  136.0849  150.2122 H   0  0  0  0  0  0  0  0  0  0  0  0
  141.2014  135.7459  157.3567 H   0  0  0  0  0  0  0  0  0  0  0  0
  141.3715  137.5303  158.9340 H   0  0  0  0  0  0  0  0  0  0  0  0
  142.3676  136.0973  159.1509 H   0  0  0  0  0  0  0  0  0  0  0  0
  143.3337  138.4076  157.4605 H   0  0  0  0  0  0  0  0  0  0  0  0
  143.5344  138.5007  159.1913 H   0  0  0  0  0  0  0  0  0  0  0  0
  145.5782  137.6678  158.0282 H   0  0  0  0  0  0  0  0  0  0  0  0
  144.4992  135.0296  157.4996 H   0  0  0  0  0  0  0  0  0  0  0  0
  144.6691  138.8794  153.8565 H   0  0  0  0  0  0  0  0  0  0  0  0
  145.8905  132.5709  153.5121 H   0  0  0  0  0  0  0  0  0  0  0  0
  144.5645  131.0503  151.2262 H   0  0  0  0  0  0  0  0  0  0  0  0
  143.6499  132.5142  151.5223 H   0  0  0  0  0  0  0  0  0  0  0  0
  142.3454  131.4000  150.2939 H   0  0  0  0  0  0  0  0  0  0  0  0
  142.7973  134.2262  149.2183 H   0  0  0  0  0  0  0  0  0  0  0  0
  142.7669  134.6655  150.6441 H   0  0  0  0  0  0  0  0  0  0  0  0
  144.4611  135.4361  159.7348 H   0  0  0  0  0  0  0  0  0  0  0  0
  145.6851  138.0752  160.6588 H   0  0  0  0  0  0  0  0  0  0  0  0
  144.0496  137.5430  160.9665 H   0  0  0  0  0  0  0  0  0  0  0  0
  145.4600  137.1885  162.9484 H   0  0  0  0  0  0  0  0  0  0  0  0
  144.8003  135.6864  162.3492 H   0  0  0  0  0  0  0  0  0  0  0  0
  147.6389  136.7191  161.8802 H   0  0  0  0  0  0  0  0  0  0  0  0
  147.1851  135.3799  162.9093 H   0  0  0  0  0  0  0  0  0  0  0  0
  148.0287  134.5843  160.6951 H   0  0  0  0  0  0  0  0  0  0  0  0
  146.3731  134.0918  160.9606 H   0  0  0  0  0  0  0  0  0  0  0  0
  146.6612  134.9483  158.6799 H   0  0  0  0  0  0  0  0  0  0  0  0
  147.3005  136.4609  159.2666 H   0  0  0  0  0  0  0  0  0  0  0  0
  1  2  1  0  0  0  0
  1 34  1  0  0  0  0
  2  3  1  0  0  0  0
  2 35  1  0  0  0  0
  2 36  1  0  0  0  0
  3  4  1  0  0  0  0
  3 37  1  0  0  0  0
  3 38  1  0  0  0  0
  4  5  1  0  0  0  0
  4 24  1  0  0  0  0
  4 39  1  0  0  0  0
  5  6  1  0  0  0  0
  5 40  1  0  0  0  0
  6 11  1  0  0  0  0
  6  7  2  0  0  0  0
  7  8  1  0  0  0  0
  8  9  2  0  0  0  0
  8 41  1  0  0  0  0
  9 10  1  0  0  0  0
 10 14  1  0  0  0  0
 10 11  2  0  0  0  0
 11 12  1  0  0  0  0
 12 13  2  0  0  0  0
 13 14  1  0  0  0  0
 13 42  1  0  0  0  0
 14 15  1  0  0  0  0
 15 30  1  0  0  0  0
 15 22  1  0  0  0  0
 15 16  1  0  0  0  0
 16 17  1  0  0  0  0
 17 31  1  0  0  0  0
 17 18  1  0  0  0  0
 17 20  1  0  0  0  0
 18 19  1  0  0  0  0
 18 43  1  0  0  0  0
 18 44  1  0  0  0  0
 19 45  1  0  0  0  0
 20 32  1  0  0  0  0
 20 21  1  0  0  0  0
 20 22  1  0  0  0  0
 21 46  1  0  0  0  0
 22 33  1  0  0  0  0
 22 23  1  0  0  0  0
 23 47  1  0  0  0  0
 24 29  1  0  0  0  0
 24 25  1  0  0  0  0
 24 48  1  0  0  0  0
 25 26  1  0  0  0  0
 25 49  1  0  0  0  0
 25 50  1  0  0  0  0
 26 27  1  0  0  0  0
 26 51  1  0  0  0  0
 26 52  1  0  0  0  0
 27 28  1  0  0  0  0
 27 53  1  0  0  0  0
 27 54  1  0  0  0  0
 28 29  1  0  0  0  0
 28 55  1  0  0  0  0
 28 56  1  0  0  0  0
 29 57  1  0  0  0  0
 29 58  1  0  0  0  0
M  END
> <s_m_source_file>
AV-unprocessed.smi

> <i_m_source_file_index>
109

> <i_lp_mmshare_version>
43012

> <i_f3d_flags>
0

> <s_epik_input>
W0NIMl0xW0NIMl1bQ0gyXVtDSDJdW0NIMl1bQ0hdMVtDQEhdKFtDSDJdW0NIMl1bT0hdKVtOSF1jKG5bY0hdbjIpYyhjMjMpbltjSF1uM1tDQEBIXTRPW0NASF0oW0NIMl1bT0hdKVtDQEBIXShbT0hdKVtDQEhdNFtPSF0=

> <s_epik_cmdline>
J2VwaWtfcHl0aG9uJywgJy1waCcsICc3LjAnLCAnLXRuJywgJzgnLCAnLW1hJywgJzIwMCcsICctbWV0YWxfYmluZGluZycsICctaW1hZScsICc8aW5maWxlLm1hZT4nLCAnLW9tYWUnLCAnPG91dGZpbGUubWFlPic=

> <r_lp_tautomer_probability>
1

> <r_epik_Ionization_Penalty>
0.000793976

> <r_epik_Ionization_Penalty_Charging>
0

> <r_epik_Ionization_Penalty_Neutral>
0.000793976

> <r_epik_State_Penalty>
-0

> <r_epik_Charging_Adjusted_Penalty>
0

> <i_epik_Tot_Q>
0

> <i_epik_Tot_abs_Q>
0

> <r_epik_Metal_State_Penalty>
-0

> <b_epik_Metal_Only>
0

> <s_epik_Chemistry_Notes>
This compound contains an acetal/aminal-like group ( X-CH(R)-Y where X, Y are N, S, or O) that may be acid/base labile, releasing an aldehyde.

> <s_lp_Force_Field>
OPLS_2005

> <r_lp_Energy>
61.3844

> <b_lp_Chiralities_Consistent>
1

> <s_lp_Variant>
AV-unprocessed.smi:109-7

> <Gold.Version>
5.8.1

> <Gold.Id.Protein>
6NUR|6NUR_protein|mol2

> <Gold.PLP.Fitness>
42.5001

> <Gold.PLP.PLP>
-27.7592

> <Gold.PLP.part.hbond>
-6.0000

> <Gold.PLP.part.metal>
0.0000

> <Gold.PLP.part.buried>
-1.8710

> <Gold.PLP.part.nonpolar>
-19.6006

> <Gold.PLP.part.repulsive>
0.4720

> <Gold.PLP.ligand.clash>
0.0000

> <Gold.PLP.ligand.torsion>
0.6950

> <Gold.PLP.Chemscore.Hbond>
4.3250

> <Gold.PLP.Chemscore.CHOScore>
1.0000

> <Gold.PLP.Chemscore.Metal>
0.0000

> <Gold.Chemscore.Hbonds>
donor molecule, donor type, donor heavy atom, donor atom, acceptor molecule, acceptor atom, score
      L1  H     1    34       P1 11000  1.00
      L1  H    19    45       P1 10952  0.50
      L1  H    21    46       P1 10186  1.00
      L1  H    23    47       P1 10186  0.85
      P1  H 10785 10796       L1    19  1.00
      L1  C     8    41       P1 10175  1.00

> <Gold.PLP.Chemscore.Internal.Correction>
0.1560

> <Gold.Rescore>
     Score         DG    S(hbond)    S(metal)    S(lipo)     H(rot)  DE(clash)    DE(int)     intcor
      6.03      -9.21       3.11        0.00      62.64       5.47       1.57       1.61       ----

> <Gold.Chemscore.Fitness>
6.0329

> <Gold.Chemscore.DG>
-9.2118

> <Gold.Chemscore.ZeroCoef>
-5.4800

> <Gold.Chemscore.Hbond>
3.1126

> <Gold.Chemscore.Metal>
0.0000

> <Gold.Chemscore.Lipo>
62.6431

> <Gold.Chemscore.Internal_Hbond>
0.0000

> <Gold.Chemscore.DEClash>
1.5664

> <Gold.Chemscore.DEInternal>
1.6125

> <Gold.Chemscore.Rot>
5.4662

> <Gold.Chemscore.Internal.Correction>
   9.000000E+99

> <Gold.Chemscore.Hbonds>
donor molecule, donor type, donor heavy atom, donor atom, acceptor molecule, acceptor atom, score
      L1  H     1    34       P1 11000  0.33
      L1  H    19    45       P1 10952  0.29
      L1  H    21    46       P1 10186  0.95
      L1  H    23    47       P1 10186  0.19
      P1  H 10785 10796       L1    19  0.30

> <Gold.Chemscore.Hbond.Weighted>
-10.3961

> <Gold.Chemscore.Metal.Weighted>
-0.0000

> <Gold.Chemscore.Lipo.Weighted>
-7.3292

> <Gold.Chemscore.Internal_Hbond.Weighted>
0.0000

> <Gold.Chemscore.DEClash.Weighted>
1.5664

> <Gold.Chemscore.DEInternal.Weighted>
1.6125

> <Gold.Chemscore.Rot.Weighted>
13.9935

> <Gold.Chemscore.Internal.Correction.Weighted>
   9.000000E+99

> <Gold.Protein.RotatedTorsions>
[ 6907 6896 6895 6894 ] final -110.19 input  -60.11 | X-H torsion
[ 7974 7965 7964 7962 ] final   12.46 input  175.53 | X-H torsion
[ 8008 7997 7996 7995 ] final    5.40 input   59.86 | X-H torsion
[ 10167 10162 10161 10158 ] final   42.29 input  -65.29 | X-H torsion
[ 10718 10713 10712 10709 ] final   38.13 input   66.30 | X-H torsion
[ 10763 10752 10751 10750 ] final  -42.78 input  -60.55 | X-H torsion
[ 11005 11000 10999 10996 ] final  -37.47 input  -57.11 | X-H torsion

> <Gold.Protein.ActiveResidues>
 VAL166  LYS551  ARG553  GLY616  TRP617  ASP618  TYR619  PRO620  LYS621  CYS622 
 ASP623  PHE694  ASN695  SER759  ASP760  ASP761  ALA762  ILE779  LEU786  VAL792 
 PHE793  MET794  SER795  GLU796  ALA797  LYS798  CYS799  TRP800  GLU811  SER814 

> <Gold.Protein.RotatedAtoms>
  150.7609  133.9418  159.3458 H   0  0  0  0  0  0  0  0  0  0  0  0  # atno 6907 bound_to 6896
  151.7326  135.0869  160.0312 H   0  0  0  0  0  0  0  0  0  0  0  0  # atno 6908 bound_to 6896
  152.3580  133.6223  159.6029 H   0  0  0  0  0  0  0  0  0  0  0  0  # atno 6909 bound_to 6896
  146.2351  139.9333  142.8493 H   0  0  0  0  0  0  0  0  0  0  0  0  # atno 7974 bound_to 7965
  154.7279  140.2725  155.6482 H   0  0  0  0  0  0  0  0  0  0  0  0  # atno 8008 bound_to 7997
  156.2842  140.2721  156.1896 H   0  0  0  0  0  0  0  0  0  0  0  0  # atno 8009 bound_to 7997
  155.0420  140.0371  157.2503 H   0  0  0  0  0  0  0  0  0  0  0  0  # atno 8010 bound_to 7997
  140.3559  144.2291  150.6142 H   0  0  0  0  0  0  0  0  0  0  0  0  # atno 10167 bound_to 10162
  157.3551  130.7619  149.7007 H   0  0  0  0  0  0  0  0  0  0  0  0  # atno 10718 bound_to 10713
  153.9847  135.6712  153.4751 H   0  0  0  0  0  0  0  0  0  0  0  0  # atno 10763 bound_to 10752
  153.0732  135.4963  154.8345 H   0  0  0  0  0  0  0  0  0  0  0  0  # atno 10764 bound_to 10752
  154.7144  135.3104  154.9109 H   0  0  0  0  0  0  0  0  0  0  0  0  # atno 10765 bound_to 10752
  140.9955  133.6983  156.1926 H   0  0  0  0  0  0  0  0  0  0  0  0  # atno 11005 bound_to 11000
  145.2023  140.9859  143.4149 LP  0  0  0  0  0  0  0  0  0  0  0  0  # atno 17320 bound_to 7965
  144.9763  139.3828  143.6284 LP  0  0  0  0  0  0  0  0  0  0  0  0  # atno 17321 bound_to 7965
  140.5174  143.2274  151.8442 LP  0  0  0  0  0  0  0  0  0  0  0  0  # atno 17342 bound_to 10162
  139.4820  144.4877  151.9225 LP  0  0  0  0  0  0  0  0  0  0  0  0  # atno 17343 bound_to 10162
  155.9728  130.4129  150.4057 LP  0  0  0  0  0  0  0  0  0  0  0  0  # atno 17370 bound_to 10713
  157.2126  131.0464  151.2591 LP  0  0  0  0  0  0  0  0  0  0  0  0  # atno 17371 bound_to 10713
  140.6973  134.4601  157.5587 LP  0  0  0  0  0  0  0  0  0  0  0  0  # atno 17394 bound_to 11000
  139.9012  134.8551  156.1887 LP  0  0  0  0  0  0  0  0  0  0  0  0  # atno 17395 bound_to 11000

$$$$
