AV-unprocessed.smi:2387|AV-procd|sdf|9469|dock7
  -GOLD-   2272013 93D 1   1.00000     0.00000
 Structure written by MMmdl.
 47 49  0  0  0  0  0  0  0  0  1 V2000
  136.1503  137.9970  154.4827 C   0  0  0  0  0  0  0  0  0  0  0  0
  137.6256  138.0106  154.1407 C   0  0  0  0  0  0  0  0  0  0  0  0
  138.4527  136.9132  154.4566 C   0  0  0  0  0  0  0  0  0  0  0  0
  139.8180  136.9793  154.1180 C   0  0  0  0  0  0  0  0  0  0  0  0
  140.3094  138.1452  153.4824 C   0  0  0  0  0  0  0  0  0  0  0  0
  141.6585  138.3276  153.0748 N   0  0  0  0  0  0  0  0  0  0  0  0
  142.6581  137.4296  153.0614 C   0  0  0  0  0  0  0  0  0  0  0  0
  142.5691  136.2606  153.4354 O   0  0  0  0  0  0  0  0  0  0  0  0
  143.7926  137.9778  152.5918 N   0  0  0  0  0  0  0  0  0  0  0  0
  145.1133  137.3375  152.4524 C   0  0  0  0  0  0  0  0  0  0  0  0
  146.2592  138.3585  152.2083 C   0  0  0  0  0  0  0  0  0  0  0  0
  146.9531  138.2695  151.1943 O   0  0  0  0  0  0  0  0  0  0  0  0
  146.4723  139.3060  153.1377 N   0  0  0  0  0  0  0  0  0  0  0  0
  147.5111  140.3254  153.0787 C   0  0  0  0  0  0  0  0  0  0  0  0
  148.3625  140.4420  154.3286 C   0  0  0  0  0  0  0  0  0  0  0  0
  149.3703  141.5566  154.4820 C   0  0  0  0  0  0  0  0  0  0  0  0
  149.8407  140.1358  154.2805 C   0  0  0  0  0  0  0  0  0  0  0  0
  145.4101  136.5376  153.7534 C   0  0  0  0  0  0  0  0  0  0  0  0
  145.4563  135.0522  153.3821 C   0  0  0  0  0  0  0  0  0  0  0  0
  145.8220  135.0341  151.9051 C   0  0  0  0  0  0  0  0  0  0  0  0
  145.0853  136.2474  151.3420 C   0  0  0  0  0  0  0  0  0  0  0  0
  139.3897  139.1771  153.2005 C   0  0  0  0  0  0  0  0  0  0  0  0
  138.0798  139.1219  153.5223 N   0  0  0  0  0  0  0  0  0  0  0  0
  135.8579  137.0503  154.9377 H   0  0  0  0  0  0  0  0  0  0  0  0
  135.5503  138.1414  153.5837 H   0  0  0  0  0  0  0  0  0  0  0  0
  135.9170  138.7982  155.1844 H   0  0  0  0  0  0  0  0  0  0  0  0
  138.0526  136.0362  154.9439 H   0  0  0  0  0  0  0  0  0  0  0  0
  140.4513  136.1344  154.3395 H   0  0  0  0  0  0  0  0  0  0  0  0
  141.9061  139.2710  152.8143 H   0  0  0  0  0  0  0  0  0  0  0  0
  143.7492  138.9468  152.3128 H   0  0  0  0  0  0  0  0  0  0  0  0
  145.8653  139.3199  153.9442 H   0  0  0  0  0  0  0  0  0  0  0  0
  148.1646  140.1321  152.2266 H   0  0  0  0  0  0  0  0  0  0  0  0
  147.0305  141.2844  152.8817 H   0  0  0  0  0  0  0  0  0  0  0  0
  147.8528  140.1276  155.2377 H   0  0  0  0  0  0  0  0  0  0  0  0
  149.4923  142.2486  153.6511 H   0  0  0  0  0  0  0  0  0  0  0  0
  149.4899  141.9913  155.4725 H   0  0  0  0  0  0  0  0  0  0  0  0
  150.2754  139.6235  155.1365 H   0  0  0  0  0  0  0  0  0  0  0  0
  150.2762  139.8839  153.3156 H   0  0  0  0  0  0  0  0  0  0  0  0
  146.3714  136.8179  154.1885 H   0  0  0  0  0  0  0  0  0  0  0  0
  144.6688  136.7125  154.5347 H   0  0  0  0  0  0  0  0  0  0  0  0
  146.1592  134.4874  153.9951 H   0  0  0  0  0  0  0  0  0  0  0  0
  144.4682  134.6101  153.5172 H   0  0  0  0  0  0  0  0  0  0  0  0
  146.8986  135.1613  151.7861 H   0  0  0  0  0  0  0  0  0  0  0  0
  145.5376  134.1038  151.4128 H   0  0  0  0  0  0  0  0  0  0  0  0
  144.0592  135.9486  151.1211 H   0  0  0  0  0  0  0  0  0  0  0  0
  145.5186  136.5779  150.3965 H   0  0  0  0  0  0  0  0  0  0  0  0
  139.7147  140.0802  152.7046 H   0  0  0  0  0  0  0  0  0  0  0  0
  1  2  1  0  0  0  0
  1 24  1  0  0  0  0
  1 25  1  0  0  0  0
  1 26  1  0  0  0  0
  2 23  1  0  0  0  0
  2  3  2  0  0  0  0
  3  4  1  0  0  0  0
  3 27  1  0  0  0  0
  4  5  2  0  0  0  0
  4 28  1  0  0  0  0
  5  6  1  0  0  0  0
  5 22  1  0  0  0  0
  6  7  1  0  0  0  0
  6 29  1  0  0  0  0
  7  8  2  0  0  0  0
  7  9  1  0  0  0  0
  9 10  1  0  0  0  0
  9 30  1  0  0  0  0
 10 21  1  0  0  0  0
 10 11  1  0  0  0  0
 10 18  1  0  0  0  0
 11 12  2  0  0  0  0
 11 13  1  0  0  0  0
 13 14  1  0  0  0  0
 13 31  1  0  0  0  0
 14 15  1  0  0  0  0
 14 32  1  0  0  0  0
 14 33  1  0  0  0  0
 15 17  1  0  0  0  0
 15 16  1  0  0  0  0
 15 34  1  0  0  0  0
 16 17  1  0  0  0  0
 16 35  1  0  0  0  0
 16 36  1  0  0  0  0
 17 37  1  0  0  0  0
 17 38  1  0  0  0  0
 18 19  1  0  0  0  0
 18 39  1  0  0  0  0
 18 40  1  0  0  0  0
 19 20  1  0  0  0  0
 19 41  1  0  0  0  0
 19 42  1  0  0  0  0
 20 21  1  0  0  0  0
 20 43  1  0  0  0  0
 20 44  1  0  0  0  0
 21 45  1  0  0  0  0
 21 46  1  0  0  0  0
 22 23  2  0  0  0  0
 22 47  1  0  0  0  0
M  END
> <s_m_source_file>
AV-unprocessed.smi

> <i_m_source_file_index>
2387

> <i_lp_mmshare_version>
43012

> <i_f3d_flags>
0

> <s_epik_input>
W0NIM11jMVtjSF1bY0hdYyhbY0hdbjEpW05IXUMoPU8pW05IXUMyKFtDSDJdW0NIMl1bQ0gyXVtDSDJdMilDKD1PKVtOSF1bQ0gyXVtDSF0zW0NIMl1bQ0gyXTM=

> <s_epik_cmdline>
J2VwaWtfcHl0aG9uJywgJy1waCcsICc3LjAnLCAnLXRuJywgJzgnLCAnLW1hJywgJzIwMCcsICctbWV0YWxfYmluZGluZycsICctaW1hZScsICc8aW5maWxlLm1hZT4nLCAnLW9tYWUnLCAnPG91dGZpbGUubWFlPic=

> <r_epik_Ionization_Penalty>
0.0173464

> <r_epik_Ionization_Penalty_Charging>
0

> <r_epik_Ionization_Penalty_Neutral>
0.0173464

> <r_epik_State_Penalty>
0.0137159

> <r_epik_Charging_Adjusted_Penalty>
0.0137159

> <i_epik_Tot_Q>
0

> <i_epik_Tot_abs_Q>
0

> <r_epik_Metal_State_Penalty>
0.0133255

> <b_epik_Metal_Only>
0

> <s_lp_Force_Field>
OPLS_2005

> <r_lp_Energy>
29.6161

> <b_lp_Chiralities_Consistent>
1

> <s_lp_Variant>
AV-unprocessed.smi:2387-1

> <Gold.Version>
5.8.1

> <Gold.Id.Protein>
6NUR|6NUR_protein|mol2

> <Gold.PLP.Fitness>
48.8510

> <Gold.PLP.PLP>
-38.2724

> <Gold.PLP.part.hbond>
-4.4213

> <Gold.PLP.part.metal>
0.0000

> <Gold.PLP.part.buried>
1.2103

> <Gold.PLP.part.nonpolar>
-36.9591

> <Gold.PLP.part.repulsive>
2.4744

> <Gold.PLP.ligand.clash>
0.0000

> <Gold.PLP.ligand.torsion>
0.6880

> <Gold.PLP.Chemscore.Hbond>
2.7775

> <Gold.PLP.Chemscore.CHOScore>
1.0000

> <Gold.PLP.Chemscore.Metal>
0.0000

> <Gold.Chemscore.Hbonds>
donor molecule, donor type, donor heavy atom, donor atom, acceptor molecule, acceptor atom, score
      L1  H     6    29       P1 10175  0.72
      L1  H     9    30       P1 10175  0.91
      P1  H  7954  7966       L1    12  1.00
      L1  C    22    47       P1 10160  1.00

> <Gold.PLP.Chemscore.Internal.Correction>
0.6222

> <Gold.Rescore>
     Score         DG    S(hbond)    S(metal)    S(lipo)     H(rot)  DE(clash)    DE(int)     intcor
     15.31     -19.28       2.17        0.00      90.91       1.59       0.74       3.23       ----

> <Gold.Chemscore.Fitness>
15.3073

> <Gold.Chemscore.DG>
-19.2816

> <Gold.Chemscore.ZeroCoef>
-5.4800

> <Gold.Chemscore.Hbond>
2.1694

> <Gold.Chemscore.Metal>
0.0000

> <Gold.Chemscore.Lipo>
90.9130

> <Gold.Chemscore.Internal_Hbond>
0.0000

> <Gold.Chemscore.DEClash>
0.7447

> <Gold.Chemscore.DEInternal>
3.2296

> <Gold.Chemscore.Rot>
1.5941

> <Gold.Chemscore.Internal.Correction>
   9.000000E+99

> <Gold.Chemscore.Hbonds>
donor molecule, donor type, donor heavy atom, donor atom, acceptor molecule, acceptor atom, score
      L1  H     6    29       P1 10175  0.55
      L1  H     9    30       P1 10175  0.87
      P1  H  7954  7966       L1    12  1.00

> <Gold.Chemscore.Hbond.Weighted>
-7.2457

> <Gold.Chemscore.Metal.Weighted>
-0.0000

> <Gold.Chemscore.Lipo.Weighted>
-10.6368

> <Gold.Chemscore.Internal_Hbond.Weighted>
0.0000

> <Gold.Chemscore.DEClash.Weighted>
0.7447

> <Gold.Chemscore.DEInternal.Weighted>
3.2296

> <Gold.Chemscore.Rot.Weighted>
4.0809

> <Gold.Chemscore.Internal.Correction.Weighted>
   9.000000E+99

> <Gold.Protein.RotatedTorsions>
[ 6907 6896 6895 6894 ] final  121.99 input  -60.11 | X-H torsion
[ 7974 7965 7964 7962 ] final   50.32 input  175.53 | X-H torsion
[ 8008 7997 7996 7995 ] final -175.73 input   59.86 | X-H torsion
[ 10167 10162 10161 10158 ] final  -14.58 input  -65.29 | X-H torsion
[ 10718 10713 10712 10709 ] final   35.51 input   66.30 | X-H torsion
[ 10763 10752 10751 10750 ] final   40.11 input  -60.55 | X-H torsion
[ 11005 11000 10999 10996 ] final  -80.31 input  -57.11 | X-H torsion

> <Gold.Protein.ActiveResidues>
 VAL166  LYS551  ARG553  GLY616  TRP617  ASP618  TYR619  PRO620  LYS621  CYS622 
 ASP623  PHE694  ASN695  SER759  ASP760  ASP761  ALA762  ILE779  LEU786  VAL792 
 PHE793  MET794  SER795  GLU796  ALA797  LYS798  CYS799  TRP800  GLU811  SER814 

> <Gold.Protein.RotatedAtoms>
  152.4278  133.7225  159.6541 H   0  0  0  0  0  0  0  0  0  0  0  0  # atno 6907 bound_to 6896
  150.8156  133.8333  159.3168 H   0  0  0  0  0  0  0  0  0  0  0  0  # atno 6908 bound_to 6896
  151.6030  135.1048  160.0116 H   0  0  0  0  0  0  0  0  0  0  0  0  # atno 6909 bound_to 6896
  146.0023  139.4453  143.0007 H   0  0  0  0  0  0  0  0  0  0  0  0  # atno 7974 bound_to 7965
  155.9862  140.1191  157.0681 H   0  0  0  0  0  0  0  0  0  0  0  0  # atno 8008 bound_to 7997
  154.4197  140.1135  156.5570 H   0  0  0  0  0  0  0  0  0  0  0  0  # atno 8009 bound_to 7997
  155.6405  140.3473  155.4715 H   0  0  0  0  0  0  0  0  0  0  0  0  # atno 8010 bound_to 7997
  140.7204  143.5307  150.9524 H   0  0  0  0  0  0  0  0  0  0  0  0  # atno 10167 bound_to 10162
  157.3235  130.7461  149.6801 H   0  0  0  0  0  0  0  0  0  0  0  0  # atno 10718 bound_to 10713
  152.9946  135.6201  154.2573 H   0  0  0  0  0  0  0  0  0  0  0  0  # atno 10763 bound_to 10752
  154.2310  135.2792  155.2891 H   0  0  0  0  0  0  0  0  0  0  0  0  # atno 10764 bound_to 10752
  154.5449  135.5750  153.6930 H   0  0  0  0  0  0  0  0  0  0  0  0  # atno 10765 bound_to 10752
  141.1668  133.7144  156.8253 H   0  0  0  0  0  0  0  0  0  0  0  0  # atno 11005 bound_to 11000
  145.7468  140.9987  143.1271 LP  0  0  0  0  0  0  0  0  0  0  0  0  # atno 17320 bound_to 7965
  144.6923  139.9166  143.7466 LP  0  0  0  0  0  0  0  0  0  0  0  0  # atno 17321 bound_to 7965
  139.9027  143.6816  152.3128 LP  0  0  0  0  0  0  0  0  0  0  0  0  # atno 17342 bound_to 10162
  139.7171  144.7609  151.1015 LP  0  0  0  0  0  0  0  0  0  0  0  0  # atno 17343 bound_to 10162
  155.9688  130.4216  150.4477 LP  0  0  0  0  0  0  0  0  0  0  0  0  # atno 17370 bound_to 10713
  157.2496  131.0543  151.2387 LP  0  0  0  0  0  0  0  0  0  0  0  0  # atno 17371 bound_to 10713
  140.2089  134.8842  157.3253 LP  0  0  0  0  0  0  0  0  0  0  0  0  # atno 17394 bound_to 11000
  140.2107  134.4142  155.7614 LP  0  0  0  0  0  0  0  0  0  0  0  0  # atno 17395 bound_to 11000

$$$$
