AV-unprocessed.smi:3176|AV-procd|sdf|12126|dock10
  -GOLD-   2272017563D 1   1.00000     0.00000
 Structure written by MMmdl.
 33 34  0  0  0  0  0  0  0  0  2 V2000
  153.0254  139.1785  155.1535 O   0  0  0  0  0  0  0  0  0  0  0  0
  151.8492  138.9620  155.4461 C   0  0  0  0  0  0  0  0  0  0  0  0
  151.1922  139.6544  156.3900 N   0  0  0  0  0  0  0  0  0  0  0  0
  151.7585  140.7386  157.1827 C   0  0  0  0  0  0  0  0  0  0  0  0
  150.9113  142.0168  157.0741 C   0  0  0  0  0  0  0  0  0  0  0  0
  151.2471  143.0215  158.1586 C   0  0  0  0  0  0  0  0  0  0  0  0
  152.1387  142.7199  159.2108 C   0  0  0  0  0  0  0  0  0  0  0  0
  152.4019  143.6980  160.1925 C   0  0  0  0  0  0  0  0  0  0  0  0
  151.7685  144.9548  160.1019 C   0  0  0  0  0  0  0  0  0  0  0  0
  150.8847  145.2014  159.0314 C   0  0  0  0  0  0  0  0  0  0  0  0
  150.6573  144.2382  158.1113 N   0  3  0  0  0  0  0  0  0  0  0  0
  151.0752  137.8443  154.7343 C   0  0  2  0  0  0  0  0  0  0  0  0
  149.6466  137.6550  155.2440 C   0  0  0  0  0  0  0  0  0  0  0  0
  149.3618  136.2315  154.8171 C   0  0  0  0  0  0  0  0  0  0  0  0
  150.7172  135.5484  154.9952 C   0  0  0  0  0  0  0  0  0  0  0  0
  151.6993  136.5815  154.9576 O   0  0  0  0  0  0  0  0  0  0  0  0
  150.2269  139.4120  156.5636 H   0  0  0  0  0  0  0  0  0  0  0  0
  151.8576  140.4281  158.2243 H   0  0  0  0  0  0  0  0  0  0  0  0
  152.7681  140.9309  156.8187 H   0  0  0  0  0  0  0  0  0  0  0  0
  151.0608  142.4819  156.0989 H   0  0  0  0  0  0  0  0  0  0  0  0
  149.8497  141.7738  157.1383 H   0  0  0  0  0  0  0  0  0  0  0  0
  152.6145  141.7514  159.2678 H   0  0  0  0  0  0  0  0  0  0  0  0
  153.0809  143.4859  161.0056 H   0  0  0  0  0  0  0  0  0  0  0  0
  151.9572  145.7176  160.8433 H   0  0  0  0  0  0  0  0  0  0  0  0
  150.3567  146.1323  158.8845 H   0  0  0  0  0  0  0  0  0  0  0  0
  151.0641  138.0393  153.6608 H   0  0  0  0  0  0  0  0  0  0  0  0
  149.6019  137.7390  156.3314 H   0  0  0  0  0  0  0  0  0  0  0  0
  148.9437  138.3693  154.8142 H   0  0  0  0  0  0  0  0  0  0  0  0
  148.5679  135.7604  155.3971 H   0  0  0  0  0  0  0  0  0  0  0  0
  149.0713  136.2127  153.7656 H   0  0  0  0  0  0  0  0  0  0  0  0
  150.7756  135.0518  155.9643 H   0  0  0  0  0  0  0  0  0  0  0  0
  150.9011  134.8022  154.2218 H   0  0  0  0  0  0  0  0  0  0  0  0
  150.0132  144.4384  157.3454 H   0  0  0  0  0  0  0  0  0  0  0  0
  1  2  2  0  0  0  0
  2  3  1  0  0  0  0
  2 12  1  0  0  0  0
  3  4  1  0  0  0  0
  3 17  1  0  0  0  0
  4  5  1  0  0  0  0
  4 18  1  0  0  0  0
  4 19  1  0  0  0  0
  5  6  1  0  0  0  0
  5 20  1  0  0  0  0
  5 21  1  0  0  0  0
  6 11  1  0  0  0  0
  6  7  2  0  0  0  0
  7  8  1  0  0  0  0
  7 22  1  0  0  0  0
  8  9  2  0  0  0  0
  8 23  1  0  0  0  0
  9 10  1  0  0  0  0
  9 24  1  0  0  0  0
 10 11  2  0  0  0  0
 10 25  1  0  0  0  0
 11 33  1  0  0  0  0
 12 16  1  0  0  0  0
 12 13  1  0  0  0  0
 12 26  1  0  0  0  0
 13 14  1  0  0  0  0
 13 27  1  0  0  0  0
 13 28  1  0  0  0  0
 14 15  1  0  0  0  0
 14 29  1  0  0  0  0
 14 30  1  0  0  0  0
 15 16  1  0  0  0  0
 15 31  1  0  0  0  0
 15 32  1  0  0  0  0
M  CHG  1  11   1
M  END
> <s_m_source_file>
AV-unprocessed.smi

> <i_m_source_file_index>
3176

> <i_lp_mmshare_version>
43012

> <i_f3d_flags>
0

> <s_epik_input>
TzFbQ0gyXVtDSDJdW0NIMl1bQ0BIXTFDKD1PKVtOSF1bQ0gyXVtDSDJdYzJbY0hdW2NIXVtjSF1bY0hdbjI=

> <s_epik_cmdline>
J2VwaWtfcHl0aG9uJywgJy1waCcsICc3LjAnLCAnLXRuJywgJzgnLCAnLW1hJywgJzIwMCcsICctbWV0YWxfYmluZGluZycsICctaW1hZScsICc8aW5maWxlLm1hZT4nLCAnLW9tYWUnLCAnPG91dGZpbGUubWFlPic=

> <r_epik_Ionization_Penalty>
1.81664

> <r_epik_Ionization_Penalty_Charging>
1.81664

> <r_epik_Ionization_Penalty_Neutral>
5.71603e-08

> <r_epik_State_Penalty>
1.93152

> <r_epik_Charging_Adjusted_Penalty>
3.74817

> <i_epik_Tot_Q>
1

> <i_epik_Tot_abs_Q>
1

> <r_epik_Metal_State_Penalty>
1.95876

> <b_epik_Metal_Only>
0

> <s_lp_Force_Field>
OPLS_2005

> <r_lp_Energy>
22.4632

> <b_lp_Chiralities_Consistent>
1

> <s_lp_Variant>
AV-unprocessed.smi:3176-3

> <Gold.Version>
5.8.1

> <Gold.Id.Protein>
6NUR|6NUR_protein|mol2

> <Gold.PLP.Fitness>
46.3384

> <Gold.PLP.PLP>
-34.5547

> <Gold.PLP.part.hbond>
-3.0000

> <Gold.PLP.part.metal>
0.0000

> <Gold.PLP.part.buried>
-4.9057

> <Gold.PLP.part.nonpolar>
-26.6613

> <Gold.PLP.part.repulsive>
0.2550

> <Gold.PLP.ligand.clash>
0.0000

> <Gold.PLP.ligand.torsion>
0.1142

> <Gold.PLP.Chemscore.Hbond>
4.0000

> <Gold.PLP.Chemscore.CHOScore>
0.0000

> <Gold.PLP.Chemscore.Metal>
0.0000

> <Gold.Chemscore.Hbonds>
donor molecule, donor type, donor heavy atom, donor atom, acceptor molecule, acceptor atom, score
      L1  H    11    33       P1  8028  2.00
      P1  H  7997  8008       L1     1  1.00
      P1  H 10752 10765       L1    16  0.80

> <Gold.PLP.Chemscore.Internal.Correction>
0.0122

> <Gold.Rescore>
     Score         DG    S(hbond)    S(metal)    S(lipo)     H(rot)  DE(clash)    DE(int)     intcor
     20.20     -20.69       2.59        0.00      91.11       1.61       0.35       0.14       ----

> <Gold.Chemscore.Fitness>
20.2041

> <Gold.Chemscore.DG>
-20.6949

> <Gold.Chemscore.ZeroCoef>
-5.4800

> <Gold.Chemscore.Hbond>
2.5942

> <Gold.Chemscore.Metal>
0.0000

> <Gold.Chemscore.Lipo>
91.1098

> <Gold.Chemscore.Internal_Hbond>
0.0000

> <Gold.Chemscore.DEClash>
0.3462

> <Gold.Chemscore.DEInternal>
0.1446

> <Gold.Chemscore.Rot>
1.6054

> <Gold.Chemscore.Internal.Correction>
   9.000000E+99

> <Gold.Chemscore.Hbonds>
donor molecule, donor type, donor heavy atom, donor atom, acceptor molecule, acceptor atom, score
      L1  H    11    33       P1  8028  0.38
      P1  H  7997  8008       L1     1  1.00
      P1  H 10752 10765       L1    16  0.12

> <Gold.Chemscore.Hbond.Weighted>
-8.6647

> <Gold.Chemscore.Metal.Weighted>
-0.0000

> <Gold.Chemscore.Lipo.Weighted>
-10.6598

> <Gold.Chemscore.Internal_Hbond.Weighted>
0.0000

> <Gold.Chemscore.DEClash.Weighted>
0.3462

> <Gold.Chemscore.DEInternal.Weighted>
0.1446

> <Gold.Chemscore.Rot.Weighted>
4.1097

> <Gold.Chemscore.Internal.Correction.Weighted>
   9.000000E+99

> <Gold.Protein.RotatedTorsions>
[ 6907 6896 6895 6894 ] final  -56.13 input  -60.11 | X-H torsion
[ 7974 7965 7964 7962 ] final -107.13 input  175.53 | X-H torsion
[ 8008 7997 7996 7995 ] final  -24.75 input   59.86 | X-H torsion
[ 10167 10162 10161 10158 ] final  -42.14 input  -65.29 | X-H torsion
[ 10718 10713 10712 10709 ] final -132.71 input   66.30 | X-H torsion
[ 10763 10752 10751 10750 ] final  170.98 input  -60.55 | X-H torsion
[ 11005 11000 10999 10996 ] final   88.15 input  -57.11 | X-H torsion

> <Gold.Protein.ActiveResidues>
 VAL166  LYS551  ARG553  GLY616  TRP617  ASP618  TYR619  PRO620  LYS621  CYS622 
 ASP623  PHE694  ASN695  SER759  ASP760  ASP761  ALA762  ILE779  LEU786  VAL792 
 PHE793  MET794  SER795  GLU796  ALA797  LYS798  CYS799  TRP800  GLU811  SER814 

> <Gold.Protein.RotatedAtoms>
  150.8193  134.7392  159.6757 H   0  0  0  0  0  0  0  0  0  0  0  0  # atno 6907 bound_to 6896
  152.4310  134.5775  159.9948 H   0  0  0  0  0  0  0  0  0  0  0  0  # atno 6908 bound_to 6896
  151.5963  133.3323  159.3074 H   0  0  0  0  0  0  0  0  0  0  0  0  # atno 6909 bound_to 6896
  145.2092  140.9089  143.3324 H   0  0  0  0  0  0  0  0  0  0  0  0  # atno 7974 bound_to 7965
  154.4512  140.1945  156.0512 H   0  0  0  0  0  0  0  0  0  0  0  0  # atno 8008 bound_to 7997
  156.0652  140.3291  155.7482 H   0  0  0  0  0  0  0  0  0  0  0  0  # atno 8009 bound_to 7997
  155.5349  140.0581  157.2872 H   0  0  0  0  0  0  0  0  0  0  0  0  # atno 8010 bound_to 7997
  140.6979  143.3055  151.3166 H   0  0  0  0  0  0  0  0  0  0  0  0  # atno 10167 bound_to 10162
  156.2374  130.7074  151.0921 H   0  0  0  0  0  0  0  0  0  0  0  0  # atno 10718 bound_to 10713
  154.4054  135.2755  155.2070 H   0  0  0  0  0  0  0  0  0  0  0  0  # atno 10763 bound_to 10752
  154.4078  135.6029  153.5938 H   0  0  0  0  0  0  0  0  0  0  0  0  # atno 10764 bound_to 10752
  152.9831  135.5942  154.4328 H   0  0  0  0  0  0  0  0  0  0  0  0  # atno 10765 bound_to 10752
  139.8903  134.8469  156.2960 H   0  0  0  0  0  0  0  0  0  0  0  0  # atno 11005 bound_to 11000
  144.9872  139.3724  143.6232 LP  0  0  0  0  0  0  0  0  0  0  0  0  # atno 17320 bound_to 7965
  146.3401  139.9039  142.8790 LP  0  0  0  0  0  0  0  0  0  0  0  0  # atno 17321 bound_to 7965
  139.6459  144.0453  152.2590 LP  0  0  0  0  0  0  0  0  0  0  0  0  # atno 17342 bound_to 10162
  139.9973  144.6318  150.7761 LP  0  0  0  0  0  0  0  0  0  0  0  0  # atno 17343 bound_to 10162
  157.7160  131.0709  150.6324 LP  0  0  0  0  0  0  0  0  0  0  0  0  # atno 17370 bound_to 10713
  156.6395  130.4454  149.5757 LP  0  0  0  0  0  0  0  0  0  0  0  0  # atno 17371 bound_to 10713
  140.9945  133.7189  156.0864 LP  0  0  0  0  0  0  0  0  0  0  0  0  # atno 17394 bound_to 11000
  140.7581  134.3970  157.5530 LP  0  0  0  0  0  0  0  0  0  0  0  0  # atno 17395 bound_to 11000

$$$$
