AV-unprocessed.smi:618|AV-procd|sdf|3075|dock5
  -GOLD-   22720 0 03D 1   1.00000     0.00000
 Structure written by MMmdl.
 41 43  0  0  0  0  0  0  0  0  2 V2000
  150.4324  141.2175  154.7514 O   0  0  0  0  0  0  0  0  0  0  0  0
  149.9721  140.4513  155.5973 C   0  0  0  0  0  0  0  0  0  0  0  0
  149.1593  139.4284  155.2978 N   0  0  0  0  0  0  0  0  0  0  0  0
  148.7239  139.0797  153.9494 C   0  0  0  0  0  0  0  0  0  0  0  0
  147.2118  139.3292  153.7489 C   0  0  1  0  0  0  0  0  0  0  0  0
  146.7456  139.0762  152.2943 C   0  0  0  0  0  0  0  0  0  0  0  0
  146.6697  137.6231  152.0555 N   0  3  2  0  0  0  0  0  0  0  0  0
  146.2452  137.1602  150.7227 C   0  0  0  0  0  0  0  0  0  0  0  0
  145.6767  135.7463  150.9562 C   0  0  0  0  0  0  0  0  0  0  0  0
  145.6717  135.5455  152.4820 C   0  0  0  0  0  0  0  0  0  0  0  0
  145.7811  136.9694  153.0180 C   0  0  1  0  0  0  0  0  0  0  0  0
  146.3422  137.1661  154.4308 C   0  0  0  0  0  0  0  0  0  0  0  0
  146.4227  138.5724  154.6810 O   0  0  0  0  0  0  0  0  0  0  0  0
  150.1888  140.5333  156.9211 N   0  0  0  0  0  0  0  0  0  0  0  0
  151.0064  141.4596  157.6235 C   0  0  0  0  0  0  0  0  0  0  0  0
  151.7105  140.9977  158.7545 C   0  0  0  0  0  0  0  0  0  0  0  0
  152.5414  141.8905  159.4575 C   0  0  0  0  0  0  0  0  0  0  0  0
  152.6442  143.2162  158.9933 C   0  0  0  0  0  0  0  0  0  0  0  0
  151.9907  143.6712  157.9039 N   0  0  0  0  0  0  0  0  0  0  0  0
  151.1937  142.8098  157.2354 C   0  0  0  0  0  0  0  0  0  0  0  0
  148.8209  138.8501  156.0531 H   0  0  0  0  0  0  0  0  0  0  0  0
  149.2977  139.6590  153.2239 H   0  0  0  0  0  0  0  0  0  0  0  0
  148.9796  138.0369  153.7644 H   0  0  0  0  0  0  0  0  0  0  0  0
  147.0199  140.3802  153.9669 H   0  0  0  0  0  0  0  0  0  0  0  0
  145.7623  139.5213  152.1348 H   0  0  0  0  0  0  0  0  0  0  0  0
  147.4264  139.5397  151.5796 H   0  0  0  0  0  0  0  0  0  0  0  0
  145.4678  137.8166  150.3286 H   0  0  0  0  0  0  0  0  0  0  0  0
  147.0817  137.1657  150.0232 H   0  0  0  0  0  0  0  0  0  0  0  0
  144.6657  135.6773  150.5530 H   0  0  0  0  0  0  0  0  0  0  0  0
  146.2793  134.9821  150.4638 H   0  0  0  0  0  0  0  0  0  0  0  0
  144.7805  135.0279  152.8386 H   0  0  0  0  0  0  0  0  0  0  0  0
  146.5433  134.9614  152.7812 H   0  0  0  0  0  0  0  0  0  0  0  0
  144.7954  137.4363  152.9573 H   0  0  0  0  0  0  0  0  0  0  0  0
  145.6809  136.7121  155.1688 H   0  0  0  0  0  0  0  0  0  0  0  0
  147.3177  136.6928  154.5442 H   0  0  0  0  0  0  0  0  0  0  0  0
  149.6696  139.8891  157.4993 H   0  0  0  0  0  0  0  0  0  0  0  0
  151.6133  139.9736  159.0847 H   0  0  0  0  0  0  0  0  0  0  0  0
  153.0875  141.5671  160.3313 H   0  0  0  0  0  0  0  0  0  0  0  0
  153.2722  143.9288  159.5074 H   0  0  0  0  0  0  0  0  0  0  0  0
  150.7198  143.2236  156.3590 H   0  0  0  0  0  0  0  0  0  0  0  0
  147.5917  137.2411  152.2109 H   0  0  0  0  0  0  0  0  0  0  0  0
  1  2  2  0  0  0  0
  2  3  1  0  0  0  0
  2 14  1  0  0  0  0
  3  4  1  0  0  0  0
  3 21  1  0  0  0  0
  4  5  1  0  0  0  0
  4 22  1  0  0  0  0
  4 23  1  0  0  0  0
  5 13  1  0  0  0  0
  5  6  1  0  0  0  0
  5 24  1  0  0  0  0
  6  7  1  0  0  0  0
  6 25  1  0  0  0  0
  6 26  1  0  0  0  0
  7 11  1  0  0  0  0
  7  8  1  0  0  0  0
  7 41  1  0  0  0  0
  8  9  1  0  0  0  0
  8 27  1  0  0  0  0
  8 28  1  0  0  0  0
  9 10  1  0  0  0  0
  9 29  1  0  0  0  0
  9 30  1  0  0  0  0
 10 11  1  0  0  0  0
 10 31  1  0  0  0  0
 10 32  1  0  0  0  0
 11 12  1  0  0  0  0
 11 33  1  0  0  0  0
 12 13  1  0  0  0  0
 12 34  1  0  0  0  0
 12 35  1  0  0  0  0
 14 15  1  0  0  0  0
 14 36  1  0  0  0  0
 15 20  1  0  0  0  0
 15 16  2  0  0  0  0
 16 17  1  0  0  0  0
 16 37  1  0  0  0  0
 17 18  2  0  0  0  0
 17 38  1  0  0  0  0
 18 19  1  0  0  0  0
 18 39  1  0  0  0  0
 19 20  2  0  0  0  0
 20 40  1  0  0  0  0
M  CHG  1   7   1
M  END
> <s_m_source_file>
AV-unprocessed.smi

> <i_m_source_file_index>
618

> <i_lp_mmshare_version>
43012

> <i_f3d_flags>
0

> <s_epik_input>
W2NIXTFuW2NIXVtjSF1bY0hdYzFbTkhdQyg9TylbTkhdW0NIMl1bQ0BIXShbQ0gyXTIpT1tDSDJdW0NAQEhdKE4yMylbQ0gyXVtDSDJdW0NIMl0z

> <s_epik_cmdline>
J2VwaWtfcHl0aG9uJywgJy1waCcsICc3LjAnLCAnLXRuJywgJzgnLCAnLW1hJywgJzIwMCcsICctbWV0YWxfYmluZGluZycsICctaW1hZScsICc8aW5maWxlLm1hZT4nLCAnLW9tYWUnLCAnPG91dGZpbGUubWFlPic=

> <r_epik_Ionization_Penalty>
0.111044

> <r_epik_Ionization_Penalty_Charging>
0.10673

> <r_epik_Ionization_Penalty_Neutral>
0.00431361

> <r_epik_State_Penalty>
0.0978747

> <r_epik_Charging_Adjusted_Penalty>
0.204605

> <i_epik_Tot_Q>
1

> <i_epik_Tot_abs_Q>
1

> <r_epik_Metal_State_Penalty>
0.0947591

> <b_epik_Metal_Only>
0

> <s_lp_Force_Field>
OPLS_2005

> <r_lp_Energy>
41.905

> <b_lp_Chiralities_Consistent>
1

> <s_lp_Variant>
AV-unprocessed.smi:618-2

> <Gold.Version>
5.8.1

> <Gold.Id.Protein>
6NUR|6NUR_protein|mol2

> <Gold.PLP.Fitness>
39.2009

> <Gold.PLP.PLP>
-28.8864

> <Gold.PLP.part.hbond>
-2.0000

> <Gold.PLP.part.metal>
0.0000

> <Gold.PLP.part.buried>
0.4436

> <Gold.PLP.part.nonpolar>
-28.0505

> <Gold.PLP.part.repulsive>
0.3611

> <Gold.PLP.ligand.clash>
0.0000

> <Gold.PLP.ligand.torsion>
0.2837

> <Gold.PLP.Chemscore.Hbond>
2.6240

> <Gold.PLP.Chemscore.CHOScore>
1.0000

> <Gold.PLP.Chemscore.Metal>
0.0000

> <Gold.Chemscore.Hbonds>
donor molecule, donor type, donor heavy atom, donor atom, acceptor molecule, acceptor atom, score
      L1  H     7    41       P1  7948  2.00
      P1  H  7989  7998       L1     1  0.56
      L1  C    20    40       P1  8028  1.00

> <Gold.PLP.Chemscore.Internal.Correction>
0.0100

> <Gold.Rescore>
     Score         DG    S(hbond)    S(metal)    S(lipo)     H(rot)  DE(clash)    DE(int)     intcor
     16.22     -17.60       1.72        0.00      82.23       1.27       0.50       0.87       ----

> <Gold.Chemscore.Fitness>
16.2198

> <Gold.Chemscore.DG>
-17.5957

> <Gold.Chemscore.ZeroCoef>
-5.4800

> <Gold.Chemscore.Hbond>
1.7169

> <Gold.Chemscore.Metal>
0.0000

> <Gold.Chemscore.Lipo>
82.2333

> <Gold.Chemscore.Internal_Hbond>
0.0000

> <Gold.Chemscore.DEClash>
0.5023

> <Gold.Chemscore.DEInternal>
0.8736

> <Gold.Chemscore.Rot>
1.2656

> <Gold.Chemscore.Internal.Correction>
   9.000000E+99

> <Gold.Chemscore.Hbonds>
donor molecule, donor type, donor heavy atom, donor atom, acceptor molecule, acceptor atom, score
      L1  H     7    41       P1  7948  0.98
      P1  H  7989  7998       L1     1  0.56

> <Gold.Chemscore.Hbond.Weighted>
-5.7343

> <Gold.Chemscore.Metal.Weighted>
-0.0000

> <Gold.Chemscore.Lipo.Weighted>
-9.6213

> <Gold.Chemscore.Internal_Hbond.Weighted>
0.0000

> <Gold.Chemscore.DEClash.Weighted>
0.5023

> <Gold.Chemscore.DEInternal.Weighted>
0.8736

> <Gold.Chemscore.Rot.Weighted>
3.2399

> <Gold.Chemscore.Internal.Correction.Weighted>
   9.000000E+99

> <Gold.Protein.RotatedTorsions>
[ 6907 6896 6895 6894 ] final   58.49 input  -60.11 | X-H torsion
[ 7974 7965 7964 7962 ] final  -80.60 input  175.53 | X-H torsion
[ 8008 7997 7996 7995 ] final   14.57 input   59.86 | X-H torsion
[ 10167 10162 10161 10158 ] final    3.14 input  -65.29 | X-H torsion
[ 10718 10713 10712 10709 ] final  -27.42 input   66.30 | X-H torsion
[ 10763 10752 10751 10750 ] final  -46.35 input  -60.55 | X-H torsion
[ 11005 11000 10999 10996 ] final   24.42 input  -57.11 | X-H torsion

> <Gold.Protein.ActiveResidues>
 VAL166  LYS551  ARG553  GLY616  TRP617  ASP618  TYR619  PRO620  LYS621  CYS622 
 ASP623  PHE694  ASN695  SER759  ASP760  ASP761  ALA762  ILE779  LEU786  VAL792 
 PHE793  MET794  SER795  GLU796  ALA797  LYS798  CYS799  TRP800  GLU811  SER814 

> <Gold.Protein.RotatedAtoms>
  152.3829  134.6562  160.0136 H   0  0  0  0  0  0  0  0  0  0  0  0  # atno 6907 bound_to 6896
  151.6820  133.3306  159.3230 H   0  0  0  0  0  0  0  0  0  0  0  0  # atno 6908 bound_to 6896
  150.7762  134.6709  159.6435 H   0  0  0  0  0  0  0  0  0  0  0  0  # atno 6909 bound_to 6896
  145.5578  140.9487  143.1464 H   0  0  0  0  0  0  0  0  0  0  0  0  # atno 7974 bound_to 7965
  154.8503  140.2928  155.5603 H   0  0  0  0  0  0  0  0  0  0  0  0  # atno 8008 bound_to 7997
  156.3016  140.2497  156.3392 H   0  0  0  0  0  0  0  0  0  0  0  0  # atno 8009 bound_to 7997
  154.9029  140.0391  157.1892 H   0  0  0  0  0  0  0  0  0  0  0  0  # atno 8010 bound_to 7997
  140.6600  143.7327  150.7722 H   0  0  0  0  0  0  0  0  0  0  0  0  # atno 10167 bound_to 10162
  156.4385  130.4459  149.7069 H   0  0  0  0  0  0  0  0  0  0  0  0  # atno 10718 bound_to 10713
  154.0436  135.6640  153.4792 H   0  0  0  0  0  0  0  0  0  0  0  0  # atno 10763 bound_to 10752
  153.0492  135.5095  154.7819 H   0  0  0  0  0  0  0  0  0  0  0  0  # atno 10764 bound_to 10752
  154.6802  135.3044  154.9589 H   0  0  0  0  0  0  0  0  0  0  0  0  # atno 10765 bound_to 10752
  140.3589  134.2147  155.7674 H   0  0  0  0  0  0  0  0  0  0  0  0  # atno 11005 bound_to 11000
  144.7498  139.7225  143.7278 LP  0  0  0  0  0  0  0  0  0  0  0  0  # atno 17320 bound_to 7965
  146.1872  139.5094  142.9828 LP  0  0  0  0  0  0  0  0  0  0  0  0  # atno 17321 bound_to 7965
  140.0994  143.4802  152.2434 LP  0  0  0  0  0  0  0  0  0  0  0  0  # atno 17342 bound_to 10162
  139.5832  144.7520  151.3586 LP  0  0  0  0  0  0  0  0  0  0  0  0  # atno 17343 bound_to 10162
  156.3943  130.7643  151.2646 LP  0  0  0  0  0  0  0  0  0  0  0  0  # atno 17370 bound_to 10713
  157.7507  131.0258  150.3937 LP  0  0  0  0  0  0  0  0  0  0  0  0  # atno 17371 bound_to 10713
  141.1990  133.8022  157.0556 LP  0  0  0  0  0  0  0  0  0  0  0  0  # atno 17394 bound_to 11000
  140.0643  134.9738  157.1358 LP  0  0  0  0  0  0  0  0  0  0  0  0  # atno 17395 bound_to 11000

$$$$
