AV-unprocessed.smi:1007|AV-procd|sdf|4404|dock1
  -GOLD-   22720 2343D 1   1.00000     0.00000
 Structure written by MMmdl.
 57 59  0  0  0  0  0  0  0  0  3 V2000
  146.7921  129.7099  152.6808 C   0  0  0  0  0  0  0  0  0  0  0  0
  148.0404  130.3386  152.9139 O   0  0  0  0  0  0  0  0  0  0  0  0
  147.9609  131.3576  153.8966 C   0  0  0  0  0  0  0  0  0  0  0  0
  149.0345  132.4164  153.6027 C   0  0  0  0  0  0  0  0  0  0  0  0
  149.1004  133.4660  154.6505 N   0  3  0  0  0  0  0  0  0  0  0  0
  148.4015  134.7257  154.2798 C   0  0  0  0  0  0  0  0  0  0  0  0
  148.4738  135.7384  155.4406 C   0  0  0  0  0  0  0  0  0  0  0  0
  149.8435  136.0425  155.8634 N   0  0  0  0  0  0  0  0  0  0  0  0
  150.6200  136.8407  154.9072 C   0  0  0  0  0  0  0  0  0  0  0  0
  150.2473  138.3344  154.8371 C   0  0  2  0  0  0  0  0  0  0  0  0
  149.9226  138.6408  153.4960 O   0  0  0  0  0  0  0  0  0  0  0  0
  151.3956  139.2556  155.2966 C   0  0  0  0  0  0  0  0  0  0  0  0
  150.9114  140.5263  155.8498 N   0  0  0  0  0  0  0  0  0  0  0  0
  149.9783  141.3923  155.3697 C   0  0  0  0  0  0  0  0  0  0  0  0
  149.8786  142.4204  156.2577 N   0  3  0  0  0  0  0  0  0  0  0  0
  150.7611  142.2068  157.3192 C   0  0  0  0  0  0  0  0  0  0  0  0
  151.0191  142.9619  158.4572 C   0  0  0  0  0  0  0  0  0  0  0  0
  151.9861  142.4610  159.3582 C   0  0  0  0  0  0  0  0  0  0  0  0
  152.2884  143.2596  160.6148 C   0  0  0  0  0  0  0  0  0  0  0  0
  152.6615  141.2396  159.1006 C   0  0  0  0  0  0  0  0  0  0  0  0
  153.7006  140.7115  160.0750 C   0  0  0  0  0  0  0  0  0  0  0  0
  152.3854  140.4867  157.9369 C   0  0  0  0  0  0  0  0  0  0  0  0
  151.4281  140.9937  157.0621 C   0  0  0  0  0  0  0  0  0  0  0  0
  150.5060  134.7884  156.2206 C   0  0  0  0  0  0  0  0  0  0  0  0
  150.4935  133.7467  155.0829 C   0  0  0  0  0  0  0  0  0  0  0  0
  146.9073  128.9366  151.9215 H   0  0  0  0  0  0  0  0  0  0  0  0
  146.0507  130.4251  152.3224 H   0  0  0  0  0  0  0  0  0  0  0  0
  146.4131  129.2371  153.5879 H   0  0  0  0  0  0  0  0  0  0  0  0
  146.9753  131.8239  153.8558 H   0  0  0  0  0  0  0  0  0  0  0  0
  148.0733  130.9398  154.8972 H   0  0  0  0  0  0  0  0  0  0  0  0
  149.9983  131.9103  153.5303 H   0  0  0  0  0  0  0  0  0  0  0  0
  148.8574  132.8795  152.6309 H   0  0  0  0  0  0  0  0  0  0  0  0
  148.8368  135.1430  153.3711 H   0  0  0  0  0  0  0  0  0  0  0  0
  147.3547  134.5225  154.0581 H   0  0  0  0  0  0  0  0  0  0  0  0
  147.9414  136.6500  155.1741 H   0  0  0  0  0  0  0  0  0  0  0  0
  147.9284  135.3282  156.2918 H   0  0  0  0  0  0  0  0  0  0  0  0
  151.6768  136.7738  155.1705 H   0  0  0  0  0  0  0  0  0  0  0  0
  150.5409  136.4087  153.9099 H   0  0  0  0  0  0  0  0  0  0  0  0
  149.3529  138.5295  155.4278 H   0  0  0  0  0  0  0  0  0  0  0  0
  149.5956  137.8592  153.0767 H   0  0  0  0  0  0  0  0  0  0  0  0
  152.0163  138.7693  156.0499 H   0  0  0  0  0  0  0  0  0  0  0  0
  152.0545  139.4896  154.4592 H   0  0  0  0  0  0  0  0  0  0  0  0
  149.4146  141.2801  154.4547 H   0  0  0  0  0  0  0  0  0  0  0  0
  150.5016  143.8910  158.6466 H   0  0  0  0  0  0  0  0  0  0  0  0
  153.3357  143.5616  160.6340 H   0  0  0  0  0  0  0  0  0  0  0  0
  152.0823  142.6651  161.5051 H   0  0  0  0  0  0  0  0  0  0  0  0
  151.6801  144.1629  160.6700 H   0  0  0  0  0  0  0  0  0  0  0  0
  154.1357  139.7746  159.7256 H   0  0  0  0  0  0  0  0  0  0  0  0
  153.2514  140.5268  161.0510 H   0  0  0  0  0  0  0  0  0  0  0  0
  154.5121  141.4293  160.1967 H   0  0  0  0  0  0  0  0  0  0  0  0
  152.8981  139.5571  157.7390 H   0  0  0  0  0  0  0  0  0  0  0  0
  151.5330  134.9861  156.5305 H   0  0  0  0  0  0  0  0  0  0  0  0
  150.0109  134.3618  157.0943 H   0  0  0  0  0  0  0  0  0  0  0  0
  150.9562  132.8251  155.4376 H   0  0  0  0  0  0  0  0  0  0  0  0
  151.0862  134.0885  154.2334 H   0  0  0  0  0  0  0  0  0  0  0  0
  148.6268  133.0929  155.4614 H   0  0  0  0  0  0  0  0  0  0  0  0
  149.2509  143.2061  156.1462 H   0  0  0  0  0  0  0  0  0  0  0  0
  1  2  1  0  0  0  0
  1 26  1  0  0  0  0
  1 27  1  0  0  0  0
  1 28  1  0  0  0  0
  2  3  1  0  0  0  0
  3  4  1  0  0  0  0
  3 29  1  0  0  0  0
  3 30  1  0  0  0  0
  4  5  1  0  0  0  0
  4 31  1  0  0  0  0
  4 32  1  0  0  0  0
  5 25  1  0  0  0  0
  5  6  1  0  0  0  0
  5 56  1  0  0  0  0
  6  7  1  0  0  0  0
  6 33  1  0  0  0  0
  6 34  1  0  0  0  0
  7  8  1  0  0  0  0
  7 35  1  0  0  0  0
  7 36  1  0  0  0  0
  8  9  1  0  0  0  0
  8 24  1  0  0  0  0
  9 10  1  0  0  0  0
  9 37  1  0  0  0  0
  9 38  1  0  0  0  0
 10 11  1  0  0  0  0
 10 12  1  0  0  0  0
 10 39  1  0  0  0  0
 11 40  1  0  0  0  0
 12 13  1  0  0  0  0
 12 41  1  0  0  0  0
 12 42  1  0  0  0  0
 13 23  1  0  0  0  0
 13 14  1  0  0  0  0
 14 15  2  0  0  0  0
 14 43  1  0  0  0  0
 15 16  1  0  0  0  0
 15 57  1  0  0  0  0
 16 23  2  0  0  0  0
 16 17  1  0  0  0  0
 17 18  2  0  0  0  0
 17 44  1  0  0  0  0
 18 19  1  0  0  0  0
 18 20  1  0  0  0  0
 19 45  1  0  0  0  0
 19 46  1  0  0  0  0
 19 47  1  0  0  0  0
 20 21  1  0  0  0  0
 20 22  2  0  0  0  0
 21 48  1  0  0  0  0
 21 49  1  0  0  0  0
 21 50  1  0  0  0  0
 22 23  1  0  0  0  0
 22 51  1  0  0  0  0
 24 25  1  0  0  0  0
 24 52  1  0  0  0  0
 24 53  1  0  0  0  0
 25 54  1  0  0  0  0
 25 55  1  0  0  0  0
M  CHG  1   5   1
M  CHG  1  15   1
M  END
> <s_m_source_file>
AV-unprocessed.smi

> <i_m_source_file_index>
1007

> <i_lp_mmshare_version>
43012

> <i_f3d_flags>
0

> <s_epik_input>
W0NIM11PW0NIMl1bQ0gyXU4xW0NIMl1bQ0gyXU4oW0NIMl1bQ0gyXTEpW0NIMl1bQ0BIXShbT0hdKVtDSDJdbihbY0hdbjIpYyhjMjMpW2NIXWMoW0NIM10pYyhbY0hdMylbQ0gzXQ==

> <s_epik_cmdline>
J2VwaWtfcHl0aG9uJywgJy1waCcsICc3LjAnLCAnLXRuJywgJzgnLCAnLW1hJywgJzIwMCcsICctbWV0YWxfYmluZGluZycsICctaW1hZScsICc8aW5maWxlLm1hZT4nLCAnLW9tYWUnLCAnPG91dGZpbGUubWFlPic=

> <r_epik_Ionization_Penalty>
1.34507

> <r_epik_Ionization_Penalty_Charging>
1.29906

> <r_epik_Ionization_Penalty_Neutral>
0.0460038

> <r_epik_State_Penalty>
2.55679

> <r_epik_Charging_Adjusted_Penalty>
3.85586

> <i_epik_Tot_Q>
2

> <i_epik_Tot_abs_Q>
2

> <r_epik_Metal_State_Penalty>
6.56928

> <b_epik_Metal_Only>
0

> <s_lp_Force_Field>
OPLS_2005

> <r_lp_Energy>
40.0573

> <b_lp_Chiralities_Consistent>
1

> <s_lp_Variant>
AV-unprocessed.smi:1007-7

> <Gold.Version>
5.8.1

> <Gold.Id.Protein>
6NUR|6NUR_protein|mol2

> <Gold.PLP.Fitness>
50.7343

> <Gold.PLP.PLP>
-45.7565

> <Gold.PLP.part.hbond>
-3.0000

> <Gold.PLP.part.metal>
0.0000

> <Gold.PLP.part.buried>
-4.7960

> <Gold.PLP.part.nonpolar>
-38.2150

> <Gold.PLP.part.repulsive>
0.2643

> <Gold.PLP.ligand.clash>
0.0000

> <Gold.PLP.ligand.torsion>
2.1574

> <Gold.PLP.Chemscore.Hbond>
3.0000

> <Gold.PLP.Chemscore.CHOScore>
0.0000

> <Gold.PLP.Chemscore.Metal>
0.0000

> <Gold.Chemscore.Hbonds>
donor molecule, donor type, donor heavy atom, donor atom, acceptor molecule, acceptor atom, score
      L1  H    11    40       P1  7948  0.84
      L1  H    15    57       P1  8028  2.00

> <Gold.PLP.Chemscore.Internal.Correction>
0.2927

> <Gold.Rescore>
     Score         DG    S(hbond)    S(metal)    S(lipo)     H(rot)  DE(clash)    DE(int)     intcor
     16.67     -19.07       1.92        0.00     119.28       2.64       0.02       2.38       ----

> <Gold.Chemscore.Fitness>
16.6711

> <Gold.Chemscore.DG>
-19.0681

> <Gold.Chemscore.ZeroCoef>
-5.4800

> <Gold.Chemscore.Hbond>
1.9157

> <Gold.Chemscore.Metal>
0.0000

> <Gold.Chemscore.Lipo>
119.2849

> <Gold.Chemscore.Internal_Hbond>
0.0000

> <Gold.Chemscore.DEClash>
0.0174

> <Gold.Chemscore.DEInternal>
2.3796

> <Gold.Chemscore.Rot>
2.6432

> <Gold.Chemscore.Internal.Correction>
   9.000000E+99

> <Gold.Chemscore.Hbonds>
donor molecule, donor type, donor heavy atom, donor atom, acceptor molecule, acceptor atom, score
      L1  H    11    40       P1  7948  0.65
      L1  H    15    57       P1  8028  0.96

> <Gold.Chemscore.Hbond.Weighted>
-6.3983

> <Gold.Chemscore.Metal.Weighted>
-0.0000

> <Gold.Chemscore.Lipo.Weighted>
-13.9563

> <Gold.Chemscore.Internal_Hbond.Weighted>
0.0000

> <Gold.Chemscore.DEClash.Weighted>
0.0174

> <Gold.Chemscore.DEInternal.Weighted>
2.3796

> <Gold.Chemscore.Rot.Weighted>
6.7665

> <Gold.Chemscore.Internal.Correction.Weighted>
   9.000000E+99

> <Gold.Protein.RotatedTorsions>
[ 6907 6896 6895 6894 ] final  -89.36 input  -60.11 | X-H torsion
[ 7974 7965 7964 7962 ] final   68.54 input  175.53 | X-H torsion
[ 8008 7997 7996 7995 ] final  171.89 input   59.86 | X-H torsion
[ 10167 10162 10161 10158 ] final  150.88 input  -65.29 | X-H torsion
[ 10718 10713 10712 10709 ] final  -42.31 input   66.30 | X-H torsion
[ 10763 10752 10751 10750 ] final  -58.45 input  -60.55 | X-H torsion
[ 11005 11000 10999 10996 ] final -147.96 input  -57.11 | X-H torsion

> <Gold.Protein.ActiveResidues>
 VAL166  LYS551  ARG553  GLY616  TRP617  ASP618  TYR619  PRO620  LYS621  CYS622 
 ASP623  PHE694  ASN695  SER759  ASP760  ASP761  ALA762  ILE779  LEU786  VAL792 
 PHE793  MET794  SER795  GLU796  ALA797  LYS798  CYS799  TRP800  GLU811  SER814 

> <Gold.Protein.RotatedAtoms>
  150.6873  134.2600  159.4544 H   0  0  0  0  0  0  0  0  0  0  0  0  # atno 6907 bound_to 6896
  152.0530  134.9639  160.0584 H   0  0  0  0  0  0  0  0  0  0  0  0  # atno 6908 bound_to 6896
  152.1096  133.4258  159.4661 H   0  0  0  0  0  0  0  0  0  0  0  0  # atno 6909 bound_to 6896
  145.8013  139.2984  143.1153 H   0  0  0  0  0  0  0  0  0  0  0  0  # atno 7974 bound_to 7965
  156.1228  140.1500  156.9180 H   0  0  0  0  0  0  0  0  0  0  0  0  # atno 8008 bound_to 7997
  154.4848  140.0868  156.7503 H   0  0  0  0  0  0  0  0  0  0  0  0  # atno 8009 bound_to 7997
  155.4398  140.3430  155.4291 H   0  0  0  0  0  0  0  0  0  0  0  0  # atno 8010 bound_to 7997
  139.4846  144.5486  151.7440 H   0  0  0  0  0  0  0  0  0  0  0  0  # atno 10167 bound_to 10162
  156.2609  130.4197  149.8543 H   0  0  0  0  0  0  0  0  0  0  0  0  # atno 10718 bound_to 10713
  154.2383  135.6348  153.5198 H   0  0  0  0  0  0  0  0  0  0  0  0  # atno 10763 bound_to 10752
  152.9935  135.5536  154.5938 H   0  0  0  0  0  0  0  0  0  0  0  0  # atno 10764 bound_to 10752
  154.5437  135.2896  155.1047 H   0  0  0  0  0  0  0  0  0  0  0  0  # atno 10765 bound_to 10752
  140.7662  134.3241  157.5088 H   0  0  0  0  0  0  0  0  0  0  0  0  # atno 11005 bound_to 11000
  145.9875  140.8631  143.0083 LP  0  0  0  0  0  0  0  0  0  0  0  0  # atno 17320 bound_to 7965
  144.6768  140.2168  143.7371 LP  0  0  0  0  0  0  0  0  0  0  0  0  # atno 17321 bound_to 7965
  140.5037  144.1130  150.5977 LP  0  0  0  0  0  0  0  0  0  0  0  0  # atno 17342 bound_to 10162
  140.4032  143.2693  151.9922 LP  0  0  0  0  0  0  0  0  0  0  0  0  # atno 17343 bound_to 10162
  156.6059  130.8566  151.3443 LP  0  0  0  0  0  0  0  0  0  0  0  0  # atno 17370 bound_to 10713
  157.7250  130.9610  150.1597 LP  0  0  0  0  0  0  0  0  0  0  0  0  # atno 17371 bound_to 10713
  139.8763  134.9233  156.3321 LP  0  0  0  0  0  0  0  0  0  0  0  0  # atno 17394 bound_to 11000
  140.9616  133.7385  156.0410 LP  0  0  0  0  0  0  0  0  0  0  0  0  # atno 17395 bound_to 11000

$$$$
