AV-unprocessed.smi:2999|AV-procd|sdf|11424|dock10
  -GOLD-   2272016343D 1   1.00000     0.00000
 Structure written by MMmdl.
 36 38  0  0  0  0  0  0  0  0  2 V2000
  147.0253  137.2036  158.8027 O   0  0  0  0  0  0  0  0  0  0  0  0
  147.9721  137.4742  159.5452 C   0  0  0  0  0  0  0  0  0  0  0  0
  149.0831  138.0213  159.0347 N   0  0  0  0  0  0  0  0  0  0  0  0
  149.2878  138.3413  157.6279 C   0  0  0  0  0  0  0  0  0  0  0  0
  149.6082  139.8316  157.4460 C   0  0  1  0  0  0  0  0  0  0  0  0
  150.8601  140.2491  158.2428 C   0  0  0  0  0  0  0  0  0  0  0  0
  151.2028  141.6493  158.0255 N   0  0  0  0  0  0  0  0  0  0  0  0
  152.3964  142.0161  158.7731 C   0  0  0  0  0  0  0  0  0  0  0  0
  152.2555  142.7694  160.0706 C   0  0  0  0  0  0  0  0  0  0  0  0
  152.8119  143.4630  158.8405 C   0  0  0  0  0  0  0  0  0  0  0  0
  151.3910  141.8687  156.5969 C   0  0  0  0  0  0  0  0  0  0  0  0
  150.1507  141.4508  155.7891 C   0  0  0  0  0  0  0  0  0  0  0  0
  149.8449  140.0870  156.0623 O   0  0  0  0  0  0  0  0  0  0  0  0
  148.0258  137.2728  160.8817 N   0  5  0  0  0  0  0  0  0  0  0  0
  147.3706  136.2366  161.4302 C   0  0  0  0  0  0  0  0  0  0  0  0
  146.9920  135.1598  160.7317 N   0  0  0  0  0  0  0  0  0  0  0  0
  146.3229  134.2062  161.5011 C   0  0  0  0  0  0  0  0  0  0  0  0
  146.1788  134.5702  162.8138 C   0  0  0  0  0  0  0  0  0  0  0  0
  146.8852  136.1305  163.1249 S   0  0  0  0  0  0  0  0  0  0  0  0
  149.8379  138.2342  159.6705 H   0  0  0  0  0  0  0  0  0  0  0  0
  150.1129  137.7395  157.2433 H   0  0  0  0  0  0  0  0  0  0  0  0
  148.3976  138.0703  157.0585 H   0  0  0  0  0  0  0  0  0  0  0  0
  148.7543  140.4246  157.7797 H   0  0  0  0  0  0  0  0  0  0  0  0
  150.6863  140.0762  159.3055 H   0  0  0  0  0  0  0  0  0  0  0  0
  151.7003  139.6133  157.9579 H   0  0  0  0  0  0  0  0  0  0  0  0
  153.1778  141.2608  158.7039 H   0  0  0  0  0  0  0  0  0  0  0  0
  151.2535  143.0465  160.3925 H   0  0  0  0  0  0  0  0  0  0  0  0
  152.9529  142.5263  160.8696 H   0  0  0  0  0  0  0  0  0  0  0  0
  153.8779  143.6807  158.8249 H   0  0  0  0  0  0  0  0  0  0  0  0
  152.1771  144.1990  158.3503 H   0  0  0  0  0  0  0  0  0  0  0  0
  151.6091  142.9208  156.4102 H   0  0  0  0  0  0  0  0  0  0  0  0
  152.2558  141.3040  156.2447 H   0  0  0  0  0  0  0  0  0  0  0  0
  149.2951  142.0799  156.0390 H   0  0  0  0  0  0  0  0  0  0  0  0
  150.3350  141.5686  154.7212 H   0  0  0  0  0  0  0  0  0  0  0  0
  145.9820  133.2959  161.0306 H   0  0  0  0  0  0  0  0  0  0  0  0
  145.7035  134.0204  163.6121 H   0  0  0  0  0  0  0  0  0  0  0  0
  1  2  2  0  0  0  0
  2  3  1  0  0  0  0
  2 14  1  0  0  0  0
  3  4  1  0  0  0  0
  3 20  1  0  0  0  0
  4  5  1  0  0  0  0
  4 21  1  0  0  0  0
  4 22  1  0  0  0  0
  5 13  1  0  0  0  0
  5  6  1  0  0  0  0
  5 23  1  0  0  0  0
  6  7  1  0  0  0  0
  6 24  1  0  0  0  0
  6 25  1  0  0  0  0
  7  8  1  0  0  0  0
  7 11  1  0  0  0  0
  8 10  1  0  0  0  0
  8  9  1  0  0  0  0
  8 26  1  0  0  0  0
  9 10  1  0  0  0  0
  9 27  1  0  0  0  0
  9 28  1  0  0  0  0
 10 29  1  0  0  0  0
 10 30  1  0  0  0  0
 11 12  1  0  0  0  0
 11 31  1  0  0  0  0
 11 32  1  0  0  0  0
 12 13  1  0  0  0  0
 12 33  1  0  0  0  0
 12 34  1  0  0  0  0
 14 15  1  0  0  0  0
 15 19  1  0  0  0  0
 15 16  2  0  0  0  0
 16 17  1  0  0  0  0
 17 18  2  0  0  0  0
 17 35  1  0  0  0  0
 18 19  1  0  0  0  0
 18 36  1  0  0  0  0
M  CHG  1  14  -1
M  END
> <s_m_source_file>
AV-unprocessed.smi

> <i_m_source_file_index>
2999

> <i_lp_mmshare_version>
43012

> <i_f3d_flags>
0

> <s_epik_input>
czFbY0hdW2NIXW5jMVtOSF1DKD1PKVtOSF1bQ0gyXVtDQEBIXTJbQ0gyXU4oW0NIMl1bQ0gyXU8yKVtDSF0zW0NIMl1bQ0gyXTM=

> <s_epik_cmdline>
J2VwaWtfcHl0aG9uJywgJy1waCcsICc3LjAnLCAnLXRuJywgJzgnLCAnLW1hJywgJzIwMCcsICctbWV0YWxfYmluZGluZycsICctaW1hZScsICc8aW5maWxlLm1hZT4nLCAnLW9tYWUnLCAnPG91dGZpbGUubWFlPic=

> <r_lp_tautomer_probability>
0.999

> <r_epik_Ionization_Penalty>
6.67591

> <r_epik_Ionization_Penalty_Charging>
5.6519

> <r_epik_Ionization_Penalty_Neutral>
1.024

> <r_epik_State_Penalty>
5.68985

> <r_epik_Charging_Adjusted_Penalty>
11.3418

> <i_epik_Tot_Q>
-1

> <i_epik_Tot_abs_Q>
1

> <r_epik_Metal_State_Penalty>
1.67789

> <b_epik_Metal_Only>
1

> <s_lp_Force_Field>
OPLS_2005

> <r_lp_Energy>
26.9989

> <b_lp_Chiralities_Consistent>
1

> <s_lp_Variant>
AV-unprocessed.smi:2999-8

> <Gold.Version>
5.8.1

> <Gold.Id.Protein>
6NUR|6NUR_protein|mol2

> <Gold.PLP.Fitness>
39.2321

> <Gold.PLP.PLP>
-34.2082

> <Gold.PLP.part.hbond>
-1.1861

> <Gold.PLP.part.metal>
0.0000

> <Gold.PLP.part.buried>
-5.8110

> <Gold.PLP.part.nonpolar>
-28.3947

> <Gold.PLP.part.repulsive>
0.2352

> <Gold.PLP.ligand.clash>
0.0000

> <Gold.PLP.ligand.torsion>
0.9272

> <Gold.PLP.Chemscore.Hbond>
1.9200

> <Gold.PLP.Chemscore.CHOScore>
0.0000

> <Gold.PLP.Chemscore.Metal>
0.0000

> <Gold.Chemscore.Hbonds>
donor molecule, donor type, donor heavy atom, donor atom, acceptor molecule, acceptor atom, score
      P1  H  6931  6943       L1    14  1.73
      P1  H  6934  6947       L1    14  0.22

> <Gold.PLP.Chemscore.Internal.Correction>
1.1182

> <Gold.Rescore>
     Score         DG    S(hbond)    S(metal)    S(lipo)     H(rot)  DE(clash)    DE(int)     intcor
     11.84     -14.15       0.85        0.00      82.92       1.52       0.00       2.31       ----

> <Gold.Chemscore.Fitness>
11.8440

> <Gold.Chemscore.DG>
-14.1498

> <Gold.Chemscore.ZeroCoef>
-5.4800

> <Gold.Chemscore.Hbond>
0.8536

> <Gold.Chemscore.Metal>
0.0000

> <Gold.Chemscore.Lipo>
82.9193

> <Gold.Chemscore.Internal_Hbond>
0.0000

> <Gold.Chemscore.DEClash>
0.0000

> <Gold.Chemscore.DEInternal>
2.3058

> <Gold.Chemscore.Rot>
1.5167

> <Gold.Chemscore.Internal.Correction>
   9.000000E+99

> <Gold.Chemscore.Hbonds>
donor molecule, donor type, donor heavy atom, donor atom, acceptor molecule, acceptor atom, score
      P1  H  6931  6943       L1    14  0.81

> <Gold.Chemscore.Hbond.Weighted>
-2.8509

> <Gold.Chemscore.Metal.Weighted>
-0.0000

> <Gold.Chemscore.Lipo.Weighted>
-9.7016

> <Gold.Chemscore.Internal_Hbond.Weighted>
0.0000

> <Gold.Chemscore.DEClash.Weighted>
0.0000

> <Gold.Chemscore.DEInternal.Weighted>
2.3058

> <Gold.Chemscore.Rot.Weighted>
3.8827

> <Gold.Chemscore.Internal.Correction.Weighted>
   9.000000E+99

> <Gold.Protein.RotatedTorsions>
[ 6907 6896 6895 6894 ] final  -14.66 input  -60.11 | X-H torsion
[ 7974 7965 7964 7962 ] final -113.75 input  175.53 | X-H torsion
[ 8008 7997 7996 7995 ] final   64.68 input   59.86 | X-H torsion
[ 10167 10162 10161 10158 ] final  179.91 input  -65.29 | X-H torsion
[ 10718 10713 10712 10709 ] final   85.70 input   66.30 | X-H torsion
[ 10763 10752 10751 10750 ] final   54.70 input  -60.55 | X-H torsion
[ 11005 11000 10999 10996 ] final   69.39 input  -57.11 | X-H torsion

> <Gold.Protein.ActiveResidues>
 VAL166  LYS551  ARG553  GLY616  TRP617  ASP618  TYR619  PRO620  LYS621  CYS622 
 ASP623  PHE694  ASN695  SER759  ASP760  ASP761  ALA762  ILE779  LEU786  VAL792 
 PHE793  MET794  SER795  GLU796  ALA797  LYS798  CYS799  TRP800  GLU811  SER814 

> <Gold.Protein.RotatedAtoms>
  151.3360  135.0853  159.9354 H   0  0  0  0  0  0  0  0  0  0  0  0  # atno 6907 bound_to 6896
  152.5223  133.9495  159.7675 H   0  0  0  0  0  0  0  0  0  0  0  0  # atno 6908 bound_to 6896
  150.9842  133.6161  159.2747 H   0  0  0  0  0  0  0  0  0  0  0  0  # atno 6909 bound_to 6896
  145.1283  140.8709  143.3773 H   0  0  0  0  0  0  0  0  0  0  0  0  # atno 7974 bound_to 7965
  155.6498  140.3497  155.4744 H   0  0  0  0  0  0  0  0  0  0  0  0  # atno 8008 bound_to 7997
  155.9857  140.1183  157.0708 H   0  0  0  0  0  0  0  0  0  0  0  0  # atno 8009 bound_to 7997
  154.4204  140.1129  156.5483 H   0  0  0  0  0  0  0  0  0  0  0  0  # atno 8010 bound_to 7997
  139.5357  144.2504  152.0789 H   0  0  0  0  0  0  0  0  0  0  0  0  # atno 10167 bound_to 10162
  157.6918  131.0185  150.2862 H   0  0  0  0  0  0  0  0  0  0  0  0  # atno 10718 bound_to 10713
  152.9807  135.5736  154.4946 H   0  0  0  0  0  0  0  0  0  0  0  0  # atno 10763 bound_to 10752
  154.4475  135.2777  155.1806 H   0  0  0  0  0  0  0  0  0  0  0  0  # atno 10764 bound_to 10752
  154.3448  135.6222  153.5667 H   0  0  0  0  0  0  0  0  0  0  0  0  # atno 10765 bound_to 10752
  139.9656  134.6986  156.0552 H   0  0  0  0  0  0  0  0  0  0  0  0  # atno 11005 bound_to 11000
  145.0664  139.3065  143.5854 LP  0  0  0  0  0  0  0  0  0  0  0  0  # atno 17320 bound_to 7965
  146.3516  140.0123  142.8666 LP  0  0  0  0  0  0  0  0  0  0  0  0  # atno 17321 bound_to 7965
  140.1974  144.4691  150.6448 LP  0  0  0  0  0  0  0  0  0  0  0  0  # atno 17342 bound_to 10162
  140.6562  143.2238  151.5963 LP  0  0  0  0  0  0  0  0  0  0  0  0  # atno 17343 bound_to 10162
  156.3401  130.3814  149.7416 LP  0  0  0  0  0  0  0  0  0  0  0  0  # atno 17370 bound_to 10713
  156.4928  130.8093  151.3101 LP  0  0  0  0  0  0  0  0  0  0  0  0  # atno 17371 bound_to 10713
  141.1336  133.6580  156.3531 LP  0  0  0  0  0  0  0  0  0  0  0  0  # atno 17394 bound_to 11000
  140.5404  134.6126  157.5378 LP  0  0  0  0  0  0  0  0  0  0  0  0  # atno 17395 bound_to 11000

$$$$
