AV-unprocessed.smi:2001|AV-procd|sdf|8102|dock3
  -GOLD-   2272010323D 1   1.00000     0.00000
 Structure written by MMmdl.
 50 51  0  0  0  0  0  0  0  0  1 V2000
  149.6406  133.4199  153.5242 C   0  0  0  0  0  0  0  0  0  0  0  0
  149.3528  134.6209  154.2187 O   0  0  0  0  0  0  0  0  0  0  0  0
  147.9902  134.7168  154.5966 C   0  0  0  0  0  0  0  0  0  0  0  0
  147.7986  135.9871  155.4387 C   0  0  0  0  0  0  0  0  0  0  0  0
  147.5790  137.1661  154.5949 N   0  0  0  0  0  0  0  0  0  0  0  0
  148.4109  138.2337  154.8894 N   0  0  0  0  0  0  0  0  0  0  0  0
  148.3136  139.3375  154.2209 C   0  0  0  0  0  0  0  0  0  0  0  0
  149.1826  140.5114  154.5115 C   0  0  0  0  0  0  0  0  0  0  0  0
  149.1651  141.5232  153.8085 O   0  0  0  0  0  0  0  0  0  0  0  0
  149.9761  140.3881  155.5907 N   0  0  0  0  0  0  0  0  0  0  0  0
  150.8909  141.4110  156.0816 C   0  0  0  0  0  0  0  0  0  0  0  0
  151.7848  140.8578  157.2064 C   0  0  0  0  0  0  0  0  0  0  0  0
  151.7868  141.6435  158.4390 N   0  0  0  0  0  0  0  0  0  0  0  0
  151.9473  143.0748  158.1953 C   0  0  0  0  0  0  0  0  0  0  0  0
  151.9684  143.8834  159.5068 C   0  0  2  0  0  0  0  0  0  0  0  0
  152.2168  145.3759  159.2653 C   0  0  0  0  0  0  0  0  0  0  0  0
  153.0087  143.3863  160.3439 O   0  0  0  0  0  0  0  0  0  0  0  0
  152.8708  142.0019  160.6510 C   0  0  2  0  0  0  0  0  0  0  0  0
  154.0353  141.5924  161.5588 C   0  0  0  0  0  0  0  0  0  0  0  0
  152.8447  141.1959  159.3381 C   0  0  0  0  0  0  0  0  0  0  0  0
  147.3397  139.4758  153.1510 C   0  0  0  0  0  0  0  0  0  0  0  0
  146.5413  138.4228  152.8698 C   0  0  0  0  0  0  0  0  0  0  0  0
  146.6312  137.1632  153.6098 C   0  0  0  0  0  0  0  0  0  0  0  0
  145.9208  136.1880  153.3673 O   0  0  0  0  0  0  0  0  0  0  0  0
  150.6989  133.3916  153.2648 H   0  0  0  0  0  0  0  0  0  0  0  0
  149.0659  133.3518  152.5996 H   0  0  0  0  0  0  0  0  0  0  0  0
  149.4215  132.5458  154.1388 H   0  0  0  0  0  0  0  0  0  0  0  0
  147.3588  134.7575  153.7075 H   0  0  0  0  0  0  0  0  0  0  0  0
  147.7004  133.8332  155.1677 H   0  0  0  0  0  0  0  0  0  0  0  0
  146.9671  135.8544  156.1333 H   0  0  0  0  0  0  0  0  0  0  0  0
  148.6784  136.1400  156.0667 H   0  0  0  0  0  0  0  0  0  0  0  0
  149.9326  139.5251  156.1137 H   0  0  0  0  0  0  0  0  0  0  0  0
  151.4923  141.7400  155.2350 H   0  0  0  0  0  0  0  0  0  0  0  0
  150.3346  142.2835  156.4282 H   0  0  0  0  0  0  0  0  0  0  0  0
  151.4402  139.8493  157.4399 H   0  0  0  0  0  0  0  0  0  0  0  0
  152.8062  140.7465  156.8386 H   0  0  0  0  0  0  0  0  0  0  0  0
  152.8705  143.2535  157.6416 H   0  0  0  0  0  0  0  0  0  0  0  0
  151.1327  143.4447  157.5735 H   0  0  0  0  0  0  0  0  0  0  0  0
  151.0135  143.7665  160.0222 H   0  0  0  0  0  0  0  0  0  0  0  0
  151.4419  145.8054  158.6299 H   0  0  0  0  0  0  0  0  0  0  0  0
  153.1789  145.5423  158.7801 H   0  0  0  0  0  0  0  0  0  0  0  0
  152.2182  145.9272  160.2059 H   0  0  0  0  0  0  0  0  0  0  0  0
  151.9344  141.8508  161.1911 H   0  0  0  0  0  0  0  0  0  0  0  0
  153.9664  140.5398  161.8344 H   0  0  0  0  0  0  0  0  0  0  0  0
  154.0363  142.1771  162.4790 H   0  0  0  0  0  0  0  0  0  0  0  0
  154.9946  141.7476  161.0642 H   0  0  0  0  0  0  0  0  0  0  0  0
  152.7083  140.1385  159.5689 H   0  0  0  0  0  0  0  0  0  0  0  0
  153.8119  141.2830  158.8401 H   0  0  0  0  0  0  0  0  0  0  0  0
  147.2515  140.3936  152.5879 H   0  0  0  0  0  0  0  0  0  0  0  0
  145.8145  138.5110  152.0756 H   0  0  0  0  0  0  0  0  0  0  0  0
  1  2  1  0  0  0  0
  1 25  1  0  0  0  0
  1 26  1  0  0  0  0
  1 27  1  0  0  0  0
  2  3  1  0  0  0  0
  3  4  1  0  0  0  0
  3 28  1  0  0  0  0
  3 29  1  0  0  0  0
  4  5  1  0  0  0  0
  4 30  1  0  0  0  0
  4 31  1  0  0  0  0
  5 23  1  0  0  0  0
  5  6  1  0  0  0  0
  6  7  2  0  0  0  0
  7  8  1  0  0  0  0
  7 21  1  0  0  0  0
  8  9  2  0  0  0  0
  8 10  1  0  0  0  0
 10 11  1  0  0  0  0
 10 32  1  0  0  0  0
 11 12  1  0  0  0  0
 11 33  1  0  0  0  0
 11 34  1  0  0  0  0
 12 13  1  0  0  0  0
 12 35  1  0  0  0  0
 12 36  1  0  0  0  0
 13 20  1  0  0  0  0
 13 14  1  0  0  0  0
 14 15  1  0  0  0  0
 14 37  1  0  0  0  0
 14 38  1  0  0  0  0
 15 16  1  0  0  0  0
 15 17  1  0  0  0  0
 15 39  1  0  0  0  0
 16 40  1  0  0  0  0
 16 41  1  0  0  0  0
 16 42  1  0  0  0  0
 17 18  1  0  0  0  0
 18 19  1  0  0  0  0
 18 20  1  0  0  0  0
 18 43  1  0  0  0  0
 19 44  1  0  0  0  0
 19 45  1  0  0  0  0
 19 46  1  0  0  0  0
 20 47  1  0  0  0  0
 20 48  1  0  0  0  0
 21 22  2  0  0  0  0
 21 49  1  0  0  0  0
 22 23  1  0  0  0  0
 22 50  1  0  0  0  0
 23 24  2  0  0  0  0
M  END
> <s_m_source_file>
AV-unprocessed.smi

> <i_m_source_file_index>
2001

> <i_lp_mmshare_version>
43012

> <i_f3d_flags>
0

> <s_epik_input>
W0NIM11PW0NIMl1bQ0gyXW4xbmMoW2NIXVtjSF1jMT1PKUMoPU8pW05IXVtDSDJdW0NIMl1OMltDSDJdW0NAQEhdKFtDSDNdKU9bQ0BASF0oW0NIM10pW0NIMl0y

> <s_epik_cmdline>
J2VwaWtfcHl0aG9uJywgJy1waCcsICc3LjAnLCAnLXRuJywgJzgnLCAnLW1hJywgJzIwMCcsICctbWV0YWxfYmluZGluZycsICctaW1hZScsICc8aW5maWxlLm1hZT4nLCAnLW9tYWUnLCAnPG91dGZpbGUubWFlPic=

> <r_lp_tautomer_probability>
1

> <r_epik_Ionization_Penalty>
0.206669

> <r_epik_Ionization_Penalty_Charging>
5.55992e-09

> <r_epik_Ionization_Penalty_Neutral>
0.206669

> <r_epik_State_Penalty>
0.196651

> <r_epik_Charging_Adjusted_Penalty>
0.196651

> <i_epik_Tot_Q>
0

> <i_epik_Tot_abs_Q>
0

> <r_epik_Metal_State_Penalty>
0.198372

> <b_epik_Metal_Only>
0

> <s_lp_Force_Field>
OPLS_2005

> <r_lp_Energy>
38.6275

> <b_lp_Chiralities_Consistent>
1

> <s_lp_Variant>
AV-unprocessed.smi:2001-1

> <Gold.Version>
5.8.1

> <Gold.Id.Protein>
6NUR|6NUR_protein|mol2

> <Gold.PLP.Fitness>
41.9754

> <Gold.PLP.PLP>
-41.0363

> <Gold.PLP.part.hbond>
-2.0000

> <Gold.PLP.part.metal>
0.0000

> <Gold.PLP.part.buried>
-5.5112

> <Gold.PLP.part.nonpolar>
-35.5832

> <Gold.PLP.part.repulsive>
1.6088

> <Gold.PLP.ligand.clash>
0.0000

> <Gold.PLP.ligand.torsion>
0.7043

> <Gold.PLP.Chemscore.Hbond>
0.7680

> <Gold.PLP.Chemscore.CHOScore>
0.0000

> <Gold.PLP.Chemscore.Metal>
0.0000

> <Gold.Chemscore.Hbonds>
donor molecule, donor type, donor heavy atom, donor atom, acceptor molecule, acceptor atom, score
      P1  H  8011  8017       L1     9  0.74

> <Gold.PLP.Chemscore.Internal.Correction>
0.0437

> <Gold.Rescore>
     Score         DG    S(hbond)    S(metal)    S(lipo)     H(rot)  DE(clash)    DE(int)     intcor
     13.08     -15.75       0.81        0.00     108.38       2.00       0.55       2.13       ----

> <Gold.Chemscore.Fitness>
13.0783

> <Gold.Chemscore.DG>
-15.7529

> <Gold.Chemscore.ZeroCoef>
-5.4800

> <Gold.Chemscore.Hbond>
0.8137

> <Gold.Chemscore.Metal>
0.0000

> <Gold.Chemscore.Lipo>
108.3794

> <Gold.Chemscore.Internal_Hbond>
0.0000

> <Gold.Chemscore.DEClash>
0.5464

> <Gold.Chemscore.DEInternal>
2.1281

> <Gold.Chemscore.Rot>
2.0020

> <Gold.Chemscore.Internal.Correction>
   9.000000E+99

> <Gold.Chemscore.Hbonds>
donor molecule, donor type, donor heavy atom, donor atom, acceptor molecule, acceptor atom, score
      P1  H  8011  8017       L1     9  0.74

> <Gold.Chemscore.Hbond.Weighted>
-2.7176

> <Gold.Chemscore.Metal.Weighted>
-0.0000

> <Gold.Chemscore.Lipo.Weighted>
-12.6804

> <Gold.Chemscore.Internal_Hbond.Weighted>
0.0000

> <Gold.Chemscore.DEClash.Weighted>
0.5464

> <Gold.Chemscore.DEInternal.Weighted>
2.1281

> <Gold.Chemscore.Rot.Weighted>
5.1252

> <Gold.Chemscore.Internal.Correction.Weighted>
   9.000000E+99

> <Gold.Protein.RotatedTorsions>
[ 6907 6896 6895 6894 ] final  -13.03 input  -60.11 | X-H torsion
[ 7974 7965 7964 7962 ] final   -2.33 input  175.53 | X-H torsion
[ 8008 7997 7996 7995 ] final  118.82 input   59.86 | X-H torsion
[ 10167 10162 10161 10158 ] final  -34.54 input  -65.29 | X-H torsion
[ 10718 10713 10712 10709 ] final  116.75 input   66.30 | X-H torsion
[ 10763 10752 10751 10750 ] final  -94.50 input  -60.55 | X-H torsion
[ 11005 11000 10999 10996 ] final  116.92 input  -57.11 | X-H torsion

> <Gold.Protein.ActiveResidues>
 VAL166  LYS551  ARG553  GLY616  TRP617  ASP618  TYR619  PRO620  LYS621  CYS622 
 ASP623  PHE694  ASN695  SER759  ASP760  ASP761  ALA762  ILE779  LEU786  VAL792 
 PHE793  MET794  SER795  GLU796  ALA797  LYS798  CYS799  TRP800  GLU811  SER814 

> <Gold.Protein.RotatedAtoms>
  151.3613  135.0904  159.9435 H   0  0  0  0  0  0  0  0  0  0  0  0  # atno 6907 bound_to 6896
  152.5161  133.9255  159.7566 H   0  0  0  0  0  0  0  0  0  0  0  0  # atno 6908 bound_to 6896
  150.9650  133.6350  159.2777 H   0  0  0  0  0  0  0  0  0  0  0  0  # atno 6909 bound_to 6896
  146.2406  140.1555  142.8333 H   0  0  0  0  0  0  0  0  0  0  0  0  # atno 7974 bound_to 7965
  156.2565  140.2866  156.0894 H   0  0  0  0  0  0  0  0  0  0  0  0  # atno 8008 bound_to 7997
  155.1479  140.0397  157.2831 H   0  0  0  0  0  0  0  0  0  0  0  0  # atno 8009 bound_to 7997
  154.6482  140.2538  155.7250 H   0  0  0  0  0  0  0  0  0  0  0  0  # atno 8010 bound_to 7997
  140.7183  143.3541  151.2096 H   0  0  0  0  0  0  0  0  0  0  0  0  # atno 10167 bound_to 10162
  157.6141  131.1029  150.7517 H   0  0  0  0  0  0  0  0  0  0  0  0  # atno 10718 bound_to 10713
  154.7060  135.5155  153.8596 H   0  0  0  0  0  0  0  0  0  0  0  0  # atno 10763 bound_to 10752
  153.0742  135.6611  154.0191 H   0  0  0  0  0  0  0  0  0  0  0  0  # atno 10764 bound_to 10752
  154.0041  135.3008  155.3379 H   0  0  0  0  0  0  0  0  0  0  0  0  # atno 10765 bound_to 10752
  139.9057  134.9604  156.7272 H   0  0  0  0  0  0  0  0  0  0  0  0  # atno 11005 bound_to 11000
  145.0133  140.8732  143.5211 LP  0  0  0  0  0  0  0  0  0  0  0  0  # atno 17320 bound_to 7965
  145.1591  139.2469  143.5401 LP  0  0  0  0  0  0  0  0  0  0  0  0  # atno 17321 bound_to 7965
  139.7078  143.9426  152.2934 LP  0  0  0  0  0  0  0  0  0  0  0  0  # atno 17342 bound_to 10162
  139.9141  144.6839  150.8531 LP  0  0  0  0  0  0  0  0  0  0  0  0  # atno 17343 bound_to 10162
  156.7888  130.4883  149.5388 LP  0  0  0  0  0  0  0  0  0  0  0  0  # atno 17370 bound_to 10713
  156.1255  130.6141  151.0257 LP  0  0  0  0  0  0  0  0  0  0  0  0  # atno 17371 bound_to 10713
  140.6954  133.9353  155.7991 LP  0  0  0  0  0  0  0  0  0  0  0  0  # atno 17394 bound_to 11000
  141.0411  134.0620  157.3901 LP  0  0  0  0  0  0  0  0  0  0  0  0  # atno 17395 bound_to 11000

$$$$
