AV-unprocessed.smi:3285|AV-procd|sdf|12585|dock2
  -GOLD-   2272018503D 1   1.00000     0.00000
 Structure written by MMmdl.
 45 46  0  0  0  0  0  0  0  0  2 V2000
  147.6034  141.4992  154.4267 C   0  0  0  0  0  0  0  0  0  0  0  0
  148.6784  140.4850  154.6941 C   0  0  0  0  0  0  0  0  0  0  0  0
  148.5342  139.2471  154.2527 N   0  0  0  0  0  0  0  0  0  0  0  0
  149.6818  138.5593  154.6587 O   0  0  0  0  0  0  0  0  0  0  0  0
  150.4804  139.4200  155.3399 C   0  0  0  0  0  0  0  0  0  0  0  0
  151.7647  138.8716  155.8629 C   0  0  0  0  0  0  0  0  0  0  0  0
  149.9035  140.6587  155.4002 C   0  0  0  0  0  0  0  0  0  0  0  0
  150.4242  141.9098  156.0541 C   0  0  0  0  0  0  0  0  0  0  0  0
  150.0386  141.9694  157.5376 C   0  0  0  0  0  0  0  0  0  0  0  0
  150.0659  143.3605  158.0349 N   0  3  0  0  0  0  0  0  0  0  0  0
  151.3921  144.0218  158.0122 C   0  0  1  0  0  0  0  0  0  0  0  0
  151.3962  145.2479  158.9404 C   0  0  0  0  0  0  0  0  0  0  0  0
  151.3569  144.8478  160.4239 C   0  0  0  0  0  0  0  0  0  0  0  0
  152.5081  143.8940  160.8024 C   0  0  1  0  0  0  0  0  0  0  0  0
  152.4211  143.5390  162.2974 C   0  0  0  0  0  0  0  0  0  0  0  0
  152.5097  142.6447  159.8819 C   0  0  2  0  0  0  0  0  0  0  0  0
  153.6774  141.6859  160.1754 C   0  0  0  0  0  0  0  0  0  0  0  0
  152.5401  143.0642  158.3957 C   0  0  0  0  0  0  0  0  0  0  0  0
  147.0523  141.7318  155.3380 H   0  0  0  0  0  0  0  0  0  0  0  0
  146.8853  141.1421  153.6875 H   0  0  0  0  0  0  0  0  0  0  0  0
  148.0287  142.4289  154.0490 H   0  0  0  0  0  0  0  0  0  0  0  0
  151.8957  139.1295  156.9139 H   0  0  0  0  0  0  0  0  0  0  0  0
  152.6109  139.2754  155.3068 H   0  0  0  0  0  0  0  0  0  0  0  0
  151.7928  137.7848  155.7772 H   0  0  0  0  0  0  0  0  0  0  0  0
  151.5094  141.9671  155.9616 H   0  0  0  0  0  0  0  0  0  0  0  0
  150.0382  142.7933  155.5444 H   0  0  0  0  0  0  0  0  0  0  0  0
  149.0419  141.5496  157.6718 H   0  0  0  0  0  0  0  0  0  0  0  0
  150.7285  141.3611  158.1242 H   0  0  0  0  0  0  0  0  0  0  0  0
  149.4474  143.9010  157.4473 H   0  0  0  0  0  0  0  0  0  0  0  0
  151.5584  144.3775  156.9944 H   0  0  0  0  0  0  0  0  0  0  0  0
  152.2974  145.8343  158.7556 H   0  0  0  0  0  0  0  0  0  0  0  0
  150.5565  145.9036  158.7066 H   0  0  0  0  0  0  0  0  0  0  0  0
  151.4050  145.7479  161.0378 H   0  0  0  0  0  0  0  0  0  0  0  0
  150.3995  144.3773  160.6515 H   0  0  0  0  0  0  0  0  0  0  0  0
  153.4457  144.4304  160.6477 H   0  0  0  0  0  0  0  0  0  0  0  0
  151.5399  142.9338  162.5120 H   0  0  0  0  0  0  0  0  0  0  0  0
  152.3611  144.4392  162.9100 H   0  0  0  0  0  0  0  0  0  0  0  0
  153.2982  142.9875  162.6348 H   0  0  0  0  0  0  0  0  0  0  0  0
  151.5858  142.0915  160.0559 H   0  0  0  0  0  0  0  0  0  0  0  0
  154.6391  142.1931  160.0905 H   0  0  0  0  0  0  0  0  0  0  0  0
  153.6821  140.8497  159.4759 H   0  0  0  0  0  0  0  0  0  0  0  0
  153.6107  141.2586  161.1755 H   0  0  0  0  0  0  0  0  0  0  0  0
  152.5376  142.1830  157.7547 H   0  0  0  0  0  0  0  0  0  0  0  0
  153.4885  143.5638  158.1928 H   0  0  0  0  0  0  0  0  0  0  0  0
  149.7080  143.3826  158.9792 H   0  0  0  0  0  0  0  0  0  0  0  0
  1  2  1  0  0  0  0
  1 19  1  0  0  0  0
  1 20  1  0  0  0  0
  1 21  1  0  0  0  0
  2  7  1  0  0  0  0
  2  3  2  0  0  0  0
  3  4  1  0  0  0  0
  4  5  1  0  0  0  0
  5  6  1  0  0  0  0
  5  7  2  0  0  0  0
  6 22  1  0  0  0  0
  6 23  1  0  0  0  0
  6 24  1  0  0  0  0
  7  8  1  0  0  0  0
  8  9  1  0  0  0  0
  8 25  1  0  0  0  0
  8 26  1  0  0  0  0
  9 10  1  0  0  0  0
  9 27  1  0  0  0  0
  9 28  1  0  0  0  0
 10 11  1  0  0  0  0
 10 29  1  0  0  0  0
 10 45  1  0  0  0  0
 11 18  1  0  0  0  0
 11 12  1  0  0  0  0
 11 30  1  0  0  0  0
 12 13  1  0  0  0  0
 12 31  1  0  0  0  0
 12 32  1  0  0  0  0
 13 14  1  0  0  0  0
 13 33  1  0  0  0  0
 13 34  1  0  0  0  0
 14 15  1  0  0  0  0
 14 16  1  0  0  0  0
 14 35  1  0  0  0  0
 15 36  1  0  0  0  0
 15 37  1  0  0  0  0
 15 38  1  0  0  0  0
 16 17  1  0  0  0  0
 16 18  1  0  0  0  0
 16 39  1  0  0  0  0
 17 40  1  0  0  0  0
 17 41  1  0  0  0  0
 17 42  1  0  0  0  0
 18 43  1  0  0  0  0
 18 44  1  0  0  0  0
M  CHG  1  10   1
M  END
> <s_m_source_file>
AV-unprocessed.smi

> <i_m_source_file_index>
3285

> <i_lp_mmshare_version>
43012

> <i_f3d_flags>
0

> <s_epik_input>
W0NIM11jMW5vYyhbQ0gzXSljMVtDSDJdW0NIMl1bTkhdW0NAQEhdMltDSDJdW0NIMl1bQ0BASF0oW0NIM10pW0NAQEhdKFtDSDNdKVtDSDJdMg==

> <s_epik_cmdline>
J2VwaWtfcHl0aG9uJywgJy1waCcsICc3LjAnLCAnLXRuJywgJzgnLCAnLW1hJywgJzIwMCcsICctbWV0YWxfYmluZGluZycsICctaW1hZScsICc8aW5maWxlLm1hZT4nLCAnLW9tYWUnLCAnPG91dGZpbGUubWFlPic=

> <r_lp_tautomer_probability>
1

> <r_epik_Ionization_Penalty>
0.000204615

> <r_epik_Ionization_Penalty_Charging>
0.000204615

> <r_epik_Ionization_Penalty_Neutral>
9.28663e-11

> <r_epik_State_Penalty>
-0

> <r_epik_Charging_Adjusted_Penalty>
0.000204615

> <i_epik_Tot_Q>
1

> <i_epik_Tot_abs_Q>
1

> <r_epik_Metal_State_Penalty>
-0

> <b_epik_Metal_Only>
0

> <s_lp_Force_Field>
OPLS_2005

> <r_lp_Energy>
13.8901

> <b_lp_Chiralities_Consistent>
1

> <s_lp_Variant>
AV-unprocessed.smi:3285-6

> <Gold.Version>
5.8.1

> <Gold.Id.Protein>
6NUR|6NUR_protein|mol2

> <Gold.PLP.Fitness>
51.7349

> <Gold.PLP.PLP>
-47.0565

> <Gold.PLP.part.hbond>
-1.0000

> <Gold.PLP.part.metal>
0.0000

> <Gold.PLP.part.buried>
-3.7908

> <Gold.PLP.part.nonpolar>
-42.8904

> <Gold.PLP.part.repulsive>
1.1125

> <Gold.PLP.ligand.clash>
0.0000

> <Gold.PLP.ligand.torsion>
0.6649

> <Gold.PLP.Chemscore.Hbond>
2.0000

> <Gold.PLP.Chemscore.CHOScore>
0.0000

> <Gold.PLP.Chemscore.Metal>
0.0000

> <Gold.Chemscore.Hbonds>
donor molecule, donor type, donor heavy atom, donor atom, acceptor molecule, acceptor atom, score
      L1  H    10    29       P1  8028  2.00

> <Gold.PLP.Chemscore.Internal.Correction>
0.0081

> <Gold.Rescore>
     Score         DG    S(hbond)    S(metal)    S(lipo)     H(rot)  DE(clash)    DE(int)     intcor
     20.06     -21.09       0.74        0.00     141.75       1.35       0.41       0.62       ----

> <Gold.Chemscore.Fitness>
20.0565

> <Gold.Chemscore.DG>
-21.0889

> <Gold.Chemscore.ZeroCoef>
-5.4800

> <Gold.Chemscore.Hbond>
0.7400

> <Gold.Chemscore.Metal>
0.0000

> <Gold.Chemscore.Lipo>
141.7474

> <Gold.Chemscore.Internal_Hbond>
0.0000

> <Gold.Chemscore.DEClash>
0.4095

> <Gold.Chemscore.DEInternal>
0.6230

> <Gold.Chemscore.Rot>
1.3465

> <Gold.Chemscore.Internal.Correction>
   9.000000E+99

> <Gold.Chemscore.Hbonds>
donor molecule, donor type, donor heavy atom, donor atom, acceptor molecule, acceptor atom, score
      L1  H    10    29       P1  8028  0.32

> <Gold.Chemscore.Hbond.Weighted>
-2.4715

> <Gold.Chemscore.Metal.Weighted>
-0.0000

> <Gold.Chemscore.Lipo.Weighted>
-16.5844

> <Gold.Chemscore.Internal_Hbond.Weighted>
0.0000

> <Gold.Chemscore.DEClash.Weighted>
0.4095

> <Gold.Chemscore.DEInternal.Weighted>
0.6230

> <Gold.Chemscore.Rot.Weighted>
3.4470

> <Gold.Chemscore.Internal.Correction.Weighted>
   9.000000E+99

> <Gold.Protein.RotatedTorsions>
[ 6907 6896 6895 6894 ] final   88.23 input  -60.11 | X-H torsion
[ 7974 7965 7964 7962 ] final  -25.88 input  175.53 | X-H torsion
[ 8008 7997 7996 7995 ] final   31.12 input   59.86 | X-H torsion
[ 10167 10162 10161 10158 ] final  -29.77 input  -65.29 | X-H torsion
[ 10718 10713 10712 10709 ] final   82.23 input   66.30 | X-H torsion
[ 10763 10752 10751 10750 ] final   45.72 input  -60.55 | X-H torsion
[ 11005 11000 10999 10996 ] final  -79.18 input  -57.11 | X-H torsion

> <Gold.Protein.ActiveResidues>
 VAL166  LYS551  ARG553  GLY616  TRP617  ASP618  TYR619  PRO620  LYS621  CYS622 
 ASP623  PHE694  ASN695  SER759  ASP760  ASP761  ALA762  ILE779  LEU786  VAL792 
 PHE793  MET794  SER795  GLU796  ALA797  LYS798  CYS799  TRP800  GLU811  SER814 

> <Gold.Protein.RotatedAtoms>
  152.5422  134.2153  159.8766 H   0  0  0  0  0  0  0  0  0  0  0  0  # atno 6907 bound_to 6896
  151.2134  133.4536  159.2606 H   0  0  0  0  0  0  0  0  0  0  0  0  # atno 6908 bound_to 6896
  151.0875  134.9909  159.8442 H   0  0  0  0  0  0  0  0  0  0  0  0  # atno 6909 bound_to 6896
  146.1462  140.4946  142.8631 H   0  0  0  0  0  0  0  0  0  0  0  0  # atno 7974 bound_to 7965
  155.1013  140.3230  155.4546 H   0  0  0  0  0  0  0  0  0  0  0  0  # atno 8008 bound_to 7997
  156.2716  140.2060  156.6086 H   0  0  0  0  0  0  0  0  0  0  0  0  # atno 8009 bound_to 7997
  154.6827  140.0524  157.0269 H   0  0  0  0  0  0  0  0  0  0  0  0  # atno 8010 bound_to 7997
  140.7257  143.3902  151.1443 H   0  0  0  0  0  0  0  0  0  0  0  0  # atno 10167 bound_to 10162
  157.6852  131.0039  150.2344 H   0  0  0  0  0  0  0  0  0  0  0  0  # atno 10718 bound_to 10713
  152.9820  135.6031  154.3482 H   0  0  0  0  0  0  0  0  0  0  0  0  # atno 10763 bound_to 10752
  154.3174  135.2770  155.2538 H   0  0  0  0  0  0  0  0  0  0  0  0  # atno 10764 bound_to 10752
  154.4720  135.5939  153.6384 H   0  0  0  0  0  0  0  0  0  0  0  0  # atno 10765 bound_to 10752
  141.1667  133.7095  156.8084 H   0  0  0  0  0  0  0  0  0  0  0  0  # atno 11005 bound_to 11000
  144.7849  140.5916  143.6580 LP  0  0  0  0  0  0  0  0  0  0  0  0  # atno 17320 bound_to 7965
  145.4932  139.1487  143.3698 LP  0  0  0  0  0  0  0  0  0  0  0  0  # atno 17321 bound_to 7965
  139.7506  143.8785  152.3075 LP  0  0  0  0  0  0  0  0  0  0  0  0  # atno 17342 bound_to 10162
  139.8637  144.7104  150.9069 LP  0  0  0  0  0  0  0  0  0  0  0  0  # atno 17343 bound_to 10162
  156.2971  130.3753  149.7786 LP  0  0  0  0  0  0  0  0  0  0  0  0  # atno 17370 bound_to 10713
  156.5428  130.8307  151.3274 LP  0  0  0  0  0  0  0  0  0  0  0  0  # atno 17371 bound_to 10713
  140.2205  134.8760  157.3372 LP  0  0  0  0  0  0  0  0  0  0  0  0  # atno 17394 bound_to 11000
  140.1992  134.4275  155.7672 LP  0  0  0  0  0  0  0  0  0  0  0  0  # atno 17395 bound_to 11000

$$$$
