AV-unprocessed.smi:651|AV-procd|sdf|3189|dock3
  -GOLD-   22720 0113D 1   1.00000     0.00000
 Structure written by MMmdl.
 39 40  0  0  0  0  0  0  0  0  2 V2000
  143.5270  132.4590  150.3034 C   0  0  0  0  0  0  0  0  0  0  0  0
  144.0900  133.7253  150.9128 C   0  0  0  0  0  0  0  0  0  0  0  0
  143.6854  134.1969  152.1801 C   0  0  0  0  0  0  0  0  0  0  0  0
  144.2526  135.3850  152.6859 C   0  0  0  0  0  0  0  0  0  0  0  0
  145.2139  136.0771  151.9161 C   0  0  0  0  0  0  0  0  0  0  0  0
  145.8505  137.3548  152.4379 C   0  0  0  0  0  0  0  0  0  0  0  0
  146.4184  137.1551  153.8454 C   0  0  0  0  0  0  0  0  0  0  0  0
  145.6559  137.0414  154.8041 O   0  0  0  0  0  0  0  0  0  0  0  0
  147.7559  137.1296  153.9570 N   0  0  0  0  0  0  0  0  0  0  0  0
  148.5033  136.9731  155.2059 C   0  0  1  0  0  0  0  0  0  0  0  0
  149.4781  135.7819  155.1159 C   0  0  0  0  0  0  0  0  0  0  0  0
  150.8340  136.2744  155.6329 C   0  0  0  0  0  0  0  0  0  0  0  0
  150.5429  137.5914  156.3545 C   0  0  0  0  0  0  0  0  0  0  0  0
  149.3471  138.2120  155.6163 C   0  0  1  0  0  0  0  0  0  0  0  0
  149.8272  139.1013  154.4482 C   0  0  0  0  0  0  0  0  0  0  0  0
  149.5909  138.6553  153.2119 N   0  0  0  0  0  0  0  0  0  0  0  0
  150.4075  140.1662  154.6546 O   0  0  0  0  0  0  0  0  0  0  0  0
  145.5756  135.5597  150.6531 C   0  0  0  0  0  0  0  0  0  0  0  0
  145.0093  134.4183  150.2043 N   0  3  0  0  0  0  0  0  0  0  0  0
  142.9743  131.8800  151.0440 H   0  0  0  0  0  0  0  0  0  0  0  0
  144.3291  131.8317  149.9131 H   0  0  0  0  0  0  0  0  0  0  0  0
  142.8495  132.7024  149.4846 H   0  0  0  0  0  0  0  0  0  0  0  0
  142.9513  133.6567  152.7603 H   0  0  0  0  0  0  0  0  0  0  0  0
  143.9561  135.7570  153.6561 H   0  0  0  0  0  0  0  0  0  0  0  0
  146.6505  137.6776  151.7704 H   0  0  0  0  0  0  0  0  0  0  0  0
  145.1061  138.1524  152.4478 H   0  0  0  0  0  0  0  0  0  0  0  0
  148.3033  137.2460  153.1167 H   0  0  0  0  0  0  0  0  0  0  0  0
  147.8025  136.7603  156.0158 H   0  0  0  0  0  0  0  0  0  0  0  0
  149.1129  134.9556  155.7269 H   0  0  0  0  0  0  0  0  0  0  0  0
  149.5806  135.4033  154.0978 H   0  0  0  0  0  0  0  0  0  0  0  0
  151.3190  135.5463  156.2837 H   0  0  0  0  0  0  0  0  0  0  0  0
  151.5043  136.4546  154.7917 H   0  0  0  0  0  0  0  0  0  0  0  0
  150.2611  137.3874  157.3883 H   0  0  0  0  0  0  0  0  0  0  0  0
  151.4187  138.2416  156.3847 H   0  0  0  0  0  0  0  0  0  0  0  0
  148.7712  138.8351  156.3030 H   0  0  0  0  0  0  0  0  0  0  0  0
  149.8901  139.1968  152.4136 H   0  0  0  0  0  0  0  0  0  0  0  0
  149.1178  137.7731  153.0792 H   0  0  0  0  0  0  0  0  0  0  0  0
  146.2992  136.0175  149.9941 H   0  0  0  0  0  0  0  0  0  0  0  0
  145.2884  134.0629  149.2894 H   0  0  0  0  0  0  0  0  0  0  0  0
  1  2  1  0  0  0  0
  1 20  1  0  0  0  0
  1 21  1  0  0  0  0
  1 22  1  0  0  0  0
  2 19  1  0  0  0  0
  2  3  2  0  0  0  0
  3  4  1  0  0  0  0
  3 23  1  0  0  0  0
  4  5  2  0  0  0  0
  4 24  1  0  0  0  0
  5  6  1  0  0  0  0
  5 18  1  0  0  0  0
  6  7  1  0  0  0  0
  6 25  1  0  0  0  0
  6 26  1  0  0  0  0
  7  8  2  0  0  0  0
  7  9  1  0  0  0  0
  9 10  1  0  0  0  0
  9 27  1  0  0  0  0
 10 14  1  0  0  0  0
 10 11  1  0  0  0  0
 10 28  1  0  0  0  0
 11 12  1  0  0  0  0
 11 29  1  0  0  0  0
 11 30  1  0  0  0  0
 12 13  1  0  0  0  0
 12 31  1  0  0  0  0
 12 32  1  0  0  0  0
 13 14  1  0  0  0  0
 13 33  1  0  0  0  0
 13 34  1  0  0  0  0
 14 15  1  0  0  0  0
 14 35  1  0  0  0  0
 15 16  1  0  0  0  0
 15 17  2  0  0  0  0
 16 36  1  0  0  0  0
 16 37  1  0  0  0  0
 18 19  2  0  0  0  0
 18 38  1  0  0  0  0
 19 39  1  0  0  0  0
M  CHG  1  19   1
M  END
> <s_m_source_file>
AV-unprocessed.smi

> <i_m_source_file_index>
651

> <i_lp_mmshare_version>
43012

> <i_f3d_flags>
0

> <s_epik_input>
W0NIM11jMVtjSF1bY0hdYyhbY0hdbjEpW0NIMl1DKD1PKVtOSF1bQ0BASF0yW0NIMl1bQ0gyXVtDSDJdW0NASF0yQyg9TylbTkgyXQ==

> <s_epik_cmdline>
J2VwaWtfcHl0aG9uJywgJy1waCcsICc3LjAnLCAnLXRuJywgJzgnLCAnLW1hJywgJzIwMCcsICctbWV0YWxfYmluZGluZycsICctaW1hZScsICc8aW5maWxlLm1hZT4nLCAnLW9tYWUnLCAnPG91dGZpbGUubWFlPic=

> <r_epik_Ionization_Penalty>
2.14971

> <r_epik_Ionization_Penalty_Charging>
2.14971

> <r_epik_Ionization_Penalty_Neutral>
1.65229e-07

> <r_epik_State_Penalty>
2.28946

> <r_epik_Charging_Adjusted_Penalty>
4.43917

> <i_epik_Tot_Q>
1

> <i_epik_Tot_abs_Q>
1

> <r_epik_Metal_State_Penalty>
2.30508

> <b_epik_Metal_Only>
0

> <s_lp_Force_Field>
OPLS_2005

> <r_lp_Energy>
19.7283

> <b_lp_Chiralities_Consistent>
1

> <s_lp_Variant>
AV-unprocessed.smi:651-6

> <Gold.Version>
5.8.1

> <Gold.Id.Protein>
6NUR|6NUR_protein|mol2

> <Gold.PLP.Fitness>
41.7115

> <Gold.PLP.PLP>
-29.2623

> <Gold.PLP.part.hbond>
-4.8056

> <Gold.PLP.part.metal>
0.0000

> <Gold.PLP.part.buried>
-4.6367

> <Gold.PLP.part.nonpolar>
-19.8748

> <Gold.PLP.part.repulsive>
0.2845

> <Gold.PLP.ligand.clash>
0.0000

> <Gold.PLP.ligand.torsion>
0.3396

> <Gold.PLP.Chemscore.Hbond>
4.3680

> <Gold.PLP.Chemscore.CHOScore>
0.0000

> <Gold.PLP.Chemscore.Metal>
0.0000

> <Gold.Chemscore.Hbonds>
donor molecule, donor type, donor heavy atom, donor atom, acceptor molecule, acceptor atom, score
      L1  H     9    27       P1  7948  0.77
      L1  H    16    36       P1  7957  0.98
      L1  H    16    37       P1  7948  0.83
      L1  H    19    39       P1  7921  0.74
      P1  H  7989  7998       L1    17  1.00

> <Gold.PLP.Chemscore.Internal.Correction>
0.0245

> <Gold.Rescore>
     Score         DG    S(hbond)    S(metal)    S(lipo)     H(rot)  DE(clash)    DE(int)     intcor
     19.63     -22.05       4.39        0.00      60.99       2.04       0.12       2.29       ----

> <Gold.Chemscore.Fitness>
19.6334

> <Gold.Chemscore.DG>
-22.0473

> <Gold.Chemscore.ZeroCoef>
-5.4800

> <Gold.Chemscore.Hbond>
4.3862

> <Gold.Chemscore.Metal>
0.0000

> <Gold.Chemscore.Lipo>
60.9925

> <Gold.Chemscore.Internal_Hbond>
0.0000

> <Gold.Chemscore.DEClash>
0.1211

> <Gold.Chemscore.DEInternal>
2.2928

> <Gold.Chemscore.Rot>
2.0386

> <Gold.Chemscore.Internal.Correction>
   9.000000E+99

> <Gold.Chemscore.Hbonds>
donor molecule, donor type, donor heavy atom, donor atom, acceptor molecule, acceptor atom, score
      L1  H     9    27       P1  7948  0.76
      L1  H    16    36       P1  7957  0.70
      L1  H    16    37       P1  7948  0.82
      L1  H    19    39       P1  7921  0.66
      P1  H  7989  7998       L1    17  0.99

> <Gold.Chemscore.Hbond.Weighted>
-14.6499

> <Gold.Chemscore.Metal.Weighted>
-0.0000

> <Gold.Chemscore.Lipo.Weighted>
-7.1361

> <Gold.Chemscore.Internal_Hbond.Weighted>
0.0000

> <Gold.Chemscore.DEClash.Weighted>
0.1211

> <Gold.Chemscore.DEInternal.Weighted>
2.2928

> <Gold.Chemscore.Rot.Weighted>
5.2188

> <Gold.Chemscore.Internal.Correction.Weighted>
   9.000000E+99

> <Gold.Protein.RotatedTorsions>
[ 6907 6896 6895 6894 ] final  -46.38 input  -60.11 | X-H torsion
[ 7974 7965 7964 7962 ] final -106.82 input  175.53 | X-H torsion
[ 8008 7997 7996 7995 ] final   69.61 input   59.86 | X-H torsion
[ 10167 10162 10161 10158 ] final  114.53 input  -65.29 | X-H torsion
[ 10718 10713 10712 10709 ] final  100.22 input   66.30 | X-H torsion
[ 10763 10752 10751 10750 ] final   -3.25 input  -60.55 | X-H torsion
[ 11005 11000 10999 10996 ] final  173.16 input  -57.11 | X-H torsion

> <Gold.Protein.ActiveResidues>
 VAL166  LYS551  ARG553  GLY616  TRP617  ASP618  TYR619  PRO620  LYS621  CYS622 
 ASP623  PHE694  ASN695  SER759  ASP760  ASP761  ALA762  ILE779  LEU786  VAL792 
 PHE793  MET794  SER795  GLU796  ALA797  LYS798  CYS799  TRP800  GLU811  SER814 

> <Gold.Protein.RotatedAtoms>
  150.9119  134.8536  159.7430 H   0  0  0  0  0  0  0  0  0  0  0  0  # atno 6907 bound_to 6896
  152.4948  134.4347  159.9533 H   0  0  0  0  0  0  0  0  0  0  0  0  # atno 6908 bound_to 6896
  151.4388  133.3610  159.2814 H   0  0  0  0  0  0  0  0  0  0  0  0  # atno 6909 bound_to 6896
  145.2130  140.9104  143.3303 H   0  0  0  0  0  0  0  0  0  0  0  0  # atno 7974 bound_to 7965
  155.7262  140.3492  155.5038 H   0  0  0  0  0  0  0  0  0  0  0  0  # atno 8008 bound_to 7997
  155.9224  140.1069  157.1218 H   0  0  0  0  0  0  0  0  0  0  0  0  # atno 8009 bound_to 7997
  154.4072  140.1247  156.4684 H   0  0  0  0  0  0  0  0  0  0  0  0  # atno 8010 bound_to 7997
  139.6382  144.7121  151.2291 H   0  0  0  0  0  0  0  0  0  0  0  0  # atno 10167 bound_to 10162
  157.6859  131.0692  150.5067 H   0  0  0  0  0  0  0  0  0  0  0  0  # atno 10718 bound_to 10713
  153.3688  135.6993  153.6654 H   0  0  0  0  0  0  0  0  0  0  0  0  # atno 10763 bound_to 10752
  153.5312  135.3592  155.2677 H   0  0  0  0  0  0  0  0  0  0  0  0  # atno 10764 bound_to 10752
  154.8678  135.4181  154.2962 H   0  0  0  0  0  0  0  0  0  0  0  0  # atno 10765 bound_to 10752
  140.3375  134.7305  157.4179 H   0  0  0  0  0  0  0  0  0  0  0  0  # atno 11005 bound_to 11000
  144.9837  139.3757  143.6249 LP  0  0  0  0  0  0  0  0  0  0  0  0  # atno 17320 bound_to 7965
  146.3393  139.8989  142.8797 LP  0  0  0  0  0  0  0  0  0  0  0  0  # atno 17321 bound_to 7965
  140.7476  143.6359  150.8380 LP  0  0  0  0  0  0  0  0  0  0  0  0  # atno 17342 bound_to 10162
  139.9993  143.5762  152.2881 LP  0  0  0  0  0  0  0  0  0  0  0  0  # atno 17343 bound_to 10162
  156.5386  130.4202  149.6165 LP  0  0  0  0  0  0  0  0  0  0  0  0  # atno 17370 bound_to 10713
  156.3005  130.7174  151.2045 LP  0  0  0  0  0  0  0  0  0  0  0  0  # atno 17371 bound_to 10713
  140.0809  134.5733  155.8542 LP  0  0  0  0  0  0  0  0  0  0  0  0  # atno 17394 bound_to 11000
  141.2047  133.6641  156.6138 LP  0  0  0  0  0  0  0  0  0  0  0  0  # atno 17395 bound_to 11000

$$$$
