#       Name:                AV-unprocessed.smi:1550
#       Creating user name   scv26
#       Creation time:       Fri Mar 27 06:40:05 2020


#       File generated by GOLD software.
#

@<TRIPOS>MOLECULE
AV-unprocessed.smi:1550
    51    52     1
SMALL
NO_CHARGES


@<TRIPOS>ATOM
      1 ****        -1.4528  -2.8169  -2.2653 C.3            1 S1                 0.0000
      2 ****        -1.0312  -2.0312  -1.0147 C.3            1 S1                 0.0000
      3 ****         0.3931  -1.9994  -0.9882 O.3            1 S1                 0.0000
      4 ****         0.9740  -1.5760   0.2403 C.3            1 S1                 0.0000
      5 ****         2.5006  -1.6619   0.1156 C.3            1 S1                 0.0000
      6 ****         3.2000  -1.5287   1.4826 C.3            1 S1                 0.0000
      7 ****         4.7235  -1.5309   1.3111 C.3            1 S1                 0.0000
      8 ****         5.1305  -0.4610   0.2924 C.3            1 S1                 0.0000
      9 ****         4.3314  -0.6315  -1.0091 C.3            1 S1                 0.0000
     10 ****         2.9355  -0.5975  -0.7285 O.3            1 S1                 0.0000
     11 ****        -1.5964  -0.6016  -1.0349 C.2            1 S1                 0.0000
     12 ****        -1.4117   0.1089  -2.0229 O.2            1 S1                 0.0000
     13 ****        -2.2779  -0.2332   0.0679 N.am           1 S1                 0.0000
     14 ****        -2.8756   1.0012   0.3712 C.2            1 S1                 0.0000
     15 ****        -2.5626   2.1802  -0.2270 C.2            1 S1                 0.0000
     16 ****        -3.2097   3.4280   0.1417 C.2            1 S1                 0.0000
     17 ****        -2.9103   4.7256  -0.5927 C.3            1 S1                 0.0000
     18 ****        -3.9638   5.5437  -0.5811 F              1 S1                 0.0000
     19 ****        -1.8913   5.3523  -0.0062 F              1 S1                 0.0000
     20 ****        -2.5770   4.4901  -1.8618 F              1 S1                 0.0000
     21 ****        -4.1456   3.3564   1.1064 C.2            1 S1                 0.0000
     22 ****        -4.4554   2.1528   1.7437 N.am           1 S1                 0.0000
     23 ****        -3.8814   0.9657   1.4458 C.2            1 S1                 0.0000
     24 ****        -4.2075  -0.0522   2.0557 O.2            1 S1                 0.0000
     25 ****        -5.1554   2.1853   2.4710 H              1 S1                 0.0000
     26 ****        -2.5385  -2.8627  -2.3573 H              1 S1                 0.0000
     27 ****        -1.0831  -3.8415  -2.2198 H              1 S1                 0.0000
     28 ****        -1.0570  -2.3660  -3.1763 H              1 S1                 0.0000
     29 ****        -1.3980  -2.5651  -0.1357 H              1 S1                 0.0000
     30 ****         0.6764  -0.5609   0.5061 H              1 S1                 0.0000
     31 ****         0.6308  -2.2368   1.0378 H              1 S1                 0.0000
     32 ****         2.7659  -2.6208  -0.3337 H              1 S1                 0.0000
     33 ****         2.8886  -0.6022   1.9671 H              1 S1                 0.0000
     34 ****         2.9001  -2.3433   2.1427 H              1 S1                 0.0000
     35 ****         5.2159  -1.3536   2.2675 H              1 S1                 0.0000
     36 ****         5.0530  -2.5114   0.9651 H              1 S1                 0.0000
     37 ****         4.9427   0.5303   0.7068 H              1 S1                 0.0000
     38 ****         6.2002  -0.5194   0.0898 H              1 S1                 0.0000
     39 ****         4.5711   0.1738  -1.7036 H              1 S1                 0.0000
     40 ****         4.5905  -1.5677  -1.5060 H              1 S1                 0.0000
     41 ****        -2.4161  -0.9496   0.7663 H              1 S1                 0.0000
     42 ****        -1.7994   2.2310  -0.9865 H              1 S1                 0.0000
     43 ****        -4.7242   4.1985   1.4568 H              1 S1                 0.0000
     44 ****         0.7006  -1.3747  -1.7059 LP             1 S1                 0.0000
     45 ****         0.7255  -2.9219  -1.1844 LP             1 S1                 0.0000
     46 ****         2.7237   0.2702  -0.2789 LP             1 S1                 0.0000
     47 ****         2.4369  -0.6551  -1.5934 LP             1 S1                 0.0000
     48 ****        -0.8975  -0.2450  -2.8042 LP             1 S1                 0.0000
     49 ****        -1.7759   1.0400  -2.0443 LP             1 S1                 0.0000
     50 ****        -3.7806  -0.9281   1.8310 LP             1 S1                 0.0000
     51 ****        -4.8995  -0.0035   2.7760 LP             1 S1                 0.0000
@<TRIPOS>BOND
    1    1    2 1     
    2    1   26 1     
    3    1   27 1     
    4    1   28 1     
    5    2    3 1     
    6    2   11 1     
    7    2   29 1     
    8    3    4 1     
    9    4    5 1     
   10    4   30 1     
   11    4   31 1     
   12    5   10 1     
   13    5    6 1     
   14    5   32 1     
   15    6    7 1     
   16    6   33 1     
   17    6   34 1     
   18    7    8 1     
   19    7   35 1     
   20    7   36 1     
   21    8    9 1     
   22    8   37 1     
   23    8   38 1     
   24    9   10 1     
   25    9   39 1     
   26    9   40 1     
   27   11   12 2     
   28   11   13 am    
   29   13   14 1     
   30   13   41 1     
   31   14   23 1     
   32   14   15 2     
   33   15   16 1     
   34   15   42 1     
   35   16   17 1     
   36   16   21 2     
   37   17   18 1     
   38   17   19 1     
   39   17   20 1     
   40   21   22 1     
   41   21   43 1     
   42   22   25 1     
   43   22   23 am    
   44   23   24 2     
   45    3   44 1     
   46    3   45 1     
   47   10   46 1     
   48   10   47 1     
   49   12   48 1     
   50   12   49 1     
   51   24   50 1     
   52   24   51 1     
@<TRIPOS>SUBSTRUCTURE
      1 S1             1
@<TRIPOS>SET
LONE_PAIRS      STATIC     ATOMS    <user>   **** ""
8 44 45 46 47 48 49 50 51
DONOR_HYDROGENS      STATIC     ATOMS    <user>   **** ""
2 41 25
ATOM$BLUE        STATIC     ATOMS    COLORGROUP SYSTEM
8 44 45 46 47 48 49 50 51
ATOM$RED        STATIC     ATOMS    COLORGROUP SYSTEM
2 41 25
