AV-unprocessed.smi:1298|AV-procd|sdf|5417|dock6
  -GOLD-   22720 4573D 1   1.00000     0.00000
 Structure written by MMmdl.
 30 31  0  0  0  0  0  0  0  0  1 V2000
  152.3823  144.4867  158.6868 C   0  0  0  0  0  0  0  0  0  0  0  0
  151.9736  143.2098  158.7288 C   0  0  0  0  0  0  0  0  0  0  0  0
  152.6010  142.0782  159.8730 Cl  0  0  0  0  0  0  0  0  0  0  0  0
  150.9231  142.5973  157.8262 C   0  0  0  0  0  0  0  0  0  0  0  0
  151.5689  141.1683  156.9086 S   0  0  0  0  0  0  0  0  0  0  0  0
  150.2765  140.9457  155.7208 C   0  0  0  0  0  0  0  0  0  0  0  0
  149.7324  141.9307  154.9985 N   0  0  0  0  0  0  0  0  0  0  0  0
  148.7868  141.3311  154.1986 N   0  0  0  0  0  0  0  0  0  0  0  0
  148.8250  140.0365  154.5178 C   0  0  0  0  0  0  0  0  0  0  0  0
  147.9771  138.9985  153.8532 C   0  0  0  0  0  0  0  0  0  0  0  0
  147.0840  139.3485  152.6828 C   0  0  0  0  0  0  0  0  0  0  0  0
  146.4725  138.9983  154.0137 C   0  0  0  0  0  0  0  0  0  0  0  0
  149.7456  139.7324  155.4563 N   0  0  0  0  0  0  0  0  0  0  0  0
  150.0894  138.4315  156.0172 C   0  0  0  0  0  0  0  0  0  0  0  0
  150.9342  137.6144  155.0373 C   0  0  0  0  0  0  0  0  0  0  0  0
  150.7457  137.8408  153.7348 N   0  0  0  0  0  0  0  0  0  0  0  0
  151.7505  136.7934  155.4499 O   0  0  0  0  0  0  0  0  0  0  0  0
  153.1330  144.8549  159.3705 H   0  0  0  0  0  0  0  0  0  0  0  0
  151.9719  145.1803  157.9675 H   0  0  0  0  0  0  0  0  0  0  0  0
  150.0631  142.2898  158.4224 H   0  0  0  0  0  0  0  0  0  0  0  0
  150.5749  143.3530  157.1207 H   0  0  0  0  0  0  0  0  0  0  0  0
  148.4895  138.0385  153.8325 H   0  0  0  0  0  0  0  0  0  0  0  0
  147.0378  140.3900  152.3702 H   0  0  0  0  0  0  0  0  0  0  0  0
  146.9984  138.6174  151.8817 H   0  0  0  0  0  0  0  0  0  0  0  0
  145.9783  138.0331  154.1033 H   0  0  0  0  0  0  0  0  0  0  0  0
  146.0234  139.8077  154.5862 H   0  0  0  0  0  0  0  0  0  0  0  0
  150.6406  138.5653  156.9479 H   0  0  0  0  0  0  0  0  0  0  0  0
  149.1753  137.8984  156.2787 H   0  0  0  0  0  0  0  0  0  0  0  0
  151.2814  137.3289  153.0492 H   0  0  0  0  0  0  0  0  0  0  0  0
  150.0671  138.5285  153.4401 H   0  0  0  0  0  0  0  0  0  0  0  0
  1  2  2  0  0  0  0
  1 18  1  0  0  0  0
  1 19  1  0  0  0  0
  2  3  1  0  0  0  0
  2  4  1  0  0  0  0
  4  5  1  0  0  0  0
  4 20  1  0  0  0  0
  4 21  1  0  0  0  0
  5  6  1  0  0  0  0
  6 13  1  0  0  0  0
  6  7  2  0  0  0  0
  7  8  1  0  0  0  0
  8  9  2  0  0  0  0
  9 10  1  0  0  0  0
  9 13  1  0  0  0  0
 10 12  1  0  0  0  0
 10 11  1  0  0  0  0
 10 22  1  0  0  0  0
 11 12  1  0  0  0  0
 11 23  1  0  0  0  0
 11 24  1  0  0  0  0
 12 25  1  0  0  0  0
 12 26  1  0  0  0  0
 13 14  1  0  0  0  0
 14 15  1  0  0  0  0
 14 27  1  0  0  0  0
 14 28  1  0  0  0  0
 15 16  1  0  0  0  0
 15 17  2  0  0  0  0
 16 29  1  0  0  0  0
 16 30  1  0  0  0  0
M  END
> <s_m_source_file>
AV-unprocessed.smi

> <i_m_source_file_index>
1298

> <i_lp_mmshare_version>
43012

> <i_f3d_flags>
0

> <s_epik_input>
W0NIMl09QyhDbClbQ0gyXVNjMW5uYyhbQ0hdMltDSDJdW0NIMl0yKW4xW0NIMl1DKD1PKVtOSDJd

> <s_epik_cmdline>
J2VwaWtfcHl0aG9uJywgJy1waCcsICc3LjAnLCAnLXRuJywgJzgnLCAnLW1hJywgJzIwMCcsICctbWV0YWxfYmluZGluZycsICctaW1hZScsICc8aW5maWxlLm1hZT4nLCAnLW9tYWUnLCAnPG91dGZpbGUubWFlPic=

> <r_lp_tautomer_probability>
1

> <r_epik_Ionization_Penalty>
2.01117e-07

> <r_epik_Ionization_Penalty_Charging>
0

> <r_epik_Ionization_Penalty_Neutral>
2.01117e-07

> <r_epik_State_Penalty>
-0

> <r_epik_Charging_Adjusted_Penalty>
0

> <i_epik_Tot_Q>
0

> <i_epik_Tot_abs_Q>
0

> <r_epik_Metal_State_Penalty>
-0

> <b_epik_Metal_Only>
0

> <s_lp_Force_Field>
OPLS_2005

> <r_lp_Energy>
3.32617

> <b_lp_Chiralities_Consistent>
1

> <s_lp_Variant>
AV-unprocessed.smi:1298-1

> <Gold.Version>
5.8.1

> <Gold.Id.Protein>
6NUR|6NUR_protein|mol2

> <Gold.PLP.Fitness>
37.6454

> <Gold.PLP.PLP>
-33.1031

> <Gold.PLP.part.hbond>
-5.8902

> <Gold.PLP.part.metal>
0.0000

> <Gold.PLP.part.buried>
-0.7515

> <Gold.PLP.part.nonpolar>
-27.4819

> <Gold.PLP.part.repulsive>
1.3665

> <Gold.PLP.ligand.clash>
0.0000

> <Gold.PLP.ligand.torsion>
0.8538

> <Gold.PLP.Chemscore.Hbond>
2.0087

> <Gold.PLP.Chemscore.CHOScore>
0.0000

> <Gold.PLP.Chemscore.Metal>
0.0000

> <Gold.Chemscore.Hbonds>
donor molecule, donor type, donor heavy atom, donor atom, acceptor molecule, acceptor atom, score
      L1  H    16    29       P1  7949  0.83
      P1  H  8011  8017       L1     8  0.04
      P1  H 10752 10764       L1    17  1.00

> <Gold.PLP.Chemscore.Internal.Correction>
0.2237

> <Gold.Rescore>
     Score         DG    S(hbond)    S(metal)    S(lipo)     H(rot)  DE(clash)    DE(int)     intcor
     11.19     -12.26       1.55        0.00      70.54       2.60       0.13       0.95       ----

> <Gold.Chemscore.Fitness>
11.1853

> <Gold.Chemscore.DG>
-12.2603

> <Gold.Chemscore.ZeroCoef>
-5.4800

> <Gold.Chemscore.Hbond>
1.5512

> <Gold.Chemscore.Metal>
0.0000

> <Gold.Chemscore.Lipo>
70.5368

> <Gold.Chemscore.Internal_Hbond>
0.0000

> <Gold.Chemscore.DEClash>
0.1259

> <Gold.Chemscore.DEInternal>
0.9491

> <Gold.Chemscore.Rot>
2.5990

> <Gold.Chemscore.Internal.Correction>
   9.000000E+99

> <Gold.Chemscore.Hbonds>
donor molecule, donor type, donor heavy atom, donor atom, acceptor molecule, acceptor atom, score
      L1  H    16    29       P1  7949  0.51
      P1  H 10752 10764       L1    17  0.96

> <Gold.Chemscore.Hbond.Weighted>
-5.1809

> <Gold.Chemscore.Metal.Weighted>
-0.0000

> <Gold.Chemscore.Lipo.Weighted>
-8.2528

> <Gold.Chemscore.Internal_Hbond.Weighted>
0.0000

> <Gold.Chemscore.DEClash.Weighted>
0.1259

> <Gold.Chemscore.DEInternal.Weighted>
0.9491

> <Gold.Chemscore.Rot.Weighted>
6.6534

> <Gold.Chemscore.Internal.Correction.Weighted>
   9.000000E+99

> <Gold.Protein.RotatedTorsions>
[ 6907 6896 6895 6894 ] final   74.05 input  -60.11 | X-H torsion
[ 7974 7965 7964 7962 ] final -104.14 input  175.53 | X-H torsion
[ 8008 7997 7996 7995 ] final  -80.95 input   59.86 | X-H torsion
[ 10167 10162 10161 10158 ] final  -45.19 input  -65.29 | X-H torsion
[ 10718 10713 10712 10709 ] final  -26.09 input   66.30 | X-H torsion
[ 10763 10752 10751 10750 ] final  -64.53 input  -60.55 | X-H torsion
[ 11005 11000 10999 10996 ] final   -7.62 input  -57.11 | X-H torsion

> <Gold.Protein.ActiveResidues>
 VAL166  LYS551  ARG553  GLY616  TRP617  ASP618  TYR619  PRO620  LYS621  CYS622 
 ASP623  PHE694  ASN695  SER759  ASP760  ASP761  ALA762  ILE779  LEU786  VAL792 
 PHE793  MET794  SER795  GLU796  ALA797  LYS798  CYS799  TRP800  GLU811  SER814 

> <Gold.Protein.RotatedAtoms>
  152.4956  134.4329  159.9517 H   0  0  0  0  0  0  0  0  0  0  0  0  # atno 6907 bound_to 6896
  151.4309  133.3664  159.2776 H   0  0  0  0  0  0  0  0  0  0  0  0  # atno 6908 bound_to 6896
  150.9155  134.8596  159.7514 H   0  0  0  0  0  0  0  0  0  0  0  0  # atno 6909 bound_to 6896
  145.2469  140.9225  143.3117 H   0  0  0  0  0  0  0  0  0  0  0  0  # atno 7974 bound_to 7965
  154.5934  140.0655  156.9270 H   0  0  0  0  0  0  0  0  0  0  0  0  # atno 8008 bound_to 7997
  155.2255  140.3333  155.4291 H   0  0  0  0  0  0  0  0  0  0  0  0  # atno 8009 bound_to 7997
  156.2271  140.1824  156.7320 H   0  0  0  0  0  0  0  0  0  0  0  0  # atno 8010 bound_to 7997
  140.6868  143.2892  151.3603 H   0  0  0  0  0  0  0  0  0  0  0  0  # atno 10167 bound_to 10162
  156.4558  130.4493  149.6960 H   0  0  0  0  0  0  0  0  0  0  0  0  # atno 10718 bound_to 10713
  154.3315  135.6175  153.5554 H   0  0  0  0  0  0  0  0  0  0  0  0  # atno 10763 bound_to 10752
  152.9811  135.5748  154.4956 H   0  0  0  0  0  0  0  0  0  0  0  0  # atno 10764 bound_to 10752
  154.4643  135.2857  155.1667 H   0  0  0  0  0  0  0  0  0  0  0  0  # atno 10765 bound_to 10752
  140.7148  133.8878  155.8777 H   0  0  0  0  0  0  0  0  0  0  0  0  # atno 11005 bound_to 11000
  144.9538  139.4054  143.6389 LP  0  0  0  0  0  0  0  0  0  0  0  0  # atno 17320 bound_to 7965
  146.3313  139.8558  142.8865 LP  0  0  0  0  0  0  0  0  0  0  0  0  # atno 17321 bound_to 7965
  139.6233  144.0864  152.2411 LP  0  0  0  0  0  0  0  0  0  0  0  0  # atno 17342 bound_to 10162
  140.0315  144.6077  150.7484 LP  0  0  0  0  0  0  0  0  0  0  0  0  # atno 17343 bound_to 10162
  156.3769  130.7559  151.2548 LP  0  0  0  0  0  0  0  0  0  0  0  0  # atno 17370 bound_to 10713
  157.7500  131.0307  150.4149 LP  0  0  0  0  0  0  0  0  0  0  0  0  # atno 17371 bound_to 10713
  141.0054  134.1093  157.4275 LP  0  0  0  0  0  0  0  0  0  0  0  0  # atno 17394 bound_to 11000
  139.8863  135.0080  156.6487 LP  0  0  0  0  0  0  0  0  0  0  0  0  # atno 17395 bound_to 11000

$$$$
