AV-unprocessed.smi:3176|AV-procd|sdf|12127|dock3
  -GOLD-   2272017563D 1   1.00000     0.00000
 Structure written by MMmdl.
 33 34  0  0  0  0  0  0  0  0  2 V2000
  149.5630  140.9202  153.6383 O   0  0  0  0  0  0  0  0  0  0  0  0
  148.7600  141.4830  154.3825 C   0  0  0  0  0  0  0  0  0  0  0  0
  149.1330  142.1359  155.4942 N   0  0  0  0  0  0  0  0  0  0  0  0
  150.4951  142.2091  156.0136 C   0  0  0  0  0  0  0  0  0  0  0  0
  150.5877  141.8190  157.5034 C   0  0  0  0  0  0  0  0  0  0  0  0
  151.0826  142.9447  158.3959 C   0  0  0  0  0  0  0  0  0  0  0  0
  151.9132  142.7066  159.5130 C   0  0  0  0  0  0  0  0  0  0  0  0
  152.3204  143.7934  160.3137 C   0  0  0  0  0  0  0  0  0  0  0  0
  151.8915  145.0948  159.9796 C   0  0  0  0  0  0  0  0  0  0  0  0
  151.0657  145.2761  158.8513 C   0  0  0  0  0  0  0  0  0  0  0  0
  150.6958  144.2088  158.1097 N   0  3  0  0  0  0  0  0  0  0  0  0
  147.2511  141.4622  154.0832 C   0  0  1  0  0  0  0  0  0  0  0  0
  146.3844  140.8990  155.2213 C   0  0  0  0  0  0  0  0  0  0  0  0
  146.0440  142.1362  156.0225 C   0  0  0  0  0  0  0  0  0  0  0  0
  145.8618  143.1662  154.9154 C   0  0  0  0  0  0  0  0  0  0  0  0
  146.8034  142.8101  153.9072 O   0  0  0  0  0  0  0  0  0  0  0  0
  148.4093  142.5810  156.0407 H   0  0  0  0  0  0  0  0  0  0  0  0
  151.1645  141.5908  155.4137 H   0  0  0  0  0  0  0  0  0  0  0  0
  150.8316  143.2383  155.8880 H   0  0  0  0  0  0  0  0  0  0  0  0
  149.6079  141.4975  157.8589 H   0  0  0  0  0  0  0  0  0  0  0  0
  151.2448  140.9562  157.6184 H   0  0  0  0  0  0  0  0  0  0  0  0
  152.2272  141.7025  159.7594 H   0  0  0  0  0  0  0  0  0  0  0  0
  152.9514  143.6300  161.1749 H   0  0  0  0  0  0  0  0  0  0  0  0
  152.1913  145.9412  160.5803 H   0  0  0  0  0  0  0  0  0  0  0  0
  150.6906  146.2347  158.5234 H   0  0  0  0  0  0  0  0  0  0  0  0
  147.0924  140.8963  153.1647 H   0  0  0  0  0  0  0  0  0  0  0  0
  145.4736  140.4648  154.8070 H   0  0  0  0  0  0  0  0  0  0  0  0
  146.8649  140.1264  155.8226 H   0  0  0  0  0  0  0  0  0  0  0  0
  145.1561  142.0156  156.6434 H   0  0  0  0  0  0  0  0  0  0  0  0
  146.8796  142.4121  156.6668 H   0  0  0  0  0  0  0  0  0  0  0  0
  144.8579  143.0971  154.4946 H   0  0  0  0  0  0  0  0  0  0  0  0
  146.0151  144.1878  155.2632 H   0  0  0  0  0  0  0  0  0  0  0  0
  150.0950  144.3630  157.2997 H   0  0  0  0  0  0  0  0  0  0  0  0
  1  2  2  0  0  0  0
  2  3  1  0  0  0  0
  2 12  1  0  0  0  0
  3  4  1  0  0  0  0
  3 17  1  0  0  0  0
  4  5  1  0  0  0  0
  4 18  1  0  0  0  0
  4 19  1  0  0  0  0
  5  6  1  0  0  0  0
  5 20  1  0  0  0  0
  5 21  1  0  0  0  0
  6 11  1  0  0  0  0
  6  7  2  0  0  0  0
  7  8  1  0  0  0  0
  7 22  1  0  0  0  0
  8  9  2  0  0  0  0
  8 23  1  0  0  0  0
  9 10  1  0  0  0  0
  9 24  1  0  0  0  0
 10 11  2  0  0  0  0
 10 25  1  0  0  0  0
 11 33  1  0  0  0  0
 12 16  1  0  0  0  0
 12 13  1  0  0  0  0
 12 26  1  0  0  0  0
 13 14  1  0  0  0  0
 13 27  1  0  0  0  0
 13 28  1  0  0  0  0
 14 15  1  0  0  0  0
 14 29  1  0  0  0  0
 14 30  1  0  0  0  0
 15 16  1  0  0  0  0
 15 31  1  0  0  0  0
 15 32  1  0  0  0  0
M  CHG  1  11   1
M  END
> <s_m_source_file>
AV-unprocessed.smi

> <i_m_source_file_index>
3176

> <i_lp_mmshare_version>
43012

> <i_f3d_flags>
0

> <s_epik_input>
TzFbQ0gyXVtDSDJdW0NIMl1bQ0BIXTFDKD1PKVtOSF1bQ0gyXVtDSDJdYzJbY0hdW2NIXVtjSF1bY0hdbjI=

> <s_epik_cmdline>
J2VwaWtfcHl0aG9uJywgJy1waCcsICc3LjAnLCAnLXRuJywgJzgnLCAnLW1hJywgJzIwMCcsICctbWV0YWxfYmluZGluZycsICctaW1hZScsICc8aW5maWxlLm1hZT4nLCAnLW9tYWUnLCAnPG91dGZpbGUubWFlPic=

> <r_epik_Ionization_Penalty>
1.81664

> <r_epik_Ionization_Penalty_Charging>
1.81664

> <r_epik_Ionization_Penalty_Neutral>
5.71603e-08

> <r_epik_State_Penalty>
1.93152

> <r_epik_Charging_Adjusted_Penalty>
3.74817

> <i_epik_Tot_Q>
1

> <i_epik_Tot_abs_Q>
1

> <r_epik_Metal_State_Penalty>
1.95876

> <b_epik_Metal_Only>
0

> <s_lp_Force_Field>
OPLS_2005

> <r_lp_Energy>
22.6844

> <b_lp_Chiralities_Consistent>
1

> <s_lp_Variant>
AV-unprocessed.smi:3176-4

> <Gold.Version>
5.8.1

> <Gold.Id.Protein>
6NUR|6NUR_protein|mol2

> <Gold.PLP.Fitness>
41.3523

> <Gold.PLP.PLP>
-32.8888

> <Gold.PLP.part.hbond>
-3.9446

> <Gold.PLP.part.metal>
0.0000

> <Gold.PLP.part.buried>
-4.0050

> <Gold.PLP.part.nonpolar>
-27.9851

> <Gold.PLP.part.repulsive>
3.6430

> <Gold.PLP.ligand.clash>
0.0000

> <Gold.PLP.ligand.torsion>
0.7641

> <Gold.PLP.Chemscore.Hbond>
3.3203

> <Gold.PLP.Chemscore.CHOScore>
0.0000

> <Gold.PLP.Chemscore.Metal>
0.0000

> <Gold.Chemscore.Hbonds>
donor molecule, donor type, donor heavy atom, donor atom, acceptor molecule, acceptor atom, score
      L1  H     3    17       P1  8028  0.01
      L1  H    11    33       P1  8028  1.95
      P1  H  7989  7998       L1     1  0.34
      P1  H  8011  8017       L1     1  0.90

> <Gold.PLP.Chemscore.Internal.Correction>
0.0308

> <Gold.Rescore>
     Score         DG    S(hbond)    S(metal)    S(lipo)     H(rot)  DE(clash)    DE(int)     intcor
     13.33     -16.95       1.56        0.00      88.69       1.61       2.82       0.80       ----

> <Gold.Chemscore.Fitness>
13.3280

> <Gold.Chemscore.DG>
-16.9487

> <Gold.Chemscore.ZeroCoef>
-5.4800

> <Gold.Chemscore.Hbond>
1.5572

> <Gold.Chemscore.Metal>
0.0000

> <Gold.Chemscore.Lipo>
88.6943

> <Gold.Chemscore.Internal_Hbond>
0.0000

> <Gold.Chemscore.DEClash>
2.8173

> <Gold.Chemscore.DEInternal>
0.8034

> <Gold.Chemscore.Rot>
1.6054

> <Gold.Chemscore.Internal.Correction>
   9.000000E+99

> <Gold.Chemscore.Hbonds>
donor molecule, donor type, donor heavy atom, donor atom, acceptor molecule, acceptor atom, score
      L1  H     3    17       P1  8028  0.04
      L1  H    11    33       P1  8028  0.51
      P1  H  7989  7998       L1     1  0.31
      P1  H  8011  8017       L1     1  0.17

> <Gold.Chemscore.Hbond.Weighted>
-5.2012

> <Gold.Chemscore.Metal.Weighted>
-0.0000

> <Gold.Chemscore.Lipo.Weighted>
-10.3772

> <Gold.Chemscore.Internal_Hbond.Weighted>
0.0000

> <Gold.Chemscore.DEClash.Weighted>
2.8173

> <Gold.Chemscore.DEInternal.Weighted>
0.8034

> <Gold.Chemscore.Rot.Weighted>
4.1097

> <Gold.Chemscore.Internal.Correction.Weighted>
   9.000000E+99

> <Gold.Protein.RotatedTorsions>
[ 6907 6896 6895 6894 ] final   52.89 input  -60.11 | X-H torsion
[ 7974 7965 7964 7962 ] final -119.27 input  175.53 | X-H torsion
[ 8008 7997 7996 7995 ] final   82.24 input   59.86 | X-H torsion
[ 10167 10162 10161 10158 ] final -114.72 input  -65.29 | X-H torsion
[ 10718 10713 10712 10709 ] final  -53.11 input   66.30 | X-H torsion
[ 10763 10752 10751 10750 ] final   17.71 input  -60.55 | X-H torsion
[ 11005 11000 10999 10996 ] final -106.11 input  -57.11 | X-H torsion

> <Gold.Protein.ActiveResidues>
 VAL166  LYS551  ARG553  GLY616  TRP617  ASP618  TYR619  PRO620  LYS621  CYS622 
 ASP623  PHE694  ASN695  SER759  ASP760  ASP761  ALA762  ILE779  LEU786  VAL792 
 PHE793  MET794  SER795  GLU796  ALA797  LYS798  CYS799  TRP800  GLU811  SER814 

> <Gold.Protein.RotatedAtoms>
  152.3280  134.7296  160.0296 H   0  0  0  0  0  0  0  0  0  0  0  0  # atno 6907 bound_to 6896
  151.7722  133.3337  159.3456 H   0  0  0  0  0  0  0  0  0  0  0  0  # atno 6908 bound_to 6896
  150.7406  134.5939  159.6046 H   0  0  0  0  0  0  0  0  0  0  0  0  # atno 6909 bound_to 6896
  145.0644  140.8313  143.4133 H   0  0  0  0  0  0  0  0  0  0  0  0  # atno 7974 bound_to 7965
  155.9080  140.3429  155.6077 H   0  0  0  0  0  0  0  0  0  0  0  0  # atno 8008 bound_to 7997
  155.7421  140.0809  157.2259 H   0  0  0  0  0  0  0  0  0  0  0  0  # atno 8009 bound_to 7997
  154.4052  140.1569  156.2615 H   0  0  0  0  0  0  0  0  0  0  0  0  # atno 8010 bound_to 7997
  140.0979  143.4640  152.1830 H   0  0  0  0  0  0  0  0  0  0  0  0  # atno 10167 bound_to 10162
  156.1563  130.4150  149.9864 H   0  0  0  0  0  0  0  0  0  0  0  0  # atno 10718 bound_to 10713
  153.1314  135.6741  153.9172 H   0  0  0  0  0  0  0  0  0  0  0  0  # atno 10763 bound_to 10752
  153.8657  135.3076  155.3441 H   0  0  0  0  0  0  0  0  0  0  0  0  # atno 10764 bound_to 10752
  154.7711  135.4939  153.9732 H   0  0  0  0  0  0  0  0  0  0  0  0  # atno 10765 bound_to 10752
  141.1021  133.8865  157.1816 H   0  0  0  0  0  0  0  0  0  0  0  0  # atno 11005 bound_to 11000
  145.1369  139.2596  143.5510 LP  0  0  0  0  0  0  0  0  0  0  0  0  # atno 17320 bound_to 7965
  146.3526  140.1036  142.8607 LP  0  0  0  0  0  0  0  0  0  0  0  0  # atno 17321 bound_to 7965
  139.5688  144.7451  151.3949 LP  0  0  0  0  0  0  0  0  0  0  0  0  # atno 17342 bound_to 10162
  140.6994  143.7670  150.7378 LP  0  0  0  0  0  0  0  0  0  0  0  0  # atno 17343 bound_to 10162
  156.7707  130.9185  151.3644 LP  0  0  0  0  0  0  0  0  0  0  0  0  # atno 17370 bound_to 10713
  157.6697  130.9040  150.0013 LP  0  0  0  0  0  0  0  0  0  0  0  0  # atno 17371 bound_to 10713
  139.9876  135.0076  156.9900 LP  0  0  0  0  0  0  0  0  0  0  0  0  # atno 17394 bound_to 11000
  140.4996  134.1111  155.7248 LP  0  0  0  0  0  0  0  0  0  0  0  0  # atno 17395 bound_to 11000

$$$$
