AV-unprocessed.smi:2329|AV-procd|sdf|9306|dock8
  -GOLD-   2272012523D 1   1.00000     0.00000
 Structure written by MMmdl.
 45 48  0  0  0  0  0  0  0  0  1 V2000
  141.8039  134.5080  152.8895 C   0  0  0  0  0  0  0  0  0  0  0  0
  143.2073  134.3297  152.3493 C   0  0  0  0  0  0  0  0  0  0  0  0
  143.4986  133.3185  151.4129 C   0  0  0  0  0  0  0  0  0  0  0  0
  144.8211  133.2072  150.9477 C   0  0  0  0  0  0  0  0  0  0  0  0
  145.7903  134.1059  151.4333 C   0  0  0  0  0  0  0  0  0  0  0  0
  145.4140  135.0934  152.3712 C   0  0  0  0  0  0  0  0  0  0  0  0
  146.4635  135.9509  152.7916 N   0  0  0  0  0  0  0  0  0  0  0  0
  146.3829  137.0817  153.5202 C   0  0  0  0  0  0  0  0  0  0  0  0
  145.3466  137.5347  154.0030 O   0  0  0  0  0  0  0  0  0  0  0  0
  147.5614  137.7086  153.6849 N   0  0  0  0  0  0  0  0  0  0  0  0
  147.8153  138.9504  154.4182 C   0  0  2  0  0  0  0  0  0  0  0  0
  147.8063  140.1782  153.4925 C   0  0  1  0  0  0  0  0  0  0  0  0
  146.7338  141.2222  153.6450 C   0  0  0  0  0  0  0  0  0  0  0  0
  147.4016  142.2687  154.5413 C   0  0  0  0  0  0  0  0  0  0  0  0
  148.4474  141.5612  155.2038 O   0  0  0  0  0  0  0  0  0  0  0  0
  149.0266  140.6646  154.2586 C   0  0  1  0  0  0  0  0  0  0  0  0
  149.3039  139.2265  154.7458 C   0  0  0  0  0  0  0  0  0  0  0  0
  149.7882  139.0653  156.1849 C   0  0  0  0  0  0  0  0  0  0  0  0
  151.3188  139.1099  156.1529 C   0  0  0  0  0  0  0  0  0  0  0  0
  151.7154  138.7592  154.7153 C   0  0  0  0  0  0  0  0  0  0  0  0
  150.4009  138.4762  153.9847 C   0  0  0  0  0  0  0  0  0  0  0  0
  144.1361  135.1930  152.8143 N   0  0  0  0  0  0  0  0  0  0  0  0
  141.1974  133.6205  152.7068 H   0  0  0  0  0  0  0  0  0  0  0  0
  141.3207  135.3585  152.4081 H   0  0  0  0  0  0  0  0  0  0  0  0
  141.8248  134.6876  153.9649 H   0  0  0  0  0  0  0  0  0  0  0  0
  142.7313  132.6457  151.0586 H   0  0  0  0  0  0  0  0  0  0  0  0
  145.0883  132.4460  150.2296 H   0  0  0  0  0  0  0  0  0  0  0  0
  146.8106  134.0352  151.0854 H   0  0  0  0  0  0  0  0  0  0  0  0
  147.3865  135.6949  152.4734 H   0  0  0  0  0  0  0  0  0  0  0  0
  148.3653  137.2827  153.2467 H   0  0  0  0  0  0  0  0  0  0  0  0
  147.1678  139.0983  155.2855 H   0  0  0  0  0  0  0  0  0  0  0  0
  148.0584  139.9294  152.4599 H   0  0  0  0  0  0  0  0  0  0  0  0
  146.4249  141.6494  152.6906 H   0  0  0  0  0  0  0  0  0  0  0  0
  145.8494  140.8047  154.1272 H   0  0  0  0  0  0  0  0  0  0  0  0
  147.8385  143.0664  153.9388 H   0  0  0  0  0  0  0  0  0  0  0  0
  146.7083  142.7184  155.2524 H   0  0  0  0  0  0  0  0  0  0  0  0
  149.7950  141.1218  153.6336 H   0  0  0  0  0  0  0  0  0  0  0  0
  149.3827  139.8231  156.8555 H   0  0  0  0  0  0  0  0  0  0  0  0
  149.4685  138.1008  156.5791 H   0  0  0  0  0  0  0  0  0  0  0  0
  151.6743  140.1101  156.4020 H   0  0  0  0  0  0  0  0  0  0  0  0
  151.7502  138.4178  156.8764 H   0  0  0  0  0  0  0  0  0  0  0  0
  152.2250  139.6068  154.2560 H   0  0  0  0  0  0  0  0  0  0  0  0
  152.3919  137.9050  154.6713 H   0  0  0  0  0  0  0  0  0  0  0  0
  150.2179  137.4015  154.0080 H   0  0  0  0  0  0  0  0  0  0  0  0
  150.4565  138.7647  152.9344 H   0  0  0  0  0  0  0  0  0  0  0  0
  1  2  1  0  0  0  0
  1 23  1  0  0  0  0
  1 24  1  0  0  0  0
  1 25  1  0  0  0  0
  2 22  1  0  0  0  0
  2  3  2  0  0  0  0
  3  4  1  0  0  0  0
  3 26  1  0  0  0  0
  4  5  2  0  0  0  0
  4 27  1  0  0  0  0
  5  6  1  0  0  0  0
  5 28  1  0  0  0  0
  6  7  1  0  0  0  0
  6 22  2  0  0  0  0
  7  8  1  0  0  0  0
  7 29  1  0  0  0  0
  8  9  2  0  0  0  0
  8 10  1  0  0  0  0
 10 11  1  0  0  0  0
 10 30  1  0  0  0  0
 11 17  1  0  0  0  0
 11 12  1  0  0  0  0
 11 31  1  0  0  0  0
 12 16  1  0  0  0  0
 12 13  1  0  0  0  0
 12 32  1  0  0  0  0
 13 14  1  0  0  0  0
 13 33  1  0  0  0  0
 13 34  1  0  0  0  0
 14 15  1  0  0  0  0
 14 35  1  0  0  0  0
 14 36  1  0  0  0  0
 15 16  1  0  0  0  0
 16 17  1  0  0  0  0
 16 37  1  0  0  0  0
 17 21  1  0  0  0  0
 17 18  1  0  0  0  0
 18 19  1  0  0  0  0
 18 38  1  0  0  0  0
 18 39  1  0  0  0  0
 19 20  1  0  0  0  0
 19 40  1  0  0  0  0
 19 41  1  0  0  0  0
 20 21  1  0  0  0  0
 20 42  1  0  0  0  0
 20 43  1  0  0  0  0
 21 44  1  0  0  0  0
 21 45  1  0  0  0  0
M  END
> <s_m_source_file>
AV-unprocessed.smi

> <i_m_source_file_index>
2329

> <i_lp_mmshare_version>
43012

> <i_f3d_flags>
0

> <s_epik_input>
W0NIM11jMVtjSF1bY0hdW2NIXWMobjEpW05IXUMoPU8pW05IXVtDQEBIXTJbQ0BASF0oW0NIMl1bQ0gyXU8zKVtDQEhdM0MyNFtDSDJdW0NIMl1bQ0gyXVtDSDJdNA==

> <s_epik_cmdline>
J2VwaWtfcHl0aG9uJywgJy1waCcsICc3LjAnLCAnLXRuJywgJzgnLCAnLW1hJywgJzIwMCcsICctbWV0YWxfYmluZGluZycsICctaW1hZScsICc8aW5maWxlLm1hZT4nLCAnLW9tYWUnLCAnPG91dGZpbGUubWFlPic=

> <r_lp_tautomer_probability>
1

> <r_epik_Ionization_Penalty>
8.97002e-05

> <r_epik_Ionization_Penalty_Charging>
0

> <r_epik_Ionization_Penalty_Neutral>
8.97002e-05

> <r_epik_State_Penalty>
-0

> <r_epik_Charging_Adjusted_Penalty>
0

> <i_epik_Tot_Q>
0

> <i_epik_Tot_abs_Q>
0

> <r_epik_Metal_State_Penalty>
-0

> <b_epik_Metal_Only>
0

> <s_lp_Force_Field>
OPLS_2005

> <r_lp_Energy>
64.3151

> <b_lp_Chiralities_Consistent>
1

> <s_lp_Variant>
AV-unprocessed.smi:2329-5

> <Gold.Version>
5.8.1

> <Gold.Id.Protein>
6NUR|6NUR_protein|mol2

> <Gold.PLP.Fitness>
39.5043

> <Gold.PLP.PLP>
-34.1953

> <Gold.PLP.part.hbond>
-2.0000

> <Gold.PLP.part.metal>
0.0000

> <Gold.PLP.part.buried>
-2.0571

> <Gold.PLP.part.nonpolar>
-31.5146

> <Gold.PLP.part.repulsive>
0.3442

> <Gold.PLP.ligand.clash>
0.0000

> <Gold.PLP.ligand.torsion>
0.2932

> <Gold.PLP.Chemscore.Hbond>
1.9040

> <Gold.PLP.Chemscore.CHOScore>
0.0000

> <Gold.PLP.Chemscore.Metal>
0.0000

> <Gold.Chemscore.Hbonds>
donor molecule, donor type, donor heavy atom, donor atom, acceptor molecule, acceptor atom, score
      L1  H     7    29       P1  7948  0.98
      L1  H    10    30       P1  7948  0.93

> <Gold.PLP.Chemscore.Internal.Correction>
0.1834

> <Gold.Rescore>
     Score         DG    S(hbond)    S(metal)    S(lipo)     H(rot)  DE(clash)    DE(int)     intcor
     18.58     -20.27       1.91        0.00      93.64       1.00       0.12       1.57       ----

> <Gold.Chemscore.Fitness>
18.5833

> <Gold.Chemscore.DG>
-20.2672

> <Gold.Chemscore.ZeroCoef>
-5.4800

> <Gold.Chemscore.Hbond>
1.9135

> <Gold.Chemscore.Metal>
0.0000

> <Gold.Chemscore.Lipo>
93.6419

> <Gold.Chemscore.Internal_Hbond>
0.0000

> <Gold.Chemscore.DEClash>
0.1162

> <Gold.Chemscore.DEInternal>
1.5678

> <Gold.Chemscore.Rot>
1.0000

> <Gold.Chemscore.Internal.Correction>
   9.000000E+99

> <Gold.Chemscore.Hbonds>
donor molecule, donor type, donor heavy atom, donor atom, acceptor molecule, acceptor atom, score
      L1  H     7    29       P1  7948  0.92
      L1  H    10    30       P1  7948  0.90

> <Gold.Chemscore.Hbond.Weighted>
-6.3911

> <Gold.Chemscore.Metal.Weighted>
-0.0000

> <Gold.Chemscore.Lipo.Weighted>
-10.9561

> <Gold.Chemscore.Internal_Hbond.Weighted>
0.0000

> <Gold.Chemscore.DEClash.Weighted>
0.1162

> <Gold.Chemscore.DEInternal.Weighted>
1.5678

> <Gold.Chemscore.Rot.Weighted>
2.5600

> <Gold.Chemscore.Internal.Correction.Weighted>
   9.000000E+99

> <Gold.Protein.RotatedTorsions>
[ 6907 6896 6895 6894 ] final -107.61 input  -60.11 | X-H torsion
[ 7974 7965 7964 7962 ] final  -76.24 input  175.53 | X-H torsion
[ 8008 7997 7996 7995 ] final  -98.12 input   59.86 | X-H torsion
[ 10167 10162 10161 10158 ] final  -27.13 input  -65.29 | X-H torsion
[ 10718 10713 10712 10709 ] final   52.62 input   66.30 | X-H torsion
[ 10763 10752 10751 10750 ] final  139.60 input  -60.55 | X-H torsion
[ 11005 11000 10999 10996 ] final -160.68 input  -57.11 | X-H torsion

> <Gold.Protein.ActiveResidues>
 VAL166  LYS551  ARG553  GLY616  TRP617  ASP618  TYR619  PRO620  LYS621  CYS622 
 ASP623  PHE694  ASN695  SER759  ASP760  ASP761  ALA762  ILE779  LEU786  VAL792 
 PHE793  MET794  SER795  GLU796  ALA797  LYS798  CYS799  TRP800  GLU811  SER814 

> <Gold.Protein.RotatedAtoms>
  150.7454  133.9801  159.3573 H   0  0  0  0  0  0  0  0  0  0  0  0  # atno 6907 bound_to 6896
  151.7741  135.0776  160.0373 H   0  0  0  0  0  0  0  0  0  0  0  0  # atno 6908 bound_to 6896
  152.3318  133.5930  159.5851 H   0  0  0  0  0  0  0  0  0  0  0  0  # atno 6909 bound_to 6896
  145.6154  140.9376  143.1167 H   0  0  0  0  0  0  0  0  0  0  0  0  # atno 7974 bound_to 7965
  154.7969  140.0457  157.1243 H   0  0  0  0  0  0  0  0  0  0  0  0  # atno 8008 bound_to 7997
  154.9524  140.3067  155.5049 H   0  0  0  0  0  0  0  0  0  0  0  0  # atno 8009 bound_to 7997
  156.2957  140.2285  156.4603 H   0  0  0  0  0  0  0  0  0  0  0  0  # atno 8010 bound_to 7997
  140.7279  143.4119  151.1092 H   0  0  0  0  0  0  0  0  0  0  0  0  # atno 10167 bound_to 10162
  157.5092  130.8489  149.8413 H   0  0  0  0  0  0  0  0  0  0  0  0  # atno 10718 bound_to 10713
  153.9088  135.3013  155.3448 H   0  0  0  0  0  0  0  0  0  0  0  0  # atno 10763 bound_to 10752
  154.7634  135.4923  153.9510 H   0  0  0  0  0  0  0  0  0  0  0  0  # atno 10764 bound_to 10752
  153.1204  135.6781  153.9447 H   0  0  0  0  0  0  0  0  0  0  0  0  # atno 10765 bound_to 10752
  140.6288  134.4673  157.5228 H   0  0  0  0  0  0  0  0  0  0  0  0  # atno 11005 bound_to 11000
  144.7253  139.7897  143.7367 LP  0  0  0  0  0  0  0  0  0  0  0  0  # atno 17320 bound_to 7965
  146.1472  139.4545  143.0071 LP  0  0  0  0  0  0  0  0  0  0  0  0  # atno 17321 bound_to 7965
  139.7753  143.8434  152.3128 LP  0  0  0  0  0  0  0  0  0  0  0  0  # atno 17342 bound_to 10162
  139.8366  144.7229  150.9383 LP  0  0  0  0  0  0  0  0  0  0  0  0  # atno 17343 bound_to 10162
  156.0278  130.3774  150.1773 LP  0  0  0  0  0  0  0  0  0  0  0  0  # atno 17370 bound_to 10713
  156.9963  130.9909  151.3402 LP  0  0  0  0  0  0  0  0  0  0  0  0  # atno 17371 bound_to 10713
  139.9124  134.8317  156.1482 LP  0  0  0  0  0  0  0  0  0  0  0  0  # atno 17394 bound_to 11000
  141.0690  133.6806  156.2102 LP  0  0  0  0  0  0  0  0  0  0  0  0  # atno 17395 bound_to 11000

$$$$
