AV-unprocessed.smi:247|AV-procd|sdf|1891|dock4
  -GOLD-   2262020553D 1   1.00000     0.00000
 Structure written by MMmdl.
 61 65  0  0  0  0  0  0  0  0  1 V2000
  142.9519  132.1571  149.5271 O   0  0  0  0  0  0  0  0  0  0  0  0
  144.3657  132.1726  149.4957 C   0  0  0  0  0  0  0  0  0  0  0  0
  145.0111  132.5072  150.8693 C   0  0  0  0  0  0  0  0  0  0  0  0
  144.1917  133.6567  151.5370 C   0  0  0  0  0  0  0  0  0  0  0  0
  144.9225  134.8994  151.7439 N   0  0  0  0  0  0  0  0  0  0  0  0
  145.2516  135.8316  150.7864 C   0  0  0  0  0  0  0  0  0  0  0  0
  145.9094  136.8697  151.2232 N   0  0  0  0  0  0  0  0  0  0  0  0
  146.0232  136.6544  152.5924 C   0  0  0  0  0  0  0  0  0  0  0  0
  146.6168  137.3768  153.6690 C   0  0  0  0  0  0  0  0  0  0  0  0
  147.2603  138.5646  153.5077 N   0  0  0  0  0  0  0  0  0  0  0  0
  146.8009  139.4861  152.4753 C   0  0  0  0  0  0  0  0  0  0  0  0
  147.1306  140.8878  152.9871 C   0  0  0  0  0  0  0  0  0  0  0  0
  147.3011  140.6831  154.4903 C   0  0  0  0  0  0  0  0  0  0  0  0
  147.9221  139.2788  154.6039 C   0  0  2  0  0  0  0  0  0  0  0  0
  149.4831  139.2627  154.4696 C   0  0  1  0  0  0  0  0  0  0  0  0
  150.1316  140.4832  155.1692 C   0  0  0  0  0  0  0  0  0  0  0  0
  149.9206  140.4143  156.5775 O   0  0  0  0  0  0  0  0  0  0  0  0
  150.5730  139.3056  157.1893 C   0  0  0  0  0  0  0  0  0  0  0  0
  150.0684  137.9839  156.5882 C   0  0  0  0  0  0  0  0  0  0  0  0
  150.2050  138.0209  155.0601 C   0  0  1  0  0  0  0  0  0  0  0  0
  149.8099  136.7923  154.4851 O   0  0  0  0  0  0  0  0  0  0  0  0
  146.5343  136.8203  154.9060 N   0  0  0  0  0  0  0  0  0  0  0  0
  145.9128  135.6524  155.0879 C   0  0  0  0  0  0  0  0  0  0  0  0
  145.3155  134.8767  154.1829 N   0  0  0  0  0  0  0  0  0  0  0  0
  145.4017  135.4191  152.9348 C   0  0  0  0  0  0  0  0  0  0  0  0
  145.0533  131.2336  151.7534 C   0  0  0  0  0  0  0  0  0  0  0  0
  145.8866  131.4348  153.0314 C   0  0  0  0  0  0  0  0  0  0  0  0
  147.2074  131.8356  152.6879 O   0  0  0  0  0  0  0  0  0  0  0  0
  147.2519  133.0795  151.9988 C   0  0  0  0  0  0  0  0  0  0  0  0
  146.4742  132.9817  150.6721 C   0  0  0  0  0  0  0  0  0  0  0  0
  142.6642  131.2685  149.6703 H   0  0  0  0  0  0  0  0  0  0  0  0
  144.7054  131.1977  149.1449 H   0  0  0  0  0  0  0  0  0  0  0  0
  144.6615  132.9014  148.7412 H   0  0  0  0  0  0  0  0  0  0  0  0
  143.3027  133.9011  150.9577 H   0  0  0  0  0  0  0  0  0  0  0  0
  143.8185  133.3255  152.5072 H   0  0  0  0  0  0  0  0  0  0  0  0
  144.9945  135.7136  149.7440 H   0  0  0  0  0  0  0  0  0  0  0  0
  147.2881  139.2851  151.5209 H   0  0  0  0  0  0  0  0  0  0  0  0
  145.7235  139.3839  152.3383 H   0  0  0  0  0  0  0  0  0  0  0  0
  148.0686  141.2324  152.5507 H   0  0  0  0  0  0  0  0  0  0  0  0
  146.3587  141.6180  152.7431 H   0  0  0  0  0  0  0  0  0  0  0  0
  147.8627  141.4867  154.9604 H   0  0  0  0  0  0  0  0  0  0  0  0
  146.3165  140.6741  154.9599 H   0  0  0  0  0  0  0  0  0  0  0  0
  147.6546  138.8779  155.5808 H   0  0  0  0  0  0  0  0  0  0  0  0
  149.7308  139.3137  153.4087 H   0  0  0  0  0  0  0  0  0  0  0  0
  151.2029  140.5175  154.9638 H   0  0  0  0  0  0  0  0  0  0  0  0
  149.7408  141.4284  154.8005 H   0  0  0  0  0  0  0  0  0  0  0  0
  151.6526  139.3987  157.0615 H   0  0  0  0  0  0  0  0  0  0  0  0
  150.3784  139.3284  158.2615 H   0  0  0  0  0  0  0  0  0  0  0  0
  150.6363  137.1496  157.0010 H   0  0  0  0  0  0  0  0  0  0  0  0
  149.0301  137.8226  156.8754 H   0  0  0  0  0  0  0  0  0  0  0  0
  151.2670  138.1102  154.8263 H   0  0  0  0  0  0  0  0  0  0  0  0
  149.5690  136.9454  153.5844 H   0  0  0  0  0  0  0  0  0  0  0  0
  145.8924  135.2882  156.1045 H   0  0  0  0  0  0  0  0  0  0  0  0
  144.0496  130.8925  152.0043 H   0  0  0  0  0  0  0  0  0  0  0  0
  145.5063  130.4125  151.1972 H   0  0  0  0  0  0  0  0  0  0  0  0
  145.4309  132.1655  153.6998 H   0  0  0  0  0  0  0  0  0  0  0  0
  145.9426  130.4981  153.5863 H   0  0  0  0  0  0  0  0  0  0  0  0
  146.8682  133.8765  152.6360 H   0  0  0  0  0  0  0  0  0  0  0  0
  148.2947  133.3241  151.7961 H   0  0  0  0  0  0  0  0  0  0  0  0
  147.0141  132.2841  150.0315 H   0  0  0  0  0  0  0  0  0  0  0  0
  146.4977  133.9413  150.1544 H   0  0  0  0  0  0  0  0  0  0  0  0
  1  2  1  0  0  0  0
  1 31  1  0  0  0  0
  2  3  1  0  0  0  0
  2 32  1  0  0  0  0
  2 33  1  0  0  0  0
  3 30  1  0  0  0  0
  3  4  1  0  0  0  0
  3 26  1  0  0  0  0
  4  5  1  0  0  0  0
  4 34  1  0  0  0  0
  4 35  1  0  0  0  0
  5 25  1  0  0  0  0
  5  6  1  0  0  0  0
  6  7  2  0  0  0  0
  6 36  1  0  0  0  0
  7  8  1  0  0  0  0
  8 25  2  0  0  0  0
  8  9  1  0  0  0  0
  9 10  1  0  0  0  0
  9 22  2  0  0  0  0
 10 14  1  0  0  0  0
 10 11  1  0  0  0  0
 11 12  1  0  0  0  0
 11 37  1  0  0  0  0
 11 38  1  0  0  0  0
 12 13  1  0  0  0  0
 12 39  1  0  0  0  0
 12 40  1  0  0  0  0
 13 14  1  0  0  0  0
 13 41  1  0  0  0  0
 13 42  1  0  0  0  0
 14 15  1  0  0  0  0
 14 43  1  0  0  0  0
 15 20  1  0  0  0  0
 15 16  1  0  0  0  0
 15 44  1  0  0  0  0
 16 17  1  0  0  0  0
 16 45  1  0  0  0  0
 16 46  1  0  0  0  0
 17 18  1  0  0  0  0
 18 19  1  0  0  0  0
 18 47  1  0  0  0  0
 18 48  1  0  0  0  0
 19 20  1  0  0  0  0
 19 49  1  0  0  0  0
 19 50  1  0  0  0  0
 20 21  1  0  0  0  0
 20 51  1  0  0  0  0
 21 52  1  0  0  0  0
 22 23  1  0  0  0  0
 23 24  2  0  0  0  0
 23 53  1  0  0  0  0
 24 25  1  0  0  0  0
 26 27  1  0  0  0  0
 26 54  1  0  0  0  0
 26 55  1  0  0  0  0
 27 28  1  0  0  0  0
 27 56  1  0  0  0  0
 27 57  1  0  0  0  0
 28 29  1  0  0  0  0
 29 30  1  0  0  0  0
 29 58  1  0  0  0  0
 29 59  1  0  0  0  0
 30 60  1  0  0  0  0
 30 61  1  0  0  0  0
M  END
> <s_m_source_file>
AV-unprocessed.smi

> <i_m_source_file_index>
247

> <i_lp_mmshare_version>
43012

> <i_f3d_flags>
0

> <s_epik_input>
W0NIMl0xW0NIMl1PW0NIMl1bQ0gyXUMxKFtDSDJdW09IXSlbQ0gyXW4oW2NIXW4yKWMoYzIzKW5bY0hdbmMzTjRbQ0gyXVtDSDJdW0NIMl1bQ0BIXTRbQ0BASF01W0NIMl1PW0NIMl1bQ0gyXVtDQEhdNVtPSF0=

> <s_epik_cmdline>
J2VwaWtfcHl0aG9uJywgJy1waCcsICc3LjAnLCAnLXRuJywgJzgnLCAnLW1hJywgJzIwMCcsICctbWV0YWxfYmluZGluZycsICctaW1hZScsICc8aW5maWxlLm1hZT4nLCAnLW9tYWUnLCAnPG91dGZpbGUubWFlPic=

> <r_lp_tautomer_probability>
1

> <r_epik_Ionization_Penalty>
0.00362597

> <r_epik_Ionization_Penalty_Charging>
0

> <r_epik_Ionization_Penalty_Neutral>
0.00362597

> <r_epik_State_Penalty>
0.00241433

> <r_epik_Charging_Adjusted_Penalty>
0.00241433

> <i_epik_Tot_Q>
0

> <i_epik_Tot_abs_Q>
0

> <r_epik_Metal_State_Penalty>
-0

> <b_epik_Metal_Only>
0

> <s_lp_Force_Field>
OPLS_2005

> <r_lp_Energy>
63.0173

> <b_lp_Chiralities_Consistent>
1

> <s_lp_Variant>
AV-unprocessed.smi:247-4

> <Gold.Version>
5.8.1

> <Gold.Id.Protein>
6NUR|6NUR_protein|mol2

> <Gold.PLP.Fitness>
45.0724

> <Gold.PLP.PLP>
-41.6946

> <Gold.PLP.part.hbond>
-3.6321

> <Gold.PLP.part.metal>
0.0000

> <Gold.PLP.part.buried>
-3.2175

> <Gold.PLP.part.nonpolar>
-36.9637

> <Gold.PLP.part.repulsive>
2.2340

> <Gold.PLP.ligand.clash>
0.0000

> <Gold.PLP.ligand.torsion>
2.3082

> <Gold.PLP.Chemscore.Hbond>
1.6350

> <Gold.PLP.Chemscore.CHOScore>
0.9270

> <Gold.PLP.Chemscore.Metal>
0.0000

> <Gold.Chemscore.Hbonds>
donor molecule, donor type, donor heavy atom, donor atom, acceptor molecule, acceptor atom, score
      L1  H     1    31       P1 10952  0.60
      L1  H    21    52       P1  7948  0.98
      L1  C     6    36       P1  7921  0.94

> <Gold.PLP.Chemscore.Internal.Correction>
0.3082

> <Gold.Rescore>
     Score         DG    S(hbond)    S(metal)    S(lipo)     H(rot)  DE(clash)    DE(int)     intcor
      9.08     -15.98       1.67        0.00     106.33       2.94       1.60       5.29       ----

> <Gold.Chemscore.Fitness>
9.0846

> <Gold.Chemscore.DG>
-15.9780

> <Gold.Chemscore.ZeroCoef>
-5.4800

> <Gold.Chemscore.Hbond>
1.6734

> <Gold.Chemscore.Metal>
0.0000

> <Gold.Chemscore.Lipo>
106.3333

> <Gold.Chemscore.Internal_Hbond>
0.0000

> <Gold.Chemscore.DEClash>
1.5999

> <Gold.Chemscore.DEInternal>
5.2936

> <Gold.Chemscore.Rot>
2.9423

> <Gold.Chemscore.Internal.Correction>
   9.000000E+99

> <Gold.Chemscore.Hbonds>
donor molecule, donor type, donor heavy atom, donor atom, acceptor molecule, acceptor atom, score
      L1  H     1    31       P1 10952  0.58
      L1  H    21    52       P1  7948  0.76

> <Gold.Chemscore.Hbond.Weighted>
-5.5893

> <Gold.Chemscore.Metal.Weighted>
-0.0000

> <Gold.Chemscore.Lipo.Weighted>
-12.4410

> <Gold.Chemscore.Internal_Hbond.Weighted>
0.0000

> <Gold.Chemscore.DEClash.Weighted>
1.5999

> <Gold.Chemscore.DEInternal.Weighted>
5.2936

> <Gold.Chemscore.Rot.Weighted>
7.5323

> <Gold.Chemscore.Internal.Correction.Weighted>
   9.000000E+99

> <Gold.Protein.RotatedTorsions>
[ 6907 6896 6895 6894 ] final  137.13 input  -60.11 | X-H torsion
[ 7974 7965 7964 7962 ] final -108.49 input  175.53 | X-H torsion
[ 8008 7997 7996 7995 ] final   91.37 input   59.86 | X-H torsion
[ 10167 10162 10161 10158 ] final   44.49 input  -65.29 | X-H torsion
[ 10718 10713 10712 10709 ] final -119.79 input   66.30 | X-H torsion
[ 10763 10752 10751 10750 ] final -145.19 input  -60.55 | X-H torsion
[ 11005 11000 10999 10996 ] final  111.65 input  -57.11 | X-H torsion

> <Gold.Protein.ActiveResidues>
 VAL166  LYS551  ARG553  GLY616  TRP617  ASP618  TYR619  PRO620  LYS621  CYS622 
 ASP623  PHE694  ASN695  SER759  ASP760  ASP761  ALA762  ILE779  LEU786  VAL792 
 PHE793  MET794  SER795  GLU796  ALA797  LYS798  CYS799  TRP800  GLU811  SER814 

> <Gold.Protein.RotatedAtoms>
  152.2816  133.5475  159.5500 H   0  0  0  0  0  0  0  0  0  0  0  0  # atno 6907 bound_to 6896
  150.7198  134.0556  159.3822 H   0  0  0  0  0  0  0  0  0  0  0  0  # atno 6908 bound_to 6896
  151.8466  135.0572  160.0505 H   0  0  0  0  0  0  0  0  0  0  0  0  # atno 6909 bound_to 6896
  145.1923  140.9020  143.3418 H   0  0  0  0  0  0  0  0  0  0  0  0  # atno 7974 bound_to 7965
  156.0229  140.3338  155.7058 H   0  0  0  0  0  0  0  0  0  0  0  0  # atno 8008 bound_to 7997
  155.5996  140.0654  157.2754 H   0  0  0  0  0  0  0  0  0  0  0  0  # atno 8009 bound_to 7997
  154.4323  140.1813  156.1147 H   0  0  0  0  0  0  0  0  0  0  0  0  # atno 8010 bound_to 7997
  140.3338  144.2555  150.6164 H   0  0  0  0  0  0  0  0  0  0  0  0  # atno 10167 bound_to 10162
  156.1208  130.6321  150.9459 H   0  0  0  0  0  0  0  0  0  0  0  0  # atno 10718 bound_to 10713
  154.8394  135.3420  154.6466 H   0  0  0  0  0  0  0  0  0  0  0  0  # atno 10763 bound_to 10752
  153.7078  135.6966  153.5050 H   0  0  0  0  0  0  0  0  0  0  0  0  # atno 10764 bound_to 10752
  153.2474  135.4364  155.0716 H   0  0  0  0  0  0  0  0  0  0  0  0  # atno 10765 bound_to 10752
  139.8908  134.9512  156.6465 H   0  0  0  0  0  0  0  0  0  0  0  0  # atno 11005 bound_to 11000
  145.0029  139.3581  143.6158 LP  0  0  0  0  0  0  0  0  0  0  0  0  # atno 17320 bound_to 7965
  146.3434  139.9260  142.8760 LP  0  0  0  0  0  0  0  0  0  0  0  0  # atno 17321 bound_to 7965
  140.5372  143.2231  151.8143 LP  0  0  0  0  0  0  0  0  0  0  0  0  # atno 17342 bound_to 10162
  139.4852  144.4646  151.9500 LP  0  0  0  0  0  0  0  0  0  0  0  0  # atno 17343 bound_to 10162
  157.6391  131.0912  150.8288 LP  0  0  0  0  0  0  0  0  0  0  0  0  # atno 17370 bound_to 10713
  156.8385  130.5040  149.5323 LP  0  0  0  0  0  0  0  0  0  0  0  0  # atno 17371 bound_to 10713
  140.7554  133.8862  155.8378 LP  0  0  0  0  0  0  0  0  0  0  0  0  # atno 17394 bound_to 11000
  140.9966  134.1206  157.4357 LP  0  0  0  0  0  0  0  0  0  0  0  0  # atno 17395 bound_to 11000

$$$$
