AV-unprocessed.smi:1701|AV-procd|sdf|6831|dock5
  -GOLD-   22720 8 03D 1   1.00000     0.00000
 Structure written by MMmdl.
 54 56  0  0  0  0  0  0  0  0  2 V2000
  151.8865  141.0765  159.4225 C   0  0  0  0  0  0  0  0  0  0  0  0
  152.2731  140.6586  157.9951 C   0  0  0  0  0  0  0  0  0  0  0  0
  151.3331  141.1423  156.9845 N   0  0  0  0  0  0  0  0  0  0  0  0
  150.6331  142.3965  157.2724 C   0  0  0  0  0  0  0  0  0  0  0  0
  151.5800  143.5360  157.6821 C   0  0  0  0  0  0  0  0  0  0  0  0
  150.6370  140.1219  156.2993 C   0  0  0  0  0  0  0  0  0  0  0  0
  149.8714  139.1807  157.0243 C   0  0  0  0  0  0  0  0  0  0  0  0
  149.1721  138.1814  156.3223 C   0  0  0  0  0  0  0  0  0  0  0  0
  149.2450  138.1424  154.9161 C   0  0  0  0  0  0  0  0  0  0  0  0
  148.5239  137.1120  154.2517 N   0  0  0  0  0  0  0  0  0  0  0  0
  147.6741  136.1932  154.7525 C   0  0  0  0  0  0  0  0  0  0  0  0
  147.3613  136.0884  155.9351 O   0  0  0  0  0  0  0  0  0  0  0  0
  147.1637  135.3596  153.8286 N   0  0  0  0  0  0  0  0  0  0  0  0
  146.2210  134.2589  154.0302 C   0  0  2  0  0  0  0  0  0  0  0  0
  146.8052  133.0641  154.8104 C   0  0  0  0  0  0  0  0  0  0  0  0
  146.2328  131.8075  154.1237 C   0  0  0  0  0  0  0  0  0  0  0  0
  145.2909  132.3143  153.1075 N   0  3  2  0  0  0  0  0  0  0  0  0
  144.9981  131.4316  151.9571 C   0  0  0  0  0  0  0  0  0  0  0  0
  143.9444  132.1052  151.0544 C   0  0  0  0  0  0  0  0  0  0  0  0
  144.3651  133.5324  150.6469 C   0  0  0  0  0  0  0  0  0  0  0  0
  144.7467  134.3739  151.8800 C   0  0  0  0  0  0  0  0  0  0  0  0
  145.8112  133.6279  152.7003 C   0  0  1  0  0  0  0  0  0  0  0  0
  150.0379  139.1264  154.2770 C   0  0  0  0  0  0  0  0  0  0  0  0
  150.7107  140.0857  154.9469 N   0  0  0  0  0  0  0  0  0  0  0  0
  152.6136  140.7013  160.1428 H   0  0  0  0  0  0  0  0  0  0  0  0
  150.9103  140.6798  159.7032 H   0  0  0  0  0  0  0  0  0  0  0  0
  151.8504  142.1613  159.5250 H   0  0  0  0  0  0  0  0  0  0  0  0
  153.2629  141.0517  157.7611 H   0  0  0  0  0  0  0  0  0  0  0  0
  152.3700  139.5747  157.9428 H   0  0  0  0  0  0  0  0  0  0  0  0
  150.0366  142.6955  156.4097 H   0  0  0  0  0  0  0  0  0  0  0  0
  149.9242  142.2247  158.0830 H   0  0  0  0  0  0  0  0  0  0  0  0
  151.0132  144.4326  157.9327 H   0  0  0  0  0  0  0  0  0  0  0  0
  152.2739  143.8020  156.8849 H   0  0  0  0  0  0  0  0  0  0  0  0
  152.1672  143.2611  158.5585 H   0  0  0  0  0  0  0  0  0  0  0  0
  149.8239  139.2103  158.1030 H   0  0  0  0  0  0  0  0  0  0  0  0
  148.5861  137.4525  156.8629 H   0  0  0  0  0  0  0  0  0  0  0  0
  148.6851  137.0563  153.2569 H   0  0  0  0  0  0  0  0  0  0  0  0
  147.4532  135.5221  152.8747 H   0  0  0  0  0  0  0  0  0  0  0  0
  145.3215  134.6176  154.5352 H   0  0  0  0  0  0  0  0  0  0  0  0
  147.8950  133.0482  154.7604 H   0  0  0  0  0  0  0  0  0  0  0  0
  146.5270  133.1115  155.8638 H   0  0  0  0  0  0  0  0  0  0  0  0
  147.0359  131.2467  153.6426 H   0  0  0  0  0  0  0  0  0  0  0  0
  145.7270  131.1428  154.8244 H   0  0  0  0  0  0  0  0  0  0  0  0
  145.9130  131.2355  151.3960 H   0  0  0  0  0  0  0  0  0  0  0  0
  144.6278  130.4713  152.3172 H   0  0  0  0  0  0  0  0  0  0  0  0
  143.7717  131.4984  150.1651 H   0  0  0  0  0  0  0  0  0  0  0  0
  142.9921  132.1500  151.5847 H   0  0  0  0  0  0  0  0  0  0  0  0
  145.2166  133.4782  149.9675 H   0  0  0  0  0  0  0  0  0  0  0  0
  143.5600  134.0186  150.0952 H   0  0  0  0  0  0  0  0  0  0  0  0
  145.1232  135.3486  151.5680 H   0  0  0  0  0  0  0  0  0  0  0  0
  143.8619  134.5597  152.4908 H   0  0  0  0  0  0  0  0  0  0  0  0
  146.7014  133.4724  152.0857 H   0  0  0  0  0  0  0  0  0  0  0  0
  150.1614  139.1707  153.2076 H   0  0  0  0  0  0  0  0  0  0  0  0
  144.4177  132.4876  153.5847 H   0  0  0  0  0  0  0  0  0  0  0  0
  1  2  1  0  0  0  0
  1 25  1  0  0  0  0
  1 26  1  0  0  0  0
  1 27  1  0  0  0  0
  2  3  1  0  0  0  0
  2 28  1  0  0  0  0
  2 29  1  0  0  0  0
  3  4  1  0  0  0  0
  3  6  1  0  0  0  0
  4  5  1  0  0  0  0
  4 30  1  0  0  0  0
  4 31  1  0  0  0  0
  5 32  1  0  0  0  0
  5 33  1  0  0  0  0
  5 34  1  0  0  0  0
  6 24  1  0  0  0  0
  6  7  2  0  0  0  0
  7  8  1  0  0  0  0
  7 35  1  0  0  0  0
  8  9  2  0  0  0  0
  8 36  1  0  0  0  0
  9 10  1  0  0  0  0
  9 23  1  0  0  0  0
 10 11  1  0  0  0  0
 10 37  1  0  0  0  0
 11 12  2  0  0  0  0
 11 13  1  0  0  0  0
 13 14  1  0  0  0  0
 13 38  1  0  0  0  0
 14 22  1  0  0  0  0
 14 15  1  0  0  0  0
 14 39  1  0  0  0  0
 15 16  1  0  0  0  0
 15 40  1  0  0  0  0
 15 41  1  0  0  0  0
 16 17  1  0  0  0  0
 16 42  1  0  0  0  0
 16 43  1  0  0  0  0
 17 22  1  0  0  0  0
 17 18  1  0  0  0  0
 17 54  1  0  0  0  0
 18 19  1  0  0  0  0
 18 44  1  0  0  0  0
 18 45  1  0  0  0  0
 19 20  1  0  0  0  0
 19 46  1  0  0  0  0
 19 47  1  0  0  0  0
 20 21  1  0  0  0  0
 20 48  1  0  0  0  0
 20 49  1  0  0  0  0
 21 22  1  0  0  0  0
 21 50  1  0  0  0  0
 21 51  1  0  0  0  0
 22 52  1  0  0  0  0
 23 24  2  0  0  0  0
 23 53  1  0  0  0  0
M  CHG  1  17   1
M  END
> <s_m_source_file>
AV-unprocessed.smi

> <i_m_source_file_index>
1701

> <i_lp_mmshare_version>
43012

> <i_f3d_flags>
0

> <s_epik_input>
W0NIM11bQ0gyXU4oW0NIMl1bQ0gzXSljMVtjSF1bY0hdYyhbY0hdbjEpW05IXUMoPU8pW05IXVtDQEhdKFtDSDJdW0NIMl0yKVtDQEBIXShOMjMpW0NIMl1bQ0gyXVtDSDJdW0NIMl0z

> <s_epik_cmdline>
J2VwaWtfcHl0aG9uJywgJy1waCcsICc3LjAnLCAnLXRuJywgJzgnLCAnLW1hJywgJzIwMCcsICctbWV0YWxfYmluZGluZycsICctaW1hZScsICc8aW5maWxlLm1hZT4nLCAnLW9tYWUnLCAnPG91dGZpbGUubWFlPic=

> <r_lp_tautomer_probability>
1

> <r_epik_Ionization_Penalty>
0.56662

> <r_epik_Ionization_Penalty_Charging>
0.000974069

> <r_epik_Ionization_Penalty_Neutral>
0.565646

> <r_epik_State_Penalty>
2.0247

> <r_epik_Charging_Adjusted_Penalty>
2.02568

> <i_epik_Tot_Q>
1

> <i_epik_Tot_abs_Q>
1

> <r_epik_Metal_State_Penalty>
1.51504

> <b_epik_Metal_Only>
0

> <s_lp_Force_Field>
OPLS_2005

> <r_lp_Energy>
54.426

> <b_lp_Chiralities_Consistent>
1

> <s_lp_Variant>
AV-unprocessed.smi:1701-11

> <Gold.Version>
5.8.1

> <Gold.Id.Protein>
6NUR|6NUR_protein|mol2

> <Gold.PLP.Fitness>
45.2322

> <Gold.PLP.PLP>
-33.0664

> <Gold.PLP.part.hbond>
-3.6805

> <Gold.PLP.part.metal>
0.0000

> <Gold.PLP.part.buried>
-5.2819

> <Gold.PLP.part.nonpolar>
-25.3708

> <Gold.PLP.part.repulsive>
0.0886

> <Gold.PLP.ligand.clash>
0.0000

> <Gold.PLP.ligand.torsion>
1.6484

> <Gold.PLP.Chemscore.Hbond>
3.8788

> <Gold.PLP.Chemscore.CHOScore>
1.0000

> <Gold.PLP.Chemscore.Metal>
0.0000

> <Gold.Chemscore.Hbonds>
donor molecule, donor type, donor heavy atom, donor atom, acceptor molecule, acceptor atom, score
      L1  H    10    37       P1  7948  1.00
      L1  H    13    38       P1  7948  0.83
      L1  H    17    54       P1 10957  1.00
      P1  H  7989  7998       L1    24  0.95
      L1  C    23    53       P1  7957  1.00

> <Gold.PLP.Chemscore.Internal.Correction>
0.8263

> <Gold.Rescore>
     Score         DG    S(hbond)    S(metal)    S(lipo)     H(rot)  DE(clash)    DE(int)     intcor
     18.03     -21.24       2.72        0.00      85.28       1.28       0.14       3.08       ----

> <Gold.Chemscore.Fitness>
18.0270

> <Gold.Chemscore.DG>
-21.2418

> <Gold.Chemscore.ZeroCoef>
-5.4800

> <Gold.Chemscore.Hbond>
2.7157

> <Gold.Chemscore.Metal>
0.0000

> <Gold.Chemscore.Lipo>
85.2808

> <Gold.Chemscore.Internal_Hbond>
0.0000

> <Gold.Chemscore.DEClash>
0.1355

> <Gold.Chemscore.DEInternal>
3.0794

> <Gold.Chemscore.Rot>
1.2838

> <Gold.Chemscore.Internal.Correction>
   9.000000E+99

> <Gold.Chemscore.Hbonds>
donor molecule, donor type, donor heavy atom, donor atom, acceptor molecule, acceptor atom, score
      L1  H    10    37       P1  7948  0.96
      L1  H    13    38       P1  7948  0.81
      L1  H    17    54       P1 10957  0.14
      P1  H  7989  7998       L1    24  0.22

> <Gold.Chemscore.Hbond.Weighted>
-9.0705

> <Gold.Chemscore.Metal.Weighted>
-0.0000

> <Gold.Chemscore.Lipo.Weighted>
-9.9779

> <Gold.Chemscore.Internal_Hbond.Weighted>
0.0000

> <Gold.Chemscore.DEClash.Weighted>
0.1355

> <Gold.Chemscore.DEInternal.Weighted>
3.0794

> <Gold.Chemscore.Rot.Weighted>
3.2865

> <Gold.Chemscore.Internal.Correction.Weighted>
   9.000000E+99

> <Gold.Protein.RotatedTorsions>
[ 6907 6896 6895 6894 ] final  -75.18 input  -60.11 | X-H torsion
[ 7974 7965 7964 7962 ] final   14.76 input  175.53 | X-H torsion
[ 8008 7997 7996 7995 ] final  -71.52 input   59.86 | X-H torsion
[ 10167 10162 10161 10158 ] final  148.05 input  -65.29 | X-H torsion
[ 10718 10713 10712 10709 ] final   63.56 input   66.30 | X-H torsion
[ 10763 10752 10751 10750 ] final  100.65 input  -60.55 | X-H torsion
[ 11005 11000 10999 10996 ] final   61.34 input  -57.11 | X-H torsion

> <Gold.Protein.ActiveResidues>
 VAL166  LYS551  ARG553  GLY616  TRP617  ASP618  TYR619  PRO620  LYS621  CYS622 
 ASP623  PHE694  ASN695  SER759  ASP760  ASP761  ALA762  ILE779  LEU786  VAL792 
 PHE793  MET794  SER795  GLU796  ALA797  LYS798  CYS799  TRP800  GLU811  SER814 

> <Gold.Protein.RotatedAtoms>
  150.7068  134.4759  159.5447 H   0  0  0  0  0  0  0  0  0  0  0  0  # atno 6907 bound_to 6896
  152.2406  134.8229  160.0470 H   0  0  0  0  0  0  0  0  0  0  0  0  # atno 6908 bound_to 6896
  151.9012  133.3503  159.3868 H   0  0  0  0  0  0  0  0  0  0  0  0  # atno 6909 bound_to 6896
  146.2296  139.8994  142.8541 H   0  0  0  0  0  0  0  0  0  0  0  0  # atno 7974 bound_to 7965
  154.5095  140.0814  156.7961 H   0  0  0  0  0  0  0  0  0  0  0  0  # atno 8008 bound_to 7997
  155.3818  140.3428  155.4229 H   0  0  0  0  0  0  0  0  0  0  0  0  # atno 8009 bound_to 7997
  156.1555  140.1572  156.8686 H   0  0  0  0  0  0  0  0  0  0  0  0  # atno 8010 bound_to 7997
  139.4880  144.5709  151.7056 H   0  0  0  0  0  0  0  0  0  0  0  0  # atno 10167 bound_to 10162
  157.5980  130.9112  149.9732 H   0  0  0  0  0  0  0  0  0  0  0  0  # atno 10718 bound_to 10713
  153.3166  135.4072  155.1381 H   0  0  0  0  0  0  0  0  0  0  0  0  # atno 10763 bound_to 10752
  154.8590  135.3577  154.5652 H   0  0  0  0  0  0  0  0  0  0  0  0  # atno 10764 bound_to 10752
  153.6084  135.7068  153.5415 H   0  0  0  0  0  0  0  0  0  0  0  0  # atno 10765 bound_to 10752
  140.0168  134.6213  155.9698 H   0  0  0  0  0  0  0  0  0  0  0  0  # atno 11005 bound_to 11000
  145.2338  140.9983  143.3975 LP  0  0  0  0  0  0  0  0  0  0  0  0  # atno 17320 bound_to 7965
  144.9508  139.4085  143.6403 LP  0  0  0  0  0  0  0  0  0  0  0  0  # atno 17321 bound_to 7965
  140.5296  144.0751  150.6049 LP  0  0  0  0  0  0  0  0  0  0  0  0  # atno 17342 bound_to 10162
  140.3737  143.2840  152.0249 LP  0  0  0  0  0  0  0  0  0  0  0  0  # atno 17343 bound_to 10162
  156.1046  130.3653  150.0156 LP  0  0  0  0  0  0  0  0  0  0  0  0  # atno 17370 bound_to 10713
  156.8265  130.9377  151.3639 LP  0  0  0  0  0  0  0  0  0  0  0  0  # atno 17371 bound_to 10713
  141.1748  133.6539  156.4786 LP  0  0  0  0  0  0  0  0  0  0  0  0  # atno 17394 bound_to 11000
  140.4457  134.6975  157.5014 LP  0  0  0  0  0  0  0  0  0  0  0  0  # atno 17395 bound_to 11000

$$$$
