AV-unprocessed.smi:38|AV-procd|sdf|336|dock9
  -GOLD-   2262016173D 1   1.00000     0.00000
 Structure written by MMmdl.
 28 29  0  0  0  0  0  0  0  0  1 V2000
  151.9140  137.0769  159.4448 O   0  0  0  0  0  0  0  0  0  0  0  0
  151.4696  137.6239  158.4374 C   0  0  0  0  0  0  0  0  0  0  0  0
  152.3369  138.2459  157.5346 N   0  0  0  0  0  0  0  0  0  0  0  0
  151.9559  138.8982  156.3603 C   0  0  0  0  0  0  0  0  0  0  0  0
  152.8091  139.4262  155.6486 O   0  0  0  0  0  0  0  0  0  0  0  0
  150.5766  138.9220  156.0550 N   0  0  0  0  0  0  0  0  0  0  0  0
  150.1028  139.6119  154.7962 C   0  0  2  0  0  0  0  0  0  0  0  0
  149.6688  141.0483  155.0922 C   0  0  0  0  0  0  0  0  0  0  0  0
  148.4565  141.1832  154.1947 C   0  0  2  0  0  0  0  0  0  0  0  0
  147.5778  142.1801  154.6747 O   0  0  0  0  0  0  0  0  0  0  0  0
  147.8482  139.7805  154.2673 C   0  0  1  0  0  0  0  0  0  0  0  0
  146.9665  139.4321  153.0587 C   0  0  0  0  0  0  0  0  0  0  0  0
  147.7650  138.9478  152.0006 O   0  0  0  0  0  0  0  0  0  0  0  0
  148.9928  138.9277  154.2924 O   0  0  0  0  0  0  0  0  0  0  0  0
  149.6772  138.3266  156.9295 C   0  0  0  0  0  0  0  0  0  0  0  0
  150.0593  137.7002  158.0676 C   0  0  0  0  0  0  0  0  0  0  0  0
  149.1298  137.1485  158.8659 F   0  0  0  0  0  0  0  0  0  0  0  0
  153.3225  138.2245  157.7526 H   0  0  0  0  0  0  0  0  0  0  0  0
  150.8957  139.5420  154.0501 H   0  0  0  0  0  0  0  0  0  0  0  0
  148.7701  141.4159  153.1760 H   0  0  0  0  0  0  0  0  0  0  0  0
  147.2954  139.6717  155.2023 H   0  0  0  0  0  0  0  0  0  0  0  0
  149.3878  141.1403  156.1430 H   0  0  0  0  0  0  0  0  0  0  0  0
  150.4663  141.7586  154.8719 H   0  0  0  0  0  0  0  0  0  0  0  0
  148.0905  142.8749  155.0591 H   0  0  0  0  0  0  0  0  0  0  0  0
  146.2617  138.6433  153.3231 H   0  0  0  0  0  0  0  0  0  0  0  0
  146.3821  140.2928  152.7324 H   0  0  0  0  0  0  0  0  0  0  0  0
  148.0235  138.0609  152.2006 H   0  0  0  0  0  0  0  0  0  0  0  0
  148.6216  138.3604  156.7072 H   0  0  0  0  0  0  0  0  0  0  0  0
  1  2  2  0  0  0  0
  2 16  1  0  0  0  0
  2  3  1  0  0  0  0
  3 18  1  0  0  0  0
  3  4  1  0  0  0  0
  4  5  2  0  0  0  0
  4  6  1  0  0  0  0
  6  7  1  0  0  0  0
  6 15  1  0  0  0  0
  7 19  1  0  0  0  0
  7 14  1  0  0  0  0
  7  8  1  0  0  0  0
  8  9  1  0  0  0  0
  8 22  1  0  0  0  0
  8 23  1  0  0  0  0
  9 20  1  0  0  0  0
  9 10  1  0  0  0  0
  9 11  1  0  0  0  0
 10 24  1  0  0  0  0
 11 21  1  0  0  0  0
 11 12  1  0  0  0  0
 11 14  1  0  0  0  0
 12 13  1  0  0  0  0
 12 25  1  0  0  0  0
 12 26  1  0  0  0  0
 13 27  1  0  0  0  0
 15 16  2  0  0  0  0
 15 28  1  0  0  0  0
 16 17  1  0  0  0  0
M  END
> <s_m_source_file>
AV-unprocessed.smi

> <i_m_source_file_index>
38

> <i_lp_mmshare_version>
43012

> <i_f3d_flags>
0

> <s_epik_input>
Tz1jMVtuSF1jKD1PKW4oW2NIXWMxRilbQ0BIXTJbQ0gyXVtDQEhdKFtPSF0pW0NASF0oTzIpW0NIMl1bT0hd

> <s_epik_cmdline>
J2VwaWtfcHl0aG9uJywgJy1waCcsICc3LjAnLCAnLXRuJywgJzgnLCAnLW1hJywgJzIwMCcsICctbWV0YWxfYmluZGluZycsICctaW1hZScsICc8aW5maWxlLm1hZT4nLCAnLW9tYWUnLCAnPG91dGZpbGUubWFlPic=

> <r_lp_tautomer_probability>
0.999537

> <r_epik_Ionization_Penalty>
0.0357432

> <r_epik_Ionization_Penalty_Charging>
0.0357431

> <r_epik_Ionization_Penalty_Neutral>
1.19946e-07

> <r_epik_State_Penalty>
0.0298169

> <r_epik_Charging_Adjusted_Penalty>
0.06556

> <i_epik_Tot_Q>
0

> <i_epik_Tot_abs_Q>
0

> <r_epik_Metal_State_Penalty>
2.348

> <b_epik_Metal_Only>
0

> <s_epik_Chemistry_Notes>
This compound contains an acetal/aminal-like group ( X-CH(R)-Y where X, Y are N, S, or O) that may be acid/base labile, releasing an aldehyde.

> <s_lp_Force_Field>
OPLS_2005

> <r_lp_Energy>
26.798

> <b_lp_Chiralities_Consistent>
1

> <s_lp_Variant>
AV-unprocessed.smi:38-2

> <Gold.Version>
5.8.1

> <Gold.Id.Protein>
6NUR|6NUR_protein|mol2

> <Gold.PLP.Fitness>
35.8194

> <Gold.PLP.PLP>
-25.8918

> <Gold.PLP.part.hbond>
-4.6720

> <Gold.PLP.part.metal>
0.0000

> <Gold.PLP.part.buried>
-4.5600

> <Gold.PLP.part.nonpolar>
-16.8777

> <Gold.PLP.part.repulsive>
0.2816

> <Gold.PLP.ligand.clash>
0.0000

> <Gold.PLP.ligand.torsion>
1.0150

> <Gold.PLP.Chemscore.Hbond>
3.9825

> <Gold.PLP.Chemscore.CHOScore>
0.0000

> <Gold.PLP.Chemscore.Metal>
0.0000

> <Gold.Chemscore.Hbonds>
donor molecule, donor type, donor heavy atom, donor atom, acceptor molecule, acceptor atom, score
      L1  H    10    24       P1  8028  0.89
      L1  H    13    27       P1  7948  0.94
      P1  H  6896  6908       L1     1  1.00
      P1  H  7997  8008       L1     5  1.00

> <Gold.PLP.Chemscore.Internal.Correction>
0.0102

> <Gold.Rescore>
     Score         DG    S(hbond)    S(metal)    S(lipo)     H(rot)  DE(clash)    DE(int)     intcor
     13.57     -14.76       3.84        0.00      33.33       2.91       0.24       0.94       ----

> <Gold.Chemscore.Fitness>
13.5738

> <Gold.Chemscore.DG>
-14.7560

> <Gold.Chemscore.ZeroCoef>
-5.4800

> <Gold.Chemscore.Hbond>
3.8434

> <Gold.Chemscore.Metal>
0.0000

> <Gold.Chemscore.Lipo>
33.3270

> <Gold.Chemscore.Internal_Hbond>
0.0000

> <Gold.Chemscore.DEClash>
0.2435

> <Gold.Chemscore.DEInternal>
0.9387

> <Gold.Chemscore.Rot>
2.9141

> <Gold.Chemscore.Internal.Correction>
   9.000000E+99

> <Gold.Chemscore.Hbonds>
donor molecule, donor type, donor heavy atom, donor atom, acceptor molecule, acceptor atom, score
      L1  H    10    24       P1  8028  0.84
      L1  H    13    27       P1  7948  0.88
      P1  H  6896  6908       L1     1  0.96
      P1  H  7997  8008       L1     5  1.00

> <Gold.Chemscore.Hbond.Weighted>
-12.8368

> <Gold.Chemscore.Metal.Weighted>
-0.0000

> <Gold.Chemscore.Lipo.Weighted>
-3.8993

> <Gold.Chemscore.Internal_Hbond.Weighted>
0.0000

> <Gold.Chemscore.DEClash.Weighted>
0.2435

> <Gold.Chemscore.DEInternal.Weighted>
0.9387

> <Gold.Chemscore.Rot.Weighted>
7.4601

> <Gold.Chemscore.Internal.Correction.Weighted>
   9.000000E+99

> <Gold.Protein.RotatedTorsions>
[ 6907 6896 6895 6894 ] final -116.16 input  -60.11 | X-H torsion
[ 7974 7965 7964 7962 ] final -128.78 input  175.53 | X-H torsion
[ 8008 7997 7996 7995 ] final  -33.43 input   59.86 | X-H torsion
[ 10167 10162 10161 10158 ] final  -80.01 input  -65.29 | X-H torsion
[ 10718 10713 10712 10709 ] final  114.91 input   66.30 | X-H torsion
[ 10763 10752 10751 10750 ] final  -60.22 input  -60.55 | X-H torsion
[ 11005 11000 10999 10996 ] final  141.93 input  -57.11 | X-H torsion

> <Gold.Protein.ActiveResidues>
 VAL166  LYS551  ARG553  GLY616  TRP617  ASP618  TYR619  PRO620  LYS621  CYS622 
 ASP623  PHE694  ASN695  SER759  ASP760  ASP761  ALA762  ILE779  LEU786  VAL792 
 PHE793  MET794  SER795  GLU796  ALA797  LYS798  CYS799  TRP800  GLU811  SER814 

> <Gold.Protein.RotatedAtoms>
  150.8034  133.8555  159.3217 H   0  0  0  0  0  0  0  0  0  0  0  0  # atno 6907 bound_to 6896
  151.6361  135.1016  160.0141 H   0  0  0  0  0  0  0  0  0  0  0  0  # atno 6908 bound_to 6896
  152.4123  133.6944  159.6444 H   0  0  0  0  0  0  0  0  0  0  0  0  # atno 6909 bound_to 6896
  144.9636  140.7473  143.4714 H   0  0  0  0  0  0  0  0  0  0  0  0  # atno 7974 bound_to 7965
  154.4149  140.1711  156.1887 H   0  0  0  0  0  0  0  0  0  0  0  0  # atno 8008 bound_to 7997
  155.9622  140.3392  155.6477 H   0  0  0  0  0  0  0  0  0  0  0  0  # atno 8009 bound_to 7997
  155.6734  140.0714  157.2502 H   0  0  0  0  0  0  0  0  0  0  0  0  # atno 8010 bound_to 7997
  140.4541  143.2473  151.8445 H   0  0  0  0  0  0  0  0  0  0  0  0  # atno 10167 bound_to 10162
  157.6253  131.1005  150.7254 H   0  0  0  0  0  0  0  0  0  0  0  0  # atno 10718 bound_to 10713
  154.2659  135.6299  153.5292 H   0  0  0  0  0  0  0  0  0  0  0  0  # atno 10763 bound_to 10752
  152.9888  135.5598  154.5653 H   0  0  0  0  0  0  0  0  0  0  0  0  # atno 10764 bound_to 10752
  154.5213  135.2882  155.1235 H   0  0  0  0  0  0  0  0  0  0  0  0  # atno 10765 bound_to 10752
  140.0439  134.9291  157.0893 H   0  0  0  0  0  0  0  0  0  0  0  0  # atno 11005 bound_to 11000
  145.2663  139.1972  143.4865 LP  0  0  0  0  0  0  0  0  0  0  0  0  # atno 17320 bound_to 7965
  146.3361  140.2601  142.8601 LP  0  0  0  0  0  0  0  0  0  0  0  0  # atno 17321 bound_to 7965
  139.4799  144.5085  151.8965 LP  0  0  0  0  0  0  0  0  0  0  0  0  # atno 17342 bound_to 10162
  140.4171  144.2292  150.5887 LP  0  0  0  0  0  0  0  0  0  0  0  0  # atno 17343 bound_to 10162
  156.7603  130.4796  149.5438 LP  0  0  0  0  0  0  0  0  0  0  0  0  # atno 17370 bound_to 10713
  156.1422  130.6252  151.0483 LP  0  0  0  0  0  0  0  0  0  0  0  0  # atno 17371 bound_to 10713
  140.4025  134.2067  155.7163 LP  0  0  0  0  0  0  0  0  0  0  0  0  # atno 17394 bound_to 11000
  141.1897  133.8233  157.0947 LP  0  0  0  0  0  0  0  0  0  0  0  0  # atno 17395 bound_to 11000

$$$$
