AV-unprocessed.smi:1240|AV-procd|sdf|5211|dock6
  -GOLD-   22720 4303D 1   1.00000     0.00000
 Structure written by MMmdl.
 48 50  0  0  0  0  0  0  0  0  4 V2000
  145.7118  133.4272  154.6420 O   0  0  0  0  0  0  0  0  0  0  0  0
  146.5551  134.2750  154.3279 C   0  0  0  0  0  0  0  0  0  0  0  0
  147.5773  134.7499  155.0880 N   0  5  0  0  0  0  0  0  0  0  0  0
  148.0540  136.1321  155.0665 C   0  0  0  0  0  0  0  0  0  0  0  0
  149.6185  136.1864  154.9487 C   0  0  2  0  0  0  0  0  0  0  0  0
  150.3802  135.1773  155.8711 C   0  0  2  0  0  0  0  0  0  0  0  0
  150.3954  133.7513  155.3383 C   0  0  0  0  0  0  0  0  0  0  0  0
  150.7929  132.9403  156.5660 C   0  0  0  0  0  0  0  0  0  0  0  0
  150.2506  133.6405  157.6778 O   0  0  0  0  0  0  0  0  0  0  0  0
  149.7779  134.9179  157.2634 C   0  0  0  0  0  0  0  0  0  0  0  0
  150.2050  137.5626  155.1224 N   0  3  0  0  0  0  0  0  0  0  0  0
  151.6891  137.6475  155.0831 C   0  0  0  0  0  0  0  0  0  0  0  0
  152.1489  139.0271  155.5829 C   0  0  0  0  0  0  0  0  0  0  0  0
  151.5382  140.0507  154.8054 O   0  0  0  0  0  0  0  0  0  0  0  0
  150.1190  140.0287  154.9072 C   0  0  0  0  0  0  0  0  0  0  0  0
  149.5839  138.6911  154.3721 C   0  0  0  0  0  0  0  0  0  0  0  0
  146.5426  134.8217  153.0989 N   0  0  0  0  0  0  0  0  0  0  0  0
  145.6304  134.5994  152.0327 C   0  0  0  0  0  0  0  0  0  0  0  0
  145.3042  135.6977  151.2069 C   0  0  0  0  0  0  0  0  0  0  0  0
  144.3862  135.5243  150.1515 C   0  0  0  0  0  0  0  0  0  0  0  0
  143.8169  134.3171  149.9468 N   0  3  0  0  0  0  0  0  0  0  0  0
  144.0834  133.2431  150.7212 C   0  0  0  0  0  0  0  0  0  0  0  0
  144.9937  133.3558  151.7915 C   0  0  0  0  0  0  0  0  0  0  0  0
  147.6175  136.6668  154.2229 H   0  0  0  0  0  0  0  0  0  0  0  0
  147.7474  136.6895  155.9524 H   0  0  0  0  0  0  0  0  0  0  0  0
  149.8697  135.9059  153.9242 H   0  0  0  0  0  0  0  0  0  0  0  0
  151.4165  135.4932  156.0075 H   0  0  0  0  0  0  0  0  0  0  0  0
  149.3976  133.4590  155.0067 H   0  0  0  0  0  0  0  0  0  0  0  0
  151.0862  133.6065  154.5071 H   0  0  0  0  0  0  0  0  0  0  0  0
  150.4288  131.9135  156.5239 H   0  0  0  0  0  0  0  0  0  0  0  0
  151.8784  132.9122  156.6686 H   0  0  0  0  0  0  0  0  0  0  0  0
  150.0538  135.6819  157.9907 H   0  0  0  0  0  0  0  0  0  0  0  0
  148.6888  134.8770  157.2130 H   0  0  0  0  0  0  0  0  0  0  0  0
  152.1269  136.8691  155.7090 H   0  0  0  0  0  0  0  0  0  0  0  0
  152.0541  137.4876  154.0679 H   0  0  0  0  0  0  0  0  0  0  0  0
  151.9025  139.1610  156.6376 H   0  0  0  0  0  0  0  0  0  0  0  0
  153.2318  139.1162  155.4961 H   0  0  0  0  0  0  0  0  0  0  0  0
  149.8129  140.1841  155.9430 H   0  0  0  0  0  0  0  0  0  0  0  0
  149.7100  140.8559  154.3269 H   0  0  0  0  0  0  0  0  0  0  0  0
  149.8104  138.6167  153.3078 H   0  0  0  0  0  0  0  0  0  0  0  0
  148.4992  138.6703  154.4725 H   0  0  0  0  0  0  0  0  0  0  0  0
  147.3271  135.4198  152.8848 H   0  0  0  0  0  0  0  0  0  0  0  0
  145.7585  136.6636  151.3749 H   0  0  0  0  0  0  0  0  0  0  0  0
  144.0906  136.3102  149.4719 H   0  0  0  0  0  0  0  0  0  0  0  0
  143.5588  132.3333  150.4683 H   0  0  0  0  0  0  0  0  0  0  0  0
  145.1798  132.4949  152.4159 H   0  0  0  0  0  0  0  0  0  0  0  0
  149.9887  137.7681  156.0869 H   0  0  0  0  0  0  0  0  0  0  0  0
  143.1535  134.2132  149.1787 H   0  0  0  0  0  0  0  0  0  0  0  0
  1  2  2  0  0  0  0
  2  3  1  0  0  0  0
  2 17  1  0  0  0  0
  3  4  1  0  0  0  0
  4  5  1  0  0  0  0
  4 24  1  0  0  0  0
  4 25  1  0  0  0  0
  5  6  1  0  0  0  0
  5 11  1  0  0  0  0
  5 26  1  0  0  0  0
  6 10  1  0  0  0  0
  6  7  1  0  0  0  0
  6 27  1  0  0  0  0
  7  8  1  0  0  0  0
  7 28  1  0  0  0  0
  7 29  1  0  0  0  0
  8  9  1  0  0  0  0
  8 30  1  0  0  0  0
  8 31  1  0  0  0  0
  9 10  1  0  0  0  0
 10 32  1  0  0  0  0
 10 33  1  0  0  0  0
 11 16  1  0  0  0  0
 11 12  1  0  0  0  0
 11 47  1  0  0  0  0
 12 13  1  0  0  0  0
 12 34  1  0  0  0  0
 12 35  1  0  0  0  0
 13 14  1  0  0  0  0
 13 36  1  0  0  0  0
 13 37  1  0  0  0  0
 14 15  1  0  0  0  0
 15 16  1  0  0  0  0
 15 38  1  0  0  0  0
 15 39  1  0  0  0  0
 16 40  1  0  0  0  0
 16 41  1  0  0  0  0
 17 18  1  0  0  0  0
 17 42  1  0  0  0  0
 18 23  1  0  0  0  0
 18 19  2  0  0  0  0
 19 20  1  0  0  0  0
 19 43  1  0  0  0  0
 20 21  2  0  0  0  0
 20 44  1  0  0  0  0
 21 22  1  0  0  0  0
 21 48  1  0  0  0  0
 22 23  2  0  0  0  0
 22 45  1  0  0  0  0
 23 46  1  0  0  0  0
M  CHG  1   3  -1
M  CHG  1  11   1
M  CHG  1  21   1
M  END
> <s_m_source_file>
AV-unprocessed.smi

> <i_m_source_file_index>
1240

> <i_lp_mmshare_version>
43012

> <i_f3d_flags>
0

> <s_epik_input>
W2NIXTFbY0hdbltjSF1bY0hdYzFbTkhdQyg9TylbTkhdW0NIMl1bQ0BIXShbQ0BASF0yW0NIMl1bQ0gyXU9bQ0gyXTIpTjNbQ0gyXVtDSDJdT1tDSDJdW0NIMl0z

> <s_epik_cmdline>
J2VwaWtfcHl0aG9uJywgJy1waCcsICc3LjAnLCAnLXRuJywgJzgnLCAnLW1hJywgJzIwMCcsICctbWV0YWxfYmluZGluZycsICctaW1hZScsICc8aW5maWxlLm1hZT4nLCAnLW9tYWUnLCAnPG91dGZpbGUubWFlPic=

> <r_epik_Ionization_Penalty>
8.41087

> <r_epik_Ionization_Penalty_Charging>
8.41087

> <r_epik_Ionization_Penalty_Neutral>
3.12936e-06

> <r_epik_State_Penalty>
8.81894

> <r_epik_Charging_Adjusted_Penalty>
17.2298

> <i_epik_Tot_Q>
1

> <i_epik_Tot_abs_Q>
3

> <r_epik_Metal_State_Penalty>
4.82983

> <b_epik_Metal_Only>
1

> <s_lp_Force_Field>
OPLS_2005

> <r_lp_Energy>
48.2206

> <b_lp_Chiralities_Consistent>
1

> <s_lp_Variant>
AV-unprocessed.smi:1240-17

> <Gold.Version>
5.8.1

> <Gold.Id.Protein>
6NUR|6NUR_protein|mol2

> <Gold.PLP.Fitness>
40.7724

> <Gold.PLP.PLP>
-32.4043

> <Gold.PLP.part.hbond>
-3.8473

> <Gold.PLP.part.metal>
0.0000

> <Gold.PLP.part.buried>
-2.3906

> <Gold.PLP.part.nonpolar>
-26.4669

> <Gold.PLP.part.repulsive>
0.3036

> <Gold.PLP.ligand.clash>
0.0000

> <Gold.PLP.ligand.torsion>
1.3408

> <Gold.PLP.Chemscore.Hbond>
3.5201

> <Gold.PLP.Chemscore.CHOScore>
0.0000

> <Gold.PLP.Chemscore.Metal>
0.0000

> <Gold.Chemscore.Hbonds>
donor molecule, donor type, donor heavy atom, donor atom, acceptor molecule, acceptor atom, score
      L1  H    17    42       P1  7948  0.89
      L1  H    21    48       P1 10186  0.53
      P1  H  6896  6909       L1     9  0.96
      P1  H  7989  7998       L1    14  0.90

> <Gold.PLP.Chemscore.Internal.Correction>
0.4896

> <Gold.Rescore>
     Score         DG    S(hbond)    S(metal)    S(lipo)     H(rot)  DE(clash)    DE(int)     intcor
     16.13     -19.71       2.78        0.00      79.54       1.70       0.06       3.52       ----

> <Gold.Chemscore.Fitness>
16.1272

> <Gold.Chemscore.DG>
-19.7066

> <Gold.Chemscore.ZeroCoef>
-5.4800

> <Gold.Chemscore.Hbond>
2.7777

> <Gold.Chemscore.Metal>
0.0000

> <Gold.Chemscore.Lipo>
79.5426

> <Gold.Chemscore.Internal_Hbond>
0.0000

> <Gold.Chemscore.DEClash>
0.0637

> <Gold.Chemscore.DEInternal>
3.5157

> <Gold.Chemscore.Rot>
1.7021

> <Gold.Chemscore.Internal.Correction>
   9.000000E+99

> <Gold.Chemscore.Hbonds>
donor molecule, donor type, donor heavy atom, donor atom, acceptor molecule, acceptor atom, score
      L1  H    17    42       P1  7948  0.87
      L1  H    21    48       P1 10186  0.26
      P1  H  6896  6909       L1     9  0.81
      P1  H  7989  7998       L1    14  0.17

> <Gold.Chemscore.Hbond.Weighted>
-9.2776

> <Gold.Chemscore.Metal.Weighted>
-0.0000

> <Gold.Chemscore.Lipo.Weighted>
-9.3065

> <Gold.Chemscore.Internal_Hbond.Weighted>
0.0000

> <Gold.Chemscore.DEClash.Weighted>
0.0637

> <Gold.Chemscore.DEInternal.Weighted>
3.5157

> <Gold.Chemscore.Rot.Weighted>
4.3575

> <Gold.Chemscore.Internal.Correction.Weighted>
   9.000000E+99

> <Gold.Protein.RotatedTorsions>
[ 6907 6896 6895 6894 ] final  -13.92 input  -60.11 | X-H torsion
[ 7974 7965 7964 7962 ] final  -41.12 input  175.53 | X-H torsion
[ 8008 7997 7996 7995 ] final  125.63 input   59.86 | X-H torsion
[ 10167 10162 10161 10158 ] final   13.77 input  -65.29 | X-H torsion
[ 10718 10713 10712 10709 ] final   55.32 input   66.30 | X-H torsion
[ 10763 10752 10751 10750 ] final -122.84 input  -60.55 | X-H torsion
[ 11005 11000 10999 10996 ] final  -51.79 input  -57.11 | X-H torsion

> <Gold.Protein.ActiveResidues>
 VAL166  LYS551  ARG553  GLY616  TRP617  ASP618  TYR619  PRO620  LYS621  CYS622 
 ASP623  PHE694  ASN695  SER759  ASP760  ASP761  ALA762  ILE779  LEU786  VAL792 
 PHE793  MET794  SER795  GLU796  ALA797  LYS798  CYS799  TRP800  GLU811  SER814 

> <Gold.Protein.RotatedAtoms>
  151.3475  135.0877  159.9391 H   0  0  0  0  0  0  0  0  0  0  0  0  # atno 6907 bound_to 6896
  152.5196  133.9386  159.7626 H   0  0  0  0  0  0  0  0  0  0  0  0  # atno 6908 bound_to 6896
  150.9755  133.6246  159.2760 H   0  0  0  0  0  0  0  0  0  0  0  0  # atno 6909 bound_to 6896
  146.0240  140.6814  142.9164 H   0  0  0  0  0  0  0  0  0  0  0  0  # atno 7974 bound_to 7965
  156.2840  140.2712  156.1981 H   0  0  0  0  0  0  0  0  0  0  0  0  # atno 8008 bound_to 7997
  155.0390  140.0386  157.2520 H   0  0  0  0  0  0  0  0  0  0  0  0  # atno 8009 bound_to 7997
  154.7290  140.2703  155.6478 H   0  0  0  0  0  0  0  0  0  0  0  0  # atno 8010 bound_to 7997
  140.5981  143.8661  150.6937 H   0  0  0  0  0  0  0  0  0  0  0  0  # atno 10167 bound_to 10162
  157.5335  130.8647  149.8720 H   0  0  0  0  0  0  0  0  0  0  0  0  # atno 10718 bound_to 10713
  154.8697  135.4119  154.2846 H   0  0  0  0  0  0  0  0  0  0  0  0  # atno 10763 bound_to 10752
  153.3733  135.7008  153.6627 H   0  0  0  0  0  0  0  0  0  0  0  0  # atno 10764 bound_to 10752
  153.5479  135.3635  155.2719 H   0  0  0  0  0  0  0  0  0  0  0  0  # atno 10765 bound_to 10752
  141.0890  133.6636  156.3929 H   0  0  0  0  0  0  0  0  0  0  0  0  # atno 11005 bound_to 11000
  144.7002  140.3617  143.7162 LP  0  0  0  0  0  0  0  0  0  0  0  0  # atno 17320 bound_to 7965
  145.7147  139.1694  143.2518 LP  0  0  0  0  0  0  0  0  0  0  0  0  # atno 17321 bound_to 7965
  140.2200  143.3816  152.1650 LP  0  0  0  0  0  0  0  0  0  0  0  0  # atno 17342 bound_to 10162
  139.5272  144.7116  151.5187 LP  0  0  0  0  0  0  0  0  0  0  0  0  # atno 17343 bound_to 10162
  156.0440  130.3732  150.1363 LP  0  0  0  0  0  0  0  0  0  0  0  0  # atno 17370 bound_to 10713
  156.9547  130.9786  151.3491 LP  0  0  0  0  0  0  0  0  0  0  0  0  # atno 17371 bound_to 10713
  140.5297  134.6225  157.5346 LP  0  0  0  0  0  0  0  0  0  0  0  0  # atno 17394 bound_to 11000
  139.9712  134.7289  156.0037 LP  0  0  0  0  0  0  0  0  0  0  0  0  # atno 17395 bound_to 11000

$$$$
