#       Name:                AV-unprocessed.smi:2241
#       Creating user name   scv26
#       Creation time:       Fri Mar 27 12:26:42 2020


#       File generated by GOLD software.
#

@<TRIPOS>MOLECULE
AV-unprocessed.smi:2241
    52    54     1
SMALL
NO_CHARGES


@<TRIPOS>ATOM
      1 ****        -7.3309  -0.3875   0.5456 C.3            1 S1                 0.0000
      2 ****        -6.0949   0.4737   0.7055 C.ar           1 S1                 0.0000
      3 ****        -6.2169   1.8511   0.9749 C.ar           1 S1                 0.0000
      4 ****        -5.0633   2.6426   1.1216 C.ar           1 S1                 0.0000
      5 ****        -3.7862   2.0620   0.9987 C.ar           1 S1                 0.0000
      6 ****        -2.3849   3.0563   1.1791 Cl             1 S1                 0.0000
      7 ****        -3.6474   0.6828   0.7284 C.ar           1 S1                 0.0000
      8 ****        -2.3659   0.1869   0.6185 O.3            1 S1                 0.0000
      9 ****        -2.1904  -1.1840   0.2886 C.3            1 S1                 0.0000
     10 ****        -0.6868  -1.4464   0.1160 C.3            1 S1                 0.0000
     11 ****        -0.5127  -2.8448   0.0070 O.3            1 S1                 0.0000
     12 ****        -0.1232  -0.7724  -1.1561 C.3            1 S1                 0.0000
     13 ****         1.2873  -0.3864  -1.0000 N.am           1 S1                 0.0000
     14 ****         2.2416  -1.2703  -1.5371 C.2            1 S1                 0.0000
     15 ****         3.5109  -1.0202  -1.4784 N.2            1 S1                 0.0000
     16 ****         3.9610   0.1533  -0.8621 C.2            1 S1                 0.0000
     17 ****         5.4638   0.3926  -0.8142 C.3            1 S1                 0.0000
     18 ****         6.3472  -0.8549  -0.6430 C.3            1 S1                 0.0000
     19 ****         7.2415  -0.0151   0.2756 C.3            1 S1                 0.0000
     20 ****         6.0244   0.8813   0.5310 C.3            1 S1                 0.0000
     21 ****         3.0816   1.0215  -0.3077 C.2            1 S1                 0.0000
     22 ****         1.6423   0.7649  -0.3584 C.2            1 S1                 0.0000
     23 ****         0.8140   1.5288   0.1380 O.2            1 S1                 0.0000
     24 ****        -4.8162  -0.1075   0.5857 C.ar           1 S1                 0.0000
     25 ****        -8.2368   0.2184   0.5102 H              1 S1                 0.0000
     26 ****        -7.4167  -1.0822   1.3814 H              1 S1                 0.0000
     27 ****        -7.2741  -0.9654  -0.3775 H              1 S1                 0.0000
     28 ****        -7.1924   2.3054   1.0700 H              1 S1                 0.0000
     29 ****        -5.1590   3.6984   1.3280 H              1 S1                 0.0000
     30 ****        -2.5896  -1.8013   1.0955 H              1 S1                 0.0000
     31 ****        -2.7214  -1.4383  -0.6306 H              1 S1                 0.0000
     32 ****        -0.1650  -1.1030   1.0105 H              1 S1                 0.0000
     33 ****        -1.0047  -3.1521  -0.7388 H              1 S1                 0.0000
     34 ****        -0.2835  -1.4025  -2.0336 H              1 S1                 0.0000
     35 ****        -0.6954   0.1303  -1.3777 H              1 S1                 0.0000
     36 ****         1.8377  -2.1725  -1.9999 H              1 S1                 0.0000
     37 ****         5.7992   1.0168  -1.6444 H              1 S1                 0.0000
     38 ****         5.8569  -1.6710  -0.1088 H              1 S1                 0.0000
     39 ****         6.8284  -1.2023  -1.5575 H              1 S1                 0.0000
     40 ****         7.6156  -0.5402   1.1549 H              1 S1                 0.0000
     41 ****         8.0406   0.4969  -0.2631 H              1 S1                 0.0000
     42 ****         6.2435   1.9485   0.5742 H              1 S1                 0.0000
     43 ****         5.4387   0.5535   1.3919 H              1 S1                 0.0000
     44 ****         3.4378   1.9205   0.1743 H              1 S1                 0.0000
     45 ****        -4.7563  -1.1660   0.3834 H              1 S1                 0.0000
     46 ****        -1.9155   0.3378   1.4985 LP             1 S1                 0.0000
     47 ****        -1.9032   0.7214  -0.0888 LP             1 S1                 0.0000
     48 ****        -0.8453  -3.2916   0.8375 LP             1 S1                 0.0000
     49 ****         0.4568  -3.0549  -0.1190 LP             1 S1                 0.0000
     50 ****         4.1675  -1.6635  -1.8722 LP             1 S1                 0.0000
     51 ****        -0.1612   1.3153   0.0795 LP             1 S1                 0.0000
     52 ****         1.1165   2.3627   0.5997 LP             1 S1                 0.0000
@<TRIPOS>BOND
    1    1    2 1     
    2    1   25 1     
    3    1   26 1     
    4    1   27 1     
    5    2   24 ar    
    6    2    3 ar    
    7    3    4 ar    
    8    3   28 1     
    9    4    5 ar    
   10    4   29 1     
   11    5    6 1     
   12    5    7 ar    
   13    7    8 1     
   14    7   24 ar    
   15    8    9 1     
   16    9   10 1     
   17    9   30 1     
   18    9   31 1     
   19   10   11 1     
   20   10   12 1     
   21   10   32 1     
   22   11   33 1     
   23   12   13 1     
   24   12   34 1     
   25   12   35 1     
   26   13   22 am    
   27   13   14 1     
   28   14   15 2     
   29   14   36 1     
   30   15   16 1     
   31   16   17 1     
   32   16   21 2     
   33   17   20 1     
   34   17   18 1     
   35   17   37 1     
   36   18   19 1     
   37   18   38 1     
   38   18   39 1     
   39   19   20 1     
   40   19   40 1     
   41   19   41 1     
   42   20   42 1     
   43   20   43 1     
   44   21   22 1     
   45   21   44 1     
   46   22   23 2     
   47   24   45 1     
   48    8   46 1     
   49    8   47 1     
   50   11   48 1     
   51   11   49 1     
   52   15   50 1     
   53   23   51 1     
   54   23   52 1     
@<TRIPOS>SUBSTRUCTURE
      1 S1             1
@<TRIPOS>SET
LONE_PAIRS      STATIC     ATOMS    <user>   **** ""
7 46 47 48 49 50 51 52
DONOR_HYDROGENS      STATIC     ATOMS    <user>   **** ""
1 33
ATOM$BLUE        STATIC     ATOMS    COLORGROUP SYSTEM
7 46 47 48 49 50 51 52
ATOM$RED        STATIC     ATOMS    COLORGROUP SYSTEM
1 33
