AV-unprocessed.smi:2531|AV-procd|sdf|9964|dock5
  -GOLD-   2272014 03D 1   1.00000     0.00000
 Structure written by MMmdl.
 46 48  0  0  0  0  0  0  0  0  1 V2000
  150.7137  141.8981  158.8693 O   0  0  0  0  0  0  0  0  0  0  0  0
  151.8170  141.3821  159.0524 C   0  0  0  0  0  0  0  0  0  0  0  0
  153.0384  142.2312  159.4732 C   0  0  0  0  0  0  0  0  0  0  0  0
  153.4246  142.0715  160.9536 C   0  0  0  0  0  0  0  0  0  0  0  0
  152.5510  143.0695  161.7256 C   0  0  0  0  0  0  0  0  0  0  0  0
  152.1045  144.1275  160.7050 C   0  0  0  0  0  0  0  0  0  0  0  0
  152.7545  143.7380  159.3711 C   0  0  0  0  0  0  0  0  0  0  0  0
  151.9899  139.9972  158.9652 N   0  0  0  0  0  0  0  0  0  0  0  0
  151.3355  139.2000  157.9386 C   0  0  0  0  0  0  0  0  0  0  0  0
  152.5343  138.2538  158.0720 C   0  0  0  0  0  0  0  0  0  0  0  0
  153.1976  137.7091  156.4358 S   0  0  0  0  0  0  0  0  0  0  0  0
  153.3477  138.8945  155.5776 O   0  0  0  0  0  0  0  0  0  0  0  0
  154.3363  136.7988  156.6324 O   0  0  0  0  0  0  0  0  0  0  0  0
  151.8957  136.7741  155.8042 N   0  0  0  0  0  0  0  0  0  0  0  0
  150.6187  137.4487  155.5801 C   0  0  0  0  0  0  0  0  0  0  0  0
  150.6832  138.3032  154.3070 C   0  0  0  0  0  0  0  0  0  0  0  0
  149.7100  139.4661  154.3470 C   0  0  0  0  0  0  0  0  0  0  0  0
  148.3598  139.2899  153.9759 C   0  0  0  0  0  0  0  0  0  0  0  0
  147.4967  140.4012  154.0377 C   0  0  0  0  0  0  0  0  0  0  0  0
  148.0137  141.6386  154.4671 C   0  0  0  0  0  0  0  0  0  0  0  0
  149.3767  141.7102  154.8173 C   0  0  0  0  0  0  0  0  0  0  0  0
  150.2129  140.6512  154.7612 N   0  0  0  0  0  0  0  0  0  0  0  0
  153.3006  139.4140  158.7227 C   0  0  0  0  0  0  0  0  0  0  0  0
  153.8849  141.9526  158.8453 H   0  0  0  0  0  0  0  0  0  0  0  0
  153.3213  141.0527  161.3299 H   0  0  0  0  0  0  0  0  0  0  0  0
  154.4744  142.3421  161.0761 H   0  0  0  0  0  0  0  0  0  0  0  0
  151.6778  142.5646  162.1407 H   0  0  0  0  0  0  0  0  0  0  0  0
  153.0979  143.5118  162.5589 H   0  0  0  0  0  0  0  0  0  0  0  0
  151.0181  144.1096  160.6106 H   0  0  0  0  0  0  0  0  0  0  0  0
  152.3884  145.1356  161.0081 H   0  0  0  0  0  0  0  0  0  0  0  0
  153.6982  144.2723  159.2557 H   0  0  0  0  0  0  0  0  0  0  0  0
  152.1303  144.0116  158.5194 H   0  0  0  0  0  0  0  0  0  0  0  0
  150.3814  138.7711  158.2466 H   0  0  0  0  0  0  0  0  0  0  0  0
  151.2826  139.6960  156.9673 H   0  0  0  0  0  0  0  0  0  0  0  0
  152.3416  137.4092  158.7356 H   0  0  0  0  0  0  0  0  0  0  0  0
  152.1887  136.2678  154.9689 H   0  0  0  0  0  0  0  0  0  0  0  0
  149.8272  136.7029  155.4990 H   0  0  0  0  0  0  0  0  0  0  0  0
  150.3911  138.0728  156.4452 H   0  0  0  0  0  0  0  0  0  0  0  0
  151.6925  138.6934  154.1677 H   0  0  0  0  0  0  0  0  0  0  0  0
  150.4694  137.6865  153.4327 H   0  0  0  0  0  0  0  0  0  0  0  0
  147.9916  138.3271  153.6529 H   0  0  0  0  0  0  0  0  0  0  0  0
  146.4569  140.3057  153.7617 H   0  0  0  0  0  0  0  0  0  0  0  0
  147.3810  142.5118  154.5277 H   0  0  0  0  0  0  0  0  0  0  0  0
  149.8069  142.6428  155.1515 H   0  0  0  0  0  0  0  0  0  0  0  0
  153.9120  140.0007  158.0350 H   0  0  0  0  0  0  0  0  0  0  0  0
  153.8377  139.1466  159.6330 H   0  0  0  0  0  0  0  0  0  0  0  0
  1  2  2  0  0  0  0
  2  3  1  0  0  0  0
  2  8  1  0  0  0  0
  3  7  1  0  0  0  0
  3  4  1  0  0  0  0
  3 24  1  0  0  0  0
  4  5  1  0  0  0  0
  4 25  1  0  0  0  0
  4 26  1  0  0  0  0
  5  6  1  0  0  0  0
  5 27  1  0  0  0  0
  5 28  1  0  0  0  0
  6  7  1  0  0  0  0
  6 29  1  0  0  0  0
  6 30  1  0  0  0  0
  7 31  1  0  0  0  0
  7 32  1  0  0  0  0
  8 23  1  0  0  0  0
  8  9  1  0  0  0  0
  9 10  1  0  0  0  0
  9 33  1  0  0  0  0
  9 34  1  0  0  0  0
 10 11  1  0  0  0  0
 10 23  1  0  0  0  0
 10 35  1  0  0  0  0
 11 12  2  0  0  0  0
 11 13  2  0  0  0  0
 11 14  1  0  0  0  0
 14 15  1  0  0  0  0
 14 36  1  0  0  0  0
 15 16  1  0  0  0  0
 15 37  1  0  0  0  0
 15 38  1  0  0  0  0
 16 17  1  0  0  0  0
 16 39  1  0  0  0  0
 16 40  1  0  0  0  0
 17 22  1  0  0  0  0
 17 18  2  0  0  0  0
 18 19  1  0  0  0  0
 18 41  1  0  0  0  0
 19 20  2  0  0  0  0
 19 42  1  0  0  0  0
 20 21  1  0  0  0  0
 20 43  1  0  0  0  0
 21 22  2  0  0  0  0
 21 44  1  0  0  0  0
 23 45  1  0  0  0  0
 23 46  1  0  0  0  0
M  END
> <s_m_source_file>
AV-unprocessed.smi

> <i_m_source_file_index>
2531

> <i_lp_mmshare_version>
43012

> <i_f3d_flags>
0

> <s_epik_input>
W0NIMl0xW0NIMl1bQ0gyXVtDSDJdW0NIXTFDKD1PKU4yW0NIMl1bQ0hdKFtDSDJdMilTKD1PKSg9TylbTkhdW0NIMl1bQ0gyXWMzW2NIXVtjSF1bY0hdW2NIXW4z

> <s_epik_cmdline>
J2VwaWtfcHl0aG9uJywgJy1waCcsICc3LjAnLCAnLXRuJywgJzgnLCAnLW1hJywgJzIwMCcsICctbWV0YWxfYmluZGluZycsICctaW1hZScsICc8aW5maWxlLm1hZT4nLCAnLW9tYWUnLCAnPG91dGZpbGUubWFlPic=

> <r_epik_Ionization_Penalty>
0.0203172

> <r_epik_Ionization_Penalty_Charging>
0

> <r_epik_Ionization_Penalty_Neutral>
0.0203172

> <r_epik_State_Penalty>
0.0162494

> <r_epik_Charging_Adjusted_Penalty>
0.0162494

> <i_epik_Tot_Q>
0

> <i_epik_Tot_abs_Q>
0

> <r_epik_Metal_State_Penalty>
0.0444853

> <b_epik_Metal_Only>
0

> <s_lp_Force_Field>
OPLS_2005

> <r_lp_Energy>
30.9959

> <b_lp_Chiralities_Consistent>
1

> <s_lp_Variant>
AV-unprocessed.smi:2531-1

> <Gold.Version>
5.8.1

> <Gold.Id.Protein>
6NUR|6NUR_protein|mol2

> <Gold.PLP.Fitness>
59.3947

> <Gold.PLP.PLP>
-49.3791

> <Gold.PLP.part.hbond>
-4.0026

> <Gold.PLP.part.metal>
0.0000

> <Gold.PLP.part.buried>
-5.3888

> <Gold.PLP.part.nonpolar>
-39.8519

> <Gold.PLP.part.repulsive>
0.1093

> <Gold.PLP.ligand.clash>
0.0000

> <Gold.PLP.ligand.torsion>
1.6045

> <Gold.PLP.Chemscore.Hbond>
2.8480

> <Gold.PLP.Chemscore.CHOScore>
1.0000

> <Gold.PLP.Chemscore.Metal>
0.0000

> <Gold.Chemscore.Hbonds>
donor molecule, donor type, donor heavy atom, donor atom, acceptor molecule, acceptor atom, score
      P1  H  7989  7998       L1    22  0.88
      P1  H  7997  8010       L1    12  1.00
      P1  H 10752 10765       L1    13  0.78
      L1  C    21    44       P1  8028  1.00

> <Gold.PLP.Chemscore.Internal.Correction>
1.6807

> <Gold.Rescore>
     Score         DG    S(hbond)    S(metal)    S(lipo)     H(rot)  DE(clash)    DE(int)     intcor
     18.53     -21.29       1.93        0.00     120.53       1.85       0.18       2.58       ----

> <Gold.Chemscore.Fitness>
18.5285

> <Gold.Chemscore.DG>
-21.2949

> <Gold.Chemscore.ZeroCoef>
-5.4800

> <Gold.Chemscore.Hbond>
1.9305

> <Gold.Chemscore.Metal>
0.0000

> <Gold.Chemscore.Lipo>
120.5259

> <Gold.Chemscore.Internal_Hbond>
0.0000

> <Gold.Chemscore.DEClash>
0.1834

> <Gold.Chemscore.DEInternal>
2.5830

> <Gold.Chemscore.Rot>
1.8494

> <Gold.Chemscore.Internal.Correction>
   9.000000E+99

> <Gold.Chemscore.Hbonds>
donor molecule, donor type, donor heavy atom, donor atom, acceptor molecule, acceptor atom, score
      P1  H  7989  7998       L1    22  0.18
      P1  H  7997  8010       L1    12  0.93
      P1  H 10752 10765       L1    13  0.39

> <Gold.Chemscore.Hbond.Weighted>
-6.4480

> <Gold.Chemscore.Metal.Weighted>
-0.0000

> <Gold.Chemscore.Lipo.Weighted>
-14.1015

> <Gold.Chemscore.Internal_Hbond.Weighted>
0.0000

> <Gold.Chemscore.DEClash.Weighted>
0.1834

> <Gold.Chemscore.DEInternal.Weighted>
2.5830

> <Gold.Chemscore.Rot.Weighted>
4.7346

> <Gold.Chemscore.Internal.Correction.Weighted>
   9.000000E+99

> <Gold.Protein.RotatedTorsions>
[ 6907 6896 6895 6894 ] final   -5.79 input  -60.11 | X-H torsion
[ 7974 7965 7964 7962 ] final  -93.17 input  175.53 | X-H torsion
[ 8008 7997 7996 7995 ] final   92.35 input   59.86 | X-H torsion
[ 10167 10162 10161 10158 ] final  123.54 input  -65.29 | X-H torsion
[ 10718 10713 10712 10709 ] final -163.45 input   66.30 | X-H torsion
[ 10763 10752 10751 10750 ] final  -91.70 input  -60.55 | X-H torsion
[ 11005 11000 10999 10996 ] final  118.79 input  -57.11 | X-H torsion

> <Gold.Protein.ActiveResidues>
 VAL166  LYS551  ARG553  GLY616  TRP617  ASP618  TYR619  PRO620  LYS621  CYS622 
 ASP623  PHE694  ASN695  SER759  ASP760  ASP761  ALA762  ILE779  LEU786  VAL792 
 PHE793  MET794  SER795  GLU796  ALA797  LYS798  CYS799  TRP800  GLU811  SER814 

> <Gold.Protein.RotatedAtoms>
  151.4759  135.1049  159.9764 H   0  0  0  0  0  0  0  0  0  0  0  0  # atno 6907 bound_to 6896
  152.4798  133.8223  159.7070 H   0  0  0  0  0  0  0  0  0  0  0  0  # atno 6908 bound_to 6896
  150.8862  133.7244  159.2944 H   0  0  0  0  0  0  0  0  0  0  0  0  # atno 6909 bound_to 6896
  145.3900  140.9527  143.2345 H   0  0  0  0  0  0  0  0  0  0  0  0  # atno 7974 bound_to 7965
  156.0344  140.3326  155.7174 H   0  0  0  0  0  0  0  0  0  0  0  0  # atno 8008 bound_to 7997
  155.5838  140.0639  157.2794 H   0  0  0  0  0  0  0  0  0  0  0  0  # atno 8009 bound_to 7997
  154.4366  140.1839  156.0992 H   0  0  0  0  0  0  0  0  0  0  0  0  # atno 8010 bound_to 7997
  139.5793  144.6979  151.3569 H   0  0  0  0  0  0  0  0  0  0  0  0  # atno 10167 bound_to 10162
  156.6249  130.8906  151.2965 H   0  0  0  0  0  0  0  0  0  0  0  0  # atno 10718 bound_to 10713
  154.6787  135.5258  153.8234 H   0  0  0  0  0  0  0  0  0  0  0  0  # atno 10763 bound_to 10752
  153.0550  135.6547  154.0610 H   0  0  0  0  0  0  0  0  0  0  0  0  # atno 10764 bound_to 10752
  154.0500  135.2970  155.3322 H   0  0  0  0  0  0  0  0  0  0  0  0  # atno 10765 bound_to 10752
  139.9122  134.9623  156.7556 H   0  0  0  0  0  0  0  0  0  0  0  0  # atno 11005 bound_to 11000
  144.8447  139.5416  143.6884 LP  0  0  0  0  0  0  0  0  0  0  0  0  # atno 17320 bound_to 7965
  146.2802  139.6857  142.9234 LP  0  0  0  0  0  0  0  0  0  0  0  0  # atno 17321 bound_to 7965
  140.7073  143.7481  150.7505 LP  0  0  0  0  0  0  0  0  0  0  0  0  # atno 17342 bound_to 10162
  140.1009  143.4789  152.2426 LP  0  0  0  0  0  0  0  0  0  0  0  0  # atno 17343 bound_to 10162
  157.7217  130.9567  150.1465 LP  0  0  0  0  0  0  0  0  0  0  0  0  # atno 17370 bound_to 10713
  156.2281  130.3679  149.8477 LP  0  0  0  0  0  0  0  0  0  0  0  0  # atno 17371 bound_to 10713
  140.6738  133.9535  155.7871 LP  0  0  0  0  0  0  0  0  0  0  0  0  # atno 17394 bound_to 11000
  141.0559  134.0418  157.3723 LP  0  0  0  0  0  0  0  0  0  0  0  0  # atno 17395 bound_to 11000

$$$$
