AV-unprocessed.smi:2490|AV-procd|sdf|9808|dock3
  -GOLD-   2272013443D 1   1.00000     0.00000
 Structure written by MMmdl.
 33 34  0  0  0  0  0  0  0  0  1 V2000
  146.7980  139.2388  152.3404 C   0  0  0  0  0  0  0  0  0  0  0  0
  148.0869  139.5605  152.9330 N   0  0  0  0  0  0  0  0  0  0  0  0
  148.2461  140.1379  154.1332 C   0  0  0  0  0  0  0  0  0  0  0  0
  147.2982  140.4588  154.8515 O   0  0  0  0  0  0  0  0  0  0  0  0
  149.6919  140.4083  154.5731 C   0  0  1  0  0  0  0  0  0  0  0  0
  149.7741  141.1894  155.9042 C   0  0  0  0  0  0  0  0  0  0  0  0
  151.1616  141.3382  156.3239 N   0  0  0  0  0  0  0  0  0  0  0  0
  151.4109  142.2424  157.3389 C   0  0  0  0  0  0  0  0  0  0  0  0
  151.2648  143.5431  157.0588 N   0  0  0  0  0  0  0  0  0  0  0  0
  151.5115  144.4151  158.0601 C   0  0  0  0  0  0  0  0  0  0  0  0
  151.9042  143.9783  159.3420 C   0  0  0  0  0  0  0  0  0  0  0  0
  152.1807  144.9568  160.4632 C   0  0  0  0  0  0  0  0  0  0  0  0
  152.0248  142.5839  159.5183 C   0  0  0  0  0  0  0  0  0  0  0  0
  151.7758  141.7182  158.5123 N   0  0  0  0  0  0  0  0  0  0  0  0
  151.8626  140.0640  156.3961 C   0  0  0  0  0  0  0  0  0  0  0  0
  151.7397  139.3167  155.0586 C   0  0  0  0  0  0  0  0  0  0  0  0
  150.3643  139.1574  154.7262 O   0  0  0  0  0  0  0  0  0  0  0  0
  146.9431  138.7906  151.3575 H   0  0  0  0  0  0  0  0  0  0  0  0
  146.1903  140.1365  152.2195 H   0  0  0  0  0  0  0  0  0  0  0  0
  146.2518  138.5283  152.9621 H   0  0  0  0  0  0  0  0  0  0  0  0
  148.9136  139.3270  152.4020 H   0  0  0  0  0  0  0  0  0  0  0  0
  150.1756  140.9808  153.7795 H   0  0  0  0  0  0  0  0  0  0  0  0
  149.3253  142.1775  155.7901 H   0  0  0  0  0  0  0  0  0  0  0  0
  149.2164  140.6705  156.6854 H   0  0  0  0  0  0  0  0  0  0  0  0
  151.3942  145.4651  157.8359 H   0  0  0  0  0  0  0  0  0  0  0  0
  152.4350  144.4357  161.3867 H   0  0  0  0  0  0  0  0  0  0  0  0
  151.3026  145.5754  160.6501 H   0  0  0  0  0  0  0  0  0  0  0  0
  153.0126  145.6095  160.1980 H   0  0  0  0  0  0  0  0  0  0  0  0
  152.3211  142.1593  160.4664 H   0  0  0  0  0  0  0  0  0  0  0  0
  152.9133  140.2330  156.6356 H   0  0  0  0  0  0  0  0  0  0  0  0
  151.4404  139.4636  157.2030 H   0  0  0  0  0  0  0  0  0  0  0  0
  152.2575  139.8547  154.2628 H   0  0  0  0  0  0  0  0  0  0  0  0
  152.2031  138.3331  155.1332 H   0  0  0  0  0  0  0  0  0  0  0  0
  1  2  1  0  0  0  0
  1 18  1  0  0  0  0
  1 19  1  0  0  0  0
  1 20  1  0  0  0  0
  2  3  1  0  0  0  0
  2 21  1  0  0  0  0
  3  4  2  0  0  0  0
  3  5  1  0  0  0  0
  5 17  1  0  0  0  0
  5  6  1  0  0  0  0
  5 22  1  0  0  0  0
  6  7  1  0  0  0  0
  6 23  1  0  0  0  0
  6 24  1  0  0  0  0
  7  8  1  0  0  0  0
  7 15  1  0  0  0  0
  8 14  1  0  0  0  0
  8  9  2  0  0  0  0
  9 10  1  0  0  0  0
 10 11  2  0  0  0  0
 10 25  1  0  0  0  0
 11 12  1  0  0  0  0
 11 13  1  0  0  0  0
 12 26  1  0  0  0  0
 12 27  1  0  0  0  0
 12 28  1  0  0  0  0
 13 14  2  0  0  0  0
 13 29  1  0  0  0  0
 15 16  1  0  0  0  0
 15 30  1  0  0  0  0
 15 31  1  0  0  0  0
 16 17  1  0  0  0  0
 16 32  1  0  0  0  0
 16 33  1  0  0  0  0
M  END
> <s_m_source_file>
AV-unprocessed.smi

> <i_m_source_file_index>
2490

> <i_lp_mmshare_version>
43012

> <i_f3d_flags>
0

> <s_epik_input>
W0NIM11bTkhdQyg9TylbQ0BASF0xW0NIMl1OKFtDSDJdW0NIMl1PMSljMm5bY0hdYyhbQ0gzXSlbY0hdbjI=

> <s_epik_cmdline>
J2VwaWtfcHl0aG9uJywgJy1waCcsICc3LjAnLCAnLXRuJywgJzgnLCAnLW1hJywgJzIwMCcsICctbWV0YWxfYmluZGluZycsICctaW1hZScsICc8aW5maWxlLm1hZT4nLCAnLW9tYWUnLCAnPG91dGZpbGUubWFlPic=

> <r_lp_tautomer_probability>
1

> <r_epik_Ionization_Penalty>
8.72552e-06

> <r_epik_Ionization_Penalty_Charging>
0

> <r_epik_Ionization_Penalty_Neutral>
8.72552e-06

> <r_epik_State_Penalty>
-0

> <r_epik_Charging_Adjusted_Penalty>
0

> <i_epik_Tot_Q>
0

> <i_epik_Tot_abs_Q>
0

> <r_epik_Metal_State_Penalty>
-0

> <b_epik_Metal_Only>
0

> <s_lp_Force_Field>
OPLS_2005

> <r_lp_Energy>
12.5382

> <b_lp_Chiralities_Consistent>
1

> <s_lp_Variant>
AV-unprocessed.smi:2490-2

> <Gold.Version>
5.8.1

> <Gold.Id.Protein>
6NUR|6NUR_protein|mol2

> <Gold.PLP.Fitness>
34.7207

> <Gold.PLP.PLP>
-33.5064

> <Gold.PLP.part.hbond>
-0.4492

> <Gold.PLP.part.metal>
0.0000

> <Gold.PLP.part.buried>
-2.5865

> <Gold.PLP.part.nonpolar>
-30.0249

> <Gold.PLP.part.repulsive>
1.3818

> <Gold.PLP.ligand.clash>
0.0000

> <Gold.PLP.ligand.torsion>
0.4962

> <Gold.PLP.Chemscore.Hbond>
0.6400

> <Gold.PLP.Chemscore.CHOScore>
0.0000

> <Gold.PLP.Chemscore.Metal>
0.0000

> <Gold.Chemscore.Hbonds>
donor molecule, donor type, donor heavy atom, donor atom, acceptor molecule, acceptor atom, score
      L1  H     2    21       P1  7957  0.64

> <Gold.PLP.Chemscore.Internal.Correction>
0.2866

> <Gold.Rescore>
     Score         DG    S(hbond)    S(metal)    S(lipo)     H(rot)  DE(clash)    DE(int)     intcor
     14.28     -14.74       0.91        0.00      81.88       1.31       0.16       0.29       ----

> <Gold.Chemscore.Fitness>
14.2807

> <Gold.Chemscore.DG>
-14.7360

> <Gold.Chemscore.ZeroCoef>
-5.4800

> <Gold.Chemscore.Hbond>
0.9061

> <Gold.Chemscore.Metal>
0.0000

> <Gold.Chemscore.Lipo>
81.8832

> <Gold.Chemscore.Internal_Hbond>
0.0000

> <Gold.Chemscore.DEClash>
0.1618

> <Gold.Chemscore.DEInternal>
0.2935

> <Gold.Chemscore.Rot>
1.3089

> <Gold.Chemscore.Internal.Correction>
   9.000000E+99

> <Gold.Chemscore.Hbonds>
donor molecule, donor type, donor heavy atom, donor atom, acceptor molecule, acceptor atom, score
      L1  H     2    21       P1  7957  0.63

> <Gold.Chemscore.Hbond.Weighted>
-3.0265

> <Gold.Chemscore.Metal.Weighted>
-0.0000

> <Gold.Chemscore.Lipo.Weighted>
-9.5803

> <Gold.Chemscore.Internal_Hbond.Weighted>
0.0000

> <Gold.Chemscore.DEClash.Weighted>
0.1618

> <Gold.Chemscore.DEInternal.Weighted>
0.2935

> <Gold.Chemscore.Rot.Weighted>
3.3509

> <Gold.Chemscore.Internal.Correction.Weighted>
   9.000000E+99

> <Gold.Protein.RotatedTorsions>
[ 6907 6896 6895 6894 ] final   40.36 input  -60.11 | X-H torsion
[ 7974 7965 7964 7962 ] final    2.44 input  175.53 | X-H torsion
[ 8008 7997 7996 7995 ] final  -30.61 input   59.86 | X-H torsion
[ 10167 10162 10161 10158 ] final   30.56 input  -65.29 | X-H torsion
[ 10718 10713 10712 10709 ] final  158.04 input   66.30 | X-H torsion
[ 10763 10752 10751 10750 ] final  173.83 input  -60.55 | X-H torsion
[ 11005 11000 10999 10996 ] final   60.01 input  -57.11 | X-H torsion

> <Gold.Protein.ActiveResidues>
 VAL166  LYS551  ARG553  GLY616  TRP617  ASP618  TYR619  PRO620  LYS621  CYS622 
 ASP623  PHE694  ASN695  SER759  ASP760  ASP761  ALA762  ILE779  LEU786  VAL792 
 PHE793  MET794  SER795  GLU796  ALA797  LYS798  CYS799  TRP800  GLU811  SER814 

> <Gold.Protein.RotatedAtoms>
  152.1816  134.8749  160.0525 H   0  0  0  0  0  0  0  0  0  0  0  0  # atno 6907 bound_to 6896
  151.9672  133.3709  159.4065 H   0  0  0  0  0  0  0  0  0  0  0  0  # atno 6908 bound_to 6896
  150.6918  134.4102  159.5202 H   0  0  0  0  0  0  0  0  0  0  0  0  # atno 6909 bound_to 6896
  146.2444  140.0835  142.8356 H   0  0  0  0  0  0  0  0  0  0  0  0  # atno 7974 bound_to 7965
  154.4244  140.1786  156.1434 H   0  0  0  0  0  0  0  0  0  0  0  0  # atno 8008 bound_to 7997
  155.9973  140.3363  155.6786 H   0  0  0  0  0  0  0  0  0  0  0  0  # atno 8009 bound_to 7997
  155.6291  140.0668  157.2645 H   0  0  0  0  0  0  0  0  0  0  0  0  # atno 8010 bound_to 7997
  140.4667  144.0825  150.6226 H   0  0  0  0  0  0  0  0  0  0  0  0  # atno 10167 bound_to 10162
  157.1833  131.0637  151.2119 H   0  0  0  0  0  0  0  0  0  0  0  0  # atno 10718 bound_to 10713
  154.4454  135.2763  155.1818 H   0  0  0  0  0  0  0  0  0  0  0  0  # atno 10763 bound_to 10752
  154.3667  135.6117  153.5722 H   0  0  0  0  0  0  0  0  0  0  0  0  # atno 10764 bound_to 10752
  152.9843  135.5847  154.4789 H   0  0  0  0  0  0  0  0  0  0  0  0  # atno 10765 bound_to 10752
  140.0262  134.6079  155.9569 H   0  0  0  0  0  0  0  0  0  0  0  0  # atno 11005 bound_to 11000
  145.0712  140.9157  143.4881 LP  0  0  0  0  0  0  0  0  0  0  0  0  # atno 17320 bound_to 7965
  145.0969  139.2850  143.5706 LP  0  0  0  0  0  0  0  0  0  0  0  0  # atno 17321 bound_to 7965
  140.4027  143.2695  151.9928 LP  0  0  0  0  0  0  0  0  0  0  0  0  # atno 17342 bound_to 10162
  139.4813  144.5983  151.7650 LP  0  0  0  0  0  0  0  0  0  0  0  0  # atno 17343 bound_to 10162
  157.3931  130.7293  149.6712 LP  0  0  0  0  0  0  0  0  0  0  0  0  # atno 17370 bound_to 10713
  155.9721  130.4141  150.4115 LP  0  0  0  0  0  0  0  0  0  0  0  0  # atno 17371 bound_to 10713
  141.1804  133.6546  156.4998 LP  0  0  0  0  0  0  0  0  0  0  0  0  # atno 17394 bound_to 11000
  140.4302  134.7109  157.4937 LP  0  0  0  0  0  0  0  0  0  0  0  0  # atno 17395 bound_to 11000

$$$$
