AV-unprocessed.smi:1063|AV-procd|sdf|4662|dock3
  -GOLD-   22720 3173D 1   1.00000     0.00000
 Structure written by MMmdl.
 38 39  0  0  0  0  0  0  0  0  1 V2000
  152.1806  142.5472  158.9372 C   0  0  0  0  0  0  0  0  0  0  0  0
  151.4000  141.5817  158.0415 C   0  0  0  0  0  0  0  0  0  0  0  0
  150.8804  142.3822  156.4981 S   0  0  0  0  0  0  0  0  0  0  0  0
  149.9508  141.2078  155.5578 C   0  0  0  0  0  0  0  0  0  0  0  0
  148.5874  141.3908  155.2483 C   0  0  0  0  0  0  0  0  0  0  0  0
  147.9416  140.3932  154.4939 C   0  0  0  0  0  0  0  0  0  0  0  0
  148.6679  139.2581  154.0769 C   0  0  0  0  0  0  0  0  0  0  0  0
  147.9712  138.2824  153.3104 N   0  0  0  0  0  0  0  0  0  0  0  0
  146.6484  138.0947  153.1596 C   0  0  0  0  0  0  0  0  0  0  0  0
  145.7634  138.7960  153.6475 O   0  0  0  0  0  0  0  0  0  0  0  0
  146.4008  137.0249  152.3907 N   0  0  0  0  0  0  0  0  0  0  0  0
  145.0735  136.5165  152.0626 C   0  0  0  0  0  0  0  0  0  0  0  0
  145.1457  135.3887  151.0199 C   0  0  2  0  0  0  0  0  0  0  0  0
  143.9028  134.5050  150.9802 C   0  0  0  0  0  0  0  0  0  0  0  0
  144.4152  133.2338  150.3269 C   0  0  0  0  0  0  0  0  0  0  0  0
  145.9218  133.2584  150.6057 C   0  0  0  0  0  0  0  0  0  0  0  0
  146.1609  134.4511  151.3428 O   0  0  0  0  0  0  0  0  0  0  0  0
  150.0356  139.1815  154.4443 C   0  0  0  0  0  0  0  0  0  0  0  0
  150.6646  140.1319  155.1688 N   0  0  0  0  0  0  0  0  0  0  0  0
  152.4850  142.0585  159.8630 H   0  0  0  0  0  0  0  0  0  0  0  0
  151.5752  143.4146  159.2017 H   0  0  0  0  0  0  0  0  0  0  0  0
  153.0811  142.9056  158.4378 H   0  0  0  0  0  0  0  0  0  0  0  0
  152.0185  140.7162  157.8031 H   0  0  0  0  0  0  0  0  0  0  0  0
  150.5171  141.2190  158.5683 H   0  0  0  0  0  0  0  0  0  0  0  0
  148.0380  142.2615  155.5706 H   0  0  0  0  0  0  0  0  0  0  0  0
  146.8975  140.5025  154.2384 H   0  0  0  0  0  0  0  0  0  0  0  0
  148.5615  137.6279  152.8184 H   0  0  0  0  0  0  0  0  0  0  0  0
  147.1876  136.5096  152.0241 H   0  0  0  0  0  0  0  0  0  0  0  0
  144.5503  136.1834  152.9607 H   0  0  0  0  0  0  0  0  0  0  0  0
  144.4942  137.3476  151.6592 H   0  0  0  0  0  0  0  0  0  0  0  0
  145.3397  135.7973  150.0262 H   0  0  0  0  0  0  0  0  0  0  0  0
  143.5638  134.2862  151.9937 H   0  0  0  0  0  0  0  0  0  0  0  0
  143.0745  134.9595  150.4359 H   0  0  0  0  0  0  0  0  0  0  0  0
  143.9311  132.3456  150.7336 H   0  0  0  0  0  0  0  0  0  0  0  0
  144.2330  133.2543  149.2518 H   0  0  0  0  0  0  0  0  0  0  0  0
  146.2510  132.3899  151.1767 H   0  0  0  0  0  0  0  0  0  0  0  0
  146.4861  133.2857  149.6727 H   0  0  0  0  0  0  0  0  0  0  0  0
  150.6686  138.3563  154.1630 H   0  0  0  0  0  0  0  0  0  0  0  0
  1  2  1  0  0  0  0
  1 20  1  0  0  0  0
  1 21  1  0  0  0  0
  1 22  1  0  0  0  0
  2  3  1  0  0  0  0
  2 23  1  0  0  0  0
  2 24  1  0  0  0  0
  3  4  1  0  0  0  0
  4 19  1  0  0  0  0
  4  5  2  0  0  0  0
  5  6  1  0  0  0  0
  5 25  1  0  0  0  0
  6  7  2  0  0  0  0
  6 26  1  0  0  0  0
  7  8  1  0  0  0  0
  7 18  1  0  0  0  0
  8  9  1  0  0  0  0
  8 27  1  0  0  0  0
  9 10  2  0  0  0  0
  9 11  1  0  0  0  0
 11 12  1  0  0  0  0
 11 28  1  0  0  0  0
 12 13  1  0  0  0  0
 12 29  1  0  0  0  0
 12 30  1  0  0  0  0
 13 17  1  0  0  0  0
 13 14  1  0  0  0  0
 13 31  1  0  0  0  0
 14 15  1  0  0  0  0
 14 32  1  0  0  0  0
 14 33  1  0  0  0  0
 15 16  1  0  0  0  0
 15 34  1  0  0  0  0
 15 35  1  0  0  0  0
 16 17  1  0  0  0  0
 16 36  1  0  0  0  0
 16 37  1  0  0  0  0
 18 19  2  0  0  0  0
 18 38  1  0  0  0  0
M  END
> <s_m_source_file>
AV-unprocessed.smi

> <i_m_source_file_index>
1063

> <i_lp_mmshare_version>
43012

> <i_f3d_flags>
0

> <s_epik_input>
W0NIM11bQ0gyXVNjMVtjSF1bY0hdYyhbY0hdbjEpW05IXUMoPU8pW05IXVtDSDJdW0NAQEhdMltDSDJdW0NIMl1bQ0gyXU8y

> <s_epik_cmdline>
J2VwaWtfcHl0aG9uJywgJy1waCcsICc3LjAnLCAnLXRuJywgJzgnLCAnLW1hJywgJzIwMCcsICctbWV0YWxfYmluZGluZycsICctaW1hZScsICc8aW5maWxlLm1hZT4nLCAnLW9tYWUnLCAnPG91dGZpbGUubWFlPic=

> <r_lp_tautomer_probability>
1

> <r_epik_Ionization_Penalty>
0.000426617

> <r_epik_Ionization_Penalty_Charging>
0

> <r_epik_Ionization_Penalty_Neutral>
0.000426617

> <r_epik_State_Penalty>
0.000241115

> <r_epik_Charging_Adjusted_Penalty>
0.000241115

> <i_epik_Tot_Q>
0

> <i_epik_Tot_abs_Q>
0

> <r_epik_Metal_State_Penalty>
-0

> <b_epik_Metal_Only>
0

> <s_lp_Force_Field>
OPLS_2005

> <r_lp_Energy>
19.2569

> <b_lp_Chiralities_Consistent>
1

> <s_lp_Variant>
AV-unprocessed.smi:1063-1

> <Gold.Version>
5.8.1

> <Gold.Id.Protein>
6NUR|6NUR_protein|mol2

> <Gold.PLP.Fitness>
42.0553

> <Gold.PLP.PLP>
-34.7080

> <Gold.PLP.part.hbond>
-3.5204

> <Gold.PLP.part.metal>
0.0000

> <Gold.PLP.part.buried>
-5.4516

> <Gold.PLP.part.nonpolar>
-27.8496

> <Gold.PLP.part.repulsive>
0.6507

> <Gold.PLP.ligand.clash>
0.0000

> <Gold.PLP.ligand.torsion>
0.2458

> <Gold.PLP.Chemscore.Hbond>
2.6000

> <Gold.PLP.Chemscore.CHOScore>
0.0000

> <Gold.PLP.Chemscore.Metal>
0.0000

> <Gold.Chemscore.Hbonds>
donor molecule, donor type, donor heavy atom, donor atom, acceptor molecule, acceptor atom, score
      L1  H     8    27       P1  7948  1.00
      L1  H    11    28       P1  7948  1.00
      P1  H  7989  7998       L1    19  0.55

> <Gold.PLP.Chemscore.Internal.Correction>
0.0389

> <Gold.Rescore>
     Score         DG    S(hbond)    S(metal)    S(lipo)     H(rot)  DE(clash)    DE(int)     intcor
     17.47     -19.00       1.96        0.00      91.84       1.47       0.05       1.48       ----

> <Gold.Chemscore.Fitness>
17.4741

> <Gold.Chemscore.DG>
-19.0005

> <Gold.Chemscore.ZeroCoef>
-5.4800

> <Gold.Chemscore.Hbond>
1.9562

> <Gold.Chemscore.Metal>
0.0000

> <Gold.Chemscore.Lipo>
91.8388

> <Gold.Chemscore.Internal_Hbond>
0.0000

> <Gold.Chemscore.DEClash>
0.0480

> <Gold.Chemscore.DEInternal>
1.4784

> <Gold.Chemscore.Rot>
1.4681

> <Gold.Chemscore.Internal.Correction>
   9.000000E+99

> <Gold.Chemscore.Hbonds>
donor molecule, donor type, donor heavy atom, donor atom, acceptor molecule, acceptor atom, score
      L1  H     8    27       P1  7948  0.99
      L1  H    11    28       P1  7948  0.97
      P1  H  7989  7998       L1    19  0.01

> <Gold.Chemscore.Hbond.Weighted>
-6.5337

> <Gold.Chemscore.Metal.Weighted>
-0.0000

> <Gold.Chemscore.Lipo.Weighted>
-10.7451

> <Gold.Chemscore.Internal_Hbond.Weighted>
0.0000

> <Gold.Chemscore.DEClash.Weighted>
0.0480

> <Gold.Chemscore.DEInternal.Weighted>
1.4784

> <Gold.Chemscore.Rot.Weighted>
3.7584

> <Gold.Chemscore.Internal.Correction.Weighted>
   9.000000E+99

> <Gold.Protein.RotatedTorsions>
[ 6907 6896 6895 6894 ] final   73.57 input  -60.11 | X-H torsion
[ 7974 7965 7964 7962 ] final  112.82 input  175.53 | X-H torsion
[ 8008 7997 7996 7995 ] final    7.11 input   59.86 | X-H torsion
[ 10167 10162 10161 10158 ] final   75.62 input  -65.29 | X-H torsion
[ 10718 10713 10712 10709 ] final    5.50 input   66.30 | X-H torsion
[ 10763 10752 10751 10750 ] final   67.15 input  -60.55 | X-H torsion
[ 11005 11000 10999 10996 ] final   62.94 input  -57.11 | X-H torsion

> <Gold.Protein.ActiveResidues>
 VAL166  LYS551  ARG553  GLY616  TRP617  ASP618  TYR619  PRO620  LYS621  CYS622 
 ASP623  PHE694  ASN695  SER759  ASP760  ASP761  ALA762  ILE779  LEU786  VAL792 
 PHE793  MET794  SER795  GLU796  ALA797  LYS798  CYS799  TRP800  GLU811  SER814 

> <Gold.Protein.RotatedAtoms>
  152.4930  134.4402  159.9540 H   0  0  0  0  0  0  0  0  0  0  0  0  # atno 6907 bound_to 6896
  151.4386  133.3643  159.2786 H   0  0  0  0  0  0  0  0  0  0  0  0  # atno 6908 bound_to 6896
  150.9104  134.8544  159.7481 H   0  0  0  0  0  0  0  0  0  0  0  0  # atno 6909 bound_to 6896
  145.2247  139.2846  143.4200 H   0  0  0  0  0  0  0  0  0  0  0  0  # atno 7974 bound_to 7965
  154.7496  140.2764  155.6304 H   0  0  0  0  0  0  0  0  0  0  0  0  # atno 8008 bound_to 7997
  156.2892  140.2681  156.2172 H   0  0  0  0  0  0  0  0  0  0  0  0  # atno 8009 bound_to 7997
  155.0154  140.0372  157.2406 H   0  0  0  0  0  0  0  0  0  0  0  0  # atno 8010 bound_to 7997
  140.0010  144.5686  150.7737 H   0  0  0  0  0  0  0  0  0  0  0  0  # atno 10167 bound_to 10162
  156.9083  130.5747  149.5647 H   0  0  0  0  0  0  0  0  0  0  0  0  # atno 10718 bound_to 10713
  153.0173  135.5294  154.6935 H   0  0  0  0  0  0  0  0  0  0  0  0  # atno 10763 bound_to 10752
  154.6063  135.2873  155.0483 H   0  0  0  0  0  0  0  0  0  0  0  0  # atno 10764 bound_to 10752
  154.1521  135.6561  153.5018 H   0  0  0  0  0  0  0  0  0  0  0  0  # atno 10765 bound_to 10752
  140.0058  134.6371  155.9857 H   0  0  0  0  0  0  0  0  0  0  0  0  # atno 11005 bound_to 11000
  146.3367  140.2563  142.8600 LP  0  0  0  0  0  0  0  0  0  0  0  0  # atno 17320 bound_to 7965
  144.9733  140.8389  143.5442 LP  0  0  0  0  0  0  0  0  0  0  0  0  # atno 17321 bound_to 7965
  140.7419  143.2824  151.3561 LP  0  0  0  0  0  0  0  0  0  0  0  0  # atno 17342 bound_to 10162
  139.6271  144.0792  152.2444 LP  0  0  0  0  0  0  0  0  0  0  0  0  # atno 17343 bound_to 10162
  156.0548  130.5611  150.9068 LP  0  0  0  0  0  0  0  0  0  0  0  0  # atno 17370 bound_to 10713
  157.5983  131.0942  150.9003 LP  0  0  0  0  0  0  0  0  0  0  0  0  # atno 17371 bound_to 10713
  141.1676  133.6537  156.4534 LP  0  0  0  0  0  0  0  0  0  0  0  0  # atno 17394 bound_to 11000
  140.4643  134.6812  157.5100 LP  0  0  0  0  0  0  0  0  0  0  0  0  # atno 17395 bound_to 11000

$$$$
