#       Name:                AV-unprocessed.smi:2193
#       Creating user name   scv26
#       Creation time:       Fri Mar 27 12:11:12 2020


#       File generated by GOLD software.
#

@<TRIPOS>MOLECULE
AV-unprocessed.smi:2193
    47    49     1
SMALL
NO_CHARGES


@<TRIPOS>ATOM
      1 ****        -2.2991   1.1868   2.8231 O.3            1 S1                 0.0000
      2 ****        -1.1663   1.8967   2.3747 C.3            1 S1                 0.0000
      3 ****        -1.3156   2.3695   0.9667 C.2            1 S1                 0.0000
      4 ****        -1.7813   3.5903   0.5803 N.pl3          1 S1                 1.0000
      5 ****        -1.7917   3.6728  -0.8126 C.ar           1 S1                 0.0000
      6 ****        -2.1772   4.7067  -1.6603 C.ar           1 S1                 0.0000
      7 ****        -2.0609   4.4662  -3.0451 C.ar           1 S1                 0.0000
      8 ****        -1.5775   3.2371  -3.5386 C.ar           1 S1                 0.0000
      9 ****        -1.1908   2.1958  -2.6694 C.ar           1 S1                 0.0000
     10 ****        -1.3092   2.4408  -1.3012 C.ar           1 S1                 0.0000
     11 ****        -1.0288   1.6680  -0.1675 N.pl3          1 S1                 0.0000
     12 ****        -0.5098   0.2998  -0.3235 C.3            1 S1                 0.0000
     13 ****         1.0275   0.2292  -0.2294 C.3            1 S1                 0.0000
     14 ****         1.6115   0.9948  -1.2639 O.3            1 S1                 0.0000
     15 ****         1.5552  -1.2094  -0.3261 C.3            1 S1                 0.0000
     16 ****         1.1466  -1.9256   0.8320 O.3            1 S1                 0.0000
     17 ****         1.5097  -3.2504   0.9433 C.ar           1 S1                 0.0000
     18 ****         1.0661  -3.9406   2.0905 C.ar           1 S1                 0.0000
     19 ****         1.3897  -5.2970   2.2866 C.ar           1 S1                 0.0000
     20 ****         2.1653  -5.9797   1.3316 C.ar           1 S1                 0.0000
     21 ****         2.4778  -7.2840   1.5175 F              1 S1                 0.0000
     22 ****         2.6158  -5.3035   0.1826 C.ar           1 S1                 0.0000
     23 ****         2.2915  -3.9467  -0.0134 C.ar           1 S1                 0.0000
     24 ****        -2.1442   0.9018   3.7110 H              1 S1                 0.0000
     25 ****        -0.9999   2.7526   3.0291 H              1 S1                 0.0000
     26 ****        -0.2881   1.2563   2.4560 H              1 S1                 0.0000
     27 ****        -2.5473   5.6495  -1.2846 H              1 S1                 0.0000
     28 ****        -2.3476   5.2400  -3.7426 H              1 S1                 0.0000
     29 ****        -1.5009   3.0895  -4.6063 H              1 S1                 0.0000
     30 ****        -0.8183   1.2607  -3.0606 H              1 S1                 0.0000
     31 ****        -0.9597  -0.3038   0.4655 H              1 S1                 0.0000
     32 ****        -0.8696  -0.1206  -1.2627 H              1 S1                 0.0000
     33 ****         1.3567   0.6606   0.7166 H              1 S1                 0.0000
     34 ****         1.3415   1.8942  -1.1588 H              1 S1                 0.0000
     35 ****         1.1793  -1.6885  -1.2319 H              1 S1                 0.0000
     36 ****         2.6455  -1.1961  -0.3768 H              1 S1                 0.0000
     37 ****         0.4701  -3.4246   2.8288 H              1 S1                 0.0000
     38 ****         1.0426  -5.8128   3.1697 H              1 S1                 0.0000
     39 ****         3.2121  -5.8261  -0.5508 H              1 S1                 0.0000
     40 ****         2.6560  -3.4626  -0.9065 H              1 S1                 0.0000
     41 ****        -2.0755   4.3112   1.2267 H              1 S1                 0.0000
     42 ****        -2.4528   0.3920   2.2361 LP             1 S1                 0.0000
     43 ****        -3.1024   1.7819   2.7955 LP             1 S1                 0.0000
     44 ****         1.3051   0.6519  -2.1519 LP             1 S1                 0.0000
     45 ****         2.6080   0.9328  -1.2085 LP             1 S1                 0.0000
     46 ****         0.1478  -1.8885   0.8659 LP             1 S1                 0.0000
     47 ****         1.5249  -1.4474   1.6246 LP             1 S1                 0.0000
@<TRIPOS>BOND
    1    1    2 1     
    2    1   24 1     
    3    2    3 1     
    4    2   25 1     
    5    2   26 1     
    6    3   11 1     
    7    3    4 2     
    8    4    5 1     
    9    4   41 1     
   10    5   10 ar    
   11    5    6 ar    
   12    6    7 ar    
   13    6   27 1     
   14    7    8 ar    
   15    7   28 1     
   16    8    9 ar    
   17    8   29 1     
   18    9   10 ar    
   19    9   30 1     
   20   10   11 1     
   21   11   12 1     
   22   12   13 1     
   23   12   31 1     
   24   12   32 1     
   25   13   14 1     
   26   13   15 1     
   27   13   33 1     
   28   14   34 1     
   29   15   16 1     
   30   15   35 1     
   31   15   36 1     
   32   16   17 1     
   33   17   23 ar    
   34   17   18 ar    
   35   18   19 ar    
   36   18   37 1     
   37   19   20 ar    
   38   19   38 1     
   39   20   21 1     
   40   20   22 ar    
   41   22   23 ar    
   42   22   39 1     
   43   23   40 1     
   44    1   42 1     
   45    1   43 1     
   46   14   44 1     
   47   14   45 1     
   48   16   46 1     
   49   16   47 1     
@<TRIPOS>SUBSTRUCTURE
      1 S1             1
@<TRIPOS>SET
LONE_PAIRS      STATIC     ATOMS    <user>   **** ""
6 42 43 44 45 46 47
DONOR_HYDROGENS      STATIC     ATOMS    <user>   **** ""
3 24 41 34
ATOM$BLUE        STATIC     ATOMS    COLORGROUP SYSTEM
6 42 43 44 45 46 47
ATOM$RED        STATIC     ATOMS    COLORGROUP SYSTEM
3 24 41 34
