#       Name:                AV-unprocessed.smi:94
#       Creating user name   scv26
#       Creation time:       Thu Mar 26 17:29:32 2020


#       File generated by GOLD software.
#

@<TRIPOS>MOLECULE
AV-unprocessed.smi:94
    63    65     1
SMALL
NO_CHARGES


@<TRIPOS>ATOM
      1 ****        -0.9718   5.1254  -3.4701 C.3            1 S1                 0.0000
      2 ****        -0.3992   4.0823  -2.6955 O.3            1 S1                 0.0000
      3 ****        -1.2352   3.1182  -2.1693 C.ar           1 S1                 0.0000
      4 ****        -2.6386   3.1078  -2.3778 C.ar           1 S1                 0.0000
      5 ****        -3.4421   2.0961  -1.8203 C.ar           1 S1                 0.0000
      6 ****        -2.8571   1.0722  -1.0538 C.ar           1 S1                 0.0000
      7 ****        -3.7147  -0.0204  -0.4491 C.3            1 S1                 0.0000
      8 ****        -1.4665   1.0714  -0.8445 C.ar           1 S1                 0.0000
      9 ****        -0.6491   2.0934  -1.3848 C.ar           1 S1                 0.0000
     10 ****         0.8618   2.0830  -1.1376 C.3            1 S1                 0.0000
     11 ****         1.6071   1.3963  -2.2904 C.3            1 S1                 0.0000
     12 ****         1.2025   1.4152   0.1149 N.am           1 S1                 0.0000
     13 ****         1.5447   1.9972   1.2759 C.2            1 S1                 0.0000
     14 ****         1.7552   3.2035   1.3920 O.2            1 S1                 0.0000
     15 ****         1.6144   1.0915   2.5182 C.3            1 S1                 0.0000
     16 ****         0.7164  -0.0863   2.4440 N.am           1 S1                 0.0000
     17 ****        -0.6357   0.0791   2.8371 C.2            1 S1                 0.0000
     18 ****        -1.0490   1.1562   3.2683 O.2            1 S1                 0.0000
     19 ****        -1.4875  -1.0922   2.6727 C.2            1 S1                 0.0000
     20 ****        -2.7890  -1.0211   2.9995 F              1 S1                 0.0000
     21 ****        -0.9921  -2.2464   2.1825 C.2            1 S1                 0.0000
     22 ****         0.3321  -2.4045   1.8224 N.am           1 S1                 0.0000
     23 ****         0.7709  -3.7198   1.2166 C.3            1 S1                 0.0000
     24 ****         1.9003  -4.4174   1.9897 C.3            1 S1                 0.0000
     25 ****         2.6769  -5.0566   0.8588 C.3            1 S1                 0.0000
     26 ****         2.5281  -4.0231  -0.2528 C.3            1 S1                 0.0000
     27 ****         1.2146  -3.4943  -0.0905 O.3            1 S1                 0.0000
     28 ****         1.2166  -1.3050   1.9241 C.2            1 S1                 0.0000
     29 ****         2.3869  -1.3912   1.5504 O.2            1 S1                 0.0000
     30 ****        -0.1828   5.8001  -3.8012 H              1 S1                 0.0000
     31 ****        -1.6826   5.7116  -2.8862 H              1 S1                 0.0000
     32 ****        -1.4675   4.7361  -4.3603 H              1 S1                 0.0000
     33 ****        -3.1284   3.8693  -2.9650 H              1 S1                 0.0000
     34 ****        -4.5092   2.1087  -1.9863 H              1 S1                 0.0000
     35 ****        -3.1678  -0.9628  -0.4042 H              1 S1                 0.0000
     36 ****        -4.6169  -0.1807  -1.0403 H              1 S1                 0.0000
     37 ****        -4.0103   0.2517   0.5642 H              1 S1                 0.0000
     38 ****        -1.0345   0.2724  -0.2603 H              1 S1                 0.0000
     39 ****         1.2096   3.1158  -1.0878 H              1 S1                 0.0000
     40 ****         1.4181   1.9026  -3.2375 H              1 S1                 0.0000
     41 ****         1.2962   0.3567  -2.4011 H              1 S1                 0.0000
     42 ****         2.6844   1.4066  -2.1223 H              1 S1                 0.0000
     43 ****         1.0779   0.4134   0.1267 H              1 S1                 0.0000
     44 ****         2.6536   0.7928   2.6612 H              1 S1                 0.0000
     45 ****         1.3894   1.6899   3.4028 H              1 S1                 0.0000
     46 ****        -1.6701  -3.0799   2.0704 H              1 S1                 0.0000
     47 ****        -0.1236  -4.3417   1.1638 H              1 S1                 0.0000
     48 ****         2.5229  -3.7040   2.5276 H              1 S1                 0.0000
     49 ****         1.4989  -5.1367   2.7036 H              1 S1                 0.0000
     50 ****         3.7166  -5.2628   1.1143 H              1 S1                 0.0000
     51 ****         2.2034  -5.9939   0.5636 H              1 S1                 0.0000
     52 ****         3.2585  -3.2228  -0.1324 H              1 S1                 0.0000
     53 ****         2.6633  -4.4534  -1.2452 H              1 S1                 0.0000
     54 ****         0.0765   4.5116  -1.9277 LP             1 S1                 0.0000
     55 ****         0.2641   3.6121  -3.2777 LP             1 S1                 0.0000
     56 ****         1.6742   3.8040   0.5965 LP             1 S1                 0.0000
     57 ****         2.0074   3.5837   2.2819 LP             1 S1                 0.0000
     58 ****        -0.4270   1.9353   3.3466 LP             1 S1                 0.0000
     59 ****        -2.0066   1.2517   3.5402 LP             1 S1                 0.0000
     60 ****         1.2280  -2.5109  -0.2715 LP             1 S1                 0.0000
     61 ****         0.5943  -3.9432  -0.7337 LP             1 S1                 0.0000
     62 ****         2.9915  -0.5971   1.6129 LP             1 S1                 0.0000
     63 ****         2.7326  -2.2553   1.1845 LP             1 S1                 0.0000
@<TRIPOS>BOND
    1    1    2 1     
    2    1   30 1     
    3    1   31 1     
    4    1   32 1     
    5    2    3 1     
    6    3    9 ar    
    7    3    4 ar    
    8    4    5 ar    
    9    4   33 1     
   10    5    6 ar    
   11    5   34 1     
   12    6    7 1     
   13    6    8 ar    
   14    7   35 1     
   15    7   36 1     
   16    7   37 1     
   17    8    9 ar    
   18    8   38 1     
   19    9   10 1     
   20   10   11 1     
   21   10   12 1     
   22   10   39 1     
   23   11   40 1     
   24   11   41 1     
   25   11   42 1     
   26   12   13 am    
   27   12   43 1     
   28   13   14 2     
   29   13   15 1     
   30   15   16 1     
   31   15   44 1     
   32   15   45 1     
   33   16   28 am    
   34   16   17 am    
   35   17   18 2     
   36   17   19 1     
   37   19   20 1     
   38   19   21 2     
   39   21   22 1     
   40   21   46 1     
   41   22   23 1     
   42   22   28 am    
   43   23   27 1     
   44   23   24 1     
   45   23   47 1     
   46   24   25 1     
   47   24   48 1     
   48   24   49 1     
   49   25   26 1     
   50   25   50 1     
   51   25   51 1     
   52   26   27 1     
   53   26   52 1     
   54   26   53 1     
   55   28   29 2     
   56    2   54 1     
   57    2   55 1     
   58   14   56 1     
   59   14   57 1     
   60   18   58 1     
   61   18   59 1     
   62   27   60 1     
   63   27   61 1     
   64   29   62 1     
   65   29   63 1     
@<TRIPOS>SUBSTRUCTURE
      1 S1             1
@<TRIPOS>SET
LONE_PAIRS      STATIC     ATOMS    <user>   **** ""
10 54 55 56 57 58 59 60 61 62 63
DONOR_HYDROGENS      STATIC     ATOMS    <user>   **** ""
1 43
ATOM$BLUE        STATIC     ATOMS    COLORGROUP SYSTEM
10 54 55 56 57 58 59 60 61 62 63
ATOM$RED        STATIC     ATOMS    COLORGROUP SYSTEM
1 43
