AV-unprocessed.smi:715|AV-procd|sdf|3484|dock4
  -GOLD-   22720 0473D 1   1.00000     0.00000
 Structure written by MMmdl.
 39 40  0  0  0  0  0  0  0  0  1 V2000
  146.6595  141.9794  153.8773 C   0  0  0  0  0  0  0  0  0  0  0  0
  147.7569  141.6417  154.7583 N   0  0  0  0  0  0  0  0  0  0  0  0
  149.0612  141.3402  154.4315 C   0  0  0  0  0  0  0  0  0  0  0  0
  149.7299  141.0868  155.5963 C   0  0  0  0  0  0  0  0  0  0  0  0
  151.1789  140.7201  155.7803 C   0  0  2  0  0  0  0  0  0  0  0  0
  151.6290  139.8886  154.7293 O   0  0  0  0  0  0  0  0  0  0  0  0
  151.3829  139.9730  157.1097 C   0  0  0  0  0  0  0  0  0  0  0  0
  151.7977  140.8870  158.1665 N   0  0  0  0  0  0  0  0  0  0  0  0
  152.8860  140.7203  158.9312 C   0  0  0  0  0  0  0  0  0  0  0  0
  153.6509  139.7627  158.8150 O   0  0  0  0  0  0  0  0  0  0  0  0
  153.1527  141.8026  159.9830 C   0  0  0  0  0  0  0  0  0  0  0  0
  152.1962  143.0090  159.8795 C   0  0  0  0  0  0  0  0  0  0  0  0
  152.4647  143.9429  158.6934 C   0  0  0  0  0  0  0  0  0  0  0  0
  151.7900  145.2677  159.0666 C   0  0  0  0  0  0  0  0  0  0  0  0
  151.6550  145.2673  160.5974 C   0  0  0  0  0  0  0  0  0  0  0  0
  152.2734  143.9518  161.0826 C   0  0  0  0  0  0  0  0  0  0  0  0
  148.7282  141.2673  156.5945 C   0  0  0  0  0  0  0  0  0  0  0  0
  147.5501  141.5956  156.0900 N   0  0  0  0  0  0  0  0  0  0  0  0
  147.0198  142.0834  152.8534 H   0  0  0  0  0  0  0  0  0  0  0  0
  146.2088  142.9217  154.1909 H   0  0  0  0  0  0  0  0  0  0  0  0
  145.9057  141.1923  153.9105 H   0  0  0  0  0  0  0  0  0  0  0  0
  149.4043  141.3319  153.4072 H   0  0  0  0  0  0  0  0  0  0  0  0
  151.7935  141.6215  155.7757 H   0  0  0  0  0  0  0  0  0  0  0  0
  151.3656  139.0003  154.9157 H   0  0  0  0  0  0  0  0  0  0  0  0
  150.4385  139.5173  157.4133 H   0  0  0  0  0  0  0  0  0  0  0  0
  152.1051  139.1620  156.9999 H   0  0  0  0  0  0  0  0  0  0  0  0
  151.2250  141.7052  158.3160 H   0  0  0  0  0  0  0  0  0  0  0  0
  153.0557  141.3431  160.9670 H   0  0  0  0  0  0  0  0  0  0  0  0
  154.1863  142.1436  159.9036 H   0  0  0  0  0  0  0  0  0  0  0  0
  151.1679  142.6496  159.8063 H   0  0  0  0  0  0  0  0  0  0  0  0
  153.5384  144.1019  158.5825 H   0  0  0  0  0  0  0  0  0  0  0  0
  152.0923  143.5418  157.7501 H   0  0  0  0  0  0  0  0  0  0  0  0
  152.3672  146.1209  158.7081 H   0  0  0  0  0  0  0  0  0  0  0  0
  150.8015  145.3278  158.6097 H   0  0  0  0  0  0  0  0  0  0  0  0
  152.1444  146.1294  161.0521 H   0  0  0  0  0  0  0  0  0  0  0  0
  150.6004  145.3089  160.8729 H   0  0  0  0  0  0  0  0  0  0  0  0
  151.7640  143.5520  161.9601 H   0  0  0  0  0  0  0  0  0  0  0  0
  153.3159  144.1217  161.3558 H   0  0  0  0  0  0  0  0  0  0  0  0
  148.8239  141.1698  157.6659 H   0  0  0  0  0  0  0  0  0  0  0  0
  1  2  1  0  0  0  0
  1 19  1  0  0  0  0
  1 20  1  0  0  0  0
  1 21  1  0  0  0  0
  2 18  1  0  0  0  0
  2  3  1  0  0  0  0
  3  4  2  0  0  0  0
  3 22  1  0  0  0  0
  4  5  1  0  0  0  0
  4 17  1  0  0  0  0
  5  6  1  0  0  0  0
  5  7  1  0  0  0  0
  5 23  1  0  0  0  0
  6 24  1  0  0  0  0
  7  8  1  0  0  0  0
  7 25  1  0  0  0  0
  7 26  1  0  0  0  0
  8  9  1  0  0  0  0
  8 27  1  0  0  0  0
  9 10  2  0  0  0  0
  9 11  1  0  0  0  0
 11 12  1  0  0  0  0
 11 28  1  0  0  0  0
 11 29  1  0  0  0  0
 12 16  1  0  0  0  0
 12 13  1  0  0  0  0
 12 30  1  0  0  0  0
 13 14  1  0  0  0  0
 13 31  1  0  0  0  0
 13 32  1  0  0  0  0
 14 15  1  0  0  0  0
 14 33  1  0  0  0  0
 14 34  1  0  0  0  0
 15 16  1  0  0  0  0
 15 35  1  0  0  0  0
 15 36  1  0  0  0  0
 16 37  1  0  0  0  0
 16 38  1  0  0  0  0
 17 18  2  0  0  0  0
 17 39  1  0  0  0  0
M  END
> <s_m_source_file>
AV-unprocessed.smi

> <i_m_source_file_index>
715

> <i_lp_mmshare_version>
43012

> <i_f3d_flags>
0

> <s_epik_input>
W0NIM11uMVtjSF1jKFtjSF1uMSlbQ0BIXShbT0hdKVtDSDJdW05IXUMoPU8pW0NIMl1bQ0hdMltDSDJdW0NIMl1bQ0gyXVtDSDJdMg==

> <s_epik_cmdline>
J2VwaWtfcHl0aG9uJywgJy1waCcsICc3LjAnLCAnLXRuJywgJzgnLCAnLW1hJywgJzIwMCcsICctbWV0YWxfYmluZGluZycsICctaW1hZScsICc8aW5maWxlLm1hZT4nLCAnLW9tYWUnLCAnPG91dGZpbGUubWFlPic=

> <r_lp_tautomer_probability>
1

> <r_epik_Ionization_Penalty>
4.45533e-05

> <r_epik_Ionization_Penalty_Charging>
0

> <r_epik_Ionization_Penalty_Neutral>
4.45533e-05

> <r_epik_State_Penalty>
-0

> <r_epik_Charging_Adjusted_Penalty>
0

> <i_epik_Tot_Q>
0

> <i_epik_Tot_abs_Q>
0

> <r_epik_Metal_State_Penalty>
-0

> <b_epik_Metal_Only>
0

> <s_lp_Force_Field>
OPLS_2005

> <r_lp_Energy>
19.3798

> <b_lp_Chiralities_Consistent>
1

> <s_lp_Variant>
AV-unprocessed.smi:715-1

> <Gold.Version>
5.8.1

> <Gold.Id.Protein>
6NUR|6NUR_protein|mol2

> <Gold.PLP.Fitness>
52.3210

> <Gold.PLP.PLP>
-45.8938

> <Gold.PLP.part.hbond>
-2.0000

> <Gold.PLP.part.metal>
0.0000

> <Gold.PLP.part.buried>
-4.4098

> <Gold.PLP.part.nonpolar>
-39.3069

> <Gold.PLP.part.repulsive>
0.2107

> <Gold.PLP.ligand.clash>
0.0000

> <Gold.PLP.ligand.torsion>
1.3209

> <Gold.PLP.Chemscore.Hbond>
2.0000

> <Gold.PLP.Chemscore.CHOScore>
1.0000

> <Gold.PLP.Chemscore.Metal>
0.0000

> <Gold.Chemscore.Hbonds>
donor molecule, donor type, donor heavy atom, donor atom, acceptor molecule, acceptor atom, score
      P1  H  7989  7998       L1     6  1.00
      P1  H  7997  8009       L1    10  1.00
      L1  C     3    22       P1  7957  0.85

> <Gold.PLP.Chemscore.Internal.Correction>
0.0690

> <Gold.Rescore>
     Score         DG    S(hbond)    S(metal)    S(lipo)     H(rot)  DE(clash)    DE(int)     intcor
     16.45     -17.73       1.64        0.00     107.79       2.29       0.08       1.19       ----

> <Gold.Chemscore.Fitness>
16.4543

> <Gold.Chemscore.DG>
-17.7285

> <Gold.Chemscore.ZeroCoef>
-5.4800

> <Gold.Chemscore.Hbond>
1.6442

> <Gold.Chemscore.Metal>
0.0000

> <Gold.Chemscore.Lipo>
107.7853

> <Gold.Chemscore.Internal_Hbond>
0.0000

> <Gold.Chemscore.DEClash>
0.0814

> <Gold.Chemscore.DEInternal>
1.1928

> <Gold.Chemscore.Rot>
2.2866

> <Gold.Chemscore.Internal.Correction>
   9.000000E+99

> <Gold.Chemscore.Hbonds>
donor molecule, donor type, donor heavy atom, donor atom, acceptor molecule, acceptor atom, score
      P1  H  7989  7998       L1     6  0.38
      P1  H  7997  8009       L1    10  0.67

> <Gold.Chemscore.Hbond.Weighted>
-5.4915

> <Gold.Chemscore.Metal.Weighted>
-0.0000

> <Gold.Chemscore.Lipo.Weighted>
-12.6109

> <Gold.Chemscore.Internal_Hbond.Weighted>
0.0000

> <Gold.Chemscore.DEClash.Weighted>
0.0814

> <Gold.Chemscore.DEInternal.Weighted>
1.1928

> <Gold.Chemscore.Rot.Weighted>
5.8538

> <Gold.Chemscore.Internal.Correction.Weighted>
   9.000000E+99

> <Gold.Protein.RotatedTorsions>
[ 6907 6896 6895 6894 ] final -172.56 input  -60.11 | X-H torsion
[ 7974 7965 7964 7962 ] final -178.22 input  175.53 | X-H torsion
[ 8008 7997 7996 7995 ] final  138.29 input   59.86 | X-H torsion
[ 10167 10162 10161 10158 ] final  -53.67 input  -65.29 | X-H torsion
[ 10718 10713 10712 10709 ] final   72.58 input   66.30 | X-H torsion
[ 10763 10752 10751 10750 ] final  163.48 input  -60.55 | X-H torsion
[ 11005 11000 10999 10996 ] final  123.38 input  -57.11 | X-H torsion

> <Gold.Protein.ActiveResidues>
 VAL166  LYS551  ARG553  GLY616  TRP617  ASP618  TYR619  PRO620  LYS621  CYS622 
 ASP623  PHE694  ASN695  SER759  ASP760  ASP761  ALA762  ILE779  LEU786  VAL792 
 PHE793  MET794  SER795  GLU796  ALA797  LYS798  CYS799  TRP800  GLU811  SER814 

> <Gold.Protein.RotatedAtoms>
  151.5419  133.3431  159.2936 H   0  0  0  0  0  0  0  0  0  0  0  0  # atno 6907 bound_to 6896
  150.8530  134.7863  159.7035 H   0  0  0  0  0  0  0  0  0  0  0  0  # atno 6908 bound_to 6896
  152.4571  134.5275  159.9852 H   0  0  0  0  0  0  0  0  0  0  0  0  # atno 6909 bound_to 6896
  144.7130  140.0901  143.6421 H   0  0  0  0  0  0  0  0  0  0  0  0  # atno 7974 bound_to 7965
  156.2998  140.2397  156.4049 H   0  0  0  0  0  0  0  0  0  0  0  0  # atno 8008 bound_to 7997
  154.8493  140.0425  157.1613 H   0  0  0  0  0  0  0  0  0  0  0  0  # atno 8009 bound_to 7997
  154.9016  140.2977  155.5318 H   0  0  0  0  0  0  0  0  0  0  0  0  # atno 8010 bound_to 7997
  140.6472  143.2543  151.4825 H   0  0  0  0  0  0  0  0  0  0  0  0  # atno 10167 bound_to 10162
  157.6507  130.9585  150.0948 H   0  0  0  0  0  0  0  0  0  0  0  0  # atno 10718 bound_to 10713
  154.2943  135.2760  155.2640 H   0  0  0  0  0  0  0  0  0  0  0  0  # atno 10763 bound_to 10752
  154.5105  135.5784  153.6604 H   0  0  0  0  0  0  0  0  0  0  0  0  # atno 10764 bound_to 10752
  152.9909  135.6180  154.3110 H   0  0  0  0  0  0  0  0  0  0  0  0  # atno 10765 bound_to 10752
  139.9310  134.9641  156.8250 H   0  0  0  0  0  0  0  0  0  0  0  0  # atno 11005 bound_to 11000
  145.9627  139.2812  143.1146 LP  0  0  0  0  0  0  0  0  0  0  0  0  # atno 17320 bound_to 7965
  145.9203  140.9120  143.0409 LP  0  0  0  0  0  0  0  0  0  0  0  0  # atno 17321 bound_to 7965
  139.5684  144.1987  152.1799 LP  0  0  0  0  0  0  0  0  0  0  0  0  # atno 17342 bound_to 10162
  140.1276  144.5317  150.6823 LP  0  0  0  0  0  0  0  0  0  0  0  0  # atno 17343 bound_to 10162
  156.1887  130.3653  149.8938 LP  0  0  0  0  0  0  0  0  0  0  0  0  # atno 17370 bound_to 10713
  156.6872  130.8881  151.3583 LP  0  0  0  0  0  0  0  0  0  0  0  0  # atno 17371 bound_to 10713
  140.6202  134.0000  155.7615 LP  0  0  0  0  0  0  0  0  0  0  0  0  # atno 17394 bound_to 11000
  141.0898  133.9934  157.3255 LP  0  0  0  0  0  0  0  0  0  0  0  0  # atno 17395 bound_to 11000

$$$$
