#       Name:                AV-unprocessed.smi:1817
#       Creating user name   scv26
#       Creation time:       Fri Mar 27 09:04:32 2020


#       File generated by GOLD software.
#

@<TRIPOS>MOLECULE
AV-unprocessed.smi:1817
    48    49     1
SMALL
NO_CHARGES


@<TRIPOS>ATOM
      1 ****        -4.7941  -2.8062   0.1664 C.3            1 S1                 0.0000
      2 ****        -3.8301  -2.0500  -0.7597 C.3            1 S1                 0.0000
      3 ****        -3.7366  -0.6298  -0.4130 N.3            1 S1                 0.0000
      4 ****        -3.0769  -0.3474   0.8670 C.3            1 S1                 0.0000
      5 ****        -1.5611  -0.6335   0.8203 C.3            1 S1                 0.0000
      6 ****        -0.9228   0.1603  -0.2583 N.4            1 S1                 1.0000
      7 ****         0.5669   0.0958  -0.2537 C.3            1 S1                 0.0000
      8 ****         1.1211  -1.2043  -0.8765 C.3            1 S1                 0.0000
      9 ****         1.1645   1.3683  -0.8971 C.3            1 S1                 0.0000
     10 ****         2.6207   1.4074  -0.8113 N.am           1 S1                 0.0000
     11 ****         3.3306   1.6958   0.2885 C.2            1 S1                 0.0000
     12 ****         2.7486   1.9816   1.3375 O.2            1 S1                 0.0000
     13 ****         4.6680   1.6279   0.1060 N.pl3          1 S1                -1.0000
     14 ****         5.4984   1.8523   1.1379 C.2            1 S1                 0.0000
     15 ****         6.0471   0.8525   1.8464 N.2            1 S1                 0.0000
     16 ****         6.8747   1.2975   2.8683 N.2            1 S1                 0.0000
     17 ****         6.9364   2.6285   2.8988 C.2            1 S1                 0.0000
     18 ****         5.9920   3.4587   1.6801 S.3            1 S1                 0.0000
     19 ****        -1.5791  -0.1191  -1.5615 C.3            1 S1                 0.0000
     20 ****        -3.0934   0.1624  -1.4653 C.3            1 S1                 0.0000
     21 ****        -4.9484  -3.8231  -0.1947 H              1 S1                 0.0000
     22 ****        -5.7697  -2.3204   0.2058 H              1 S1                 0.0000
     23 ****        -4.4109  -2.8821   1.1836 H              1 S1                 0.0000
     24 ****        -2.8523  -2.5304  -0.7586 H              1 S1                 0.0000
     25 ****        -4.2123  -2.1309  -1.7779 H              1 S1                 0.0000
     26 ****        -3.2364   0.7043   1.1087 H              1 S1                 0.0000
     27 ****        -3.5450  -0.9106   1.6734 H              1 S1                 0.0000
     28 ****        -1.1240  -0.3604   1.7812 H              1 S1                 0.0000
     29 ****        -1.3660  -1.6969   0.6820 H              1 S1                 0.0000
     30 ****         0.8725   0.1035   0.7935 H              1 S1                 0.0000
     31 ****         2.1959  -1.2885  -0.7136 H              1 S1                 0.0000
     32 ****         0.9562  -1.2402  -1.9534 H              1 S1                 0.0000
     33 ****         0.6647  -2.0901  -0.4357 H              1 S1                 0.0000
     34 ****         0.9038   1.4225  -1.9536 H              1 S1                 0.0000
     35 ****         0.7480   2.2635  -0.4320 H              1 S1                 0.0000
     36 ****         3.1365   1.1840  -1.6502 H              1 S1                 0.0000
     37 ****         7.5442   3.1243   3.6408 H              1 S1                 0.0000
     38 ****        -1.1511   0.5146  -2.3374 H              1 S1                 0.0000
     39 ****        -1.4044  -1.1502  -1.8694 H              1 S1                 0.0000
     40 ****        -3.5775  -0.0342  -2.4226 H              1 S1                 0.0000
     41 ****        -3.2545   1.2203  -1.2533 H              1 S1                 0.0000
     42 ****        -1.1423   1.1213  -0.0383 H              1 S1                 0.0000
     43 ****        -4.6935  -0.3552  -0.3175 LP             1 S1                 0.0000
     44 ****         1.7491   1.9979   1.3664 LP             1 S1                 0.0000
     45 ****         3.2761   2.1971   2.1593 LP             1 S1                 0.0000
     46 ****         5.0392   1.4107  -0.7967 LP             1 S1                 0.0000
     47 ****         5.8769  -0.1145   1.6572 LP             1 S1                 0.0000
     48 ****         7.3624   0.6960   3.5010 LP             1 S1                 0.0000
@<TRIPOS>BOND
    1    1    2 1     
    2    1   21 1     
    3    1   22 1     
    4    1   23 1     
    5    2    3 1     
    6    2   24 1     
    7    2   25 1     
    8    3   20 1     
    9    3    4 1     
   10    4    5 1     
   11    4   26 1     
   12    4   27 1     
   13    5    6 1     
   14    5   28 1     
   15    5   29 1     
   16    6    7 1     
   17    6   19 1     
   18    6   42 1     
   19    7    8 1     
   20    7    9 1     
   21    7   30 1     
   22    8   31 1     
   23    8   32 1     
   24    8   33 1     
   25    9   10 1     
   26    9   34 1     
   27    9   35 1     
   28   10   11 am    
   29   10   36 1     
   30   11   12 2     
   31   11   13 1     
   32   13   14 1     
   33   14   18 1     
   34   14   15 2     
   35   15   16 1     
   36   16   17 2     
   37   17   18 1     
   38   17   37 1     
   39   19   20 1     
   40   19   38 1     
   41   19   39 1     
   42   20   40 1     
   43   20   41 1     
   44    3   43 1     
   45   12   44 1     
   46   12   45 1     
   47   13   46 1     
   48   15   47 1     
   49   16   48 1     
@<TRIPOS>SUBSTRUCTURE
      1 S1             1
@<TRIPOS>SET
LONE_PAIRS      STATIC     ATOMS    <user>   **** ""
6 43 44 45 46 47 48
DONOR_HYDROGENS      STATIC     ATOMS    <user>   **** ""
2 42 36
ATOM$BLUE        STATIC     ATOMS    COLORGROUP SYSTEM
6 43 44 45 46 47 48
ATOM$RED        STATIC     ATOMS    COLORGROUP SYSTEM
2 42 36
