AV-unprocessed.smi:2584|AV-procd|sdf|10143|dock4
  -GOLD-   2272014153D 1   1.00000     0.00000
 Structure written by MMmdl.
 35 36  0  0  0  0  0  0  0  0  2 V2000
  147.1226  137.9153  153.6677 O   0  0  0  0  0  0  0  0  0  0  0  0
  146.1306  138.5851  153.3786 C   0  0  0  0  0  0  0  0  0  0  0  0
  144.9470  138.0458  153.0523 N   0  0  0  0  0  0  0  0  0  0  0  0
  144.6789  136.6146  152.9710 C   0  0  0  0  0  0  0  0  0  0  0  0
  145.5243  135.9385  151.8737 C   0  0  0  0  0  0  0  0  0  0  0  0
  145.2213  134.4915  151.7364 N   0  3  0  0  0  0  0  0  0  0  0  0
  146.1577  133.8084  150.8052 C   0  0  0  0  0  0  0  0  0  0  0  0
  145.9132  132.2900  150.7823 C   0  0  0  0  0  0  0  0  0  0  0  0
  144.4574  131.9727  150.4179 C   0  0  0  0  0  0  0  0  0  0  0  0
  143.5079  132.7128  151.3681 C   0  0  0  0  0  0  0  0  0  0  0  0
  143.8022  134.2224  151.3773 C   0  0  0  0  0  0  0  0  0  0  0  0
  146.0832  139.9274  153.3461 N   0  0  0  0  0  0  0  0  0  0  0  0
  147.0893  140.7974  153.6135 C   0  0  0  0  0  0  0  0  0  0  0  0
  148.4554  140.6558  153.5914 C   0  0  0  0  0  0  0  0  0  0  0  0
  149.1523  141.8230  153.9418 N   0  0  0  0  0  0  0  0  0  0  0  0
  148.3866  142.8353  154.2256 N   0  0  0  0  0  0  0  0  0  0  0  0
  146.7689  142.4269  154.0847 S   0  0  0  0  0  0  0  0  0  0  0  0
  144.1841  138.6684  152.8283 H   0  0  0  0  0  0  0  0  0  0  0  0
  144.9080  136.1721  153.9408 H   0  0  0  0  0  0  0  0  0  0  0  0
  143.6119  136.4635  152.8064 H   0  0  0  0  0  0  0  0  0  0  0  0
  145.3900  136.4313  150.9094 H   0  0  0  0  0  0  0  0  0  0  0  0
  146.5757  136.0632  152.1372 H   0  0  0  0  0  0  0  0  0  0  0  0
  146.0437  134.2242  149.8028 H   0  0  0  0  0  0  0  0  0  0  0  0
  147.1873  133.9975  151.1117 H   0  0  0  0  0  0  0  0  0  0  0  0
  146.5874  131.8144  150.0693 H   0  0  0  0  0  0  0  0  0  0  0  0
  146.1477  131.8663  151.7598 H   0  0  0  0  0  0  0  0  0  0  0  0
  144.2599  132.2750  149.3885 H   0  0  0  0  0  0  0  0  0  0  0  0
  144.2804  130.8979  150.4680 H   0  0  0  0  0  0  0  0  0  0  0  0
  142.4732  132.5361  151.0724 H   0  0  0  0  0  0  0  0  0  0  0  0
  143.6133  132.3129  152.3777 H   0  0  0  0  0  0  0  0  0  0  0  0
  143.1309  134.7052  152.0862 H   0  0  0  0  0  0  0  0  0  0  0  0
  143.5858  134.6519  150.3977 H   0  0  0  0  0  0  0  0  0  0  0  0
  145.2022  140.3457  153.0855 H   0  0  0  0  0  0  0  0  0  0  0  0
  149.0291  139.7754  153.3438 H   0  0  0  0  0  0  0  0  0  0  0  0
  145.3794  134.0782  152.6443 H   0  0  0  0  0  0  0  0  0  0  0  0
  1  2  2  0  0  0  0
  2  3  1  0  0  0  0
  2 12  1  0  0  0  0
  3  4  1  0  0  0  0
  3 18  1  0  0  0  0
  4  5  1  0  0  0  0
  4 19  1  0  0  0  0
  4 20  1  0  0  0  0
  5  6  1  0  0  0  0
  5 21  1  0  0  0  0
  5 22  1  0  0  0  0
  6 11  1  0  0  0  0
  6  7  1  0  0  0  0
  6 35  1  0  0  0  0
  7  8  1  0  0  0  0
  7 23  1  0  0  0  0
  7 24  1  0  0  0  0
  8  9  1  0  0  0  0
  8 25  1  0  0  0  0
  8 26  1  0  0  0  0
  9 10  1  0  0  0  0
  9 27  1  0  0  0  0
  9 28  1  0  0  0  0
 10 11  1  0  0  0  0
 10 29  1  0  0  0  0
 10 30  1  0  0  0  0
 11 31  1  0  0  0  0
 11 32  1  0  0  0  0
 12 13  1  0  0  0  0
 12 33  1  0  0  0  0
 13 17  1  0  0  0  0
 13 14  2  0  0  0  0
 14 15  1  0  0  0  0
 14 34  1  0  0  0  0
 15 16  2  0  0  0  0
 16 17  1  0  0  0  0
M  CHG  1   6   1
M  END
> <s_m_source_file>
AV-unprocessed.smi

> <i_m_source_file_index>
2584

> <i_lp_mmshare_version>
43012

> <i_f3d_flags>
0

> <s_epik_input>
czFubltjSF1jMVtOSF1DKD1PKVtOSF1bQ0gyXVtDSDJdTjJbQ0gyXVtDSDJdW0NIMl1bQ0gyXVtDSDJdMg==

> <s_epik_cmdline>
J2VwaWtfcHl0aG9uJywgJy1waCcsICc3LjAnLCAnLXRuJywgJzgnLCAnLW1hJywgJzIwMCcsICctbWV0YWxfYmluZGluZycsICctaW1hZScsICc8aW5maWxlLm1hZT4nLCAnLW9tYWUnLCAnPG91dGZpbGUubWFlPic=

> <r_lp_tautomer_probability>
1

> <r_epik_Ionization_Penalty>
0.00255984

> <r_epik_Ionization_Penalty_Charging>
0.0025387

> <r_epik_Ionization_Penalty_Neutral>
2.11374e-05

> <r_epik_State_Penalty>
0.00176242

> <r_epik_Charging_Adjusted_Penalty>
0.00430112

> <i_epik_Tot_Q>
1

> <i_epik_Tot_abs_Q>
1

> <r_epik_Metal_State_Penalty>
-0

> <b_epik_Metal_Only>
0

> <s_lp_Force_Field>
OPLS_2005

> <r_lp_Energy>
17.0629

> <b_lp_Chiralities_Consistent>
1

> <s_lp_Variant>
AV-unprocessed.smi:2584-1

> <Gold.Version>
5.8.1

> <Gold.Id.Protein>
6NUR|6NUR_protein|mol2

> <Gold.PLP.Fitness>
37.5301

> <Gold.PLP.PLP>
-25.9505

> <Gold.PLP.part.hbond>
-5.8959

> <Gold.PLP.part.metal>
0.0000

> <Gold.PLP.part.buried>
-1.5518

> <Gold.PLP.part.nonpolar>
-24.0182

> <Gold.PLP.part.repulsive>
5.6448

> <Gold.PLP.ligand.clash>
0.0000

> <Gold.PLP.ligand.torsion>
0.1291

> <Gold.PLP.Chemscore.Hbond>
3.4336

> <Gold.PLP.Chemscore.CHOScore>
0.5046

> <Gold.PLP.Chemscore.Metal>
0.0000

> <Gold.Chemscore.Hbonds>
donor molecule, donor type, donor heavy atom, donor atom, acceptor molecule, acceptor atom, score
      L1  H     3    18       P1 10175  0.94
      L1  H    12    33       P1 10175  1.00
      P1  H  8011  8017       L1    15  0.48
      P1  H  8022  8030       L1    16  1.00
      L1  C    14    34       P1  7957  0.50

> <Gold.PLP.Chemscore.Internal.Correction>
0.0232

> <Gold.Rescore>
     Score         DG    S(hbond)    S(metal)    S(lipo)     H(rot)  DE(clash)    DE(int)     intcor
     14.35     -17.84       2.55        0.00      68.80       1.65       2.57       0.92       ----

> <Gold.Chemscore.Fitness>
14.3492

> <Gold.Chemscore.DG>
-17.8384

> <Gold.Chemscore.ZeroCoef>
-5.4800

> <Gold.Chemscore.Hbond>
2.5546

> <Gold.Chemscore.Metal>
0.0000

> <Gold.Chemscore.Lipo>
68.7973

> <Gold.Chemscore.Internal_Hbond>
0.0000

> <Gold.Chemscore.DEClash>
2.5707

> <Gold.Chemscore.DEInternal>
0.9185

> <Gold.Chemscore.Rot>
1.6497

> <Gold.Chemscore.Internal.Correction>
   9.000000E+99

> <Gold.Chemscore.Hbonds>
donor molecule, donor type, donor heavy atom, donor atom, acceptor molecule, acceptor atom, score
      L1  H     3    18       P1 10175  0.91
      L1  H    12    33       P1 10175  0.98
      P1  H  8011  8017       L1    15  0.04
      P1  H  8022  8030       L1    16  0.55

> <Gold.Chemscore.Hbond.Weighted>
-8.5323

> <Gold.Chemscore.Metal.Weighted>
-0.0000

> <Gold.Chemscore.Lipo.Weighted>
-8.0493

> <Gold.Chemscore.Internal_Hbond.Weighted>
0.0000

> <Gold.Chemscore.DEClash.Weighted>
2.5707

> <Gold.Chemscore.DEInternal.Weighted>
0.9185

> <Gold.Chemscore.Rot.Weighted>
4.2232

> <Gold.Chemscore.Internal.Correction.Weighted>
   9.000000E+99

> <Gold.Protein.RotatedTorsions>
[ 6907 6896 6895 6894 ] final   47.06 input  -60.11 | X-H torsion
[ 7974 7965 7964 7962 ] final   40.99 input  175.53 | X-H torsion
[ 8008 7997 7996 7995 ] final   51.25 input   59.86 | X-H torsion
[ 10167 10162 10161 10158 ] final  117.93 input  -65.29 | X-H torsion
[ 10718 10713 10712 10709 ] final -164.86 input   66.30 | X-H torsion
[ 10763 10752 10751 10750 ] final -179.70 input  -60.55 | X-H torsion
[ 11005 11000 10999 10996 ] final  -30.19 input  -57.11 | X-H torsion

> <Gold.Protein.ActiveResidues>
 VAL166  LYS551  ARG553  GLY616  TRP617  ASP618  TYR619  PRO620  LYS621  CYS622 
 ASP623  PHE694  ASN695  SER759  ASP760  ASP761  ALA762  ILE779  LEU786  VAL792 
 PHE793  MET794  SER795  GLU796  ALA797  LYS798  CYS799  TRP800  GLU811  SER814 

> <Gold.Protein.RotatedAtoms>
  152.2637  134.8007  160.0426 H   0  0  0  0  0  0  0  0  0  0  0  0  # atno 6907 bound_to 6896
  151.8644  133.3458  159.3722 H   0  0  0  0  0  0  0  0  0  0  0  0  # atno 6908 bound_to 6896
  150.7126  134.5102  159.5648 H   0  0  0  0  0  0  0  0  0  0  0  0  # atno 6909 bound_to 6896
  146.0860  139.5468  142.9506 H   0  0  0  0  0  0  0  0  0  0  0  0  # atno 7974 bound_to 7965
  155.4323  140.3451  155.4281 H   0  0  0  0  0  0  0  0  0  0  0  0  # atno 8008 bound_to 7997
  156.1329  140.1519  156.9069 H   0  0  0  0  0  0  0  0  0  0  0  0  # atno 8009 bound_to 7997
  154.4909  140.0841  156.7571 H   0  0  0  0  0  0  0  0  0  0  0  0  # atno 8010 bound_to 7997
  139.6146  144.7089  151.2769 H   0  0  0  0  0  0  0  0  0  0  0  0  # atno 10167 bound_to 10162
  156.6451  130.8985  151.3003 H   0  0  0  0  0  0  0  0  0  0  0  0  # atno 10718 bound_to 10713
  154.5317  135.2800  155.1174 H   0  0  0  0  0  0  0  0  0  0  0  0  # atno 10763 bound_to 10752
  154.2691  135.6307  153.5307 H   0  0  0  0  0  0  0  0  0  0  0  0  # atno 10764 bound_to 10752
  152.9958  135.5624  154.5833 H   0  0  0  0  0  0  0  0  0  0  0  0  # atno 10765 bound_to 10752
  140.9361  133.7308  156.1007 H   0  0  0  0  0  0  0  0  0  0  0  0  # atno 11005 bound_to 11000
  145.6128  141.0336  143.1957 LP  0  0  0  0  0  0  0  0  0  0  0  0  # atno 17320 bound_to 7965
  144.7326  139.7680  143.7341 LP  0  0  0  0  0  0  0  0  0  0  0  0  # atno 17321 bound_to 7965
  140.7342  143.6773  150.8031 LP  0  0  0  0  0  0  0  0  0  0  0  0  # atno 17342 bound_to 10162
  140.0373  143.5382  152.2733 LP  0  0  0  0  0  0  0  0  0  0  0  0  # atno 17343 bound_to 10162
  157.7158  130.9496  150.1252 LP  0  0  0  0  0  0  0  0  0  0  0  0  # atno 17370 bound_to 10713
  156.2128  130.3668  149.8650 LP  0  0  0  0  0  0  0  0  0  0  0  0  # atno 17371 bound_to 10713
  140.7797  134.3739  157.5490 LP  0  0  0  0  0  0  0  0  0  0  0  0  # atno 17394 bound_to 11000
  139.8808  134.9074  156.2944 LP  0  0  0  0  0  0  0  0  0  0  0  0  # atno 17395 bound_to 11000

$$$$
