AV-unprocessed.smi:2250|AV-procd|sdf|9100|dock9
  -GOLD-   2272012303D 1   1.00000     0.00000
 Structure written by MMmdl.
 43 44  0  0  0  0  0  0  0  0  1 V2000
  152.1638  145.3093  159.2233 C   0  0  0  0  0  0  0  0  0  0  0  0
  151.9124  143.8795  158.7932 C   0  0  0  0  0  0  0  0  0  0  0  0
  152.2371  142.7976  159.6333 C   0  0  0  0  0  0  0  0  0  0  0  0
  151.9801  141.4883  159.1833 C   0  0  0  0  0  0  0  0  0  0  0  0
  151.4072  141.2909  157.9067 C   0  0  0  0  0  0  0  0  0  0  0  0
  151.1887  139.9338  157.5504 N   0  0  0  0  0  0  0  0  0  0  0  0
  151.1047  139.3989  156.3196 C   0  0  0  0  0  0  0  0  0  0  0  0
  151.2306  140.0188  155.2630 O   0  0  0  0  0  0  0  0  0  0  0  0
  150.8669  138.0816  156.3828 N   0  0  0  0  0  0  0  0  0  0  0  0
  150.7167  137.1973  155.2335 C   0  0  0  0  0  0  0  0  0  0  0  0
  149.6533  136.1232  155.5265 C   0  0  0  0  0  0  0  0  0  0  0  0
  150.2270  134.8135  156.0956 C   0  0  0  0  0  0  0  0  0  0  0  0
  150.6369  134.7968  157.2575 O   0  0  0  0  0  0  0  0  0  0  0  0
  150.2707  133.7168  155.2998 N   0  0  0  0  0  0  0  0  0  0  0  0
  150.7452  132.3861  155.7046 C   0  0  0  0  0  0  0  0  0  0  0  0
  149.5322  131.4454  155.8223 C   0  0  0  0  0  0  0  0  0  0  0  0
  148.7451  131.3989  154.4984 C   0  0  0  0  0  0  0  0  0  0  0  0
  148.4258  132.8121  153.9733 C   0  0  0  0  0  0  0  0  0  0  0  0
  149.6892  133.6926  153.9512 C   0  0  0  0  0  0  0  0  0  0  0  0
  151.0960  142.3399  157.1052 N   0  0  0  0  0  0  0  0  0  0  0  0
  151.3419  143.5945  157.5375 C   0  0  0  0  0  0  0  0  0  0  0  0
  152.7940  145.3493  160.1124 H   0  0  0  0  0  0  0  0  0  0  0  0
  151.2200  145.8059  159.4492 H   0  0  0  0  0  0  0  0  0  0  0  0
  152.6629  145.8640  158.4284 H   0  0  0  0  0  0  0  0  0  0  0  0
  152.6760  142.9633  160.6063 H   0  0  0  0  0  0  0  0  0  0  0  0
  152.2236  140.6467  159.8153 H   0  0  0  0  0  0  0  0  0  0  0  0
  151.0810  139.2950  158.3243 H   0  0  0  0  0  0  0  0  0  0  0  0
  150.7845  137.6573  157.2950 H   0  0  0  0  0  0  0  0  0  0  0  0
  150.4330  137.7653  154.3453 H   0  0  0  0  0  0  0  0  0  0  0  0
  151.6842  136.7372  155.0273 H   0  0  0  0  0  0  0  0  0  0  0  0
  148.9242  136.5179  156.2354 H   0  0  0  0  0  0  0  0  0  0  0  0
  149.1210  135.9011  154.6004 H   0  0  0  0  0  0  0  0  0  0  0  0
  151.4355  132.0083  154.9489 H   0  0  0  0  0  0  0  0  0  0  0  0
  151.3118  132.3848  156.6342 H   0  0  0  0  0  0  0  0  0  0  0  0
  149.8587  130.4422  156.0979 H   0  0  0  0  0  0  0  0  0  0  0  0
  148.8796  131.7909  156.6253 H   0  0  0  0  0  0  0  0  0  0  0  0
  149.3374  130.8685  153.7518 H   0  0  0  0  0  0  0  0  0  0  0  0
  147.8261  130.8260  154.6256 H   0  0  0  0  0  0  0  0  0  0  0  0
  147.9927  132.7506  152.9746 H   0  0  0  0  0  0  0  0  0  0  0  0
  147.6712  133.2765  154.6098 H   0  0  0  0  0  0  0  0  0  0  0  0
  149.4419  134.6870  153.5772 H   0  0  0  0  0  0  0  0  0  0  0  0
  150.4189  133.2865  153.2493 H   0  0  0  0  0  0  0  0  0  0  0  0
  151.0747  144.3929  156.8608 H   0  0  0  0  0  0  0  0  0  0  0  0
  1  2  1  0  0  0  0
  1 22  1  0  0  0  0
  1 23  1  0  0  0  0
  1 24  1  0  0  0  0
  2 21  1  0  0  0  0
  2  3  2  0  0  0  0
  3  4  1  0  0  0  0
  3 25  1  0  0  0  0
  4  5  2  0  0  0  0
  4 26  1  0  0  0  0
  5  6  1  0  0  0  0
  5 20  1  0  0  0  0
  6  7  1  0  0  0  0
  6 27  1  0  0  0  0
  7  8  2  0  0  0  0
  7  9  1  0  0  0  0
  9 10  1  0  0  0  0
  9 28  1  0  0  0  0
 10 11  1  0  0  0  0
 10 29  1  0  0  0  0
 10 30  1  0  0  0  0
 11 12  1  0  0  0  0
 11 31  1  0  0  0  0
 11 32  1  0  0  0  0
 12 13  2  0  0  0  0
 12 14  1  0  0  0  0
 14 19  1  0  0  0  0
 14 15  1  0  0  0  0
 15 16  1  0  0  0  0
 15 33  1  0  0  0  0
 15 34  1  0  0  0  0
 16 17  1  0  0  0  0
 16 35  1  0  0  0  0
 16 36  1  0  0  0  0
 17 18  1  0  0  0  0
 17 37  1  0  0  0  0
 17 38  1  0  0  0  0
 18 19  1  0  0  0  0
 18 39  1  0  0  0  0
 18 40  1  0  0  0  0
 19 41  1  0  0  0  0
 19 42  1  0  0  0  0
 20 21  2  0  0  0  0
 21 43  1  0  0  0  0
M  END
> <s_m_source_file>
AV-unprocessed.smi

> <i_m_source_file_index>
2250

> <i_lp_mmshare_version>
43012

> <i_f3d_flags>
0

> <s_epik_input>
W0NIM11jMVtjSF1bY0hdYyhuW2NIXTEpW05IXUMoPU8pW05IXVtDSDJdW0NIMl1DKD1PKU4yW0NIMl1bQ0gyXVtDSDJdW0NIMl1bQ0gyXTI=

> <s_epik_cmdline>
J2VwaWtfcHl0aG9uJywgJy1waCcsICc3LjAnLCAnLXRuJywgJzgnLCAnLW1hJywgJzIwMCcsICctbWV0YWxfYmluZGluZycsICctaW1hZScsICc8aW5maWxlLm1hZT4nLCAnLW9tYWUnLCAnPG91dGZpbGUubWFlPic=

> <r_lp_tautomer_probability>
1

> <r_epik_Ionization_Penalty>
5.00358e-05

> <r_epik_Ionization_Penalty_Charging>
0

> <r_epik_Ionization_Penalty_Neutral>
5.00358e-05

> <r_epik_State_Penalty>
-0

> <r_epik_Charging_Adjusted_Penalty>
0

> <i_epik_Tot_Q>
0

> <i_epik_Tot_abs_Q>
0

> <r_epik_Metal_State_Penalty>
-0

> <b_epik_Metal_Only>
0

> <s_lp_Force_Field>
OPLS_2005

> <r_lp_Energy>
26.56

> <b_lp_Chiralities_Consistent>
1

> <s_lp_Variant>
AV-unprocessed.smi:2250-1

> <Gold.Version>
5.8.1

> <Gold.Id.Protein>
6NUR|6NUR_protein|mol2

> <Gold.PLP.Fitness>
44.7381

> <Gold.PLP.PLP>
-39.3789

> <Gold.PLP.part.hbond>
-2.0000

> <Gold.PLP.part.metal>
0.0000

> <Gold.PLP.part.buried>
-6.1585

> <Gold.PLP.part.nonpolar>
-32.1471

> <Gold.PLP.part.repulsive>
0.1817

> <Gold.PLP.ligand.clash>
0.0000

> <Gold.PLP.ligand.torsion>
0.6702

> <Gold.PLP.Chemscore.Hbond>
1.2275

> <Gold.PLP.Chemscore.CHOScore>
1.0000

> <Gold.PLP.Chemscore.Metal>
0.0000

> <Gold.Chemscore.Hbonds>
donor molecule, donor type, donor heavy atom, donor atom, acceptor molecule, acceptor atom, score
      P1  H  6896  6908       L1    13  0.28
      P1  H  7989  7998       L1     8  1.00
      L1  C    21    43       P1  8028  0.97

> <Gold.PLP.Chemscore.Internal.Correction>
0.0172

> <Gold.Rescore>
     Score         DG    S(hbond)    S(metal)    S(lipo)     H(rot)  DE(clash)    DE(int)     intcor
     15.17     -17.03       1.38        0.00      92.32       1.51       0.06       1.80       ----

> <Gold.Chemscore.Fitness>
15.1701

> <Gold.Chemscore.DG>
-17.0329

> <Gold.Chemscore.ZeroCoef>
-5.4800

> <Gold.Chemscore.Hbond>
1.3848

> <Gold.Chemscore.Metal>
0.0000

> <Gold.Chemscore.Lipo>
92.3169

> <Gold.Chemscore.Internal_Hbond>
0.0000

> <Gold.Chemscore.DEClash>
0.0628

> <Gold.Chemscore.DEInternal>
1.8001

> <Gold.Chemscore.Rot>
1.5131

> <Gold.Chemscore.Internal.Correction>
   9.000000E+99

> <Gold.Chemscore.Hbonds>
donor molecule, donor type, donor heavy atom, donor atom, acceptor molecule, acceptor atom, score
      P1  H  6896  6908       L1    13  0.29
      P1  H  7989  7998       L1     8  0.96

> <Gold.Chemscore.Hbond.Weighted>
-4.6253

> <Gold.Chemscore.Metal.Weighted>
-0.0000

> <Gold.Chemscore.Lipo.Weighted>
-10.8011

> <Gold.Chemscore.Internal_Hbond.Weighted>
0.0000

> <Gold.Chemscore.DEClash.Weighted>
0.0628

> <Gold.Chemscore.DEInternal.Weighted>
1.8001

> <Gold.Chemscore.Rot.Weighted>
3.8735

> <Gold.Chemscore.Internal.Correction.Weighted>
   9.000000E+99

> <Gold.Protein.RotatedTorsions>
[ 6907 6896 6895 6894 ] final  130.17 input  -60.11 | X-H torsion
[ 7974 7965 7964 7962 ] final  138.87 input  175.53 | X-H torsion
[ 8008 7997 7996 7995 ] final  113.68 input   59.86 | X-H torsion
[ 10167 10162 10161 10158 ] final  -46.93 input  -65.29 | X-H torsion
[ 10718 10713 10712 10709 ] final -139.02 input   66.30 | X-H torsion
[ 10763 10752 10751 10750 ] final -128.20 input  -60.55 | X-H torsion
[ 11005 11000 10999 10996 ] final  118.81 input  -57.11 | X-H torsion

> <Gold.Protein.ActiveResidues>
 VAL166  LYS551  ARG553  GLY616  TRP617  ASP618  TYR619  PRO620  LYS621  CYS622 
 ASP623  PHE694  ASN695  SER759  ASP760  ASP761  ALA762  ILE779  LEU786  VAL792 
 PHE793  MET794  SER795  GLU796  ALA797  LYS798  CYS799  TRP800  GLU811  SER814 

> <Gold.Protein.RotatedAtoms>
  152.3553  133.6229  159.5974 H   0  0  0  0  0  0  0  0  0  0  0  0  # atno 6907 bound_to 6896
  150.7564  133.9510  159.3494 H   0  0  0  0  0  0  0  0  0  0  0  0  # atno 6908 bound_to 6896
  151.7356  135.0866  160.0358 H   0  0  0  0  0  0  0  0  0  0  0  0  # atno 6909 bound_to 6896
  144.9332  139.5021  143.5608 H   0  0  0  0  0  0  0  0  0  0  0  0  # atno 7974 bound_to 7965
  156.2274  140.2974  156.0100 H   0  0  0  0  0  0  0  0  0  0  0  0  # atno 8008 bound_to 7997
  155.2320  140.0419  157.2980 H   0  0  0  0  0  0  0  0  0  0  0  0  # atno 8009 bound_to 7997
  154.5937  140.2408  155.7893 H   0  0  0  0  0  0  0  0  0  0  0  0  # atno 8010 bound_to 7997
  140.6797  143.2808  151.3853 H   0  0  0  0  0  0  0  0  0  0  0  0  # atno 10167 bound_to 10162
  156.3060  130.7455  151.1519 H   0  0  0  0  0  0  0  0  0  0  0  0  # atno 10718 bound_to 10713
  154.8755  135.3936  154.3719 H   0  0  0  0  0  0  0  0  0  0  0  0  # atno 10763 bound_to 10752
  153.4477  135.7028  153.6133 H   0  0  0  0  0  0  0  0  0  0  0  0  # atno 10764 bound_to 10752
  153.4687  135.3795  155.2347 H   0  0  0  0  0  0  0  0  0  0  0  0  # atno 10765 bound_to 10752
  139.9123  134.9623  156.7560 H   0  0  0  0  0  0  0  0  0  0  0  0  # atno 11005 bound_to 11000
  146.3255  139.8297  142.8910 LP  0  0  0  0  0  0  0  0  0  0  0  0  # atno 17320 bound_to 7965
  145.3109  141.0219  143.3555 LP  0  0  0  0  0  0  0  0  0  0  0  0  # atno 17321 bound_to 7965
  139.6111  144.1097  152.2299 LP  0  0  0  0  0  0  0  0  0  0  0  0  # atno 17342 bound_to 10162
  140.0511  144.5932  150.7335 LP  0  0  0  0  0  0  0  0  0  0  0  0  # atno 17343 bound_to 10162
  157.7379  131.0546  150.5324 LP  0  0  0  0  0  0  0  0  0  0  0  0  # atno 17370 bound_to 10713
  156.5457  130.4219  149.6132 LP  0  0  0  0  0  0  0  0  0  0  0  0  # atno 17371 bound_to 10713
  140.6735  133.9538  155.7870 LP  0  0  0  0  0  0  0  0  0  0  0  0  # atno 17394 bound_to 11000
  141.0560  134.0415  157.3721 LP  0  0  0  0  0  0  0  0  0  0  0  0  # atno 17395 bound_to 11000

$$$$
