AV-unprocessed.smi:1165|AV-procd|sdf|4928|dock10
  -GOLD-   22720 3513D 1   1.00000     0.00000
 Structure written by MMmdl.
 41 42  0  0  0  0  0  0  0  0  1 V2000
  152.4700  138.9610  154.8103 C   0  0  0  0  0  0  0  0  0  0  0  0
  150.9680  139.1350  155.0586 C   0  0  2  0  0  0  0  0  0  0  0  0
  150.2101  137.8006  154.9544 C   0  0  0  0  0  0  0  0  0  0  0  0
  148.7597  138.0187  155.0661 N   0  0  0  0  0  0  0  0  0  0  0  0
  147.7526  136.6494  155.3977 S   0  0  0  0  0  0  0  0  0  0  0  0
  148.5912  135.5672  155.9359 O   0  0  0  0  0  0  0  0  0  0  0  0
  146.5566  137.1190  156.1131 O   0  0  0  0  0  0  0  0  0  0  0  0
  147.3016  136.2298  153.7857 N   0  0  0  0  0  0  0  0  0  0  0  0
  146.2176  135.2732  153.5656 C   0  0  0  0  0  0  0  0  0  0  0  0
  146.7209  134.0766  152.7500 C   0  0  0  0  0  0  0  0  0  0  0  0
  145.5952  133.3848  152.0075 C   0  0  0  0  0  0  0  0  0  0  0  0
  144.2575  133.8012  152.1672 C   0  0  0  0  0  0  0  0  0  0  0  0
  143.2469  133.1212  151.4606 C   0  0  0  0  0  0  0  0  0  0  0  0
  143.6182  132.0501  150.6232 C   0  0  0  0  0  0  0  0  0  0  0  0
  144.8956  131.6420  150.4635 N   0  0  0  0  0  0  0  0  0  0  0  0
  145.8587  132.2999  151.1442 C   0  0  0  0  0  0  0  0  0  0  0  0
  148.2531  139.0253  154.1221 C   0  0  0  0  0  0  0  0  0  0  0  0
  149.0720  140.3282  154.2021 C   0  0  1  0  0  0  0  0  0  0  0  0
  148.7432  141.1764  155.4443 C   0  0  0  0  0  0  0  0  0  0  0  0
  150.4669  140.0527  154.0927 O   0  0  0  0  0  0  0  0  0  0  0  0
  152.9111  138.2737  155.5328 H   0  0  0  0  0  0  0  0  0  0  0  0
  152.9915  139.9144  154.8976 H   0  0  0  0  0  0  0  0  0  0  0  0
  152.6622  138.5668  153.8120 H   0  0  0  0  0  0  0  0  0  0  0  0
  150.8412  139.5470  156.0599 H   0  0  0  0  0  0  0  0  0  0  0  0
  150.4197  137.3148  154.0004 H   0  0  0  0  0  0  0  0  0  0  0  0
  150.5492  137.1224  155.7370 H   0  0  0  0  0  0  0  0  0  0  0  0
  148.1032  136.1018  153.1688 H   0  0  0  0  0  0  0  0  0  0  0  0
  145.8348  134.9347  154.5289 H   0  0  0  0  0  0  0  0  0  0  0  0
  145.3980  135.7730  153.0481 H   0  0  0  0  0  0  0  0  0  0  0  0
  147.4766  134.4016  152.0332 H   0  0  0  0  0  0  0  0  0  0  0  0
  147.2074  133.3532  153.4056 H   0  0  0  0  0  0  0  0  0  0  0  0
  144.0084  134.6248  152.8204 H   0  0  0  0  0  0  0  0  0  0  0  0
  142.2116  133.4125  151.5587 H   0  0  0  0  0  0  0  0  0  0  0  0
  142.8689  131.5065  150.0670 H   0  0  0  0  0  0  0  0  0  0  0  0
  146.8695  131.9477  150.9981 H   0  0  0  0  0  0  0  0  0  0  0  0
  148.3079  138.6120  153.1142 H   0  0  0  0  0  0  0  0  0  0  0  0
  147.2014  139.2317  154.3212 H   0  0  0  0  0  0  0  0  0  0  0  0
  148.8158  140.9335  153.3323 H   0  0  0  0  0  0  0  0  0  0  0  0
  147.7021  141.4993  155.4261 H   0  0  0  0  0  0  0  0  0  0  0  0
  149.3649  142.0712  155.4805 H   0  0  0  0  0  0  0  0  0  0  0  0
  148.8921  140.6257  156.3728 H   0  0  0  0  0  0  0  0  0  0  0  0
  1  2  1  0  0  0  0
  1 21  1  0  0  0  0
  1 22  1  0  0  0  0
  1 23  1  0  0  0  0
  2 20  1  0  0  0  0
  2  3  1  0  0  0  0
  2 24  1  0  0  0  0
  3  4  1  0  0  0  0
  3 25  1  0  0  0  0
  3 26  1  0  0  0  0
  4  5  1  0  0  0  0
  4 17  1  0  0  0  0
  5  6  2  0  0  0  0
  5  7  2  0  0  0  0
  5  8  1  0  0  0  0
  8  9  1  0  0  0  0
  8 27  1  0  0  0  0
  9 10  1  0  0  0  0
  9 28  1  0  0  0  0
  9 29  1  0  0  0  0
 10 11  1  0  0  0  0
 10 30  1  0  0  0  0
 10 31  1  0  0  0  0
 11 16  1  0  0  0  0
 11 12  2  0  0  0  0
 12 13  1  0  0  0  0
 12 32  1  0  0  0  0
 13 14  2  0  0  0  0
 13 33  1  0  0  0  0
 14 15  1  0  0  0  0
 14 34  1  0  0  0  0
 15 16  2  0  0  0  0
 16 35  1  0  0  0  0
 17 18  1  0  0  0  0
 17 36  1  0  0  0  0
 17 37  1  0  0  0  0
 18 19  1  0  0  0  0
 18 20  1  0  0  0  0
 18 38  1  0  0  0  0
 19 39  1  0  0  0  0
 19 40  1  0  0  0  0
 19 41  1  0  0  0  0
M  END
> <s_m_source_file>
AV-unprocessed.smi

> <i_m_source_file_index>
1165

> <i_lp_mmshare_version>
43012

> <i_f3d_flags>
0

> <s_epik_input>
W0NIM11bQ0BASF0xW0NIMl1OKFtDSDJdW0NASF0oTzEpW0NIM10pUyg9TykoPU8pW05IXVtDSDJdW0NIMl1jMltjSF1bY0hdW2NIXW5bY0hdMg==

> <s_epik_cmdline>
J2VwaWtfcHl0aG9uJywgJy1waCcsICc3LjAnLCAnLXRuJywgJzgnLCAnLW1hJywgJzIwMCcsICctbWV0YWxfYmluZGluZycsICctaW1hZScsICc8aW5maWxlLm1hZT4nLCAnLW9tYWUnLCAnPG91dGZpbGUubWFlPic=

> <r_epik_Ionization_Penalty>
0.0861056

> <r_epik_Ionization_Penalty_Charging>
0

> <r_epik_Ionization_Penalty_Neutral>
0.0861056

> <r_epik_State_Penalty>
0.0574425

> <r_epik_Charging_Adjusted_Penalty>
0.0574425

> <i_epik_Tot_Q>
0

> <i_epik_Tot_abs_Q>
0

> <r_epik_Metal_State_Penalty>
0.317425

> <b_epik_Metal_Only>
0

> <s_lp_Force_Field>
OPLS_2005

> <r_lp_Energy>
8.25328

> <b_lp_Chiralities_Consistent>
1

> <s_lp_Variant>
AV-unprocessed.smi:1165-1

> <Gold.Version>
5.8.1

> <Gold.Id.Protein>
6NUR|6NUR_protein|mol2

> <Gold.PLP.Fitness>
39.7040

> <Gold.PLP.PLP>
-29.7966

> <Gold.PLP.part.hbond>
-1.7174

> <Gold.PLP.part.metal>
0.0000

> <Gold.PLP.part.buried>
-3.0741

> <Gold.PLP.part.nonpolar>
-25.7383

> <Gold.PLP.part.repulsive>
0.7909

> <Gold.PLP.ligand.clash>
0.0000

> <Gold.PLP.ligand.torsion>
1.4621

> <Gold.PLP.Chemscore.Hbond>
2.0000

> <Gold.PLP.Chemscore.CHOScore>
2.0000

> <Gold.PLP.Chemscore.Metal>
0.0000

> <Gold.Chemscore.Hbonds>
donor molecule, donor type, donor heavy atom, donor atom, acceptor molecule, acceptor atom, score
      L1  H     8    27       P1  7948  1.00
      P1  H  7989  7998       L1    20  1.00
      L1  C    14    34       P1 10952  1.00
      L1  C    16    35       P1 10747  1.00

> <Gold.PLP.Chemscore.Internal.Correction>
0.8316

> <Gold.Rescore>
     Score         DG    S(hbond)    S(metal)    S(lipo)     H(rot)  DE(clash)    DE(int)     intcor
     15.21     -16.71       1.88        0.00      79.73       1.71       0.04       1.45       ----

> <Gold.Chemscore.Fitness>
15.2137

> <Gold.Chemscore.DG>
-16.7054

> <Gold.Chemscore.ZeroCoef>
-5.4800

> <Gold.Chemscore.Hbond>
1.8755

> <Gold.Chemscore.Metal>
0.0000

> <Gold.Chemscore.Lipo>
79.7308

> <Gold.Chemscore.Internal_Hbond>
0.0000

> <Gold.Chemscore.DEClash>
0.0371

> <Gold.Chemscore.DEInternal>
1.4546

> <Gold.Chemscore.Rot>
1.7060

> <Gold.Chemscore.Internal.Correction>
   9.000000E+99

> <Gold.Chemscore.Hbonds>
donor molecule, donor type, donor heavy atom, donor atom, acceptor molecule, acceptor atom, score
      L1  H     8    27       P1  7948  0.95
      P1  H  7989  7998       L1    20  0.72

> <Gold.Chemscore.Hbond.Weighted>
-6.2643

> <Gold.Chemscore.Metal.Weighted>
-0.0000

> <Gold.Chemscore.Lipo.Weighted>
-9.3285

> <Gold.Chemscore.Internal_Hbond.Weighted>
0.0000

> <Gold.Chemscore.DEClash.Weighted>
0.0371

> <Gold.Chemscore.DEInternal.Weighted>
1.4546

> <Gold.Chemscore.Rot.Weighted>
4.3674

> <Gold.Chemscore.Internal.Correction.Weighted>
   9.000000E+99

> <Gold.Protein.RotatedTorsions>
[ 6907 6896 6895 6894 ] final -106.70 input  -60.11 | X-H torsion
[ 7974 7965 7964 7962 ] final  -37.57 input  175.53 | X-H torsion
[ 8008 7997 7996 7995 ] final  -95.03 input   59.86 | X-H torsion
[ 10167 10162 10161 10158 ] final  -97.06 input  -65.29 | X-H torsion
[ 10718 10713 10712 10709 ] final   -2.12 input   66.30 | X-H torsion
[ 10763 10752 10751 10750 ] final  -81.40 input  -60.55 | X-H torsion
[ 11005 11000 10999 10996 ] final  -86.44 input  -57.11 | X-H torsion

> <Gold.Protein.ActiveResidues>
 VAL166  LYS551  ARG553  GLY616  TRP617  ASP618  TYR619  PRO620  LYS621  CYS622 
 ASP623  PHE694  ASN695  SER759  ASP760  ASP761  ALA762  ILE779  LEU786  VAL792 
 PHE793  MET794  SER795  GLU796  ALA797  LYS798  CYS799  TRP800  GLU811  SER814 

> <Gold.Protein.RotatedAtoms>
  150.7403  133.9937  159.3615 H   0  0  0  0  0  0  0  0  0  0  0  0  # atno 6907 bound_to 6896
  151.7886  135.0740  160.0393 H   0  0  0  0  0  0  0  0  0  0  0  0  # atno 6908 bound_to 6896
  152.3223  133.5831  159.5789 H   0  0  0  0  0  0  0  0  0  0  0  0  # atno 6909 bound_to 6896
  146.0563  140.6411  142.9018 H   0  0  0  0  0  0  0  0  0  0  0  0  # atno 7974 bound_to 7965
  154.7561  140.0484  157.0934 H   0  0  0  0  0  0  0  0  0  0  0  0  # atno 8008 bound_to 7997
  154.9996  140.3123  155.4853 H   0  0  0  0  0  0  0  0  0  0  0  0  # atno 8009 bound_to 7997
  156.2895  140.2204  156.5105 H   0  0  0  0  0  0  0  0  0  0  0  0  # atno 8010 bound_to 7997
  140.2874  143.3243  152.0381 H   0  0  0  0  0  0  0  0  0  0  0  0  # atno 10167 bound_to 10162
  156.7955  130.5376  149.5729 H   0  0  0  0  0  0  0  0  0  0  0  0  # atno 10718 bound_to 10713
  154.5631  135.5627  153.7025 H   0  0  0  0  0  0  0  0  0  0  0  0  # atno 10763 bound_to 10752
  153.0024  135.6278  154.2217 H   0  0  0  0  0  0  0  0  0  0  0  0  # atno 10764 bound_to 10752
  154.2156  135.2872  155.2923 H   0  0  0  0  0  0  0  0  0  0  0  0  # atno 10765 bound_to 10752
  141.1630  133.7455  156.9162 H   0  0  0  0  0  0  0  0  0  0  0  0  # atno 11005 bound_to 11000
  144.7150  140.4177  143.7051 LP  0  0  0  0  0  0  0  0  0  0  0  0  # atno 17320 bound_to 7965
  145.6637  139.1586  143.2794 LP  0  0  0  0  0  0  0  0  0  0  0  0  # atno 17321 bound_to 7965
  139.4947  144.6549  151.6594 LP  0  0  0  0  0  0  0  0  0  0  0  0  # atno 17342 bound_to 10162
  140.5761  144.0026  150.6242 LP  0  0  0  0  0  0  0  0  0  0  0  0  # atno 17343 bound_to 10162
  156.1133  130.6056  151.0081 LP  0  0  0  0  0  0  0  0  0  0  0  0  # atno 17370 bound_to 10713
  157.6579  131.0886  150.7905 LP  0  0  0  0  0  0  0  0  0  0  0  0  # atno 17371 bound_to 10713
  140.1483  134.9247  157.2558 LP  0  0  0  0  0  0  0  0  0  0  0  0  # atno 17394 bound_to 11000
  140.2754  134.3412  155.7360 LP  0  0  0  0  0  0  0  0  0  0  0  0  # atno 17395 bound_to 11000

$$$$
