AV-unprocessed.smi:489|AV-procd|sdf|2702|dock10
  -GOLD-   2262023143D 1   1.00000     0.00000
 Structure written by MMmdl.
 42 43  0  0  0  0  0  0  0  0  1 V2000
  145.8687  139.4160  157.5098 C   0  0  0  0  0  0  0  0  0  0  0  0
  145.9281  140.5188  156.4875 C   0  0  0  0  0  0  0  0  0  0  0  0
  146.9334  140.5040  155.6754 N   0  0  0  0  0  0  0  0  0  0  0  0
  147.0829  141.4681  154.6972 N   0  0  0  0  0  0  0  0  0  0  0  0
  148.2734  141.2868  153.8537 C   0  0  0  0  0  0  0  0  0  0  0  0
  149.5595  141.1278  154.6777 C   0  0  0  0  0  0  0  0  0  0  0  0
  150.3901  140.2792  154.3433 O   0  0  0  0  0  0  0  0  0  0  0  0
  149.6674  141.9636  155.7361 N   0  0  0  0  0  0  0  0  0  0  0  0
  150.6605  142.1301  156.6412 C   0  0  0  0  0  0  0  0  0  0  0  0
  151.4949  141.2452  156.8240 O   0  0  0  0  0  0  0  0  0  0  0  0
  150.6796  143.2893  157.3261 N   0  0  0  0  0  0  0  0  0  0  0  0
  151.8359  143.8381  158.0287 C   0  0  0  0  0  0  0  0  0  0  0  0
  152.4319  142.8309  159.0355 C   0  0  0  0  0  0  0  0  0  0  0  0
  152.5849  143.5883  160.3552 C   0  0  0  0  0  0  0  0  0  0  0  0
  151.4773  144.6361  160.3176 C   0  0  0  0  0  0  0  0  0  0  0  0
  151.4274  145.0728  158.8530 C   0  0  0  0  0  0  0  0  0  0  0  0
  146.2308  142.5161  154.5036 C   0  0  0  0  0  0  0  0  0  0  0  0
  146.4154  143.3672  153.6321 O   0  0  0  0  0  0  0  0  0  0  0  0
  145.0899  142.5223  155.4221 C   0  0  0  0  0  0  0  0  0  0  0  0
  144.1620  143.5914  155.2398 C   0  0  0  0  0  0  0  0  0  0  0  0
  143.4056  144.4516  155.0719 N   0  0  0  0  0  0  0  0  0  0  0  0
  144.9263  141.5747  156.3789 C   0  0  0  0  0  0  0  0  0  0  0  0
  143.7604  141.5369  157.3574 C   0  0  0  0  0  0  0  0  0  0  0  0
  145.9481  139.8206  158.5189 H   0  0  0  0  0  0  0  0  0  0  0  0
  146.6778  138.6958  157.3792 H   0  0  0  0  0  0  0  0  0  0  0  0
  144.9284  138.8694  157.4370 H   0  0  0  0  0  0  0  0  0  0  0  0
  148.1334  140.4240  153.1992 H   0  0  0  0  0  0  0  0  0  0  0  0
  148.4045  142.1412  153.1875 H   0  0  0  0  0  0  0  0  0  0  0  0
  148.8731  142.5712  155.8748 H   0  0  0  0  0  0  0  0  0  0  0  0
  149.8257  143.8280  157.3642 H   0  0  0  0  0  0  0  0  0  0  0  0
  152.5901  144.1348  157.2974 H   0  0  0  0  0  0  0  0  0  0  0  0
  151.7528  141.9903  159.1876 H   0  0  0  0  0  0  0  0  0  0  0  0
  153.3802  142.4182  158.6902 H   0  0  0  0  0  0  0  0  0  0  0  0
  152.5172  142.9338  161.2247 H   0  0  0  0  0  0  0  0  0  0  0  0
  153.5567  144.0830  160.3847 H   0  0  0  0  0  0  0  0  0  0  0  0
  150.5278  144.1778  160.5980 H   0  0  0  0  0  0  0  0  0  0  0  0
  151.6612  145.4677  160.9983 H   0  0  0  0  0  0  0  0  0  0  0  0
  152.1571  145.8679  158.6924 H   0  0  0  0  0  0  0  0  0  0  0  0
  150.4512  145.4751  158.5783 H   0  0  0  0  0  0  0  0  0  0  0  0
  143.1025  142.3985  157.2495 H   0  0  0  0  0  0  0  0  0  0  0  0
  144.1207  141.5307  158.3865 H   0  0  0  0  0  0  0  0  0  0  0  0
  143.1592  140.6414  157.1976 H   0  0  0  0  0  0  0  0  0  0  0  0
  1  2  1  0  0  0  0
  1 24  1  0  0  0  0
  1 25  1  0  0  0  0
  1 26  1  0  0  0  0
  2 22  1  0  0  0  0
  2  3  2  0  0  0  0
  3  4  1  0  0  0  0
  4  5  1  0  0  0  0
  4 17  1  0  0  0  0
  5  6  1  0  0  0  0
  5 27  1  0  0  0  0
  5 28  1  0  0  0  0
  6  7  2  0  0  0  0
  6  8  1  0  0  0  0
  8  9  1  0  0  0  0
  8 29  1  0  0  0  0
  9 10  2  0  0  0  0
  9 11  1  0  0  0  0
 11 12  1  0  0  0  0
 11 30  1  0  0  0  0
 12 16  1  0  0  0  0
 12 13  1  0  0  0  0
 12 31  1  0  0  0  0
 13 14  1  0  0  0  0
 13 32  1  0  0  0  0
 13 33  1  0  0  0  0
 14 15  1  0  0  0  0
 14 34  1  0  0  0  0
 14 35  1  0  0  0  0
 15 16  1  0  0  0  0
 15 36  1  0  0  0  0
 15 37  1  0  0  0  0
 16 38  1  0  0  0  0
 16 39  1  0  0  0  0
 17 18  2  0  0  0  0
 17 19  1  0  0  0  0
 19 20  1  0  0  0  0
 19 22  2  0  0  0  0
 20 21  3  0  0  0  0
 22 23  1  0  0  0  0
 23 40  1  0  0  0  0
 23 41  1  0  0  0  0
 23 42  1  0  0  0  0
M  END
> <s_m_source_file>
AV-unprocessed.smi

> <i_m_source_file_index>
489

> <i_lp_mmshare_version>
43012

> <i_f3d_flags>
0

> <s_epik_input>
TiNDYyhjMVtDSDNdKWMoPU8pbihuYzFbQ0gzXSlbQ0gyXUMoPU8pW05IXUMoPU8pW05IXVtDSF0yW0NIMl1bQ0gyXVtDSDJdW0NIMl0y

> <s_epik_cmdline>
J2VwaWtfcHl0aG9uJywgJy1waCcsICc3LjAnLCAnLXRuJywgJzgnLCAnLW1hJywgJzIwMCcsICctbWV0YWxfYmluZGluZycsICctaW1hZScsICc8aW5maWxlLm1hZT4nLCAnLW9tYWUnLCAnPG91dGZpbGUubWFlPic=

> <r_lp_tautomer_probability>
1

> <r_epik_Ionization_Penalty>
3.28905e-05

> <r_epik_Ionization_Penalty_Charging>
1.69167e-11

> <r_epik_Ionization_Penalty_Neutral>
3.28905e-05

> <r_epik_State_Penalty>
-0

> <r_epik_Charging_Adjusted_Penalty>
1.69167e-11

> <i_epik_Tot_Q>
0

> <i_epik_Tot_abs_Q>
0

> <r_epik_Metal_State_Penalty>
-0

> <b_epik_Metal_Only>
0

> <s_lp_Force_Field>
OPLS_2005

> <r_lp_Energy>
37.6869

> <b_lp_Chiralities_Consistent>
1

> <s_lp_Variant>
AV-unprocessed.smi:489-1

> <Gold.Version>
5.8.1

> <Gold.Id.Protein>
6NUR|6NUR_protein|mol2

> <Gold.PLP.Fitness>
48.5773

> <Gold.PLP.PLP>
-42.8534

> <Gold.PLP.part.hbond>
-4.0000

> <Gold.PLP.part.metal>
0.0000

> <Gold.PLP.part.buried>
-3.7693

> <Gold.PLP.part.nonpolar>
-34.5875

> <Gold.PLP.part.repulsive>
0.6134

> <Gold.PLP.ligand.clash>
0.0000

> <Gold.PLP.ligand.torsion>
0.5240

> <Gold.PLP.Chemscore.Hbond>
2.2527

> <Gold.PLP.Chemscore.CHOScore>
0.0000

> <Gold.PLP.Chemscore.Metal>
0.0000

> <Gold.Chemscore.Hbonds>
donor molecule, donor type, donor heavy atom, donor atom, acceptor molecule, acceptor atom, score
      L1  H     8    29       P1  8028  0.36
      L1  H    11    30       P1  8028  0.38
      P1  H  7989  7998       L1     7  1.00

> <Gold.PLP.Chemscore.Internal.Correction>
0.0139

> <Gold.Rescore>
     Score         DG    S(hbond)    S(metal)    S(lipo)     H(rot)  DE(clash)    DE(int)     intcor
     12.52     -15.33       1.58        0.00      74.46       1.61       0.10       2.72       ----

> <Gold.Chemscore.Fitness>
12.5161

> <Gold.Chemscore.DG>
-15.3343

> <Gold.Chemscore.ZeroCoef>
-5.4800

> <Gold.Chemscore.Hbond>
1.5776

> <Gold.Chemscore.Metal>
0.0000

> <Gold.Chemscore.Lipo>
74.4650

> <Gold.Chemscore.Internal_Hbond>
0.0000

> <Gold.Chemscore.DEClash>
0.1028

> <Gold.Chemscore.DEInternal>
2.7154

> <Gold.Chemscore.Rot>
1.6122

> <Gold.Chemscore.Internal.Correction>
   9.000000E+99

> <Gold.Chemscore.Hbonds>
donor molecule, donor type, donor heavy atom, donor atom, acceptor molecule, acceptor atom, score
      L1  H     8    29       P1  8028  0.36
      L1  H    11    30       P1  8028  0.29
      P1  H  7989  7998       L1     7  0.85

> <Gold.Chemscore.Hbond.Weighted>
-5.2691

> <Gold.Chemscore.Metal.Weighted>
-0.0000

> <Gold.Chemscore.Lipo.Weighted>
-8.7124

> <Gold.Chemscore.Internal_Hbond.Weighted>
0.0000

> <Gold.Chemscore.DEClash.Weighted>
0.1028

> <Gold.Chemscore.DEInternal.Weighted>
2.7154

> <Gold.Chemscore.Rot.Weighted>
4.1272

> <Gold.Chemscore.Internal.Correction.Weighted>
   9.000000E+99

> <Gold.Protein.RotatedTorsions>
[ 6907 6896 6895 6894 ] final -174.66 input  -60.11 | X-H torsion
[ 7974 7965 7964 7962 ] final   19.32 input  175.53 | X-H torsion
[ 8008 7997 7996 7995 ] final  -73.03 input   59.86 | X-H torsion
[ 10167 10162 10161 10158 ] final   72.15 input  -65.29 | X-H torsion
[ 10718 10713 10712 10709 ] final   61.99 input   66.30 | X-H torsion
[ 10763 10752 10751 10750 ] final  -69.41 input  -60.55 | X-H torsion
[ 11005 11000 10999 10996 ] final  -86.27 input  -57.11 | X-H torsion

> <Gold.Protein.ActiveResidues>
 VAL166  LYS551  ARG553  GLY616  TRP617  ASP618  TYR619  PRO620  LYS621  CYS622 
 ASP623  PHE694  ASN695  SER759  ASP760  ASP761  ALA762  ILE779  LEU786  VAL792 
 PHE793  MET794  SER795  GLU796  ALA797  LYS798  CYS799  TRP800  GLU811  SER814 

> <Gold.Protein.RotatedAtoms>
  151.5759  133.3384  159.2998 H   0  0  0  0  0  0  0  0  0  0  0  0  # atno 6907 bound_to 6896
  150.8341  134.7610  159.6889 H   0  0  0  0  0  0  0  0  0  0  0  0  # atno 6908 bound_to 6896
  152.4420  134.5578  159.9937 H   0  0  0  0  0  0  0  0  0  0  0  0  # atno 6909 bound_to 6896
  146.2153  139.8330  142.8656 H   0  0  0  0  0  0  0  0  0  0  0  0  # atno 7974 bound_to 7965
  154.5214  140.0786  156.8178 H   0  0  0  0  0  0  0  0  0  0  0  0  # atno 8008 bound_to 7997
  155.3568  140.3415  155.4222 H   0  0  0  0  0  0  0  0  0  0  0  0  # atno 8009 bound_to 7997
  156.1685  140.1612  156.8477 H   0  0  0  0  0  0  0  0  0  0  0  0  # atno 8010 bound_to 7997
  140.0384  144.5409  150.7453 H   0  0  0  0  0  0  0  0  0  0  0  0  # atno 10167 bound_to 10162
  157.5868  130.9025  149.9531 H   0  0  0  0  0  0  0  0  0  0  0  0  # atno 10718 bound_to 10713
  154.4030  135.6026  153.5908 H   0  0  0  0  0  0  0  0  0  0  0  0  # atno 10763 bound_to 10752
  152.9788  135.5911  154.4161 H   0  0  0  0  0  0  0  0  0  0  0  0  # atno 10764 bound_to 10752
  154.3962  135.2842  155.2102 H   0  0  0  0  0  0  0  0  0  0  0  0  # atno 10765 bound_to 10752
  141.1632  133.7445  156.9137 H   0  0  0  0  0  0  0  0  0  0  0  0  # atno 11005 bound_to 11000
  145.2977  141.0185  143.3626 LP  0  0  0  0  0  0  0  0  0  0  0  0  # atno 17320 bound_to 7965
  144.9029  139.4626  143.6624 LP  0  0  0  0  0  0  0  0  0  0  0  0  # atno 17321 bound_to 7965
  140.7271  143.2648  151.4082 LP  0  0  0  0  0  0  0  0  0  0  0  0  # atno 17342 bound_to 10162
  139.6030  144.1256  152.2218 LP  0  0  0  0  0  0  0  0  0  0  0  0  # atno 17343 bound_to 10162
  156.0918  130.3663  150.0380 LP  0  0  0  0  0  0  0  0  0  0  0  0  # atno 17370 bound_to 10713
  156.8510  130.9459  151.3625 LP  0  0  0  0  0  0  0  0  0  0  0  0  # atno 17371 bound_to 10713
  140.1499  134.9237  157.2579 LP  0  0  0  0  0  0  0  0  0  0  0  0  # atno 17394 bound_to 11000
  140.2735  134.3433  155.7366 LP  0  0  0  0  0  0  0  0  0  0  0  0  # atno 17395 bound_to 11000

$$$$
