AV-unprocessed.smi:322|AV-procd|sdf|2337|dock7
  -GOLD-   2262022243D 1   1.00000     0.00000
 Structure written by MMmdl.
 44 46  0  0  0  0  0  0  0  0  2 V2000
  150.1702  140.2090  154.0943 O   0  0  0  0  0  0  0  0  0  0  0  0
  149.4386  141.0141  154.9917 C   0  0  0  0  0  0  0  0  0  0  0  0
  150.2510  141.4268  156.1744 C   0  0  0  0  0  0  0  0  0  0  0  0
  150.4506  142.7074  156.5965 N   0  3  0  0  0  0  0  0  0  0  0  0
  151.2568  142.7096  157.7355 C   0  0  0  0  0  0  0  0  0  0  0  0
  151.7298  143.7597  158.5164 C   0  0  0  0  0  0  0  0  0  0  0  0
  152.5364  143.4136  159.6204 C   0  0  0  0  0  0  0  0  0  0  0  0
  152.8442  142.0686  159.9127 C   0  0  0  0  0  0  0  0  0  0  0  0
  152.3586  141.0125  159.1137 C   0  0  0  0  0  0  0  0  0  0  0  0
  151.5628  141.3641  158.0239 C   0  0  0  0  0  0  0  0  0  0  0  0
  150.9238  140.6089  157.0350 N   0  0  0  0  0  0  0  0  0  0  0  0
  151.0491  139.1431  157.0616 C   0  0  0  0  0  0  0  0  0  0  0  0
  152.5133  138.6641  157.0066 C   0  0  2  0  0  0  0  0  0  0  0  0
  153.1272  139.2038  155.8526 O   0  0  0  0  0  0  0  0  0  0  0  0
  152.6134  137.1329  156.9451 C   0  0  0  0  0  0  0  0  0  0  0  0
  151.8765  136.6700  155.8223 O   0  0  0  0  0  0  0  0  0  0  0  0
  150.5600  136.2395  156.1373 C   0  0  0  0  0  0  0  0  0  0  0  0
  150.2183  134.8802  155.5506 C   0  0  0  0  0  0  0  0  0  0  0  0
  149.2768  134.7771  154.5048 C   0  0  0  0  0  0  0  0  0  0  0  0
  148.9637  133.5188  153.9553 C   0  0  0  0  0  0  0  0  0  0  0  0
  149.5960  132.3591  154.4447 C   0  0  0  0  0  0  0  0  0  0  0  0
  149.2132  130.8172  153.7717 Cl  0  0  0  0  0  0  0  0  0  0  0  0
  150.5427  132.4593  155.4830 C   0  0  0  0  0  0  0  0  0  0  0  0
  150.8552  133.7177  156.0333 C   0  0  0  0  0  0  0  0  0  0  0  0
  149.6840  140.1404  153.2866 H   0  0  0  0  0  0  0  0  0  0  0  0
  149.0778  141.8995  154.4680 H   0  0  0  0  0  0  0  0  0  0  0  0
  148.5610  140.4623  155.3295 H   0  0  0  0  0  0  0  0  0  0  0  0
  151.4956  144.7906  158.2947 H   0  0  0  0  0  0  0  0  0  0  0  0
  152.9269  144.1952  160.2561 H   0  0  0  0  0  0  0  0  0  0  0  0
  153.4656  141.8420  160.7668 H   0  0  0  0  0  0  0  0  0  0  0  0
  152.6002  139.9855  159.3446 H   0  0  0  0  0  0  0  0  0  0  0  0
  150.5517  138.7747  157.9599 H   0  0  0  0  0  0  0  0  0  0  0  0
  150.4866  138.7435  156.2168 H   0  0  0  0  0  0  0  0  0  0  0  0
  153.0440  139.0264  157.8876 H   0  0  0  0  0  0  0  0  0  0  0  0
  152.5198  139.8002  155.4430 H   0  0  0  0  0  0  0  0  0  0  0  0
  153.6553  136.8375  156.8112 H   0  0  0  0  0  0  0  0  0  0  0  0
  152.2691  136.6826  157.8777 H   0  0  0  0  0  0  0  0  0  0  0  0
  150.4828  136.1636  157.2220 H   0  0  0  0  0  0  0  0  0  0  0  0
  149.8322  136.9914  155.8277 H   0  0  0  0  0  0  0  0  0  0  0  0
  148.7896  135.6631  154.1245 H   0  0  0  0  0  0  0  0  0  0  0  0
  148.2393  133.4451  153.1574 H   0  0  0  0  0  0  0  0  0  0  0  0
  151.0307  131.5718  155.8582 H   0  0  0  0  0  0  0  0  0  0  0  0
  151.5832  133.7861  156.8283 H   0  0  0  0  0  0  0  0  0  0  0  0
  150.0578  143.5192  156.1377 H   0  0  0  0  0  0  0  0  0  0  0  0
  1  2  1  0  0  0  0
  1 25  1  0  0  0  0
  2  3  1  0  0  0  0
  2 26  1  0  0  0  0
  2 27  1  0  0  0  0
  3 11  1  0  0  0  0
  3  4  2  0  0  0  0
  4  5  1  0  0  0  0
  4 44  1  0  0  0  0
  5 10  2  0  0  0  0
  5  6  1  0  0  0  0
  6  7  2  0  0  0  0
  6 28  1  0  0  0  0
  7  8  1  0  0  0  0
  7 29  1  0  0  0  0
  8  9  2  0  0  0  0
  8 30  1  0  0  0  0
  9 10  1  0  0  0  0
  9 31  1  0  0  0  0
 10 11  1  0  0  0  0
 11 12  1  0  0  0  0
 12 13  1  0  0  0  0
 12 32  1  0  0  0  0
 12 33  1  0  0  0  0
 13 14  1  0  0  0  0
 13 15  1  0  0  0  0
 13 34  1  0  0  0  0
 14 35  1  0  0  0  0
 15 16  1  0  0  0  0
 15 36  1  0  0  0  0
 15 37  1  0  0  0  0
 16 17  1  0  0  0  0
 17 18  1  0  0  0  0
 17 38  1  0  0  0  0
 17 39  1  0  0  0  0
 18 24  1  0  0  0  0
 18 19  2  0  0  0  0
 19 20  1  0  0  0  0
 19 40  1  0  0  0  0
 20 21  2  0  0  0  0
 20 41  1  0  0  0  0
 21 22  1  0  0  0  0
 21 23  1  0  0  0  0
 23 24  2  0  0  0  0
 23 42  1  0  0  0  0
 24 43  1  0  0  0  0
M  CHG  1   4   1
M  END
> <s_m_source_file>
AV-unprocessed.smi

> <i_m_source_file_index>
322

> <i_lp_mmshare_version>
43012

> <i_f3d_flags>
0

> <s_epik_input>
W2NIXTFbY0hdW2NIXVtjSF1jKGMxMiluKGMobjIpW0NIMl1bT0hdKVtDSDJdW0NASF0oW09IXSlbQ0gyXU9bQ0gyXWMzW2NIXVtjSF1jKENsKVtjSF1bY0hdMw==

> <s_epik_cmdline>
J2VwaWtfcHl0aG9uJywgJy1waCcsICc3LjAnLCAnLXRuJywgJzgnLCAnLW1hJywgJzIwMCcsICctbWV0YWxfYmluZGluZycsICctaW1hZScsICc8aW5maWxlLm1hZT4nLCAnLW9tYWUnLCAnPG91dGZpbGUubWFlPic=

> <r_epik_Ionization_Penalty>
1.34314

> <r_epik_Ionization_Penalty_Charging>
1.34228

> <r_epik_Ionization_Penalty_Neutral>
0.000856898

> <r_epik_State_Penalty>
1.41963

> <r_epik_Charging_Adjusted_Penalty>
2.76191

> <i_epik_Tot_Q>
1

> <i_epik_Tot_abs_Q>
1

> <r_epik_Metal_State_Penalty>
5.45585

> <b_epik_Metal_Only>
0

> <s_lp_Force_Field>
OPLS_2005

> <r_lp_Energy>
17.7001

> <b_lp_Chiralities_Consistent>
1

> <s_lp_Variant>
AV-unprocessed.smi:322-3

> <Gold.Version>
5.8.1

> <Gold.Id.Protein>
6NUR|6NUR_protein|mol2

> <Gold.PLP.Fitness>
67.0999

> <Gold.PLP.PLP>
-50.6349

> <Gold.PLP.part.hbond>
-4.9535

> <Gold.PLP.part.metal>
0.0000

> <Gold.PLP.part.buried>
-5.4721

> <Gold.PLP.part.nonpolar>
-40.4429

> <Gold.PLP.part.repulsive>
0.1328

> <Gold.PLP.ligand.clash>
0.0000

> <Gold.PLP.ligand.torsion>
0.7228

> <Gold.PLP.Chemscore.Hbond>
5.9280

> <Gold.PLP.Chemscore.CHOScore>
0.0000

> <Gold.PLP.Chemscore.Metal>
0.0000

> <Gold.Chemscore.Hbonds>
donor molecule, donor type, donor heavy atom, donor atom, acceptor molecule, acceptor atom, score
      L1  H     1    25       P1  7957  0.76
      L1  H     4    44       P1  8028  2.00
      P1  H  7989  7998       L1     1  0.88
      P1  H  7997  8008       L1    14  1.00
      P1  H 10752 10763       L1    16  1.00

> <Gold.PLP.Chemscore.Internal.Correction>
0.1265

> <Gold.Rescore>
     Score         DG    S(hbond)    S(metal)    S(lipo)     H(rot)  DE(clash)    DE(int)     intcor
     22.73     -24.40       3.99        0.00     118.53       3.24       0.01       1.66       ----

> <Gold.Chemscore.Fitness>
22.7341

> <Gold.Chemscore.DG>
-24.3999

> <Gold.Chemscore.ZeroCoef>
-5.4800

> <Gold.Chemscore.Hbond>
3.9947

> <Gold.Chemscore.Metal>
0.0000

> <Gold.Chemscore.Lipo>
118.5258

> <Gold.Chemscore.Internal_Hbond>
0.0000

> <Gold.Chemscore.DEClash>
0.0088

> <Gold.Chemscore.DEInternal>
1.6570

> <Gold.Chemscore.Rot>
3.2383

> <Gold.Chemscore.Internal.Correction>
   9.000000E+99

> <Gold.Chemscore.Hbonds>
donor molecule, donor type, donor heavy atom, donor atom, acceptor molecule, acceptor atom, score
      L1  H     1    25       P1  7957  0.71
      L1  H     4    44       P1  8028  1.00
      P1  H  7989  7998       L1     1  0.18
      P1  H  7997  8008       L1    14  0.30
      P1  H 10752 10763       L1    16  0.54

> <Gold.Chemscore.Hbond.Weighted>
-13.3425

> <Gold.Chemscore.Metal.Weighted>
-0.0000

> <Gold.Chemscore.Lipo.Weighted>
-13.8675

> <Gold.Chemscore.Internal_Hbond.Weighted>
0.0000

> <Gold.Chemscore.DEClash.Weighted>
0.0088

> <Gold.Chemscore.DEInternal.Weighted>
1.6570

> <Gold.Chemscore.Rot.Weighted>
8.2901

> <Gold.Chemscore.Internal.Correction.Weighted>
   9.000000E+99

> <Gold.Protein.RotatedTorsions>
[ 6907 6896 6895 6894 ] final -141.47 input  -60.11 | X-H torsion
[ 7974 7965 7964 7962 ] final  -43.82 input  175.53 | X-H torsion
[ 8008 7997 7996 7995 ] final  -32.08 input   59.86 | X-H torsion
[ 10167 10162 10161 10158 ] final  105.31 input  -65.29 | X-H torsion
[ 10718 10713 10712 10709 ] final   11.58 input   66.30 | X-H torsion
[ 10763 10752 10751 10750 ] final   77.91 input  -60.55 | X-H torsion
[ 11005 11000 10999 10996 ] final  -79.96 input  -57.11 | X-H torsion

> <Gold.Protein.ActiveResidues>
 VAL166  LYS551  ARG553  GLY616  TRP617  ASP618  TYR619  PRO620  LYS621  CYS622 
 ASP623  PHE694  ASN695  SER759  ASP760  ASP761  ALA762  ILE779  LEU786  VAL792 
 PHE793  MET794  SER795  GLU796  ALA797  LYS798  CYS799  TRP800  GLU811  SER814 

> <Gold.Protein.RotatedAtoms>
  151.0742  133.5441  159.2624 H   0  0  0  0  0  0  0  0  0  0  0  0  # atno 6907 bound_to 6896
  151.2369  135.0574  159.9019 H   0  0  0  0  0  0  0  0  0  0  0  0  # atno 6908 bound_to 6896
  152.5415  134.0523  159.8169 H   0  0  0  0  0  0  0  0  0  0  0  0  # atno 6909 bound_to 6896
  145.9982  140.7105  142.9284 H   0  0  0  0  0  0  0  0  0  0  0  0  # atno 7974 bound_to 7965
  154.4192  140.1747  156.1669 H   0  0  0  0  0  0  0  0  0  0  0  0  # atno 8008 bound_to 7997
  155.9792  140.3379  155.6623 H   0  0  0  0  0  0  0  0  0  0  0  0  # atno 8009 bound_to 7997
  155.6522  140.0691  157.2573 H   0  0  0  0  0  0  0  0  0  0  0  0  # atno 8010 bound_to 7997
  139.7103  144.7079  151.1038 H   0  0  0  0  0  0  0  0  0  0  0  0  # atno 10167 bound_to 10162
  156.9977  130.6067  149.5693 H   0  0  0  0  0  0  0  0  0  0  0  0  # atno 10718 bound_to 10713
  153.0834  135.4896  154.8549 H   0  0  0  0  0  0  0  0  0  0  0  0  # atno 10763 bound_to 10752
  154.7180  135.3033  154.9095 H   0  0  0  0  0  0  0  0  0  0  0  0  # atno 10764 bound_to 10752
  153.9768  135.6794  153.4802 H   0  0  0  0  0  0  0  0  0  0  0  0  # atno 10765 bound_to 10752
  141.1668  133.7129  156.8201 H   0  0  0  0  0  0  0  0  0  0  0  0  # atno 11005 bound_to 11000
  144.6910  140.3186  143.7236 LP  0  0  0  0  0  0  0  0  0  0  0  0  # atno 17320 bound_to 7965
  145.7528  139.1799  143.2311 LP  0  0  0  0  0  0  0  0  0  0  0  0  # atno 17321 bound_to 7965
  140.7731  143.5302  150.9432 LP  0  0  0  0  0  0  0  0  0  0  0  0  # atno 17342 bound_to 10162
  139.8986  143.6863  152.3135 LP  0  0  0  0  0  0  0  0  0  0  0  0  # atno 17343 bound_to 10162
  156.0183  130.5277  150.8200 LP  0  0  0  0  0  0  0  0  0  0  0  0  # atno 17370 bound_to 10713
  157.5413  131.0941  150.9824 LP  0  0  0  0  0  0  0  0  0  0  0  0  # atno 17371 bound_to 10713
  140.2125  134.8817  157.3290 LP  0  0  0  0  0  0  0  0  0  0  0  0  # atno 17394 bound_to 11000
  140.2072  134.4183  155.7631 LP  0  0  0  0  0  0  0  0  0  0  0  0  # atno 17395 bound_to 11000

$$$$
