#       Name:                AV-unprocessed.smi:3267
#       Creating user name   scv26
#       Creation time:       Fri Mar 27 18:41:12 2020


#       File generated by GOLD software.
#

@<TRIPOS>MOLECULE
AV-unprocessed.smi:3267
    43    44     1
SMALL
NO_CHARGES


@<TRIPOS>ATOM
      1 ****        -2.7671  -1.3394  -1.7390 C.3            1 S1                 0.0000
      2 ****        -2.3009  -0.7000  -0.4209 C.3            1 S1                 0.0000
      3 ****        -2.8126  -1.4435   0.8364 C.3            1 S1                 0.0000
      4 ****        -2.4999  -2.8635   0.8466 N.pl3          1 S1                 0.0000
      5 ****        -3.3056  -3.9217   0.4809 C.2            1 S1                 0.0000
      6 ****        -2.5824  -5.0656   0.6614 C.2            1 S1                 0.0000
      7 ****        -1.3307  -4.5999   1.1520 C.2            1 S1                 0.0000
      8 ****        -1.2849  -3.2824   1.2635 N.2            1 S1                 0.0000
      9 ****        -0.8429  -0.6016  -0.4227 N.am           1 S1                 0.0000
     10 ****        -0.1223   0.2816   0.2820 C.2            1 S1                 0.0000
     11 ****        -0.6098   1.1394   1.0185 O.2            1 S1                 0.0000
     12 ****         1.1927   0.1142   0.0870 N.am           1 S1                 0.0000
     13 ****         2.2399   0.9306   0.6893 C.3            1 S1                 0.0000
     14 ****         2.5962   2.1318  -0.2017 C.3            1 S1                 0.0000
     15 ****         3.7713   2.9597   0.3180 C.3            1 S1                 0.0000
     16 ****         3.5091   4.3539  -0.2341 C.3            1 S1                 0.0000
     17 ****         2.0785   4.2813  -0.7740 C.3            1 S1                 0.0000
     18 ****         1.5452   3.0847  -0.2277 O.3            1 S1                 0.0000
     19 ****        -3.8528  -1.4343  -1.7649 H              1 S1                 0.0000
     20 ****        -2.3417  -2.3335  -1.8798 H              1 S1                 0.0000
     21 ****        -2.4700  -0.7311  -2.5939 H              1 S1                 0.0000
     22 ****        -2.7065   0.3131  -0.3938 H              1 S1                 0.0000
     23 ****        -2.4159  -0.9894   1.7458 H              1 S1                 0.0000
     24 ****        -3.8966  -1.3412   0.8995 H              1 S1                 0.0000
     25 ****        -4.3141  -3.7734   0.1237 H              1 S1                 0.0000
     26 ****        -2.8993  -6.0807   0.4736 H              1 S1                 0.0000
     27 ****        -0.4601  -5.1758   1.4292 H              1 S1                 0.0000
     28 ****        -0.3453  -1.2690  -0.9936 H              1 S1                 0.0000
     29 ****         1.4915  -0.6233  -0.5341 H              1 S1                 0.0000
     30 ****         1.9530   1.2602   1.6895 H              1 S1                 0.0000
     31 ****         3.1182   0.2968   0.8138 H              1 S1                 0.0000
     32 ****         2.8023   1.8016  -1.2218 H              1 S1                 0.0000
     33 ****         3.7585   2.9932   1.4083 H              1 S1                 0.0000
     34 ****         4.7347   2.5545   0.0070 H              1 S1                 0.0000
     35 ****         3.5980   5.1007   0.5556 H              1 S1                 0.0000
     36 ****         4.2110   4.6174  -1.0259 H              1 S1                 0.0000
     37 ****         1.4787   5.1471  -0.4924 H              1 S1                 0.0000
     38 ****         2.0814   4.2076  -1.8624 H              1 S1                 0.0000
     39 ****        -0.5215  -2.7218   1.5846 LP             1 S1                 0.0000
     40 ****        -1.6025   1.2071   1.1185 LP             1 S1                 0.0000
     41 ****        -0.0130   1.7684   1.5168 LP             1 S1                 0.0000
     42 ****         1.2101   3.2508   0.6997 LP             1 S1                 0.0000
     43 ****         0.7948   2.7518  -0.7986 LP             1 S1                 0.0000
@<TRIPOS>BOND
    1    1    2 1     
    2    1   19 1     
    3    1   20 1     
    4    1   21 1     
    5    2    3 1     
    6    2    9 1     
    7    2   22 1     
    8    3    4 1     
    9    3   23 1     
   10    3   24 1     
   11    4    8 1     
   12    4    5 1     
   13    5    6 2     
   14    5   25 1     
   15    6    7 1     
   16    6   26 1     
   17    7    8 2     
   18    7   27 1     
   19    9   10 am    
   20    9   28 1     
   21   10   11 2     
   22   10   12 am    
   23   12   13 1     
   24   12   29 1     
   25   13   14 1     
   26   13   30 1     
   27   13   31 1     
   28   14   18 1     
   29   14   15 1     
   30   14   32 1     
   31   15   16 1     
   32   15   33 1     
   33   15   34 1     
   34   16   17 1     
   35   16   35 1     
   36   16   36 1     
   37   17   18 1     
   38   17   37 1     
   39   17   38 1     
   40    8   39 1     
   41   11   40 1     
   42   11   41 1     
   43   18   42 1     
   44   18   43 1     
@<TRIPOS>SUBSTRUCTURE
      1 S1             1
@<TRIPOS>SET
LONE_PAIRS      STATIC     ATOMS    <user>   **** ""
5 39 40 41 42 43
DONOR_HYDROGENS      STATIC     ATOMS    <user>   **** ""
2 28 29
ATOM$BLUE        STATIC     ATOMS    COLORGROUP SYSTEM
5 39 40 41 42 43
ATOM$RED        STATIC     ATOMS    COLORGROUP SYSTEM
2 28 29
