AV-unprocessed.smi:45|AV-procd|sdf|417|dock3
  -GOLD-   2262016293D 1   1.00000     0.00000
 Structure written by MMmdl.
 60 63  0  0  0  0  0  0  0  0  3 V2000
  144.3349  132.3353  150.4975 C   0  0  0  0  0  0  0  0  0  0  0  0
  144.3249  133.1817  151.6374 O   0  0  0  0  0  0  0  0  0  0  0  0
  145.4781  133.2772  152.3886 C   0  0  0  0  0  0  0  0  0  0  0  0
  146.6883  132.6130  152.0642 C   0  0  0  0  0  0  0  0  0  0  0  0
  147.8227  132.7507  152.8865 C   0  0  0  0  0  0  0  0  0  0  0  0
  147.7688  133.5501  154.0459 C   0  0  0  0  0  0  0  0  0  0  0  0
  148.9789  133.6778  154.9509 C   0  0  0  0  0  0  0  0  0  0  0  0
  149.4355  135.0526  155.0799 N   0  0  0  0  0  0  0  0  0  0  0  0
  149.2563  135.6857  156.3183 C   0  0  0  0  0  0  0  0  0  0  0  0
  148.0572  135.5549  156.9445 N   0  3  0  0  0  0  0  0  0  0  0  0
  147.8498  136.1150  158.1485 C   0  0  0  0  0  0  0  0  0  0  0  0
  146.6007  135.9589  158.7475 N   0  0  0  0  0  0  0  0  0  0  0  0
  145.4476  135.4808  157.9930 C   0  0  0  0  0  0  0  0  0  0  0  0
  144.2288  136.1611  158.6138 C   0  0  0  0  0  0  0  0  0  0  0  0
  144.6550  136.3673  160.0614 C   0  0  0  0  0  0  0  0  0  0  0  0
  146.1597  136.6577  159.9561 C   0  0  1  0  0  0  0  0  0  0  0  0
  146.9338  136.2322  161.2216 C   0  0  0  0  0  0  0  0  0  0  0  0
  146.9357  137.2815  162.1662 O   0  0  0  0  0  0  0  0  0  0  0  0
  148.7984  136.8218  158.7787 N   0  0  0  0  0  0  0  0  0  0  0  0
  150.0049  136.9757  158.1988 C   0  0  0  0  0  0  0  0  0  0  0  0
  150.2945  136.4202  156.9393 C   0  0  0  0  0  0  0  0  0  0  0  0
  151.6432  136.5945  156.3025 C   0  0  0  0  0  0  0  0  0  0  0  0
  152.6387  136.2084  156.9244 O   0  0  0  0  0  0  0  0  0  0  0  0
  151.5482  137.2351  155.1058 N   0  5  0  0  0  0  0  0  0  0  0  0
  152.1427  138.5479  154.8451 C   0  0  0  0  0  0  0  0  0  0  0  0
  151.6078  139.6222  155.7902 C   0  0  0  0  0  0  0  0  0  0  0  0
  150.7091  140.4786  155.2872 N   0  0  0  0  0  0  0  0  0  0  0  0
  150.2089  141.4091  156.1291 C   0  0  0  0  0  0  0  0  0  0  0  0
  150.6109  141.4816  157.4776 C   0  0  0  0  0  0  0  0  0  0  0  0
  151.5590  140.5278  157.8975 C   0  0  0  0  0  0  0  0  0  0  0  0
  152.0572  139.6003  157.0514 N   0  0  0  0  0  0  0  0  0  0  0  0
  146.5716  134.2168  154.3711 C   0  0  0  0  0  0  0  0  0  0  0  0
  145.4356  134.0811  153.5497 C   0  0  0  0  0  0  0  0  0  0  0  0
  143.9788  134.8981  153.9889 Cl  0  0  0  0  0  0  0  0  0  0  0  0
  146.3015  137.7255  159.7822 H   0  0  0  0  0  0  0  0  0  0  0  0
  143.3521  132.3552  150.0267 H   0  0  0  0  0  0  0  0  0  0  0  0
  144.5480  131.3008  150.7715 H   0  0  0  0  0  0  0  0  0  0  0  0
  145.0619  132.6716  149.7570 H   0  0  0  0  0  0  0  0  0  0  0  0
  146.7723  131.9868  151.1892 H   0  0  0  0  0  0  0  0  0  0  0  0
  148.7345  132.2325  152.6274 H   0  0  0  0  0  0  0  0  0  0  0  0
  148.7226  133.2938  155.9388 H   0  0  0  0  0  0  0  0  0  0  0  0
  149.7842  133.0524  154.5622 H   0  0  0  0  0  0  0  0  0  0  0  0
  150.3132  135.2533  154.6203 H   0  0  0  0  0  0  0  0  0  0  0  0
  145.5222  135.7108  156.9293 H   0  0  0  0  0  0  0  0  0  0  0  0
  145.3833  134.3978  158.1034 H   0  0  0  0  0  0  0  0  0  0  0  0
  144.0608  137.1280  158.1373 H   0  0  0  0  0  0  0  0  0  0  0  0
  143.3167  135.5717  158.5151 H   0  0  0  0  0  0  0  0  0  0  0  0
  144.1039  137.1674  160.5564 H   0  0  0  0  0  0  0  0  0  0  0  0
  144.4815  135.4471  160.6215 H   0  0  0  0  0  0  0  0  0  0  0  0
  146.4855  135.3454  161.6713 H   0  0  0  0  0  0  0  0  0  0  0  0
  147.9708  135.9849  160.9987 H   0  0  0  0  0  0  0  0  0  0  0  0
  146.5604  136.9626  162.9730 H   0  0  0  0  0  0  0  0  0  0  0  0
  150.7385  137.5505  158.7453 H   0  0  0  0  0  0  0  0  0  0  0  0
  153.2318  138.5191  154.9141 H   0  0  0  0  0  0  0  0  0  0  0  0
  151.9376  138.8710  153.8238 H   0  0  0  0  0  0  0  0  0  0  0  0
  149.4809  142.0975  155.7260 H   0  0  0  0  0  0  0  0  0  0  0  0
  150.2099  142.2229  158.1527 H   0  0  0  0  0  0  0  0  0  0  0  0
  151.9181  140.5088  158.9156 H   0  0  0  0  0  0  0  0  0  0  0  0
  146.5161  134.8275  155.2604 H   0  0  0  0  0  0  0  0  0  0  0  0
  147.3180  135.0204  156.4894 H   0  0  0  0  0  0  0  0  0  0  0  0
  1  2  1  0  0  0  0
  1 36  1  0  0  0  0
  1 37  1  0  0  0  0
  1 38  1  0  0  0  0
  2  3  1  0  0  0  0
  3 33  1  0  0  0  0
  3  4  2  0  0  0  0
  4  5  1  0  0  0  0
  4 39  1  0  0  0  0
  5  6  2  0  0  0  0
  5 40  1  0  0  0  0
  6  7  1  0  0  0  0
  6 32  1  0  0  0  0
  7  8  1  0  0  0  0
  7 41  1  0  0  0  0
  7 42  1  0  0  0  0
  8  9  1  0  0  0  0
  8 43  1  0  0  0  0
  9 21  1  0  0  0  0
  9 10  2  0  0  0  0
 10 11  1  0  0  0  0
 10 60  1  0  0  0  0
 11 12  1  0  0  0  0
 11 19  2  0  0  0  0
 12 16  1  0  0  0  0
 12 13  1  0  0  0  0
 13 14  1  0  0  0  0
 13 44  1  0  0  0  0
 13 45  1  0  0  0  0
 14 15  1  0  0  0  0
 14 46  1  0  0  0  0
 14 47  1  0  0  0  0
 15 16  1  0  0  0  0
 15 48  1  0  0  0  0
 15 49  1  0  0  0  0
 16 35  1  0  0  0  0
 16 17  1  0  0  0  0
 17 18  1  0  0  0  0
 17 50  1  0  0  0  0
 17 51  1  0  0  0  0
 18 52  1  0  0  0  0
 19 20  1  0  0  0  0
 20 21  2  0  0  0  0
 20 53  1  0  0  0  0
 21 22  1  0  0  0  0
 22 23  2  0  0  0  0
 22 24  1  0  0  0  0
 24 25  1  0  0  0  0
 25 26  1  0  0  0  0
 25 54  1  0  0  0  0
 25 55  1  0  0  0  0
 26 31  1  0  0  0  0
 26 27  2  0  0  0  0
 27 28  1  0  0  0  0
 28 29  2  0  0  0  0
 28 56  1  0  0  0  0
 29 30  1  0  0  0  0
 29 57  1  0  0  0  0
 30 31  2  0  0  0  0
 30 58  1  0  0  0  0
 32 33  2  0  0  0  0
 32 59  1  0  0  0  0
 33 34  1  0  0  0  0
M  CHG  1  10   1
M  CHG  1  24  -1
M  END
> <s_m_source_file>
AV-unprocessed.smi

> <i_m_source_file_index>
45

> <i_lp_mmshare_version>
43012

> <i_f3d_flags>
0

> <s_epik_input>
W0NIM11PYzFbY0hdW2NIXWMoW2NIXWMxQ2wpW0NIMl1bTkhdYzJuYyhOM1tDSDJdW0NIMl1bQ0gyXVtDQEhdM1tDSDJdW09IXSluW2NIXWMyQyg9TylbTkhdW0NIMl1jNG5bY0hdW2NIXVtjSF1uNA==

> <s_epik_cmdline>
J2VwaWtfcHl0aG9uJywgJy1waCcsICc3LjAnLCAnLXRuJywgJzgnLCAnLW1hJywgJzIwMCcsICctbWV0YWxfYmluZGluZycsICctaW1hZScsICc8aW5maWxlLm1hZT4nLCAnLW9tYWUnLCAnPG91dGZpbGUubWFlPic=

> <r_lp_tautomer_probability>
0.424989

> <r_epik_Ionization_Penalty>
7.51351

> <r_epik_Ionization_Penalty_Charging>
7.51312

> <r_epik_Ionization_Penalty_Neutral>
0.00038389

> <r_epik_State_Penalty>
8.64696

> <r_epik_Charging_Adjusted_Penalty>
16.1601

> <i_epik_Tot_Q>
0

> <i_epik_Tot_abs_Q>
2

> <r_epik_Metal_State_Penalty>
4.61083

> <b_epik_Metal_Only>
1

> <s_epik_Chemistry_Notes>
This compound contains an electron-poor aromatic ring that is susceptible to covalent hydrolysis at low pH, typically resulting in measured values for nitrogen ring protonation that are around two units higher than predicted values.

> <s_lp_Force_Field>
OPLS_2005

> <r_lp_Energy>
39.4565

> <b_lp_Chiralities_Consistent>
1

> <s_lp_Variant>
AV-unprocessed.smi:45-11

> <Gold.Version>
5.8.1

> <Gold.Id.Protein>
6NUR|6NUR_protein|mol2

> <Gold.PLP.Fitness>
53.2409

> <Gold.PLP.PLP>
-41.9355

> <Gold.PLP.part.hbond>
-6.8138

> <Gold.PLP.part.metal>
0.0000

> <Gold.PLP.part.buried>
-2.9115

> <Gold.PLP.part.nonpolar>
-31.6580

> <Gold.PLP.part.repulsive>
0.3101

> <Gold.PLP.ligand.clash>
0.0000

> <Gold.PLP.ligand.torsion>
2.7887

> <Gold.PLP.Chemscore.Hbond>
4.6196

> <Gold.PLP.Chemscore.CHOScore>
0.6768

> <Gold.PLP.Chemscore.Metal>
0.0000

> <Gold.Chemscore.Hbonds>
donor molecule, donor type, donor heavy atom, donor atom, acceptor molecule, acceptor atom, score
      P1  H  6931  6943       L1    18  0.21
      P1  H  6934  6947       L1    18  0.55
      P1  H  7989  7998       L1    27  0.91
      P1  H  7997  8009       L1    31  0.05
      P1  H 10752 10765       L1    23  0.93
      L1  C    28    56       P1  8028  0.61

> <Gold.PLP.Chemscore.Internal.Correction>
0.9936

> <Gold.Rescore>
     Score         DG    S(hbond)    S(metal)    S(lipo)     H(rot)  DE(clash)    DE(int)     intcor
     11.86     -15.99       2.56        0.00      85.80       3.16       1.20       2.93       ----

> <Gold.Chemscore.Fitness>
11.8597

> <Gold.Chemscore.DG>
-15.9912

> <Gold.Chemscore.ZeroCoef>
-5.4800

> <Gold.Chemscore.Hbond>
2.5613

> <Gold.Chemscore.Metal>
0.0000

> <Gold.Chemscore.Lipo>
85.8000

> <Gold.Chemscore.Internal_Hbond>
0.0000

> <Gold.Chemscore.DEClash>
1.2047

> <Gold.Chemscore.DEInternal>
2.9269

> <Gold.Chemscore.Rot>
3.1571

> <Gold.Chemscore.Internal.Correction>
   9.000000E+99

> <Gold.Chemscore.Hbonds>
donor molecule, donor type, donor heavy atom, donor atom, acceptor molecule, acceptor atom, score
      P1  H  6931  6943       L1    18  0.10
      P1  H  6934  6947       L1    18  0.24
      P1  H  7989  7998       L1    27  0.19
      P1  H  7997  8009       L1    31  0.01
      P1  H 10752 10765       L1    23  0.20

> <Gold.Chemscore.Hbond.Weighted>
-8.5548

> <Gold.Chemscore.Metal.Weighted>
-0.0000

> <Gold.Chemscore.Lipo.Weighted>
-10.0386

> <Gold.Chemscore.Internal_Hbond.Weighted>
0.0000

> <Gold.Chemscore.DEClash.Weighted>
1.2047

> <Gold.Chemscore.DEInternal.Weighted>
2.9269

> <Gold.Chemscore.Rot.Weighted>
8.0822

> <Gold.Chemscore.Internal.Correction.Weighted>
   9.000000E+99

> <Gold.Protein.RotatedTorsions>
[ 6907 6896 6895 6894 ] final  -34.68 input  -60.11 | X-H torsion
[ 7974 7965 7964 7962 ] final  -56.69 input  175.53 | X-H torsion
[ 8008 7997 7996 7995 ] final -170.05 input   59.86 | X-H torsion
[ 10167 10162 10161 10158 ] final  -25.05 input  -65.29 | X-H torsion
[ 10718 10713 10712 10709 ] final   72.68 input   66.30 | X-H torsion
[ 10763 10752 10751 10750 ] final -113.51 input  -60.55 | X-H torsion
[ 11005 11000 10999 10996 ] final   89.69 input  -57.11 | X-H torsion

> <Gold.Protein.ActiveResidues>
 VAL166  LYS551  ARG553  GLY616  TRP617  ASP618  TYR619  PRO620  LYS621  CYS622 
 ASP623  PHE694  ASN695  SER759  ASP760  ASP761  ALA762  ILE779  LEU786  VAL792 
 PHE793  MET794  SER795  GLU796  ALA797  LYS798  CYS799  TRP800  GLU811  SER814 

> <Gold.Protein.RotatedAtoms>
  151.0495  134.9663  159.8203 H   0  0  0  0  0  0  0  0  0  0  0  0  # atno 6907 bound_to 6896
  152.5378  134.2555  159.8925 H   0  0  0  0  0  0  0  0  0  0  0  0  # atno 6908 bound_to 6896
  151.2570  133.4278  159.2648 H   0  0  0  0  0  0  0  0  0  0  0  0  # atno 6909 bound_to 6896
  145.8597  140.8294  142.9943 H   0  0  0  0  0  0  0  0  0  0  0  0  # atno 7974 bound_to 7965
  155.9132  140.1061  157.1263 H   0  0  0  0  0  0  0  0  0  0  0  0  # atno 8008 bound_to 7997
  154.4042  140.1270  156.4649 H   0  0  0  0  0  0  0  0  0  0  0  0  # atno 8009 bound_to 7997
  155.7285  140.3469  155.5051 H   0  0  0  0  0  0  0  0  0  0  0  0  # atno 8010 bound_to 7997
  140.7287  143.4299  151.0819 H   0  0  0  0  0  0  0  0  0  0  0  0  # atno 10167 bound_to 10162
  157.6512  130.9591  150.0963 H   0  0  0  0  0  0  0  0  0  0  0  0  # atno 10718 bound_to 10713
  154.8399  135.4451  154.1361 H   0  0  0  0  0  0  0  0  0  0  0  0  # atno 10763 bound_to 10752
  153.2559  135.6931  153.7636 H   0  0  0  0  0  0  0  0  0  0  0  0  # atno 10764 bound_to 10752
  153.6931  135.3384  155.3182 H   0  0  0  0  0  0  0  0  0  0  0  0  # atno 10765 bound_to 10752
  139.8870  134.8567  156.3179 H   0  0  0  0  0  0  0  0  0  0  0  0  # atno 11005 bound_to 11000
  144.6727  140.1077  143.7457 LP  0  0  0  0  0  0  0  0  0  0  0  0  # atno 17320 bound_to 7965
  145.9262  139.2577  143.1352 LP  0  0  0  0  0  0  0  0  0  0  0  0  # atno 17321 bound_to 7965
  139.7954  143.8159  152.3157 LP  0  0  0  0  0  0  0  0  0  0  0  0  # atno 17342 bound_to 10162
  139.8157  144.7317  150.9638 LP  0  0  0  0  0  0  0  0  0  0  0  0  # atno 17343 bound_to 10162
  156.1898  130.3654  149.8925 LP  0  0  0  0  0  0  0  0  0  0  0  0  # atno 17370 bound_to 10713
  156.6856  130.8875  151.3581 LP  0  0  0  0  0  0  0  0  0  0  0  0  # atno 17371 bound_to 10713
  140.9807  133.7269  156.0667 LP  0  0  0  0  0  0  0  0  0  0  0  0  # atno 17394 bound_to 11000
  140.7753  134.3786  157.5499 LP  0  0  0  0  0  0  0  0  0  0  0  0  # atno 17395 bound_to 11000

$$$$
