AV-unprocessed.smi:1229|AV-procd|sdf|5151|dock3
  -GOLD-   22720 4223D 1   1.00000     0.00000
 Structure written by MMmdl.
 46 47  0  0  0  0  0  0  0  0  2 V2000
  151.7424  138.4964  154.5970 C   0  0  0  0  0  0  0  0  0  0  0  0
  151.2534  139.7504  155.3039 C   0  0  0  0  0  0  0  0  0  0  0  0
  151.9708  140.2400  156.4161 C   0  0  0  0  0  0  0  0  0  0  0  0
  151.5162  141.3977  157.0705 C   0  0  0  0  0  0  0  0  0  0  0  0
  150.3563  142.0217  156.5806 C   0  0  0  0  0  0  0  0  0  0  0  0
  149.6650  141.5613  155.5180 N   0  0  0  0  0  0  0  0  0  0  0  0
  150.0893  140.4437  154.8760 C   0  0  0  0  0  0  0  0  0  0  0  0
  149.4093  139.9014  153.7487 N   0  0  0  0  0  0  0  0  0  0  0  0
  148.1219  139.5257  153.6510 C   0  0  0  0  0  0  0  0  0  0  0  0
  147.2897  139.5808  154.5573 O   0  0  0  0  0  0  0  0  0  0  0  0
  147.8369  139.0757  152.4200 N   0  0  0  0  0  0  0  0  0  0  0  0
  146.5316  138.5785  151.9957 C   0  0  0  0  0  0  0  0  0  0  0  0
  145.9227  137.5961  153.0185 C   0  0  1  0  0  0  0  0  0  0  0  0
  144.9521  138.2938  153.7739 O   0  0  0  0  0  0  0  0  0  0  0  0
  145.2129  136.4192  152.3197 C   0  0  0  0  0  0  0  0  0  0  0  0
  146.1038  135.2439  152.1399 N   0  3  0  0  0  0  0  0  0  0  0  0
  146.1571  134.3848  153.3514 C   0  0  0  0  0  0  0  0  0  0  0  0
  147.1968  133.2624  153.1927 C   0  0  0  0  0  0  0  0  0  0  0  0
  146.9139  132.4225  151.9406 C   0  0  0  0  0  0  0  0  0  0  0  0
  146.8285  133.3324  150.7084 C   0  0  0  0  0  0  0  0  0  0  0  0
  145.7937  134.4504  150.9199 C   0  0  0  0  0  0  0  0  0  0  0  0
  152.6594  138.1181  155.0497 H   0  0  0  0  0  0  0  0  0  0  0  0
  151.9489  138.7039  153.5467 H   0  0  0  0  0  0  0  0  0  0  0  0
  150.9903  137.7090  154.6542 H   0  0  0  0  0  0  0  0  0  0  0  0
  152.8595  139.7360  156.7669 H   0  0  0  0  0  0  0  0  0  0  0  0
  152.0426  141.7969  157.9247 H   0  0  0  0  0  0  0  0  0  0  0  0
  149.9731  142.9141  157.0528 H   0  0  0  0  0  0  0  0  0  0  0  0
  149.9726  139.7906  152.9188 H   0  0  0  0  0  0  0  0  0  0  0  0
  148.5764  139.0616  151.7326 H   0  0  0  0  0  0  0  0  0  0  0  0
  145.8627  139.4211  151.8147 H   0  0  0  0  0  0  0  0  0  0  0  0
  146.6569  138.0840  151.0306 H   0  0  0  0  0  0  0  0  0  0  0  0
  146.6966  137.2242  153.6890 H   0  0  0  0  0  0  0  0  0  0  0  0
  144.5051  138.8992  153.2015 H   0  0  0  0  0  0  0  0  0  0  0  0
  144.3404  136.1404  152.9135 H   0  0  0  0  0  0  0  0  0  0  0  0
  144.8287  136.7251  151.3451 H   0  0  0  0  0  0  0  0  0  0  0  0
  146.4179  134.9894  154.2211 H   0  0  0  0  0  0  0  0  0  0  0  0
  145.1696  133.9616  153.5424 H   0  0  0  0  0  0  0  0  0  0  0  0
  148.1959  133.6955  153.1258 H   0  0  0  0  0  0  0  0  0  0  0  0
  147.1952  132.6244  154.0771 H   0  0  0  0  0  0  0  0  0  0  0  0
  147.6939  131.6729  151.8038 H   0  0  0  0  0  0  0  0  0  0  0  0
  145.9760  131.8795  152.0643 H   0  0  0  0  0  0  0  0  0  0  0  0
  147.8068  133.7716  150.5076 H   0  0  0  0  0  0  0  0  0  0  0  0
  146.5672  132.7436  149.8285 H   0  0  0  0  0  0  0  0  0  0  0  0
  144.7939  134.0216  151.0075 H   0  0  0  0  0  0  0  0  0  0  0  0
  145.7829  135.0910  150.0391 H   0  0  0  0  0  0  0  0  0  0  0  0
  147.0348  135.6177  152.0210 H   0  0  0  0  0  0  0  0  0  0  0  0
  1  2  1  0  0  0  0
  1 22  1  0  0  0  0
  1 23  1  0  0  0  0
  1 24  1  0  0  0  0
  2  7  1  0  0  0  0
  2  3  2  0  0  0  0
  3  4  1  0  0  0  0
  3 25  1  0  0  0  0
  4  5  2  0  0  0  0
  4 26  1  0  0  0  0
  5  6  1  0  0  0  0
  5 27  1  0  0  0  0
  6  7  2  0  0  0  0
  7  8  1  0  0  0  0
  8  9  1  0  0  0  0
  8 28  1  0  0  0  0
  9 10  2  0  0  0  0
  9 11  1  0  0  0  0
 11 12  1  0  0  0  0
 11 29  1  0  0  0  0
 12 13  1  0  0  0  0
 12 30  1  0  0  0  0
 12 31  1  0  0  0  0
 13 14  1  0  0  0  0
 13 15  1  0  0  0  0
 13 32  1  0  0  0  0
 14 33  1  0  0  0  0
 15 16  1  0  0  0  0
 15 34  1  0  0  0  0
 15 35  1  0  0  0  0
 16 21  1  0  0  0  0
 16 17  1  0  0  0  0
 16 46  1  0  0  0  0
 17 18  1  0  0  0  0
 17 36  1  0  0  0  0
 17 37  1  0  0  0  0
 18 19  1  0  0  0  0
 18 38  1  0  0  0  0
 18 39  1  0  0  0  0
 19 20  1  0  0  0  0
 19 40  1  0  0  0  0
 19 41  1  0  0  0  0
 20 21  1  0  0  0  0
 20 42  1  0  0  0  0
 20 43  1  0  0  0  0
 21 44  1  0  0  0  0
 21 45  1  0  0  0  0
M  CHG  1  16   1
M  END
> <s_m_source_file>
AV-unprocessed.smi

> <i_m_source_file_index>
1229

> <i_lp_mmshare_version>
43012

> <i_f3d_flags>
0

> <s_epik_input>
W0NIM11jMVtjSF1bY0hdW2NIXW5jMVtOSF1DKD1PKVtOSF1bQ0gyXVtDQEhdKFtPSF0pW0NIMl1OMltDSDJdW0NIMl1bQ0gyXVtDSDJdW0NIMl0y

> <s_epik_cmdline>
J2VwaWtfcHl0aG9uJywgJy1waCcsICc3LjAnLCAnLXRuJywgJzgnLCAnLW1hJywgJzIwMCcsICctbWV0YWxfYmluZGluZycsICctaW1hZScsICc8aW5maWxlLm1hZT4nLCAnLW9tYWUnLCAnPG91dGZpbGUubWFlPic=

> <r_epik_Ionization_Penalty>
0.00511007

> <r_epik_Ionization_Penalty_Charging>
0.00506051

> <r_epik_Ionization_Penalty_Neutral>
4.95577e-05

> <r_epik_State_Penalty>
0.00368188

> <r_epik_Charging_Adjusted_Penalty>
0.0087424

> <i_epik_Tot_Q>
1

> <i_epik_Tot_abs_Q>
1

> <r_epik_Metal_State_Penalty>
-0

> <b_epik_Metal_Only>
0

> <s_lp_Force_Field>
OPLS_2005

> <r_lp_Energy>
20.718

> <b_lp_Chiralities_Consistent>
1

> <s_lp_Variant>
AV-unprocessed.smi:1229-2

> <Gold.Version>
5.8.1

> <Gold.Id.Protein>
6NUR|6NUR_protein|mol2

> <Gold.PLP.Fitness>
49.0871

> <Gold.PLP.PLP>
-37.1983

> <Gold.PLP.part.hbond>
-4.3560

> <Gold.PLP.part.metal>
0.0000

> <Gold.PLP.part.buried>
-2.0568

> <Gold.PLP.part.nonpolar>
-30.4900

> <Gold.PLP.part.repulsive>
0.4404

> <Gold.PLP.ligand.clash>
0.0000

> <Gold.PLP.ligand.torsion>
1.9153

> <Gold.PLP.Chemscore.Hbond>
4.3905

> <Gold.PLP.Chemscore.CHOScore>
0.8175

> <Gold.PLP.Chemscore.Metal>
0.0000

> <Gold.Chemscore.Hbonds>
donor molecule, donor type, donor heavy atom, donor atom, acceptor molecule, acceptor atom, score
      L1  H     8    28       P1  7957  0.66
      L1  H    11    29       P1  7957  0.73
      L1  H    14    33       P1 10175  1.00
      L1  H    16    46       P1  7948  2.00
      L1  C     5    27       P1  8028  0.81

> <Gold.PLP.Chemscore.Internal.Correction>
0.0955

> <Gold.Rescore>
     Score         DG    S(hbond)    S(metal)    S(lipo)     H(rot)  DE(clash)    DE(int)     intcor
     17.46     -20.92       3.58        0.00      80.33       2.31       0.21       3.26       ----

> <Gold.Chemscore.Fitness>
17.4576

> <Gold.Chemscore.DG>
-20.9203

> <Gold.Chemscore.ZeroCoef>
-5.4800

> <Gold.Chemscore.Hbond>
3.5791

> <Gold.Chemscore.Metal>
0.0000

> <Gold.Chemscore.Lipo>
80.3288

> <Gold.Chemscore.Internal_Hbond>
0.0000

> <Gold.Chemscore.DEClash>
0.2063

> <Gold.Chemscore.DEInternal>
3.2564

> <Gold.Chemscore.Rot>
2.3095

> <Gold.Chemscore.Internal.Correction>
   9.000000E+99

> <Gold.Chemscore.Hbonds>
donor molecule, donor type, donor heavy atom, donor atom, acceptor molecule, acceptor atom, score
      L1  H     8    28       P1  7957  0.66
      L1  H    11    29       P1  7957  0.61
      L1  H    14    33       P1 10175  1.00
      L1  H    16    46       P1  7948  0.97

> <Gold.Chemscore.Hbond.Weighted>
-11.9542

> <Gold.Chemscore.Metal.Weighted>
-0.0000

> <Gold.Chemscore.Lipo.Weighted>
-9.3985

> <Gold.Chemscore.Internal_Hbond.Weighted>
0.0000

> <Gold.Chemscore.DEClash.Weighted>
0.2063

> <Gold.Chemscore.DEInternal.Weighted>
3.2564

> <Gold.Chemscore.Rot.Weighted>
5.9124

> <Gold.Chemscore.Internal.Correction.Weighted>
   9.000000E+99

> <Gold.Protein.RotatedTorsions>
[ 6907 6896 6895 6894 ] final  -41.11 input  -60.11 | X-H torsion
[ 7974 7965 7964 7962 ] final   53.22 input  175.53 | X-H torsion
[ 8008 7997 7996 7995 ] final   54.19 input   59.86 | X-H torsion
[ 10167 10162 10161 10158 ] final -116.73 input  -65.29 | X-H torsion
[ 10718 10713 10712 10709 ] final  116.38 input   66.30 | X-H torsion
[ 10763 10752 10751 10750 ] final  143.33 input  -60.55 | X-H torsion
[ 11005 11000 10999 10996 ] final -160.85 input  -57.11 | X-H torsion

> <Gold.Protein.ActiveResidues>
 VAL166  LYS551  ARG553  GLY616  TRP617  ASP618  TYR619  PRO620  LYS621  CYS622 
 ASP623  PHE694  ASN695  SER759  ASP760  ASP761  ALA762  ILE779  LEU786  VAL792 
 PHE793  MET794  SER795  GLU796  ALA797  LYS798  CYS799  TRP800  GLU811  SER814 

> <Gold.Protein.RotatedAtoms>
  150.9706  134.9079  159.7785 H   0  0  0  0  0  0  0  0  0  0  0  0  # atno 6907 bound_to 6896
  152.5189  134.3546  159.9273 H   0  0  0  0  0  0  0  0  0  0  0  0  # atno 6908 bound_to 6896
  151.3555  133.3868  159.2719 H   0  0  0  0  0  0  0  0  0  0  0  0  # atno 6909 bound_to 6896
  145.9734  139.4171  143.0176 H   0  0  0  0  0  0  0  0  0  0  0  0  # atno 7974 bound_to 7965
  155.4807  140.3468  155.4339 H   0  0  0  0  0  0  0  0  0  0  0  0  # atno 8008 bound_to 7997
  156.1041  140.1443  156.9456 H   0  0  0  0  0  0  0  0  0  0  0  0  # atno 8009 bound_to 7997
  154.4713  140.0900  156.7129 H   0  0  0  0  0  0  0  0  0  0  0  0  # atno 8010 bound_to 7997
  140.0760  143.4832  152.1953 H   0  0  0  0  0  0  0  0  0  0  0  0  # atno 10167 bound_to 10162
  157.6164  131.1024  150.7464 H   0  0  0  0  0  0  0  0  0  0  0  0  # atno 10718 bound_to 10713
  153.9706  135.2951  155.3427 H   0  0  0  0  0  0  0  0  0  0  0  0  # atno 10763 bound_to 10752
  154.7324  135.5061  153.8989 H   0  0  0  0  0  0  0  0  0  0  0  0  # atno 10764 bound_to 10752
  153.0902  135.6705  153.9982 H   0  0  0  0  0  0  0  0  0  0  0  0  # atno 10765 bound_to 10752
  140.6269  134.4692  157.5227 H   0  0  0  0  0  0  0  0  0  0  0  0  # atno 11005 bound_to 11000
  145.7874  140.9829  143.1067 LP  0  0  0  0  0  0  0  0  0  0  0  0  # atno 17320 bound_to 7965
  144.6842  139.9640  143.7481 LP  0  0  0  0  0  0  0  0  0  0  0  0  # atno 17321 bound_to 7965
  139.5807  144.7509  151.3646 LP  0  0  0  0  0  0  0  0  0  0  0  0  # atno 17342 bound_to 10162
  140.7102  143.7411  150.7552 LP  0  0  0  0  0  0  0  0  0  0  0  0  # atno 17343 bound_to 10162
  156.7830  130.4865  149.5397 LP  0  0  0  0  0  0  0  0  0  0  0  0  # atno 17370 bound_to 10713
  156.1288  130.6163  151.0303 LP  0  0  0  0  0  0  0  0  0  0  0  0  # atno 17371 bound_to 10713
  139.9131  134.8303  156.1458 LP  0  0  0  0  0  0  0  0  0  0  0  0  # atno 17394 bound_to 11000
  141.0703  133.6800  156.2127 LP  0  0  0  0  0  0  0  0  0  0  0  0  # atno 17395 bound_to 11000

$$$$
