AV-unprocessed.smi:1354|AV-procd|sdf|5534|dock2
  -GOLD-   22720 5123D 1   1.00000     0.00000
 Structure written by MMmdl.
 39 41  0  0  0  0  0  0  0  0  1 V2000
  154.4165  138.3513  155.2573 O   0  0  0  0  0  0  0  0  0  0  0  0
  153.1139  138.5173  154.7380 C   0  0  0  0  0  0  0  0  0  0  0  0
  152.1594  139.0892  155.8008 C   0  0  0  0  0  0  0  0  0  0  0  0
  150.8292  139.5112  155.2425 C   0  0  0  0  0  0  0  0  0  0  0  0
  150.0603  138.6543  154.5680 N   0  0  0  0  0  0  0  0  0  0  0  0
  148.9696  139.4262  154.2219 C   0  0  0  0  0  0  0  0  0  0  0  0
  147.8128  139.0995  153.4786 C   0  0  0  0  0  0  0  0  0  0  0  0
  146.8179  140.0707  153.2431 C   0  0  0  0  0  0  0  0  0  0  0  0
  146.9642  141.3785  153.7484 C   0  0  0  0  0  0  0  0  0  0  0  0
  148.1072  141.7230  154.4952 C   0  0  0  0  0  0  0  0  0  0  0  0
  149.0986  140.7502  154.7267 C   0  0  0  0  0  0  0  0  0  0  0  0
  150.3158  140.7595  155.4031 N   0  0  0  0  0  0  0  0  0  0  0  0
  150.8828  141.9005  156.1114 C   0  0  0  0  0  0  0  0  0  0  0  0
  151.1749  141.5856  157.5848 C   0  0  0  0  0  0  0  0  0  0  0  0
  151.3360  142.8081  158.2915 O   0  0  0  0  0  0  0  0  0  0  0  0
  151.9001  142.7758  159.5478 C   0  0  0  0  0  0  0  0  0  0  0  0
  152.6564  141.6849  160.0462 C   0  0  0  0  0  0  0  0  0  0  0  0
  153.2005  141.7280  161.3445 C   0  0  0  0  0  0  0  0  0  0  0  0
  152.9959  142.8566  162.1591 C   0  0  0  0  0  0  0  0  0  0  0  0
  152.2447  143.9430  161.6743 C   0  0  0  0  0  0  0  0  0  0  0  0
  151.6992  143.9024  160.3760 C   0  0  0  0  0  0  0  0  0  0  0  0
  150.7854  145.2508  159.7995 Cl  0  0  0  0  0  0  0  0  0  0  0  0
  154.8718  137.7134  154.7291 H   0  0  0  0  0  0  0  0  0  0  0  0
  153.1469  139.1530  153.8527 H   0  0  0  0  0  0  0  0  0  0  0  0
  152.7581  137.5391  154.4138 H   0  0  0  0  0  0  0  0  0  0  0  0
  151.9694  138.3233  156.5534 H   0  0  0  0  0  0  0  0  0  0  0  0
  152.6457  139.9076  156.3285 H   0  0  0  0  0  0  0  0  0  0  0  0
  147.6927  138.1006  153.0860 H   0  0  0  0  0  0  0  0  0  0  0  0
  145.9393  139.8116  152.6709 H   0  0  0  0  0  0  0  0  0  0  0  0
  146.1993  142.1178  153.5617 H   0  0  0  0  0  0  0  0  0  0  0  0
  148.2225  142.7256  154.8788 H   0  0  0  0  0  0  0  0  0  0  0  0
  151.8094  142.1863  155.6132 H   0  0  0  0  0  0  0  0  0  0  0  0
  150.2198  142.7600  156.0163 H   0  0  0  0  0  0  0  0  0  0  0  0
  150.3536  141.0076  158.0103 H   0  0  0  0  0  0  0  0  0  0  0  0
  152.0778  140.9801  157.6545 H   0  0  0  0  0  0  0  0  0  0  0  0
  152.8303  140.8011  159.4515 H   0  0  0  0  0  0  0  0  0  0  0  0
  153.7757  140.8926  161.7157 H   0  0  0  0  0  0  0  0  0  0  0  0
  153.4138  142.8888  163.1546 H   0  0  0  0  0  0  0  0  0  0  0  0
  152.0878  144.8095  162.2997 H   0  0  0  0  0  0  0  0  0  0  0  0
  1  2  1  0  0  0  0
  1 23  1  0  0  0  0
  2  3  1  0  0  0  0
  2 24  1  0  0  0  0
  2 25  1  0  0  0  0
  3  4  1  0  0  0  0
  3 26  1  0  0  0  0
  3 27  1  0  0  0  0
  4 12  1  0  0  0  0
  4  5  2  0  0  0  0
  5  6  1  0  0  0  0
  6 11  2  0  0  0  0
  6  7  1  0  0  0  0
  7  8  2  0  0  0  0
  7 28  1  0  0  0  0
  8  9  1  0  0  0  0
  8 29  1  0  0  0  0
  9 10  2  0  0  0  0
  9 30  1  0  0  0  0
 10 11  1  0  0  0  0
 10 31  1  0  0  0  0
 11 12  1  0  0  0  0
 12 13  1  0  0  0  0
 13 14  1  0  0  0  0
 13 32  1  0  0  0  0
 13 33  1  0  0  0  0
 14 15  1  0  0  0  0
 14 34  1  0  0  0  0
 14 35  1  0  0  0  0
 15 16  1  0  0  0  0
 16 21  1  0  0  0  0
 16 17  2  0  0  0  0
 17 18  1  0  0  0  0
 17 36  1  0  0  0  0
 18 19  2  0  0  0  0
 18 37  1  0  0  0  0
 19 20  1  0  0  0  0
 19 38  1  0  0  0  0
 20 21  2  0  0  0  0
 20 39  1  0  0  0  0
 21 22  1  0  0  0  0
M  END
> <s_m_source_file>
AV-unprocessed.smi

> <i_m_source_file_index>
1354

> <i_lp_mmshare_version>
43012

> <i_f3d_flags>
0

> <s_epik_input>
W2NIXTFbY0hdW2NIXVtjSF1jKGMxMiluKGMobjIpW0NIMl1bQ0gyXVtPSF0pW0NIMl1bQ0gyXU9jM1tjSF1bY0hdW2NIXVtjSF1jM0Ns

> <s_epik_cmdline>
J2VwaWtfcHl0aG9uJywgJy1waCcsICc3LjAnLCAnLXRuJywgJzgnLCAnLW1hJywgJzIwMCcsICctbWV0YWxfYmluZGluZycsICctaW1hZScsICc8aW5maWxlLm1hZT4nLCAnLW9tYWUnLCAnPG91dGZpbGUubWFlPic=

> <r_lp_tautomer_probability>
1

> <r_epik_Ionization_Penalty>
0.195126

> <r_epik_Ionization_Penalty_Charging>
0

> <r_epik_Ionization_Penalty_Neutral>
0.195126

> <r_epik_State_Penalty>
0.184862

> <r_epik_Charging_Adjusted_Penalty>
0.184862

> <i_epik_Tot_Q>
0

> <i_epik_Tot_abs_Q>
0

> <r_epik_Metal_State_Penalty>
0.000216911

> <b_epik_Metal_Only>
0

> <s_lp_Force_Field>
OPLS_2005

> <r_lp_Energy>
15.3671

> <b_lp_Chiralities_Consistent>
1

> <s_lp_Variant>
AV-unprocessed.smi:1354-1

> <Gold.Version>
5.8.1

> <Gold.Id.Protein>
6NUR|6NUR_protein|mol2

> <Gold.PLP.Fitness>
56.8109

> <Gold.PLP.PLP>
-56.5624

> <Gold.PLP.part.hbond>
-1.3440

> <Gold.PLP.part.metal>
0.0000

> <Gold.PLP.part.buried>
-5.3431

> <Gold.PLP.part.nonpolar>
-50.5698

> <Gold.PLP.part.repulsive>
0.2280

> <Gold.PLP.ligand.clash>
0.0000

> <Gold.PLP.ligand.torsion>
0.4171

> <Gold.PLP.Chemscore.Hbond>
0.3264

> <Gold.PLP.Chemscore.CHOScore>
0.0000

> <Gold.PLP.Chemscore.Metal>
0.0000

> <Gold.Chemscore.Hbonds>
donor molecule, donor type, donor heavy atom, donor atom, acceptor molecule, acceptor atom, score
      P1  H  7997  8010       L1     1  0.31

> <Gold.PLP.Chemscore.Internal.Correction>
0.1035

> <Gold.Rescore>
     Score         DG    S(hbond)    S(metal)    S(lipo)     H(rot)  DE(clash)    DE(int)     intcor
     16.66     -17.21       0.00        0.00     150.71       2.31       0.31       0.24       ----

> <Gold.Chemscore.Fitness>
16.6608

> <Gold.Chemscore.DG>
-17.2148

> <Gold.Chemscore.ZeroCoef>
-5.4800

> <Gold.Chemscore.Hbond>
0.0043

> <Gold.Chemscore.Metal>
0.0000

> <Gold.Chemscore.Lipo>
150.7128

> <Gold.Chemscore.Internal_Hbond>
0.0000

> <Gold.Chemscore.DEClash>
0.3139

> <Gold.Chemscore.DEInternal>
0.2401

> <Gold.Chemscore.Rot>
2.3098

> <Gold.Chemscore.Internal.Correction>
   9.000000E+99

> <Gold.Chemscore.Hbonds>
donor molecule, donor type, donor heavy atom, donor atom, acceptor molecule, acceptor atom, score
      P1  H  7997  8010       L1     1  0.05

> <Gold.Chemscore.Hbond.Weighted>
-0.0145

> <Gold.Chemscore.Metal.Weighted>
-0.0000

> <Gold.Chemscore.Lipo.Weighted>
-17.6334

> <Gold.Chemscore.Internal_Hbond.Weighted>
0.0000

> <Gold.Chemscore.DEClash.Weighted>
0.3139

> <Gold.Chemscore.DEInternal.Weighted>
0.2401

> <Gold.Chemscore.Rot.Weighted>
5.9131

> <Gold.Chemscore.Internal.Correction.Weighted>
   9.000000E+99

> <Gold.Protein.RotatedTorsions>
[ 6907 6896 6895 6894 ] final   46.35 input  -60.11 | X-H torsion
[ 7974 7965 7964 7962 ] final  -62.72 input  175.53 | X-H torsion
[ 8008 7997 7996 7995 ] final  129.90 input   59.86 | X-H torsion
[ 10167 10162 10161 10158 ] final  -68.16 input  -65.29 | X-H torsion
[ 10718 10713 10712 10709 ] final   85.13 input   66.30 | X-H torsion
[ 10763 10752 10751 10750 ] final  146.69 input  -60.55 | X-H torsion
[ 11005 11000 10999 10996 ] final   23.07 input  -57.11 | X-H torsion

> <Gold.Protein.ActiveResidues>
 VAL166  LYS551  ARG553  GLY616  TRP617  ASP618  TYR619  PRO620  LYS621  CYS622 
 ASP623  PHE694  ASN695  SER759  ASP760  ASP761  ALA762  ILE779  LEU786  VAL792 
 PHE793  MET794  SER795  GLU796  ALA797  LYS798  CYS799  TRP800  GLU811  SER814 

> <Gold.Protein.RotatedAtoms>
  152.2554  134.8089  160.0439 H   0  0  0  0  0  0  0  0  0  0  0  0  # atno 6907 bound_to 6896
  151.8755  133.3479  159.3757 H   0  0  0  0  0  0  0  0  0  0  0  0  # atno 6908 bound_to 6896
  150.7098  134.4998  159.5600 H   0  0  0  0  0  0  0  0  0  0  0  0  # atno 6909 bound_to 6896
  145.7879  140.8726  143.0296 H   0  0  0  0  0  0  0  0  0  0  0  0  # atno 7974 bound_to 7965
  156.2945  140.2609  156.2674 H   0  0  0  0  0  0  0  0  0  0  0  0  # atno 8008 bound_to 7997
  154.9729  140.0391  157.2261 H   0  0  0  0  0  0  0  0  0  0  0  0  # atno 8009 bound_to 7997
  154.7842  140.2800  155.6045 H   0  0  0  0  0  0  0  0  0  0  0  0  # atno 8010 bound_to 7997
  140.5528  143.2312  151.6878 H   0  0  0  0  0  0  0  0  0  0  0  0  # atno 10167 bound_to 10162
  157.6909  131.0162  150.2775 H   0  0  0  0  0  0  0  0  0  0  0  0  # atno 10718 bound_to 10713
  154.0261  135.2902  155.3374 H   0  0  0  0  0  0  0  0  0  0  0  0  # atno 10763 bound_to 10752
  154.7017  135.5186  153.8539 H   0  0  0  0  0  0  0  0  0  0  0  0  # atno 10764 bound_to 10752
  153.0660  135.6631  154.0478 H   0  0  0  0  0  0  0  0  0  0  0  0  # atno 10765 bound_to 10752
  140.3737  134.1995  155.7666 H   0  0  0  0  0  0  0  0  0  0  0  0  # atno 11005 bound_to 11000
  144.6786  140.0081  143.7484 LP  0  0  0  0  0  0  0  0  0  0  0  0  # atno 17320 bound_to 7965
  146.0007  139.3089  143.0929 LP  0  0  0  0  0  0  0  0  0  0  0  0  # atno 17321 bound_to 7965
  139.5035  144.3789  152.0395 LP  0  0  0  0  0  0  0  0  0  0  0  0  # atno 17342 bound_to 10162
  140.2908  144.3756  150.6089 LP  0  0  0  0  0  0  0  0  0  0  0  0  # atno 17343 bound_to 10162
  156.3328  130.3803  149.7476 LP  0  0  0  0  0  0  0  0  0  0  0  0  # atno 17370 bound_to 10713
  156.5011  130.8129  151.3132 LP  0  0  0  0  0  0  0  0  0  0  0  0  # atno 17371 bound_to 10713
  141.1946  133.8124  157.0749 LP  0  0  0  0  0  0  0  0  0  0  0  0  # atno 17394 bound_to 11000
  140.0532  134.9794  157.1174 LP  0  0  0  0  0  0  0  0  0  0  0  0  # atno 17395 bound_to 11000

$$$$
