AV-unprocessed.smi:65|AV-procd|sdf|614|dock4
  -GOLD-   2262016503D 1   1.00000     0.00000
 Structure written by MMmdl.
 25 26  0  0  0  0  0  0  0  0  1 V2000
  142.5373  134.7324  154.8128 N   0  0  0  0  0  0  0  0  0  0  0  0
  143.2087  135.1919  153.7064 C   0  0  0  0  0  0  0  0  0  0  0  0
  143.2366  136.5144  153.5309 N   0  0  0  0  0  0  0  0  0  0  0  0
  143.8934  136.9671  152.4409 C   0  0  0  0  0  0  0  0  0  0  0  0
  144.5197  136.0892  151.5329 C   0  0  0  0  0  0  0  0  0  0  0  0
  144.4318  134.7117  151.8257 C   0  0  0  0  0  0  0  0  0  0  0  0
  145.0145  133.7803  150.9525 N   0  0  0  0  0  0  0  0  0  0  0  0
  144.0430  132.9575  150.2367 C   0  0  0  0  0  0  0  0  0  0  0  0
  144.4319  131.4995  150.4934 C   0  0  0  0  0  0  0  0  0  0  0  0
  145.9309  131.5954  150.7502 C   0  0  2  0  0  0  0  0  0  0  0  0
  146.4266  130.4982  151.4872 O   0  0  0  0  0  0  0  0  0  0  0  0
  146.0438  132.9112  151.5174 C   0  0  0  0  0  0  0  0  0  0  0  0
  143.7637  134.2686  152.9186 N   0  0  0  0  0  0  0  0  0  0  0  0
  142.4794  133.7422  155.0006 H   0  0  0  0  0  0  0  0  0  0  0  0
  142.0915  135.3806  155.4455 H   0  0  0  0  0  0  0  0  0  0  0  0
  143.9181  138.0361  152.2906 H   0  0  0  0  0  0  0  0  0  0  0  0
  145.0401  136.4556  150.6602 H   0  0  0  0  0  0  0  0  0  0  0  0
  143.0131  133.1525  150.5401 H   0  0  0  0  0  0  0  0  0  0  0  0
  144.1213  133.1880  149.1737 H   0  0  0  0  0  0  0  0  0  0  0  0
  143.9191  131.1390  151.3867 H   0  0  0  0  0  0  0  0  0  0  0  0
  144.1777  130.8370  149.6656 H   0  0  0  0  0  0  0  0  0  0  0  0
  146.4642  131.6708  149.8012 H   0  0  0  0  0  0  0  0  0  0  0  0
  147.3034  130.3082  151.1902 H   0  0  0  0  0  0  0  0  0  0  0  0
  147.0329  133.3550  151.4020 H   0  0  0  0  0  0  0  0  0  0  0  0
  145.8805  132.7408  152.5822 H   0  0  0  0  0  0  0  0  0  0  0  0
  1  2  1  0  0  0  0
  1 14  1  0  0  0  0
  1 15  1  0  0  0  0
  2 13  1  0  0  0  0
  2  3  2  0  0  0  0
  3  4  1  0  0  0  0
  4  5  2  0  0  0  0
  4 16  1  0  0  0  0
  5  6  1  0  0  0  0
  5 17  1  0  0  0  0
  6  7  1  0  0  0  0
  6 13  2  0  0  0  0
  7 12  1  0  0  0  0
  7  8  1  0  0  0  0
  8  9  1  0  0  0  0
  8 18  1  0  0  0  0
  8 19  1  0  0  0  0
  9 10  1  0  0  0  0
  9 20  1  0  0  0  0
  9 21  1  0  0  0  0
 10 11  1  0  0  0  0
 10 12  1  0  0  0  0
 10 22  1  0  0  0  0
 11 23  1  0  0  0  0
 12 24  1  0  0  0  0
 12 25  1  0  0  0  0
M  END
> <s_m_source_file>
AV-unprocessed.smi

> <i_m_source_file_index>
65

> <i_lp_mmshare_version>
43012

> <i_f3d_flags>
0

> <s_epik_input>
W05IMl1jMW5bY0hdW2NIXWMobjEpTjJbQ0gyXVtDSDJdW0NAQEhdKFtPSF0pW0NIMl0y

> <s_epik_cmdline>
J2VwaWtfcHl0aG9uJywgJy1waCcsICc3LjAnLCAnLXRuJywgJzgnLCAnLW1hJywgJzIwMCcsICctbWV0YWxfYmluZGluZycsICctaW1hZScsICc8aW5maWxlLm1hZT4nLCAnLW9tYWUnLCAnPG91dGZpbGUubWFlPic=

> <r_lp_tautomer_probability>
1

> <r_epik_Ionization_Penalty>
0.99295

> <r_epik_Ionization_Penalty_Charging>
0

> <r_epik_Ionization_Penalty_Neutral>
0.99295

> <r_epik_State_Penalty>
0.750885

> <r_epik_Charging_Adjusted_Penalty>
0.750885

> <i_epik_Tot_Q>
0

> <i_epik_Tot_abs_Q>
0

> <r_epik_Metal_State_Penalty>
0.338511

> <b_epik_Metal_Only>
0

> <s_lp_Force_Field>
OPLS_2005

> <r_lp_Energy>
21.5088

> <b_lp_Chiralities_Consistent>
1

> <s_lp_Variant>
AV-unprocessed.smi:65-4

> <Gold.Version>
5.8.1

> <Gold.Id.Protein>
6NUR|6NUR_protein|mol2

> <Gold.PLP.Fitness>
31.9268

> <Gold.PLP.PLP>
-21.1244

> <Gold.PLP.part.hbond>
-3.0000

> <Gold.PLP.part.metal>
0.0000

> <Gold.PLP.part.buried>
-1.2161

> <Gold.PLP.part.nonpolar>
-16.2844

> <Gold.PLP.part.repulsive>
0.3595

> <Gold.PLP.ligand.clash>
0.0000

> <Gold.PLP.ligand.torsion>
0.0592

> <Gold.PLP.Chemscore.Hbond>
2.0000

> <Gold.PLP.Chemscore.CHOScore>
1.6183

> <Gold.PLP.Chemscore.Metal>
0.0000

> <Gold.Chemscore.Hbonds>
donor molecule, donor type, donor heavy atom, donor atom, acceptor molecule, acceptor atom, score
      L1  H     1    14       P1 10957  1.00
      L1  H    11    23       P1 10747  1.00
      L1  C     4    16       P1 10171  0.62
      L1  C     4    16       P1 10175  1.00

> <Gold.PLP.Chemscore.Internal.Correction>
0.0659

> <Gold.Rescore>
     Score         DG    S(hbond)    S(metal)    S(lipo)     H(rot)  DE(clash)    DE(int)     intcor
     13.72     -13.93       2.00        0.00      49.04       1.55       0.18       0.03       ----

> <Gold.Chemscore.Fitness>
13.7213

> <Gold.Chemscore.DG>
-13.9305

> <Gold.Chemscore.ZeroCoef>
-5.4800

> <Gold.Chemscore.Hbond>
2.0000

> <Gold.Chemscore.Metal>
0.0000

> <Gold.Chemscore.Lipo>
49.0390

> <Gold.Chemscore.Internal_Hbond>
0.0000

> <Gold.Chemscore.DEClash>
0.1763

> <Gold.Chemscore.DEInternal>
0.0330

> <Gold.Chemscore.Rot>
1.5496

> <Gold.Chemscore.Internal.Correction>
   9.000000E+99

> <Gold.Chemscore.Hbonds>
donor molecule, donor type, donor heavy atom, donor atom, acceptor molecule, acceptor atom, score
      L1  H     1    14       P1 10957  0.97
      L1  H    11    23       P1 10747  0.95

> <Gold.Chemscore.Hbond.Weighted>
-6.6800

> <Gold.Chemscore.Metal.Weighted>
-0.0000

> <Gold.Chemscore.Lipo.Weighted>
-5.7376

> <Gold.Chemscore.Internal_Hbond.Weighted>
0.0000

> <Gold.Chemscore.DEClash.Weighted>
0.1763

> <Gold.Chemscore.DEInternal.Weighted>
0.0330

> <Gold.Chemscore.Rot.Weighted>
3.9670

> <Gold.Chemscore.Internal.Correction.Weighted>
   9.000000E+99

> <Gold.Protein.RotatedTorsions>
[ 6907 6896 6895 6894 ] final -110.88 input  -60.11 | X-H torsion
[ 7974 7965 7964 7962 ] final -139.75 input  175.53 | X-H torsion
[ 8008 7997 7996 7995 ] final -114.67 input   59.86 | X-H torsion
[ 10167 10162 10161 10158 ] final -101.34 input  -65.29 | X-H torsion
[ 10718 10713 10712 10709 ] final -110.19 input   66.30 | X-H torsion
[ 10763 10752 10751 10750 ] final  101.17 input  -60.55 | X-H torsion
[ 11005 11000 10999 10996 ] final  101.25 input  -57.11 | X-H torsion

> <Gold.Protein.ActiveResidues>
 VAL166  LYS551  ARG553  GLY616  TRP617  ASP618  TYR619  PRO620  LYS621  CYS622 
 ASP623  PHE694  ASN695  SER759  ASP760  ASP761  ALA762  ILE779  LEU786  VAL792 
 PHE793  MET794  SER795  GLU796  ALA797  LYS798  CYS799  TRP800  GLU811  SER814 

> <Gold.Protein.RotatedAtoms>
  150.7654  133.9316  159.3428 H   0  0  0  0  0  0  0  0  0  0  0  0  # atno 6907 bound_to 6896
  151.7215  135.0891  160.0294 H   0  0  0  0  0  0  0  0  0  0  0  0  # atno 6908 bound_to 6896
  152.3647  133.6303  159.6077 H   0  0  0  0  0  0  0  0  0  0  0  0  # atno 6909 bound_to 6896
  144.8652  140.6282  143.5302 H   0  0  0  0  0  0  0  0  0  0  0  0  # atno 7974 bound_to 7965
  155.0399  140.0392  157.2505 H   0  0  0  0  0  0  0  0  0  0  0  0  # atno 8008 bound_to 7997
  154.7225  140.2714  155.6505 H   0  0  0  0  0  0  0  0  0  0  0  0  # atno 8009 bound_to 7997
  156.2820  140.2700  156.1901 H   0  0  0  0  0  0  0  0  0  0  0  0  # atno 8010 bound_to 7997
  140.2423  143.3530  152.0790 H   0  0  0  0  0  0  0  0  0  0  0  0  # atno 10167 bound_to 10162
  156.0577  130.5802  150.8203 H   0  0  0  0  0  0  0  0  0  0  0  0  # atno 10718 bound_to 10713
  153.3232  135.4054  155.1434 H   0  0  0  0  0  0  0  0  0  0  0  0  # atno 10763 bound_to 10752
  154.8605  135.3592  154.5568 H   0  0  0  0  0  0  0  0  0  0  0  0  # atno 10764 bound_to 10752
  153.6003  135.7071  153.5446 H   0  0  0  0  0  0  0  0  0  0  0  0  # atno 10765 bound_to 10752
  139.8773  134.9175  156.4879 H   0  0  0  0  0  0  0  0  0  0  0  0  # atno 11005 bound_to 11000
  145.4235  139.1560  143.4061 LP  0  0  0  0  0  0  0  0  0  0  0  0  # atno 17320 bound_to 7965
  146.2890  140.4347  142.8747 LP  0  0  0  0  0  0  0  0  0  0  0  0  # atno 17321 bound_to 7965
  139.5073  144.6830  151.5960 LP  0  0  0  0  0  0  0  0  0  0  0  0  # atno 17342 bound_to 10162
  140.6104  143.9446  150.6449 LP  0  0  0  0  0  0  0  0  0  0  0  0  # atno 17343 bound_to 10162
  157.5561  131.0945  150.9627 LP  0  0  0  0  0  0  0  0  0  0  0  0  # atno 17370 bound_to 10713
  156.9875  130.5550  149.5301 LP  0  0  0  0  0  0  0  0  0  0  0  0  # atno 17371 bound_to 10713
  140.8680  133.8010  155.9334 LP  0  0  0  0  0  0  0  0  0  0  0  0  # atno 17394 bound_to 11000
  140.8982  134.2411  157.5057 LP  0  0  0  0  0  0  0  0  0  0  0  0  # atno 17395 bound_to 11000

$$$$
