AV-unprocessed.smi:1824|AV-procd|sdf|7398|dock4
  -GOLD-   22720 9 63D 1   1.00000     0.00000
 Structure written by MMmdl.
 44 46  0  0  0  0  0  0  0  0  1 V2000
  146.0319  143.3918  158.8698 C   0  0  0  0  0  0  0  0  0  0  0  0
  145.8217  142.2350  157.8874 C   0  0  1  0  0  0  0  0  0  0  0  0
  146.8026  142.2953  156.7030 C   0  0  0  0  0  0  0  0  0  0  0  0
  146.6543  141.1518  155.8115 N   0  0  0  0  0  0  0  0  0  0  0  0
  147.5636  141.2583  154.6692 C   0  0  0  0  0  0  0  0  0  0  0  0
  149.0250  140.8463  154.9395 C   0  0  1  0  0  0  0  0  0  0  0  0
  149.7510  140.9211  153.7275 O   0  0  0  0  0  0  0  0  0  0  0  0
  149.6873  141.7666  155.9822 C   0  0  0  0  0  0  0  0  0  0  0  0
  150.5516  141.0387  156.8943 N   0  0  0  0  0  0  0  0  0  0  0  0
  150.8849  139.7350  156.8356 C   0  0  0  0  0  0  0  0  0  0  0  0
  151.6959  139.2704  157.7820 N   0  0  0  0  0  0  0  0  0  0  0  0
  151.9152  140.4050  158.5442 C   0  0  0  0  0  0  0  0  0  0  0  0
  152.6938  140.5920  159.7088 C   0  0  0  0  0  0  0  0  0  0  0  0
  152.7696  141.8598  160.3221 C   0  0  0  0  0  0  0  0  0  0  0  0
  153.5201  142.0216  161.4375 F   0  0  0  0  0  0  0  0  0  0  0  0
  152.0694  142.9585  159.7808 C   0  0  0  0  0  0  0  0  0  0  0  0
  152.1479  144.1722  160.3760 F   0  0  0  0  0  0  0  0  0  0  0  0
  151.2871  142.7964  158.6212 C   0  0  0  0  0  0  0  0  0  0  0  0
  151.2144  141.5297  158.0134 C   0  0  0  0  0  0  0  0  0  0  0  0
  146.8519  139.9240  156.5805 C   0  0  0  0  0  0  0  0  0  0  0  0
  145.9159  139.8283  157.8023 C   0  0  2  0  0  0  0  0  0  0  0  0
  144.4588  139.5083  157.4280 C   0  0  0  0  0  0  0  0  0  0  0  0
  146.0118  141.0120  158.5960 O   0  0  0  0  0  0  0  0  0  0  0  0
  145.8839  144.3544  158.3799 H   0  0  0  0  0  0  0  0  0  0  0  0
  147.0398  143.3784  159.2854 H   0  0  0  0  0  0  0  0  0  0  0  0
  145.3280  143.3301  159.7002 H   0  0  0  0  0  0  0  0  0  0  0  0
  144.7978  142.2830  157.5155 H   0  0  0  0  0  0  0  0  0  0  0  0
  146.6341  143.2191  156.1480 H   0  0  0  0  0  0  0  0  0  0  0  0
  147.8267  142.3401  157.0780 H   0  0  0  0  0  0  0  0  0  0  0  0
  147.1871  140.6422  153.8508 H   0  0  0  0  0  0  0  0  0  0  0  0
  147.5438  142.2836  154.2967 H   0  0  0  0  0  0  0  0  0  0  0  0
  149.0773  139.8224  155.3070 H   0  0  0  0  0  0  0  0  0  0  0  0
  149.4619  140.2232  153.1600 H   0  0  0  0  0  0  0  0  0  0  0  0
  150.2717  142.5459  155.4906 H   0  0  0  0  0  0  0  0  0  0  0  0
  148.9247  142.2750  156.5734 H   0  0  0  0  0  0  0  0  0  0  0  0
  150.5082  139.0898  156.0554 H   0  0  0  0  0  0  0  0  0  0  0  0
  153.2339  139.7585  160.1321 H   0  0  0  0  0  0  0  0  0  0  0  0
  150.7489  143.6347  158.2049 H   0  0  0  0  0  0  0  0  0  0  0  0
  146.6971  139.0459  155.9552 H   0  0  0  0  0  0  0  0  0  0  0  0
  147.8859  139.8768  156.9258 H   0  0  0  0  0  0  0  0  0  0  0  0
  146.2690  139.0101  158.4308 H   0  0  0  0  0  0  0  0  0  0  0  0
  144.3912  138.5431  156.9255 H   0  0  0  0  0  0  0  0  0  0  0  0
  144.0344  140.2542  156.7563 H   0  0  0  0  0  0  0  0  0  0  0  0
  143.8300  139.4621  158.3173 H   0  0  0  0  0  0  0  0  0  0  0  0
  1  2  1  0  0  0  0
  1 24  1  0  0  0  0
  1 25  1  0  0  0  0
  1 26  1  0  0  0  0
  2 23  1  0  0  0  0
  2  3  1  0  0  0  0
  2 27  1  0  0  0  0
  3  4  1  0  0  0  0
  3 28  1  0  0  0  0
  3 29  1  0  0  0  0
  4  5  1  0  0  0  0
  4 20  1  0  0  0  0
  5  6  1  0  0  0  0
  5 30  1  0  0  0  0
  5 31  1  0  0  0  0
  6  7  1  0  0  0  0
  6  8  1  0  0  0  0
  6 32  1  0  0  0  0
  7 33  1  0  0  0  0
  8  9  1  0  0  0  0
  8 34  1  0  0  0  0
  8 35  1  0  0  0  0
  9 19  1  0  0  0  0
  9 10  1  0  0  0  0
 10 11  2  0  0  0  0
 10 36  1  0  0  0  0
 11 12  1  0  0  0  0
 12 19  2  0  0  0  0
 12 13  1  0  0  0  0
 13 14  2  0  0  0  0
 13 37  1  0  0  0  0
 14 15  1  0  0  0  0
 14 16  1  0  0  0  0
 16 17  1  0  0  0  0
 16 18  2  0  0  0  0
 18 19  1  0  0  0  0
 18 38  1  0  0  0  0
 20 21  1  0  0  0  0
 20 39  1  0  0  0  0
 20 40  1  0  0  0  0
 21 22  1  0  0  0  0
 21 23  1  0  0  0  0
 21 41  1  0  0  0  0
 22 42  1  0  0  0  0
 22 43  1  0  0  0  0
 22 44  1  0  0  0  0
M  END
> <s_m_source_file>
AV-unprocessed.smi

> <i_m_source_file_index>
1824

> <i_lp_mmshare_version>
43012

> <i_f3d_flags>
0

> <s_epik_input>
W0NIM11bQ0BASF0xW0NIMl1OKFtDSDJdW0NASF0oTzEpW0NIM10pW0NIMl1bQ0BIXShbT0hdKVtDSDJdbihbY0hdbjIpYyhjMjMpW2NIXWMoRiljKEYpW2NIXTM=

> <s_epik_cmdline>
J2VwaWtfcHl0aG9uJywgJy1waCcsICc3LjAnLCAnLXRuJywgJzgnLCAnLW1hJywgJzIwMCcsICctbWV0YWxfYmluZGluZycsICctaW1hZScsICc8aW5maWxlLm1hZT4nLCAnLW9tYWUnLCAnPG91dGZpbGUubWFlPic=

> <r_epik_Ionization_Penalty>
0.273778

> <r_epik_Ionization_Penalty_Charging>
0

> <r_epik_Ionization_Penalty_Neutral>
0.273778

> <r_epik_State_Penalty>
0.246794

> <r_epik_Charging_Adjusted_Penalty>
0.246794

> <i_epik_Tot_Q>
0

> <i_epik_Tot_abs_Q>
0

> <r_epik_Metal_State_Penalty>
0.238234

> <b_epik_Metal_Only>
0

> <s_lp_Force_Field>
OPLS_2005

> <r_lp_Energy>
30.0542

> <b_lp_Chiralities_Consistent>
1

> <s_lp_Variant>
AV-unprocessed.smi:1824-6

> <Gold.Version>
5.8.1

> <Gold.Id.Protein>
6NUR|6NUR_protein|mol2

> <Gold.PLP.Fitness>
44.4424

> <Gold.PLP.PLP>
-39.1241

> <Gold.PLP.part.hbond>
-3.9717

> <Gold.PLP.part.metal>
0.0000

> <Gold.PLP.part.buried>
-4.1274

> <Gold.PLP.part.nonpolar>
-31.6434

> <Gold.PLP.part.repulsive>
0.0629

> <Gold.PLP.ligand.clash>
0.0000

> <Gold.PLP.ligand.torsion>
0.7509

> <Gold.PLP.Chemscore.Hbond>
2.2522

> <Gold.PLP.Chemscore.CHOScore>
0.0000

> <Gold.PLP.Chemscore.Metal>
0.0000

> <Gold.Chemscore.Hbonds>
donor molecule, donor type, donor heavy atom, donor atom, acceptor molecule, acceptor atom, score
      L1  H     7    33       P1  7957  0.59
      P1  H  6934  6946       L1    23  0.20
      P1  H  7989  7998       L1     7  0.38
      P1  H  8011  8017       L1     7  0.86

> <Gold.PLP.Chemscore.Internal.Correction>
0.0634

> <Gold.Rescore>
     Score         DG    S(hbond)    S(metal)    S(lipo)     H(rot)  DE(clash)    DE(int)     intcor
     12.23     -14.04       1.57        0.00      77.86       2.26       0.16       1.65       ----

> <Gold.Chemscore.Fitness>
12.2327

> <Gold.Chemscore.DG>
-14.0360

> <Gold.Chemscore.ZeroCoef>
-5.4800

> <Gold.Chemscore.Hbond>
1.5678

> <Gold.Chemscore.Metal>
0.0000

> <Gold.Chemscore.Lipo>
77.8618

> <Gold.Chemscore.Internal_Hbond>
0.0000

> <Gold.Chemscore.DEClash>
0.1573

> <Gold.Chemscore.DEInternal>
1.6460

> <Gold.Chemscore.Rot>
2.2619

> <Gold.Chemscore.Internal.Correction>
   9.000000E+99

> <Gold.Chemscore.Hbonds>
donor molecule, donor type, donor heavy atom, donor atom, acceptor molecule, acceptor atom, score
      L1  H     7    33       P1  7957  0.57
      P1  H  6934  6946       L1    23  0.19
      P1  H  7989  7998       L1     7  0.13
      P1  H  8011  8017       L1     7  0.15

> <Gold.Chemscore.Hbond.Weighted>
-5.2366

> <Gold.Chemscore.Metal.Weighted>
-0.0000

> <Gold.Chemscore.Lipo.Weighted>
-9.1098

> <Gold.Chemscore.Internal_Hbond.Weighted>
0.0000

> <Gold.Chemscore.DEClash.Weighted>
0.1573

> <Gold.Chemscore.DEInternal.Weighted>
1.6460

> <Gold.Chemscore.Rot.Weighted>
5.7904

> <Gold.Chemscore.Internal.Correction.Weighted>
   9.000000E+99

> <Gold.Protein.RotatedTorsions>
[ 6907 6896 6895 6894 ] final   34.86 input  -60.11 | X-H torsion
[ 7974 7965 7964 7962 ] final -138.22 input  175.53 | X-H torsion
[ 8008 7997 7996 7995 ] final   33.96 input   59.86 | X-H torsion
[ 10167 10162 10161 10158 ] final    8.91 input  -65.29 | X-H torsion
[ 10718 10713 10712 10709 ] final  -53.98 input   66.30 | X-H torsion
[ 10763 10752 10751 10750 ] final   79.72 input  -60.55 | X-H torsion
[ 11005 11000 10999 10996 ] final -172.39 input  -57.11 | X-H torsion

> <Gold.Protein.ActiveResidues>
 VAL166  LYS551  ARG553  GLY616  TRP617  ASP618  TYR619  PRO620  LYS621  CYS622 
 ASP623  PHE694  ASN695  SER759  ASP760  ASP761  ALA762  ILE779  LEU786  VAL792 
 PHE793  MET794  SER795  GLU796  ALA797  LYS798  CYS799  TRP800  GLU811  SER814 

> <Gold.Protein.RotatedAtoms>
  152.1083  134.9293  160.0567 H   0  0  0  0  0  0  0  0  0  0  0  0  # atno 6907 bound_to 6896
  152.0480  133.4002  159.4373 H   0  0  0  0  0  0  0  0  0  0  0  0  # atno 6908 bound_to 6896
  150.6842  134.3260  159.4850 H   0  0  0  0  0  0  0  0  0  0  0  0  # atno 6909 bound_to 6896
  144.8777  140.6461  143.5226 H   0  0  0  0  0  0  0  0  0  0  0  0  # atno 7974 bound_to 7965
  155.1470  140.3271  155.4439 H   0  0  0  0  0  0  0  0  0  0  0  0  # atno 8008 bound_to 7997
  156.2586  140.1983  156.6533 H   0  0  0  0  0  0  0  0  0  0  0  0  # atno 8009 bound_to 7997
  154.6501  140.0559  156.9932 H   0  0  0  0  0  0  0  0  0  0  0  0  # atno 8010 bound_to 7997
  140.6286  143.8044  150.7266 H   0  0  0  0  0  0  0  0  0  0  0  0  # atno 10167 bound_to 10162
  156.1489  130.4152  149.9977 H   0  0  0  0  0  0  0  0  0  0  0  0  # atno 10718 bound_to 10713
  153.0976  135.4829  154.8806 H   0  0  0  0  0  0  0  0  0  0  0  0  # atno 10763 bound_to 10752
  154.7342  135.3067  154.8843 H   0  0  0  0  0  0  0  0  0  0  0  0  # atno 10764 bound_to 10752
  153.9470  135.6827  153.4797 H   0  0  0  0  0  0  0  0  0  0  0  0  # atno 10765 bound_to 10752
  140.4975  134.5925  157.4976 H   0  0  0  0  0  0  0  0  0  0  0  0  # atno 11005 bound_to 11000
  145.4012  139.1597  143.4176 LP  0  0  0  0  0  0  0  0  0  0  0  0  # atno 17320 bound_to 7965
  146.2973  140.4109  142.8717 LP  0  0  0  0  0  0  0  0  0  0  0  0  # atno 17321 bound_to 7965
  140.1651  143.4242  152.2040 LP  0  0  0  0  0  0  0  0  0  0  0  0  # atno 17342 bound_to 10162
  139.5503  144.7332  151.4455 LP  0  0  0  0  0  0  0  0  0  0  0  0  # atno 17343 bound_to 10162
  156.7841  130.9232  151.3646 LP  0  0  0  0  0  0  0  0  0  0  0  0  # atno 17370 bound_to 10713
  157.6640  130.8991  149.9892 LP  0  0  0  0  0  0  0  0  0  0  0  0  # atno 17371 bound_to 10713
  139.9733  134.7257  155.9999 LP  0  0  0  0  0  0  0  0  0  0  0  0  # atno 17394 bound_to 11000
  141.1452  133.6557  156.3848 LP  0  0  0  0  0  0  0  0  0  0  0  0  # atno 17395 bound_to 11000

$$$$
