AV-unprocessed.smi:1130|AV-procd|sdf|4848|dock8
  -GOLD-   22720 3413D 1   1.00000     0.00000
 Structure written by MMmdl.
 36 37  0  0  0  0  0  0  0  0  1 V2000
  144.5294  145.1804  153.4582 C   0  0  0  0  0  0  0  0  0  0  0  0
  144.9130  143.8802  154.0782 C   0  0  0  0  0  0  0  0  0  0  0  0
  144.3155  143.4374  155.1778 N   0  0  0  0  0  0  0  0  0  0  0  0
  144.9527  142.2120  155.4209 O   0  0  0  0  0  0  0  0  0  0  0  0
  145.8781  142.0760  154.4408 C   0  0  0  0  0  0  0  0  0  0  0  0
  146.7002  140.8320  154.3911 C   0  0  0  0  0  0  0  0  0  0  0  0
  148.1469  141.1065  153.9514 C   0  0  0  0  0  0  0  0  0  0  0  0
  148.8371  141.9891  154.8847 N   0  0  0  0  0  0  0  0  0  0  0  0
  150.0187  141.7260  155.4594 C   0  0  0  0  0  0  0  0  0  0  0  0
  150.6617  140.6926  155.2738 O   0  0  0  0  0  0  0  0  0  0  0  0
  150.4143  142.7238  156.2611 N   0  0  0  0  0  0  0  0  0  0  0  0
  151.6568  142.7394  157.0249 C   0  0  0  0  0  0  0  0  0  0  0  0
  151.4354  143.1731  158.4843 C   0  0  2  0  0  0  0  0  0  0  0  0
  151.2065  144.6744  158.6818 C   0  0  0  0  0  0  0  0  0  0  0  0
  151.8005  144.9633  160.0540 C   0  0  0  0  0  0  0  0  0  0  0  0
  152.4522  143.6429  160.4687 C   0  0  0  0  0  0  0  0  0  0  0  0
  152.6005  142.9246  159.2542 O   0  0  0  0  0  0  0  0  0  0  0  0
  145.8865  143.0785  153.5655 N   0  0  0  0  0  0  0  0  0  0  0  0
  143.5003  145.4404  153.7089 H   0  0  0  0  0  0  0  0  0  0  0  0
  144.6135  145.1241  152.3726 H   0  0  0  0  0  0  0  0  0  0  0  0
  145.1848  145.9745  153.8164 H   0  0  0  0  0  0  0  0  0  0  0  0
  146.6883  140.3680  155.3782 H   0  0  0  0  0  0  0  0  0  0  0  0
  146.2210  140.1286  153.7091 H   0  0  0  0  0  0  0  0  0  0  0  0
  148.6981  140.1707  153.8430 H   0  0  0  0  0  0  0  0  0  0  0  0
  148.1516  141.5844  152.9713 H   0  0  0  0  0  0  0  0  0  0  0  0
  148.3866  142.8664  155.1010 H   0  0  0  0  0  0  0  0  0  0  0  0
  149.8162  143.5324  156.3486 H   0  0  0  0  0  0  0  0  0  0  0  0
  152.1289  141.7564  156.9908 H   0  0  0  0  0  0  0  0  0  0  0  0
  152.3451  143.4280  156.5339 H   0  0  0  0  0  0  0  0  0  0  0  0
  150.6087  142.6129  158.9256 H   0  0  0  0  0  0  0  0  0  0  0  0
  151.7417  145.2483  157.9241 H   0  0  0  0  0  0  0  0  0  0  0  0
  150.1507  144.9383  158.6164 H   0  0  0  0  0  0  0  0  0  0  0  0
  152.5436  145.7582  159.9824 H   0  0  0  0  0  0  0  0  0  0  0  0
  151.0442  145.2751  160.7751 H   0  0  0  0  0  0  0  0  0  0  0  0
  153.4104  143.7844  160.9692 H   0  0  0  0  0  0  0  0  0  0  0  0
  151.7970  143.0833  161.1382 H   0  0  0  0  0  0  0  0  0  0  0  0
  1  2  1  0  0  0  0
  1 19  1  0  0  0  0
  1 20  1  0  0  0  0
  1 21  1  0  0  0  0
  2 18  1  0  0  0  0
  2  3  2  0  0  0  0
  3  4  1  0  0  0  0
  4  5  1  0  0  0  0
  5  6  1  0  0  0  0
  5 18  2  0  0  0  0
  6  7  1  0  0  0  0
  6 22  1  0  0  0  0
  6 23  1  0  0  0  0
  7  8  1  0  0  0  0
  7 24  1  0  0  0  0
  7 25  1  0  0  0  0
  8  9  1  0  0  0  0
  8 26  1  0  0  0  0
  9 10  2  0  0  0  0
  9 11  1  0  0  0  0
 11 12  1  0  0  0  0
 11 27  1  0  0  0  0
 12 13  1  0  0  0  0
 12 28  1  0  0  0  0
 12 29  1  0  0  0  0
 13 17  1  0  0  0  0
 13 14  1  0  0  0  0
 13 30  1  0  0  0  0
 14 15  1  0  0  0  0
 14 31  1  0  0  0  0
 14 32  1  0  0  0  0
 15 16  1  0  0  0  0
 15 33  1  0  0  0  0
 15 34  1  0  0  0  0
 16 17  1  0  0  0  0
 16 35  1  0  0  0  0
 16 36  1  0  0  0  0
M  END
> <s_m_source_file>
AV-unprocessed.smi

> <i_m_source_file_index>
1130

> <i_lp_mmshare_version>
43012

> <i_f3d_flags>
0

> <s_epik_input>
W0NIM11jMW5vYyhuMSlbQ0gyXVtDSDJdW05IXUMoPU8pW05IXVtDSDJdW0NAQEhdMltDSDJdW0NIMl1bQ0gyXU8y

> <s_epik_cmdline>
J2VwaWtfcHl0aG9uJywgJy1waCcsICc3LjAnLCAnLXRuJywgJzgnLCAnLW1hJywgJzIwMCcsICctbWV0YWxfYmluZGluZycsICctaW1hZScsICc8aW5maWxlLm1hZT4nLCAnLW9tYWUnLCAnPG91dGZpbGUubWFlPic=

> <r_lp_tautomer_probability>
1

> <r_epik_Ionization_Penalty>
4.67036e-05

> <r_epik_Ionization_Penalty_Charging>
0

> <r_epik_Ionization_Penalty_Neutral>
4.67036e-05

> <r_epik_State_Penalty>
-0

> <r_epik_Charging_Adjusted_Penalty>
0

> <i_epik_Tot_Q>
0

> <i_epik_Tot_abs_Q>
0

> <r_epik_Metal_State_Penalty>
-0

> <b_epik_Metal_Only>
0

> <s_lp_Force_Field>
OPLS_2005

> <r_lp_Energy>
8.95109

> <b_lp_Chiralities_Consistent>
1

> <s_lp_Variant>
AV-unprocessed.smi:1130-1

> <Gold.Version>
5.8.1

> <Gold.Id.Protein>
6NUR|6NUR_protein|mol2

> <Gold.PLP.Fitness>
43.2516

> <Gold.PLP.PLP>
-36.0923

> <Gold.PLP.part.hbond>
-3.0000

> <Gold.PLP.part.metal>
0.0000

> <Gold.PLP.part.buried>
-7.4386

> <Gold.PLP.part.nonpolar>
-26.6083

> <Gold.PLP.part.repulsive>
0.8962

> <Gold.PLP.ligand.clash>
0.0000

> <Gold.PLP.ligand.torsion>
0.4922

> <Gold.PLP.Chemscore.Hbond>
2.7070

> <Gold.PLP.Chemscore.CHOScore>
0.0000

> <Gold.PLP.Chemscore.Metal>
0.0000

> <Gold.Chemscore.Hbonds>
donor molecule, donor type, donor heavy atom, donor atom, acceptor molecule, acceptor atom, score
      L1  H     8    26       P1  8028  0.80
      L1  H    11    27       P1  8028  1.00
      P1  H  7989  7998       L1    10  0.90

> <Gold.PLP.Chemscore.Internal.Correction>
0.0226

> <Gold.Rescore>
     Score         DG    S(hbond)    S(metal)    S(lipo)     H(rot)  DE(clash)    DE(int)     intcor
     14.73     -16.65       2.36        0.00      79.09       2.33       1.48       0.45       ----

> <Gold.Chemscore.Fitness>
14.7252

> <Gold.Chemscore.DG>
-16.6518

> <Gold.Chemscore.ZeroCoef>
-5.4800

> <Gold.Chemscore.Hbond>
2.3592

> <Gold.Chemscore.Metal>
0.0000

> <Gold.Chemscore.Lipo>
79.0916

> <Gold.Chemscore.Internal_Hbond>
0.0000

> <Gold.Chemscore.DEClash>
1.4799

> <Gold.Chemscore.DEInternal>
0.4468

> <Gold.Chemscore.Rot>
2.3288

> <Gold.Chemscore.Internal.Correction>
   9.000000E+99

> <Gold.Chemscore.Hbonds>
donor molecule, donor type, donor heavy atom, donor atom, acceptor molecule, acceptor atom, score
      L1  H     8    26       P1  8028  0.78
      L1  H    11    27       P1  8028  0.95
      P1  H  7989  7998       L1    10  0.49

> <Gold.Chemscore.Hbond.Weighted>
-7.8798

> <Gold.Chemscore.Metal.Weighted>
-0.0000

> <Gold.Chemscore.Lipo.Weighted>
-9.2537

> <Gold.Chemscore.Internal_Hbond.Weighted>
0.0000

> <Gold.Chemscore.DEClash.Weighted>
1.4799

> <Gold.Chemscore.DEInternal.Weighted>
0.4468

> <Gold.Chemscore.Rot.Weighted>
5.9617

> <Gold.Chemscore.Internal.Correction.Weighted>
   9.000000E+99

> <Gold.Protein.RotatedTorsions>
[ 6907 6896 6895 6894 ] final -176.04 input  -60.11 | X-H torsion
[ 7974 7965 7964 7962 ] final  116.03 input  175.53 | X-H torsion
[ 8008 7997 7996 7995 ] final  136.99 input   59.86 | X-H torsion
[ 10167 10162 10161 10158 ] final  -98.93 input  -65.29 | X-H torsion
[ 10718 10713 10712 10709 ] final  174.72 input   66.30 | X-H torsion
[ 10763 10752 10751 10750 ] final   46.84 input  -60.55 | X-H torsion
[ 11005 11000 10999 10996 ] final  168.79 input  -57.11 | X-H torsion

> <Gold.Protein.ActiveResidues>
 VAL166  LYS551  ARG553  GLY616  TRP617  ASP618  TYR619  PRO620  LYS621  CYS622 
 ASP623  PHE694  ASN695  SER759  ASP760  ASP761  ALA762  ILE779  LEU786  VAL792 
 PHE793  MET794  SER795  GLU796  ALA797  LYS798  CYS799  TRP800  GLU811  SER814 

> <Gold.Protein.RotatedAtoms>
  151.5984  133.3359  159.3041 H   0  0  0  0  0  0  0  0  0  0  0  0  # atno 6907 bound_to 6896
  150.8221  134.7438  159.6793 H   0  0  0  0  0  0  0  0  0  0  0  0  # atno 6908 bound_to 6896
  152.4314  134.5776  159.9990 H   0  0  0  0  0  0  0  0  0  0  0  0  # atno 6909 bound_to 6896
  145.1846  139.3031  143.4400 H   0  0  0  0  0  0  0  0  0  0  0  0  # atno 7974 bound_to 7965
  156.3003  140.2431  156.3836 H   0  0  0  0  0  0  0  0  0  0  0  0  # atno 8008 bound_to 7997
  154.8679  140.0417  157.1726 H   0  0  0  0  0  0  0  0  0  0  0  0  # atno 8009 bound_to 7997
  154.8827  140.2951  155.5420 H   0  0  0  0  0  0  0  0  0  0  0  0  # atno 8010 bound_to 7997
  140.2678  143.3364  152.0564 H   0  0  0  0  0  0  0  0  0  0  0  0  # atno 10167 bound_to 10162
  156.9455  131.0014  151.2959 H   0  0  0  0  0  0  0  0  0  0  0  0  # atno 10718 bound_to 10713
  152.9806  135.5995  154.3665 H   0  0  0  0  0  0  0  0  0  0  0  0  # atno 10763 bound_to 10752
  154.3342  135.2768  155.2458 H   0  0  0  0  0  0  0  0  0  0  0  0  # atno 10764 bound_to 10752
  154.4568  135.5976  153.6284 H   0  0  0  0  0  0  0  0  0  0  0  0  # atno 10765 bound_to 10752
  140.2909  134.7674  157.3838 H   0  0  0  0  0  0  0  0  0  0  0  0  # atno 11005 bound_to 11000
  146.3447  140.2038  142.8589 LP  0  0  0  0  0  0  0  0  0  0  0  0  # atno 17320 bound_to 7965
  145.0101  140.8707  143.5229 LP  0  0  0  0  0  0  0  0  0  0  0  0  # atno 17321 bound_to 7965
  139.4997  144.6676  151.6319 LP  0  0  0  0  0  0  0  0  0  0  0  0  # atno 17342 bound_to 10162
  140.5914  143.9773  150.6327 LP  0  0  0  0  0  0  0  0  0  0  0  0  # atno 17343 bound_to 10162
  157.5757  130.8341  149.8452 LP  0  0  0  0  0  0  0  0  0  0  0  0  # atno 17370 bound_to 10713
  156.0385  130.3745  150.1496 LP  0  0  0  0  0  0  0  0  0  0  0  0  # atno 17371 bound_to 10713
  140.1196  134.5237  155.8195 LP  0  0  0  0  0  0  0  0  0  0  0  0  # atno 17394 bound_to 11000
  141.2146  133.6752  156.6841 LP  0  0  0  0  0  0  0  0  0  0  0  0  # atno 17395 bound_to 11000

$$$$
