AV-unprocessed.smi:1294|AV-procd|sdf|5400|dock3
  -GOLD-   22720 4563D 1   1.00000     0.00000
 Structure written by MMmdl.
 45 46  0  0  0  0  0  0  0  0  1 V2000
  147.1357  139.1187  153.3450 C   0  0  0  0  0  0  0  0  0  0  0  0
  146.2906  139.8506  154.3479 C   0  0  0  0  0  0  0  0  0  0  0  0
  145.3116  139.2091  154.9644 N   0  0  0  0  0  0  0  0  0  0  0  0
  144.7624  140.1267  155.7853 N   0  0  0  0  0  0  0  0  0  0  0  0
  143.6451  139.7487  156.6286 C   0  0  0  0  0  0  0  0  0  0  0  0
  145.3951  141.3507  155.6862 C   0  0  0  0  0  0  0  0  0  0  0  0
  144.9757  142.5331  156.4984 C   0  0  0  0  0  0  0  0  0  0  0  0
  146.3929  141.2121  154.7586 C   0  0  0  0  0  0  0  0  0  0  0  0
  147.3810  142.2435  154.2747 C   0  0  0  0  0  0  0  0  0  0  0  0
  148.8095  141.7263  154.4567 C   0  0  0  0  0  0  0  0  0  0  0  0
  149.3339  141.0403  153.5789 O   0  0  0  0  0  0  0  0  0  0  0  0
  149.4236  142.0603  155.6026 N   0  0  0  0  0  0  0  0  0  0  0  0
  150.7736  141.6647  155.9924 C   0  0  0  0  0  0  0  0  0  0  0  0
  151.0838  142.0363  157.4514 C   0  0  0  0  0  0  0  0  0  0  0  0
  151.3033  143.8242  157.6847 S   0  0  0  0  0  0  0  0  0  0  0  0
  152.2731  143.8404  159.2193 C   0  0  0  0  0  0  0  0  0  0  0  0
  152.3547  142.4608  159.8707 C   0  0  0  0  0  0  0  0  0  0  0  0
  152.7338  142.7470  161.3257 C   0  0  0  0  0  0  0  0  0  0  0  0
  152.1926  144.1508  161.6377 C   0  0  0  0  0  0  0  0  0  0  0  0
  151.6594  144.7168  160.3144 C   0  0  0  0  0  0  0  0  0  0  0  0
  148.1965  139.2774  153.5403 H   0  0  0  0  0  0  0  0  0  0  0  0
  146.9285  139.4680  152.3335 H   0  0  0  0  0  0  0  0  0  0  0  0
  146.9537  138.0437  153.3692 H   0  0  0  0  0  0  0  0  0  0  0  0
  142.8222  140.4494  156.4852 H   0  0  0  0  0  0  0  0  0  0  0  0
  143.9537  139.7694  157.6739 H   0  0  0  0  0  0  0  0  0  0  0  0
  143.2984  138.7442  156.3822 H   0  0  0  0  0  0  0  0  0  0  0  0
  145.6888  143.3516  156.4027 H   0  0  0  0  0  0  0  0  0  0  0  0
  144.9080  142.2749  157.5553 H   0  0  0  0  0  0  0  0  0  0  0  0
  144.0008  142.8975  156.1747 H   0  0  0  0  0  0  0  0  0  0  0  0
  147.2327  142.4721  153.2190 H   0  0  0  0  0  0  0  0  0  0  0  0
  147.2537  143.1877  154.8062 H   0  0  0  0  0  0  0  0  0  0  0  0
  148.9114  142.6300  156.2605 H   0  0  0  0  0  0  0  0  0  0  0  0
  150.8353  140.5823  155.8800 H   0  0  0  0  0  0  0  0  0  0  0  0
  151.5260  142.0814  155.3206 H   0  0  0  0  0  0  0  0  0  0  0  0
  150.2933  141.6790  158.1125 H   0  0  0  0  0  0  0  0  0  0  0  0
  152.0030  141.5394  157.7610 H   0  0  0  0  0  0  0  0  0  0  0  0
  153.2835  144.1870  158.9977 H   0  0  0  0  0  0  0  0  0  0  0  0
  151.3780  141.9751  159.8394 H   0  0  0  0  0  0  0  0  0  0  0  0
  153.0686  141.8028  159.3741 H   0  0  0  0  0  0  0  0  0  0  0  0
  152.3378  141.9908  162.0040 H   0  0  0  0  0  0  0  0  0  0  0  0
  153.8195  142.7430  161.4301 H   0  0  0  0  0  0  0  0  0  0  0  0
  151.4038  144.1179  162.3902 H   0  0  0  0  0  0  0  0  0  0  0  0
  152.9916  144.7803  162.0314 H   0  0  0  0  0  0  0  0  0  0  0  0
  151.9036  145.7721  160.1896 H   0  0  0  0  0  0  0  0  0  0  0  0
  150.5723  144.6266  160.2967 H   0  0  0  0  0  0  0  0  0  0  0  0
  1  2  1  0  0  0  0
  1 21  1  0  0  0  0
  1 22  1  0  0  0  0
  1 23  1  0  0  0  0
  2  8  1  0  0  0  0
  2  3  2  0  0  0  0
  3  4  1  0  0  0  0
  4  5  1  0  0  0  0
  4  6  1  0  0  0  0
  5 24  1  0  0  0  0
  5 25  1  0  0  0  0
  5 26  1  0  0  0  0
  6  7  1  0  0  0  0
  6  8  2  0  0  0  0
  7 27  1  0  0  0  0
  7 28  1  0  0  0  0
  7 29  1  0  0  0  0
  8  9  1  0  0  0  0
  9 10  1  0  0  0  0
  9 30  1  0  0  0  0
  9 31  1  0  0  0  0
 10 11  2  0  0  0  0
 10 12  1  0  0  0  0
 12 13  1  0  0  0  0
 12 32  1  0  0  0  0
 13 14  1  0  0  0  0
 13 33  1  0  0  0  0
 13 34  1  0  0  0  0
 14 15  1  0  0  0  0
 14 35  1  0  0  0  0
 14 36  1  0  0  0  0
 15 16  1  0  0  0  0
 16 20  1  0  0  0  0
 16 17  1  0  0  0  0
 16 37  1  0  0  0  0
 17 18  1  0  0  0  0
 17 38  1  0  0  0  0
 17 39  1  0  0  0  0
 18 19  1  0  0  0  0
 18 40  1  0  0  0  0
 18 41  1  0  0  0  0
 19 20  1  0  0  0  0
 19 42  1  0  0  0  0
 19 43  1  0  0  0  0
 20 44  1  0  0  0  0
 20 45  1  0  0  0  0
M  END
> <s_m_source_file>
AV-unprocessed.smi

> <i_m_source_file_index>
1294

> <i_lp_mmshare_version>
43012

> <i_f3d_flags>
0

> <s_epik_input>
W0NIM11jMW5uKFtDSDNdKWMoW0NIM10pYzFbQ0gyXUMoPU8pW05IXVtDSDJdW0NIMl1TW0NIXTJbQ0gyXVtDSDJdW0NIMl1bQ0gyXTI=

> <s_epik_cmdline>
J2VwaWtfcHl0aG9uJywgJy1waCcsICc3LjAnLCAnLXRuJywgJzgnLCAnLW1hJywgJzIwMCcsICctbWV0YWxfYmluZGluZycsICctaW1hZScsICc8aW5maWxlLm1hZT4nLCAnLW9tYWUnLCAnPG91dGZpbGUubWFlPic=

> <r_lp_tautomer_probability>
1

> <r_epik_Ionization_Penalty>
0.00302432

> <r_epik_Ionization_Penalty_Charging>
0

> <r_epik_Ionization_Penalty_Neutral>
0.00302432

> <r_epik_State_Penalty>
0.0021246

> <r_epik_Charging_Adjusted_Penalty>
0.0021246

> <i_epik_Tot_Q>
0

> <i_epik_Tot_abs_Q>
0

> <r_epik_Metal_State_Penalty>
-0

> <b_epik_Metal_Only>
0

> <s_lp_Force_Field>
OPLS_2005

> <r_lp_Energy>
15.1488

> <b_lp_Chiralities_Consistent>
1

> <s_lp_Variant>
AV-unprocessed.smi:1294-1

> <Gold.Version>
5.8.1

> <Gold.Id.Protein>
6NUR|6NUR_protein|mol2

> <Gold.PLP.Fitness>
42.2917

> <Gold.PLP.PLP>
-40.9559

> <Gold.PLP.part.hbond>
-3.0000

> <Gold.PLP.part.metal>
0.0000

> <Gold.PLP.part.buried>
-3.1706

> <Gold.PLP.part.nonpolar>
-38.3707

> <Gold.PLP.part.repulsive>
3.8287

> <Gold.PLP.ligand.clash>
0.0000

> <Gold.PLP.ligand.torsion>
1.2905

> <Gold.PLP.Chemscore.Hbond>
1.2870

> <Gold.PLP.Chemscore.CHOScore>
0.0000

> <Gold.PLP.Chemscore.Metal>
0.0000

> <Gold.Chemscore.Hbonds>
donor molecule, donor type, donor heavy atom, donor atom, acceptor molecule, acceptor atom, score
      L1  H    12    32       P1  8028  0.16
      P1  H  7989  7998       L1    11  0.11
      P1  H  8011  8017       L1    11  1.00

> <Gold.PLP.Chemscore.Internal.Correction>
0.0556

> <Gold.Rescore>
     Score         DG    S(hbond)    S(metal)    S(lipo)     H(rot)  DE(clash)    DE(int)     intcor
     13.57     -17.02       0.73        0.00     112.13       1.58       2.20       1.25       ----

> <Gold.Chemscore.Fitness>
13.5677

> <Gold.Chemscore.DG>
-17.0151

> <Gold.Chemscore.ZeroCoef>
-5.4800

> <Gold.Chemscore.Hbond>
0.7350

> <Gold.Chemscore.Metal>
0.0000

> <Gold.Chemscore.Lipo>
112.1279

> <Gold.Chemscore.Internal_Hbond>
0.0000

> <Gold.Chemscore.DEClash>
2.1985

> <Gold.Chemscore.DEInternal>
1.2489

> <Gold.Chemscore.Rot>
1.5776

> <Gold.Chemscore.Internal.Correction>
   9.000000E+99

> <Gold.Chemscore.Hbonds>
donor molecule, donor type, donor heavy atom, donor atom, acceptor molecule, acceptor atom, score
      L1  H    12    32       P1  8028  0.16
      P1  H  7989  7998       L1    11  0.11
      P1  H  8011  8017       L1    11  0.25

> <Gold.Chemscore.Hbond.Weighted>
-2.4548

> <Gold.Chemscore.Metal.Weighted>
-0.0000

> <Gold.Chemscore.Lipo.Weighted>
-13.1190

> <Gold.Chemscore.Internal_Hbond.Weighted>
0.0000

> <Gold.Chemscore.DEClash.Weighted>
2.1985

> <Gold.Chemscore.DEInternal.Weighted>
1.2489

> <Gold.Chemscore.Rot.Weighted>
4.0387

> <Gold.Chemscore.Internal.Correction.Weighted>
   9.000000E+99

> <Gold.Protein.RotatedTorsions>
[ 6907 6896 6895 6894 ] final  -97.09 input  -60.11 | X-H torsion
[ 7974 7965 7964 7962 ] final  130.22 input  175.53 | X-H torsion
[ 8008 7997 7996 7995 ] final  110.14 input   59.86 | X-H torsion
[ 10167 10162 10161 10158 ] final   77.71 input  -65.29 | X-H torsion
[ 10718 10713 10712 10709 ] final  -86.63 input   66.30 | X-H torsion
[ 10763 10752 10751 10750 ] final  121.67 input  -60.55 | X-H torsion
[ 11005 11000 10999 10996 ] final  -35.80 input  -57.11 | X-H torsion

> <Gold.Protein.ActiveResidues>
 VAL166  LYS551  ARG553  GLY616  TRP617  ASP618  TYR619  PRO620  LYS621  CYS622 
 ASP623  PHE694  ASN695  SER759  ASP760  ASP761  ALA762  ILE779  LEU786  VAL792 
 PHE793  MET794  SER795  GLU796  ALA797  LYS798  CYS799  TRP800  GLU811  SER814 

> <Gold.Protein.RotatedAtoms>
  150.7006  134.1402  159.4101 H   0  0  0  0  0  0  0  0  0  0  0  0  # atno 6907 bound_to 6896
  151.9387  135.0221  160.0543 H   0  0  0  0  0  0  0  0  0  0  0  0  # atno 6908 bound_to 6896
  152.2113  133.4878  159.5148 H   0  0  0  0  0  0  0  0  0  0  0  0  # atno 6909 bound_to 6896
  145.0203  139.4138  143.5201 H   0  0  0  0  0  0  0  0  0  0  0  0  # atno 7974 bound_to 7965
  156.2031  140.3044  155.9568 H   0  0  0  0  0  0  0  0  0  0  0  0  # atno 8008 bound_to 7997
  155.2907  140.0442  157.3040 H   0  0  0  0  0  0  0  0  0  0  0  0  # atno 8009 bound_to 7997
  154.5597  140.2316  155.8364 H   0  0  0  0  0  0  0  0  0  0  0  0  # atno 8010 bound_to 7997
  139.9786  144.5842  150.7920 H   0  0  0  0  0  0  0  0  0  0  0  0  # atno 10167 bound_to 10162
  155.9989  130.4772  150.4744 H   0  0  0  0  0  0  0  0  0  0  0  0  # atno 10718 bound_to 10713
  153.6178  135.3419  155.3000 H   0  0  0  0  0  0  0  0  0  0  0  0  # atno 10763 bound_to 10752
  154.8606  135.4265  154.2240 H   0  0  0  0  0  0  0  0  0  0  0  0  # atno 10764 bound_to 10752
  153.3106  135.7031  153.7192 H   0  0  0  0  0  0  0  0  0  0  0  0  # atno 10765 bound_to 10752
  140.9824  133.7049  156.1707 H   0  0  0  0  0  0  0  0  0  0  0  0  # atno 11005 bound_to 11000
  146.3484  139.9697  142.8708 LP  0  0  0  0  0  0  0  0  0  0  0  0  # atno 17320 bound_to 7965
  145.1905  140.9809  143.4214 LP  0  0  0  0  0  0  0  0  0  0  0  0  # atno 17321 bound_to 7965
  140.7497  143.2943  151.3247 LP  0  0  0  0  0  0  0  0  0  0  0  0  # atno 17342 bound_to 10162
  139.6426  144.0510  152.2566 LP  0  0  0  0  0  0  0  0  0  0  0  0  # atno 17343 bound_to 10162
  157.2756  131.0596  151.2231 LP  0  0  0  0  0  0  0  0  0  0  0  0  # atno 17370 bound_to 10713
  157.3296  130.6978  149.6317 LP  0  0  0  0  0  0  0  0  0  0  0  0  # atno 17371 bound_to 10713
  140.7166  134.4404  157.5578 LP  0  0  0  0  0  0  0  0  0  0  0  0  # atno 17394 bound_to 11000
  139.8956  134.8679  156.2125 LP  0  0  0  0  0  0  0  0  0  0  0  0  # atno 17395 bound_to 11000

$$$$
