#       Name:                AV-unprocessed.smi:2302
#       Creating user name   scv26
#       Creation time:       Fri Mar 27 12:45:36 2020


#       File generated by GOLD software.
#

@<TRIPOS>MOLECULE
AV-unprocessed.smi:2302
    45    46     1
SMALL
NO_CHARGES


@<TRIPOS>ATOM
      1 ****        -3.6597   4.5116  -0.9254 C.3            1 S1                 0.0000
      2 ****        -4.0077   3.0465  -1.0839 C.ar           1 S1                 0.0000
      3 ****        -5.3485   2.6266  -1.1871 C.ar           1 S1                 0.0000
      4 ****        -5.6025   1.2514  -1.3357 C.ar           1 S1                 0.0000
      5 ****        -4.5137   0.3592  -1.3748 C.ar           1 S1                 0.0000
      6 ****        -3.1982   0.8627  -1.2636 C.ar           1 S1                 0.0000
      7 ****        -2.1718  -0.1179  -1.3143 N.am           1 S1                 0.0000
      8 ****        -0.8425   0.0662  -1.2321 C.2            1 S1                 0.0000
      9 ****        -0.2788   1.1522  -1.0927 O.2            1 S1                 0.0000
     10 ****        -0.1834  -1.0983  -1.3169 N.am           1 S1                 0.0000
     11 ****         1.2675  -1.2424  -1.2664 C.3            1 S1                 0.0000
     12 ****         1.8128  -1.0940   0.1655 C.3            1 S1                 0.0000
     13 ****         3.3515  -1.1708   0.2036 C.3            1 S1                 0.0000
     14 ****         3.8394  -1.0955   1.5997 N.4            1 S1                 1.0000
     15 ****         5.3150  -1.1171   1.6896 C.3            1 S1                 0.0000
     16 ****         3.2002  -2.1344   2.4389 C.3            1 S1                 0.0000
     17 ****         1.6693  -2.0429   2.3272 C.3            1 S1                 0.0000
     18 ****         1.2849  -2.1512   0.9619 O.3            1 S1                 0.0000
     19 ****        -2.9633   2.1909  -1.1198 N.ar           1 S1                 0.0000
     20 ****        -4.5565   5.1310  -0.8997 H              1 S1                 0.0000
     21 ****        -3.0393   4.8452  -1.7577 H              1 S1                 0.0000
     22 ****        -3.1083   4.6722   0.0014 H              1 S1                 0.0000
     23 ****        -6.1622   3.3361  -1.1545 H              1 S1                 0.0000
     24 ****        -6.6153   0.8860  -1.4190 H              1 S1                 0.0000
     25 ****        -4.6927  -0.7001  -1.4895 H              1 S1                 0.0000
     26 ****        -2.4875  -1.0696  -1.4282 H              1 S1                 0.0000
     27 ****        -0.7219  -1.9453  -1.4277 H              1 S1                 0.0000
     28 ****         1.5298  -2.2218  -1.6674 H              1 S1                 0.0000
     29 ****         1.7284  -0.5052  -1.9261 H              1 S1                 0.0000
     30 ****         1.4927  -0.1351   0.5777 H              1 S1                 0.0000
     31 ****         3.6943  -2.1007  -0.2533 H              1 S1                 0.0000
     32 ****         3.7792  -0.3514  -0.3757 H              1 S1                 0.0000
     33 ****         5.7177  -2.0559   1.3069 H              1 S1                 0.0000
     34 ****         5.6395  -1.0016   2.7242 H              1 S1                 0.0000
     35 ****         5.7467  -0.2989   1.1121 H              1 S1                 0.0000
     36 ****         3.5385  -3.1223   2.1214 H              1 S1                 0.0000
     37 ****         3.5054  -2.0086   3.4785 H              1 S1                 0.0000
     38 ****         1.2020  -2.8503   2.8911 H              1 S1                 0.0000
     39 ****         1.3011  -1.1059   2.7484 H              1 S1                 0.0000
     40 ****         3.5391  -0.2025   1.9644 H              1 S1                 0.0000
     41 ****        -0.8189   1.9917  -1.0313 LP             1 S1                 0.0000
     42 ****         0.7189   1.1947  -1.0410 LP             1 S1                 0.0000
     43 ****         1.6188  -3.0224   0.6020 LP             1 S1                 0.0000
     44 ****         0.2867  -2.1281   0.9061 LP             1 S1                 0.0000
     45 ****        -2.0269   2.5329  -1.0412 LP             1 S1                 0.0000
@<TRIPOS>BOND
    1    1    2 1     
    2    1   20 1     
    3    1   21 1     
    4    1   22 1     
    5    2   19 ar    
    6    2    3 ar    
    7    3    4 ar    
    8    3   23 1     
    9    4    5 ar    
   10    4   24 1     
   11    5    6 ar    
   12    5   25 1     
   13    6    7 1     
   14    6   19 ar    
   15    7    8 am    
   16    7   26 1     
   17    8    9 2     
   18    8   10 am    
   19   10   11 1     
   20   10   27 1     
   21   11   12 1     
   22   11   28 1     
   23   11   29 1     
   24   12   18 1     
   25   12   13 1     
   26   12   30 1     
   27   13   14 1     
   28   13   31 1     
   29   13   32 1     
   30   14   15 1     
   31   14   16 1     
   32   14   40 1     
   33   15   33 1     
   34   15   34 1     
   35   15   35 1     
   36   16   17 1     
   37   16   36 1     
   38   16   37 1     
   39   17   18 1     
   40   17   38 1     
   41   17   39 1     
   42    9   41 1     
   43    9   42 1     
   44   18   43 1     
   45   18   44 1     
   46   19   45 1     
@<TRIPOS>SUBSTRUCTURE
      1 S1             1
@<TRIPOS>SET
LONE_PAIRS      STATIC     ATOMS    <user>   **** ""
5 41 42 43 44 45
DONOR_HYDROGENS      STATIC     ATOMS    <user>   **** ""
3 26 27 40
ATOM$BLUE        STATIC     ATOMS    COLORGROUP SYSTEM
5 41 42 43 44 45
ATOM$RED        STATIC     ATOMS    COLORGROUP SYSTEM
3 26 27 40
