AV-unprocessed.smi:3037|AV-procd|sdf|11587|dock10
  -GOLD-   2272016563D 1   1.00000     0.00000
 Structure written by MMmdl.
 47 48  0  0  0  0  0  0  0  0  2 V2000
  145.5251  132.3644  151.4691 C   0  0  0  0  0  0  0  0  0  0  0  0
  145.3442  133.8175  151.1374 C   0  0  0  0  0  0  0  0  0  0  0  0
  144.1995  134.4518  150.5762 C   0  0  0  0  0  0  0  0  0  0  0  0
  144.3638  135.7539  150.4081 N   0  0  0  0  0  0  0  0  0  0  0  0
  145.6150  135.9957  150.8528 N   0  0  0  0  0  0  0  0  0  0  0  0
  146.1472  137.3461  150.8197 C   0  0  0  0  0  0  0  0  0  0  0  0
  146.2755  137.9759  152.2259 C   0  0  1  0  0  0  0  0  0  0  0  0
  145.8448  137.0172  153.3490 C   0  0  0  0  0  0  0  0  0  0  0  0
  147.6617  138.4279  152.4799 N   0  3  0  0  0  0  0  0  0  0  0  0
  147.8921  139.0631  153.7945 C   0  0  0  0  0  0  0  0  0  0  0  0
  149.1820  139.9028  153.7757 C   0  0  0  0  0  0  0  0  0  0  0  0
  150.3841  139.2124  154.4443 C   0  0  0  0  0  0  0  0  0  0  0  0
  150.6856  138.0716  154.0904 O   0  0  0  0  0  0  0  0  0  0  0  0
  151.0783  139.8807  155.3981 N   0  0  0  0  0  0  0  0  0  0  0  0
  150.6790  141.2083  155.8855 C   0  0  0  0  0  0  0  0  0  0  0  0
  150.1729  141.0768  157.3341 C   0  0  0  0  0  0  0  0  0  0  0  0
  151.2384  140.4237  158.2341 C   0  0  0  0  0  0  0  0  0  0  0  0
  151.7809  139.1209  157.6174 C   0  0  0  0  0  0  0  0  0  0  0  0
  152.2171  139.3458  156.1584 C   0  0  0  0  0  0  0  0  0  0  0  0
  146.2287  134.8456  151.3011 C   0  0  0  0  0  0  0  0  0  0  0  0
  144.6883  131.7607  151.1174 H   0  0  0  0  0  0  0  0  0  0  0  0
  145.6066  132.2051  152.5444 H   0  0  0  0  0  0  0  0  0  0  0  0
  146.4282  131.9572  151.0137 H   0  0  0  0  0  0  0  0  0  0  0  0
  143.2589  134.0063  150.2879 H   0  0  0  0  0  0  0  0  0  0  0  0
  147.1200  137.3281  150.3248 H   0  0  0  0  0  0  0  0  0  0  0  0
  145.4896  137.9408  150.1861 H   0  0  0  0  0  0  0  0  0  0  0  0
  145.6228  138.8484  152.2809 H   0  0  0  0  0  0  0  0  0  0  0  0
  144.7920  136.7462  153.2661 H   0  0  0  0  0  0  0  0  0  0  0  0
  145.9801  137.4754  154.3292 H   0  0  0  0  0  0  0  0  0  0  0  0
  146.4283  136.0960  153.3289 H   0  0  0  0  0  0  0  0  0  0  0  0
  148.2581  137.6138  152.4345 H   0  0  0  0  0  0  0  0  0  0  0  0
  147.0410  139.6943  154.0515 H   0  0  0  0  0  0  0  0  0  0  0  0
  147.9630  138.2849  154.5562 H   0  0  0  0  0  0  0  0  0  0  0  0
  149.4420  140.1277  152.7404 H   0  0  0  0  0  0  0  0  0  0  0  0
  148.9991  140.8521  154.2806 H   0  0  0  0  0  0  0  0  0  0  0  0
  151.5374  141.8803  155.8474 H   0  0  0  0  0  0  0  0  0  0  0  0
  149.9108  141.6755  155.2681 H   0  0  0  0  0  0  0  0  0  0  0  0
  149.9018  142.0568  157.7279 H   0  0  0  0  0  0  0  0  0  0  0  0
  149.2634  140.4746  157.3486 H   0  0  0  0  0  0  0  0  0  0  0  0
  152.0645  141.1226  158.3719 H   0  0  0  0  0  0  0  0  0  0  0  0
  150.8291  140.2311  159.2262 H   0  0  0  0  0  0  0  0  0  0  0  0
  152.6194  138.7505  158.2077 H   0  0  0  0  0  0  0  0  0  0  0  0
  151.0107  138.3494  157.6537 H   0  0  0  0  0  0  0  0  0  0  0  0
  152.6278  138.4243  155.7494 H   0  0  0  0  0  0  0  0  0  0  0  0
  153.0366  140.0652  156.1243 H   0  0  0  0  0  0  0  0  0  0  0  0
  147.2346  134.8532  151.6945 H   0  0  0  0  0  0  0  0  0  0  0  0
  147.9364  139.0661  151.7467 H   0  0  0  0  0  0  0  0  0  0  0  0
  1  2  1  0  0  0  0
  1 21  1  0  0  0  0
  1 22  1  0  0  0  0
  1 23  1  0  0  0  0
  2 20  2  0  0  0  0
  2  3  1  0  0  0  0
  3  4  2  0  0  0  0
  3 24  1  0  0  0  0
  4  5  1  0  0  0  0
  5  6  1  0  0  0  0
  5 20  1  0  0  0  0
  6  7  1  0  0  0  0
  6 25  1  0  0  0  0
  6 26  1  0  0  0  0
  7  8  1  0  0  0  0
  7  9  1  0  0  0  0
  7 27  1  0  0  0  0
  8 28  1  0  0  0  0
  8 29  1  0  0  0  0
  8 30  1  0  0  0  0
  9 10  1  0  0  0  0
  9 31  1  0  0  0  0
  9 47  1  0  0  0  0
 10 11  1  0  0  0  0
 10 32  1  0  0  0  0
 10 33  1  0  0  0  0
 11 12  1  0  0  0  0
 11 34  1  0  0  0  0
 11 35  1  0  0  0  0
 12 13  2  0  0  0  0
 12 14  1  0  0  0  0
 14 19  1  0  0  0  0
 14 15  1  0  0  0  0
 15 16  1  0  0  0  0
 15 36  1  0  0  0  0
 15 37  1  0  0  0  0
 16 17  1  0  0  0  0
 16 38  1  0  0  0  0
 16 39  1  0  0  0  0
 17 18  1  0  0  0  0
 17 40  1  0  0  0  0
 17 41  1  0  0  0  0
 18 19  1  0  0  0  0
 18 42  1  0  0  0  0
 18 43  1  0  0  0  0
 19 44  1  0  0  0  0
 19 45  1  0  0  0  0
 20 46  1  0  0  0  0
M  CHG  1   9   1
M  END
> <s_m_source_file>
AV-unprocessed.smi

> <i_m_source_file_index>
3037

> <i_lp_mmshare_version>
43012

> <i_f3d_flags>
0

> <s_epik_input>
W0NIM11jMVtjSF1ubihbY0hdMSlbQ0gyXVtDQEhdKFtDSDNdKVtOSF1bQ0gyXVtDSDJdQyg9TylOMltDSDJdW0NIMl1bQ0gyXVtDSDJdW0NIMl0y

> <s_epik_cmdline>
J2VwaWtfcHl0aG9uJywgJy1waCcsICc3LjAnLCAnLXRuJywgJzgnLCAnLW1hJywgJzIwMCcsICctbWV0YWxfYmluZGluZycsICctaW1hZScsICc8aW5maWxlLm1hZT4nLCAnLW9tYWUnLCAnPG91dGZpbGUubWFlPic=

> <r_lp_tautomer_probability>
1

> <r_epik_Ionization_Penalty>
0.00574983

> <r_epik_Ionization_Penalty_Charging>
0.00574185

> <r_epik_Ionization_Penalty_Neutral>
7.97936e-06

> <r_epik_State_Penalty>
0.00421386

> <r_epik_Charging_Adjusted_Penalty>
0.00995571

> <i_epik_Tot_Q>
1

> <i_epik_Tot_abs_Q>
1

> <r_epik_Metal_State_Penalty>
-0

> <b_epik_Metal_Only>
0

> <s_lp_Force_Field>
OPLS_2005

> <r_lp_Energy>
26.5412

> <b_lp_Chiralities_Consistent>
1

> <s_lp_Variant>
AV-unprocessed.smi:3037-2

> <Gold.Version>
5.8.1

> <Gold.Id.Protein>
6NUR|6NUR_protein|mol2

> <Gold.PLP.Fitness>
46.7026

> <Gold.PLP.PLP>
-34.8507

> <Gold.PLP.part.hbond>
-2.0000

> <Gold.PLP.part.metal>
0.0000

> <Gold.PLP.part.buried>
3.8516

> <Gold.PLP.part.nonpolar>
-37.3647

> <Gold.PLP.part.repulsive>
1.4673

> <Gold.PLP.ligand.clash>
0.0000

> <Gold.PLP.ligand.torsion>
1.3138

> <Gold.PLP.Chemscore.Hbond>
2.8000

> <Gold.PLP.Chemscore.CHOScore>
2.0000

> <Gold.PLP.Chemscore.Metal>
0.0000

> <Gold.Chemscore.Hbonds>
donor molecule, donor type, donor heavy atom, donor atom, acceptor molecule, acceptor atom, score
      L1  H     9    31       P1  7948  2.00
      L1  H     9    47       P1  7957  0.78
      L1  C     3    24       P1 10186  1.00
      L1  C    20    46       P1  7948  1.00

> <Gold.PLP.Chemscore.Internal.Correction>
0.0796

> <Gold.Rescore>
     Score         DG    S(hbond)    S(metal)    S(lipo)     H(rot)  DE(clash)    DE(int)     intcor
     11.96     -16.59       1.79        0.00      84.10       1.84       3.26       1.38       ----

> <Gold.Chemscore.Fitness>
11.9558

> <Gold.Chemscore.DG>
-16.5872

> <Gold.Chemscore.ZeroCoef>
-5.4800

> <Gold.Chemscore.Hbond>
1.7886

> <Gold.Chemscore.Metal>
0.0000

> <Gold.Chemscore.Lipo>
84.0979

> <Gold.Chemscore.Internal_Hbond>
0.0000

> <Gold.Chemscore.DEClash>
3.2561

> <Gold.Chemscore.DEInternal>
1.3753

> <Gold.Chemscore.Rot>
1.8383

> <Gold.Chemscore.Internal.Correction>
   9.000000E+99

> <Gold.Chemscore.Hbonds>
donor molecule, donor type, donor heavy atom, donor atom, acceptor molecule, acceptor atom, score
      L1  H     9    31       P1  7948  0.99
      L1  H     9    47       P1  7957  0.72

> <Gold.Chemscore.Hbond.Weighted>
-5.9739

> <Gold.Chemscore.Metal.Weighted>
-0.0000

> <Gold.Chemscore.Lipo.Weighted>
-9.8395

> <Gold.Chemscore.Internal_Hbond.Weighted>
0.0000

> <Gold.Chemscore.DEClash.Weighted>
3.2561

> <Gold.Chemscore.DEInternal.Weighted>
1.3753

> <Gold.Chemscore.Rot.Weighted>
4.7062

> <Gold.Chemscore.Internal.Correction.Weighted>
   9.000000E+99

> <Gold.Protein.RotatedTorsions>
[ 6907 6896 6895 6894 ] final   75.40 input  -60.11 | X-H torsion
[ 7974 7965 7964 7962 ] final  167.01 input  175.53 | X-H torsion
[ 8008 7997 7996 7995 ] final   44.71 input   59.86 | X-H torsion
[ 10167 10162 10161 10158 ] final   87.48 input  -65.29 | X-H torsion
[ 10718 10713 10712 10709 ] final -161.18 input   66.30 | X-H torsion
[ 10763 10752 10751 10750 ] final   86.77 input  -60.55 | X-H torsion
[ 11005 11000 10999 10996 ] final  100.43 input  -57.11 | X-H torsion

> <Gold.Protein.ActiveResidues>
 VAL166  LYS551  ARG553  GLY616  TRP617  ASP618  TYR619  PRO620  LYS621  CYS622 
 ASP623  PHE694  ASN695  SER759  ASP760  ASP761  ALA762  ILE779  LEU786  VAL792 
 PHE793  MET794  SER795  GLU796  ALA797  LYS798  CYS799  TRP800  GLU811  SER814 

> <Gold.Protein.RotatedAtoms>
  152.5024  134.4126  159.9453 H   0  0  0  0  0  0  0  0  0  0  0  0  # atno 6907 bound_to 6896
  151.4095  133.3726  159.2750 H   0  0  0  0  0  0  0  0  0  0  0  0  # atno 6908 bound_to 6896
  150.9302  134.8739  159.7606 H   0  0  0  0  0  0  0  0  0  0  0  0  # atno 6909 bound_to 6896
  144.7440  139.8699  143.6388 H   0  0  0  0  0  0  0  0  0  0  0  0  # atno 7974 bound_to 7965
  155.3238  140.3398  155.4240 H   0  0  0  0  0  0  0  0  0  0  0  0  # atno 8008 bound_to 7997
  156.1895  140.1693  156.8156 H   0  0  0  0  0  0  0  0  0  0  0  0  # atno 8009 bound_to 7997
  154.5426  140.0722  156.8518 H   0  0  0  0  0  0  0  0  0  0  0  0  # atno 8010 bound_to 7997
  139.8769  144.6462  150.8886 H   0  0  0  0  0  0  0  0  0  0  0  0  # atno 10167 bound_to 10162
  156.5926  130.8777  151.2894 H   0  0  0  0  0  0  0  0  0  0  0  0  # atno 10718 bound_to 10713
  153.1603  135.4568  154.9763 H   0  0  0  0  0  0  0  0  0  0  0  0  # atno 10763 bound_to 10752
  154.7892  135.3215  154.7818 H   0  0  0  0  0  0  0  0  0  0  0  0  # atno 10764 bound_to 10752
  153.8309  135.6938  153.4869 H   0  0  0  0  0  0  0  0  0  0  0  0  # atno 10765 bound_to 10752
  139.8771  134.9140  156.4754 H   0  0  0  0  0  0  0  0  0  0  0  0  # atno 11005 bound_to 11000
  146.1287  139.4319  143.0182 LP  0  0  0  0  0  0  0  0  0  0  0  0  # atno 17320 bound_to 7965
  145.7195  141.0080  143.1410 LP  0  0  0  0  0  0  0  0  0  0  0  0  # atno 17321 bound_to 7965
  140.7751  143.3617  151.1815 LP  0  0  0  0  0  0  0  0  0  0  0  0  # atno 17342 bound_to 10162
  139.7232  143.9191  152.2993 LP  0  0  0  0  0  0  0  0  0  0  0  0  # atno 17343 bound_to 10162
  157.7300  130.9679  150.1811 LP  0  0  0  0  0  0  0  0  0  0  0  0  # atno 17370 bound_to 10713
  156.2536  130.3703  149.8205 LP  0  0  0  0  0  0  0  0  0  0  0  0  # atno 17371 bound_to 10713
  140.8765  133.7949  155.9420 LP  0  0  0  0  0  0  0  0  0  0  0  0  # atno 17394 bound_to 11000
  140.8898  134.2509  157.5100 LP  0  0  0  0  0  0  0  0  0  0  0  0  # atno 17395 bound_to 11000

$$$$
