AV-unprocessed.smi:2298|AV-procd|sdf|9225|dock2
  -GOLD-   2272012443D 1   1.00000     0.00000
 Structure written by MMmdl.
 37 38  0  0  0  0  0  0  0  0  1 V2000
  145.9592  130.4067  151.7730 C   0  0  0  0  0  0  0  0  0  0  0  0
  145.3436  131.7868  151.6374 C   0  0  0  0  0  0  0  0  0  0  0  0
  144.0696  131.8167  151.1894 N   0  0  0  0  0  0  0  0  0  0  0  0
  143.4771  133.0192  151.0433 C   0  0  0  0  0  0  0  0  0  0  0  0
  144.1155  134.2390  151.3379 C   0  0  0  0  0  0  0  0  0  0  0  0
  145.4461  134.2120  151.8217 C   0  0  0  0  0  0  0  0  0  0  0  0
  146.1965  135.3799  152.1390 N   0  0  0  0  0  0  0  0  0  0  0  0
  145.7960  136.5115  152.7440 C   0  0  0  0  0  0  0  0  0  0  0  0
  144.6541  136.7485  153.1369 O   0  0  0  0  0  0  0  0  0  0  0  0
  146.8177  137.3684  152.8844 N   0  0  0  0  0  0  0  0  0  0  0  0
  146.7365  138.6864  153.5073 C   0  0  1  0  0  0  0  0  0  0  0  0
  147.8757  138.8437  154.5305 C   0  0  0  0  0  0  0  0  0  0  0  0
  147.8659  140.2398  155.1777 C   0  0  0  0  0  0  0  0  0  0  0  0
  147.9009  141.3688  154.1306 C   0  0  1  0  0  0  0  0  0  0  0  0
  149.1683  141.4094  153.5047 O   0  0  0  0  0  0  0  0  0  0  0  0
  146.7932  141.1956  153.0742 C   0  0  0  0  0  0  0  0  0  0  0  0
  146.8060  139.7946  152.4378 C   0  0  0  0  0  0  0  0  0  0  0  0
  146.0762  132.9525  151.9627 C   0  0  0  0  0  0  0  0  0  0  0  0
  147.7103  132.8374  152.5264 Cl  0  0  0  0  0  0  0  0  0  0  0  0
  145.7888  138.7720  154.0428 H   0  0  0  0  0  0  0  0  0  0  0  0
  147.7660  142.3262  154.6351 H   0  0  0  0  0  0  0  0  0  0  0  0
  146.2897  130.2378  152.7983 H   0  0  0  0  0  0  0  0  0  0  0  0
  146.8208  130.3097  151.1119 H   0  0  0  0  0  0  0  0  0  0  0  0
  145.2461  129.6218  151.5164 H   0  0  0  0  0  0  0  0  0  0  0  0
  142.4626  133.0103  150.6736 H   0  0  0  0  0  0  0  0  0  0  0  0
  143.5766  135.1589  151.1756 H   0  0  0  0  0  0  0  0  0  0  0  0
  147.1833  135.3186  151.9349 H   0  0  0  0  0  0  0  0  0  0  0  0
  147.7227  137.0892  152.5353 H   0  0  0  0  0  0  0  0  0  0  0  0
  147.7881  138.0821  155.3063 H   0  0  0  0  0  0  0  0  0  0  0  0
  148.8374  138.6758  154.0433 H   0  0  0  0  0  0  0  0  0  0  0  0
  146.9622  140.3423  155.7798 H   0  0  0  0  0  0  0  0  0  0  0  0
  148.7035  140.3385  155.8693 H   0  0  0  0  0  0  0  0  0  0  0  0
  149.3267  140.5743  153.0916 H   0  0  0  0  0  0  0  0  0  0  0  0
  145.8240  141.3572  153.5477 H   0  0  0  0  0  0  0  0  0  0  0  0
  146.8833  141.9598  152.3012 H   0  0  0  0  0  0  0  0  0  0  0  0
  147.7104  139.6751  151.8395 H   0  0  0  0  0  0  0  0  0  0  0  0
  145.9674  139.7029  151.7467 H   0  0  0  0  0  0  0  0  0  0  0  0
  1  2  1  0  0  0  0
  1 22  1  0  0  0  0
  1 23  1  0  0  0  0
  1 24  1  0  0  0  0
  2 18  1  0  0  0  0
  2  3  2  0  0  0  0
  3  4  1  0  0  0  0
  4  5  2  0  0  0  0
  4 25  1  0  0  0  0
  5  6  1  0  0  0  0
  5 26  1  0  0  0  0
  6  7  1  0  0  0  0
  6 18  2  0  0  0  0
  7  8  1  0  0  0  0
  7 27  1  0  0  0  0
  8  9  2  0  0  0  0
  8 10  1  0  0  0  0
 10 11  1  0  0  0  0
 10 28  1  0  0  0  0
 11 20  1  0  0  0  0
 11 17  1  0  0  0  0
 11 12  1  0  0  0  0
 12 13  1  0  0  0  0
 12 29  1  0  0  0  0
 12 30  1  0  0  0  0
 13 14  1  0  0  0  0
 13 31  1  0  0  0  0
 13 32  1  0  0  0  0
 14 21  1  0  0  0  0
 14 15  1  0  0  0  0
 14 16  1  0  0  0  0
 15 33  1  0  0  0  0
 16 17  1  0  0  0  0
 16 34  1  0  0  0  0
 16 35  1  0  0  0  0
 17 36  1  0  0  0  0
 17 37  1  0  0  0  0
 18 19  1  0  0  0  0
M  END
> <s_m_source_file>
AV-unprocessed.smi

> <i_m_source_file_index>
2298

> <i_lp_mmshare_version>
43012

> <i_f3d_flags>
0

> <s_epik_input>
W0NIM11jMW5bY0hdW2NIXWMoYzFDbClbTkhdQyg9TylbTkhdW0NASF0yW0NIMl1bQ0gyXVtDQEhdKFtPSF0pW0NIMl1bQ0gyXTI=

> <s_epik_cmdline>
J2VwaWtfcHl0aG9uJywgJy1waCcsICc3LjAnLCAnLXRuJywgJzgnLCAnLW1hJywgJzIwMCcsICctbWV0YWxfYmluZGluZycsICctaW1hZScsICc8aW5maWxlLm1hZT4nLCAnLW9tYWUnLCAnPG91dGZpbGUubWFlPic=

> <r_epik_Ionization_Penalty>
0.00999805

> <r_epik_Ionization_Penalty_Charging>
0

> <r_epik_Ionization_Penalty_Neutral>
0.00999805

> <r_epik_State_Penalty>
0.00759022

> <r_epik_Charging_Adjusted_Penalty>
0.00759022

> <i_epik_Tot_Q>
0

> <i_epik_Tot_abs_Q>
0

> <r_epik_Metal_State_Penalty>
0.00746447

> <b_epik_Metal_Only>
0

> <s_lp_Force_Field>
OPLS_2005

> <r_lp_Energy>
16.8241

> <b_lp_Chiralities_Consistent>
1

> <s_lp_Variant>
AV-unprocessed.smi:2298-2

> <Gold.Version>
5.8.1

> <Gold.Id.Protein>
6NUR|6NUR_protein|mol2

> <Gold.PLP.Fitness>
43.8903

> <Gold.PLP.PLP>
-31.2101

> <Gold.PLP.part.hbond>
-5.0000

> <Gold.PLP.part.metal>
0.0000

> <Gold.PLP.part.buried>
-2.2854

> <Gold.PLP.part.nonpolar>
-24.5966

> <Gold.PLP.part.repulsive>
0.3938

> <Gold.PLP.ligand.clash>
0.0000

> <Gold.PLP.ligand.torsion>
0.4295

> <Gold.PLP.Chemscore.Hbond>
3.5120

> <Gold.PLP.Chemscore.CHOScore>
1.0000

> <Gold.PLP.Chemscore.Metal>
0.0000

> <Gold.Chemscore.Hbonds>
donor molecule, donor type, donor heavy atom, donor atom, acceptor molecule, acceptor atom, score
      L1  H     7    27       P1  7948  0.99
      L1  H    10    28       P1  7948  1.00
      L1  H    15    33       P1  7957  0.64
      P1  H  8011  8017       L1    15  0.90
      L1  C     4    25       P1 10186  1.00

> <Gold.PLP.Chemscore.Internal.Correction>
0.0031

> <Gold.Rescore>
     Score         DG    S(hbond)    S(metal)    S(lipo)     H(rot)  DE(clash)    DE(int)     intcor
     19.01     -21.58       2.93        0.00      85.19       1.42       1.52       1.06       ----

> <Gold.Chemscore.Fitness>
19.0102

> <Gold.Chemscore.DG>
-21.5843

> <Gold.Chemscore.ZeroCoef>
-5.4800

> <Gold.Chemscore.Hbond>
2.9256

> <Gold.Chemscore.Metal>
0.0000

> <Gold.Chemscore.Lipo>
85.1941

> <Gold.Chemscore.Internal_Hbond>
0.0000

> <Gold.Chemscore.DEClash>
1.5186

> <Gold.Chemscore.DEInternal>
1.0555

> <Gold.Chemscore.Rot>
1.4199

> <Gold.Chemscore.Internal.Correction>
   9.000000E+99

> <Gold.Chemscore.Hbonds>
donor molecule, donor type, donor heavy atom, donor atom, acceptor molecule, acceptor atom, score
      L1  H     7    27       P1  7948  0.92
      L1  H    10    28       P1  7948  0.99
      L1  H    15    33       P1  7957  0.60
      P1  H  8011  8017       L1    15  0.23

> <Gold.Chemscore.Hbond.Weighted>
-9.7715

> <Gold.Chemscore.Metal.Weighted>
-0.0000

> <Gold.Chemscore.Lipo.Weighted>
-9.9677

> <Gold.Chemscore.Internal_Hbond.Weighted>
0.0000

> <Gold.Chemscore.DEClash.Weighted>
1.5186

> <Gold.Chemscore.DEInternal.Weighted>
1.0555

> <Gold.Chemscore.Rot.Weighted>
3.6349

> <Gold.Chemscore.Internal.Correction.Weighted>
   9.000000E+99

> <Gold.Protein.RotatedTorsions>
[ 6907 6896 6895 6894 ] final   12.91 input  -60.11 | X-H torsion
[ 7974 7965 7964 7962 ] final  -90.18 input  175.53 | X-H torsion
[ 8008 7997 7996 7995 ] final   22.80 input   59.86 | X-H torsion
[ 10167 10162 10161 10158 ] final   76.44 input  -65.29 | X-H torsion
[ 10718 10713 10712 10709 ] final  -92.19 input   66.30 | X-H torsion
[ 10763 10752 10751 10750 ] final -100.83 input  -60.55 | X-H torsion
[ 11005 11000 10999 10996 ] final  163.07 input  -57.11 | X-H torsion

> <Gold.Protein.ActiveResidues>
 VAL166  LYS551  ARG553  GLY616  TRP617  ASP618  TYR619  PRO620  LYS621  CYS622 
 ASP623  PHE694  ASN695  SER759  ASP760  ASP761  ALA762  ILE779  LEU786  VAL792 
 PHE793  MET794  SER795  GLU796  ALA797  LYS798  CYS799  TRP800  GLU811  SER814 

> <Gold.Protein.RotatedAtoms>
  151.7779  135.0769  160.0369 H   0  0  0  0  0  0  0  0  0  0  0  0  # atno 6907 bound_to 6896
  152.3243  133.5884  159.5774 H   0  0  0  0  0  0  0  0  0  0  0  0  # atno 6908 bound_to 6896
  150.7387  133.9880  159.3639 H   0  0  0  0  0  0  0  0  0  0  0  0  # atno 6909 bound_to 6896
  145.4298  140.9555  143.2134 H   0  0  0  0  0  0  0  0  0  0  0  0  # atno 7974 bound_to 7965
  154.9712  140.3090  155.4987 H   0  0  0  0  0  0  0  0  0  0  0  0  # atno 8008 bound_to 7997
  156.2965  140.2283  156.4743 H   0  0  0  0  0  0  0  0  0  0  0  0  # atno 8009 bound_to 7997
  154.7875  140.0442  157.1163 H   0  0  0  0  0  0  0  0  0  0  0  0  # atno 8010 bound_to 7997
  139.9923  144.5748  150.7808 H   0  0  0  0  0  0  0  0  0  0  0  0  # atno 10167 bound_to 10162
  156.0000  130.4977  150.5588 H   0  0  0  0  0  0  0  0  0  0  0  0  # atno 10718 bound_to 10713
  154.7610  135.4920  153.9465 H   0  0  0  0  0  0  0  0  0  0  0  0  # atno 10763 bound_to 10752
  153.1252  135.6740  153.9277 H   0  0  0  0  0  0  0  0  0  0  0  0  # atno 10764 bound_to 10752
  153.8997  135.3111  155.3427 H   0  0  0  0  0  0  0  0  0  0  0  0  # atno 10765 bound_to 10752
  140.2321  134.8116  157.3328 H   0  0  0  0  0  0  0  0  0  0  0  0  # atno 11005 bound_to 11000
  144.8190  139.5825  143.6995 LP  0  0  0  0  0  0  0  0  0  0  0  0  # atno 17320 bound_to 7965
  146.2613  139.6416  142.9360 LP  0  0  0  0  0  0  0  0  0  0  0  0  # atno 17321 bound_to 7965
  140.7450  143.2869  151.3438 LP  0  0  0  0  0  0  0  0  0  0  0  0  # atno 17342 bound_to 10162
  139.6331  144.0682  152.2493 LP  0  0  0  0  0  0  0  0  0  0  0  0  # atno 17343 bound_to 10162
  157.3501  131.0732  151.1720 LP  0  0  0  0  0  0  0  0  0  0  0  0  # atno 17370 bound_to 10713
  157.2540  130.6627  149.5944 LP  0  0  0  0  0  0  0  0  0  0  0  0  # atno 17371 bound_to 10713
  140.1739  134.4574  155.7814 LP  0  0  0  0  0  0  0  0  0  0  0  0  # atno 17394 bound_to 11000
  141.2217  133.6954  156.7755 LP  0  0  0  0  0  0  0  0  0  0  0  0  # atno 17395 bound_to 11000

$$$$
