AV-unprocessed.smi:1230|AV-procd|sdf|5152|dock4
  -GOLD-   22720 4223D 1   1.00000     0.00000
 Structure written by MMmdl.
 38 39  0  0  0  0  0  0  0  0  2 V2000
  150.8869  145.2078  159.2036 C   0  0  0  0  0  0  0  0  0  0  0  0
  151.3867  143.9418  159.9187 C   0  0  2  0  0  0  0  0  0  0  0  0
  152.2058  144.3126  161.1716 C   0  0  0  0  0  0  0  0  0  0  0  0
  152.7250  143.0657  161.9035 C   0  0  0  0  0  0  0  0  0  0  0  0
  153.5524  142.1794  160.9625 C   0  0  0  0  0  0  0  0  0  0  0  0
  152.7416  141.7946  159.7168 C   0  0  0  0  0  0  0  0  0  0  0  0
  152.2130  143.0403  158.9740 C   0  0  1  0  0  0  0  0  0  0  0  0
  151.3642  142.6126  157.9186 O   0  0  0  0  0  0  0  0  0  0  0  0
  150.2776  141.7977  158.3334 C   0  0  0  0  0  0  0  0  0  0  0  0
  150.0147  140.7397  157.2520 C   0  0  0  0  0  0  0  0  0  0  0  0
  151.1799  139.8611  157.0791 N   0  0  0  0  0  0  0  0  0  0  0  0
  151.5633  139.0699  158.1753 C   0  0  0  0  0  0  0  0  0  0  0  0
  152.6358  138.2580  158.1198 C   0  0  0  0  0  0  0  0  0  0  0  0
  153.0518  137.4539  159.2214 C   0  0  0  0  0  0  0  0  0  0  0  0
  153.3930  136.7763  160.0962 N   0  0  0  0  0  0  0  0  0  0  0  0
  153.4102  138.2049  156.8823 C   0  0  0  0  0  0  0  0  0  0  0  0
  154.3911  137.4666  156.8008 O   0  0  0  0  0  0  0  0  0  0  0  0
  152.9969  138.9993  155.8513 N   0  5  0  0  0  0  0  0  0  0  0  0
  151.9086  139.8282  155.9231 C   0  0  0  0  0  0  0  0  0  0  0  0
  151.5667  140.5470  154.9837 O   0  0  0  0  0  0  0  0  0  0  0  0
  151.7186  145.8122  158.8404 H   0  0  0  0  0  0  0  0  0  0  0  0
  150.2930  145.8286  159.8746 H   0  0  0  0  0  0  0  0  0  0  0  0
  150.2584  144.9589  158.3483 H   0  0  0  0  0  0  0  0  0  0  0  0
  150.5119  143.3777  160.2459 H   0  0  0  0  0  0  0  0  0  0  0  0
  153.0502  144.9420  160.8866 H   0  0  0  0  0  0  0  0  0  0  0  0
  151.5960  144.9063  161.8535 H   0  0  0  0  0  0  0  0  0  0  0  0
  153.3285  143.3615  162.7619 H   0  0  0  0  0  0  0  0  0  0  0  0
  151.8833  142.4951  162.2979 H   0  0  0  0  0  0  0  0  0  0  0  0
  154.4583  142.7073  160.6618 H   0  0  0  0  0  0  0  0  0  0  0  0
  153.8763  141.2802  161.4872 H   0  0  0  0  0  0  0  0  0  0  0  0
  153.3606  141.1865  159.0575 H   0  0  0  0  0  0  0  0  0  0  0  0
  151.9020  141.1640  160.0122 H   0  0  0  0  0  0  0  0  0  0  0  0
  153.0489  143.6214  158.5786 H   0  0  0  0  0  0  0  0  0  0  0  0
  150.5349  141.3174  159.2780 H   0  0  0  0  0  0  0  0  0  0  0  0
  149.3753  142.3842  158.5087 H   0  0  0  0  0  0  0  0  0  0  0  0
  149.1298  140.1566  157.5111 H   0  0  0  0  0  0  0  0  0  0  0  0
  149.7668  141.2293  156.3091 H   0  0  0  0  0  0  0  0  0  0  0  0
  150.9456  139.1735  159.0555 H   0  0  0  0  0  0  0  0  0  0  0  0
  1  2  1  0  0  0  0
  1 21  1  0  0  0  0
  1 22  1  0  0  0  0
  1 23  1  0  0  0  0
  2  7  1  0  0  0  0
  2  3  1  0  0  0  0
  2 24  1  0  0  0  0
  3  4  1  0  0  0  0
  3 25  1  0  0  0  0
  3 26  1  0  0  0  0
  4  5  1  0  0  0  0
  4 27  1  0  0  0  0
  4 28  1  0  0  0  0
  5  6  1  0  0  0  0
  5 29  1  0  0  0  0
  5 30  1  0  0  0  0
  6  7  1  0  0  0  0
  6 31  1  0  0  0  0
  6 32  1  0  0  0  0
  7  8  1  0  0  0  0
  7 33  1  0  0  0  0
  8  9  1  0  0  0  0
  9 10  1  0  0  0  0
  9 34  1  0  0  0  0
  9 35  1  0  0  0  0
 10 11  1  0  0  0  0
 10 36  1  0  0  0  0
 10 37  1  0  0  0  0
 11 19  1  0  0  0  0
 11 12  1  0  0  0  0
 12 13  2  0  0  0  0
 12 38  1  0  0  0  0
 13 14  1  0  0  0  0
 13 16  1  0  0  0  0
 14 15  3  0  0  0  0
 16 17  2  0  0  0  0
 16 18  1  0  0  0  0
 18 19  1  0  0  0  0
 19 20  2  0  0  0  0
M  CHG  1  18  -1
M  END
> <s_m_source_file>
AV-unprocessed.smi

> <i_m_source_file_index>
1230

> <i_lp_mmshare_version>
43012

> <i_f3d_flags>
0

> <s_epik_input>
W0NIM11bQ0BASF0xW0NIMl1bQ0gyXVtDSDJdW0NIMl1bQ0BIXTFPW0NIMl1bQ0gyXW4yW2NIXWMoQyNOKWMoPU8pW25IXWMyPU8=

> <s_epik_cmdline>
J2VwaWtfcHl0aG9uJywgJy1waCcsICc3LjAnLCAnLXRuJywgJzgnLCAnLW1hJywgJzIwMCcsICctbWV0YWxfYmluZGluZycsICctaW1hZScsICc8aW5maWxlLm1hZT4nLCAnLW9tYWUnLCAnPG91dGZpbGUubWFlPic=

> <r_epik_Ionization_Penalty>
0.400014

> <r_epik_Ionization_Penalty_Charging>
4.81474e-10

> <r_epik_Ionization_Penalty_Neutral>
0.400014

> <r_epik_State_Penalty>
0.399305

> <r_epik_Charging_Adjusted_Penalty>
0.399305

> <i_epik_Tot_Q>
-1

> <i_epik_Tot_abs_Q>
1

> <r_epik_Metal_State_Penalty>
0.00056968

> <b_epik_Metal_Only>
0

> <s_lp_Force_Field>
OPLS_2005

> <r_lp_Energy>
24.1099

> <b_lp_Chiralities_Consistent>
1

> <s_lp_Variant>
AV-unprocessed.smi:1230-1

> <Gold.Version>
5.8.1

> <Gold.Id.Protein>
6NUR|6NUR_protein|mol2

> <Gold.PLP.Fitness>
50.9839

> <Gold.PLP.PLP>
-39.9348

> <Gold.PLP.part.hbond>
-2.6860

> <Gold.PLP.part.metal>
0.0000

> <Gold.PLP.part.buried>
-4.7078

> <Gold.PLP.part.nonpolar>
-31.7875

> <Gold.PLP.part.repulsive>
0.1088

> <Gold.PLP.ligand.clash>
0.0000

> <Gold.PLP.ligand.torsion>
0.2690

> <Gold.PLP.Chemscore.Hbond>
3.8553

> <Gold.PLP.Chemscore.CHOScore>
0.0000

> <Gold.PLP.Chemscore.Metal>
0.0000

> <Gold.Chemscore.Hbonds>
donor molecule, donor type, donor heavy atom, donor atom, acceptor molecule, acceptor atom, score
      P1  H  6896  6909       L1    15  0.60
      P1  H  7989  7998       L1    20  0.81
      P1  H  7997  8009       L1    18  1.40

> <Gold.PLP.Chemscore.Internal.Correction>
0.0213

> <Gold.Rescore>
     Score         DG    S(hbond)    S(metal)    S(lipo)     H(rot)  DE(clash)    DE(int)     intcor
     19.91     -20.16       2.54        0.00      94.36       1.90       0.02       0.23       ----

> <Gold.Chemscore.Fitness>
19.9092

> <Gold.Chemscore.DG>
-20.1607

> <Gold.Chemscore.ZeroCoef>
-5.4800

> <Gold.Chemscore.Hbond>
2.5450

> <Gold.Chemscore.Metal>
0.0000

> <Gold.Chemscore.Lipo>
94.3618

> <Gold.Chemscore.Internal_Hbond>
0.0000

> <Gold.Chemscore.DEClash>
0.0234

> <Gold.Chemscore.DEInternal>
0.2281

> <Gold.Chemscore.Rot>
1.8984

> <Gold.Chemscore.Internal.Correction>
   9.000000E+99

> <Gold.Chemscore.Hbonds>
donor molecule, donor type, donor heavy atom, donor atom, acceptor molecule, acceptor atom, score
      P1  H  6896  6909       L1    15  0.33
      P1  H  7989  7998       L1    20  0.75
      P1  H  7997  8009       L1    18  0.03

> <Gold.Chemscore.Hbond.Weighted>
-8.5002

> <Gold.Chemscore.Metal.Weighted>
-0.0000

> <Gold.Chemscore.Lipo.Weighted>
-11.0403

> <Gold.Chemscore.Internal_Hbond.Weighted>
0.0000

> <Gold.Chemscore.DEClash.Weighted>
0.0234

> <Gold.Chemscore.DEInternal.Weighted>
0.2281

> <Gold.Chemscore.Rot.Weighted>
4.8598

> <Gold.Chemscore.Internal.Correction.Weighted>
   9.000000E+99

> <Gold.Protein.RotatedTorsions>
[ 6907 6896 6895 6894 ] final  147.42 input  -60.11 | X-H torsion
[ 7974 7965 7964 7962 ] final -146.12 input  175.53 | X-H torsion
[ 8008 7997 7996 7995 ] final -141.92 input   59.86 | X-H torsion
[ 10167 10162 10161 10158 ] final    7.03 input  -65.29 | X-H torsion
[ 10718 10713 10712 10709 ] final  -71.10 input   66.30 | X-H torsion
[ 10763 10752 10751 10750 ] final  -69.22 input  -60.55 | X-H torsion
[ 11005 11000 10999 10996 ] final  165.40 input  -57.11 | X-H torsion

> <Gold.Protein.ActiveResidues>
 VAL166  LYS551  ARG553  GLY616  TRP617  ASP618  TYR619  PRO620  LYS621  CYS622 
 ASP623  PHE694  ASN695  SER759  ASP760  ASP761  ALA762  ILE779  LEU786  VAL792 
 PHE793  MET794  SER795  GLU796  ALA797  LYS798  CYS799  TRP800  GLU811  SER814 

> <Gold.Protein.RotatedAtoms>
  152.1551  133.4546  159.4832 H   0  0  0  0  0  0  0  0  0  0  0  0  # atno 6907 bound_to 6896
  150.6900  134.2141  159.4380 H   0  0  0  0  0  0  0  0  0  0  0  0  # atno 6908 bound_to 6896
  152.0040  134.9912  160.0616 H   0  0  0  0  0  0  0  0  0  0  0  0  # atno 6909 bound_to 6896
  144.8181  140.5497  143.5597 H   0  0  0  0  0  0  0  0  0  0  0  0  # atno 7974 bound_to 7965
  155.4857  140.0564  157.2961 H   0  0  0  0  0  0  0  0  0  0  0  0  # atno 8008 bound_to 7997
  154.4643  140.2011  156.0112 H   0  0  0  0  0  0  0  0  0  0  0  0  # atno 8009 bound_to 7997
  156.0946  140.3228  155.7865 H   0  0  0  0  0  0  0  0  0  0  0  0  # atno 8010 bound_to 7997
  140.6395  143.7808  150.7407 H   0  0  0  0  0  0  0  0  0  0  0  0  # atno 10167 bound_to 10162
  156.0378  130.4344  150.2393 H   0  0  0  0  0  0  0  0  0  0  0  0  # atno 10718 bound_to 10713
  154.4003  135.6032  153.5893 H   0  0  0  0  0  0  0  0  0  0  0  0  # atno 10763 bound_to 10752
  152.9788  135.5905  154.4193 H   0  0  0  0  0  0  0  0  0  0  0  0  # atno 10764 bound_to 10752
  154.3990  135.2842  155.2086 H   0  0  0  0  0  0  0  0  0  0  0  0  # atno 10765 bound_to 10752
  140.2558  134.7941  157.3544 H   0  0  0  0  0  0  0  0  0  0  0  0  # atno 11005 bound_to 11000
  145.5168  139.1477  143.3574 LP  0  0  0  0  0  0  0  0  0  0  0  0  # atno 17320 bound_to 7965
  146.2485  140.5309  142.8903 LP  0  0  0  0  0  0  0  0  0  0  0  0  # atno 17321 bound_to 7965
  140.1436  143.4419  152.2177 LP  0  0  0  0  0  0  0  0  0  0  0  0  # atno 17342 bound_to 10162
  139.5604  144.7402  151.4171 LP  0  0  0  0  0  0  0  0  0  0  0  0  # atno 17343 bound_to 10162
  157.0491  131.0057  151.3259 LP  0  0  0  0  0  0  0  0  0  0  0  0  # atno 17370 bound_to 10713
  157.5154  130.7964  149.7750 LP  0  0  0  0  0  0  0  0  0  0  0  0  # atno 17371 bound_to 10713
  140.1513  134.4846  155.7959 LP  0  0  0  0  0  0  0  0  0  0  0  0  # atno 17394 bound_to 11000
  141.2196  133.6863  156.7383 LP  0  0  0  0  0  0  0  0  0  0  0  0  # atno 17395 bound_to 11000

$$$$
