AV-unprocessed.smi:384|AV-procd|sdf|2466|dock3
  -GOLD-   2262022403D 1   1.00000     0.00000
 Structure written by MMmdl.
 32 33  0  0  0  0  0  0  0  0  2 V2000
  144.3962  133.2816  151.1517 C   0  0  0  0  0  0  0  0  0  0  0  0
  145.5967  132.3557  151.3743 C   0  0  1  0  0  0  0  0  0  0  0  0
  146.5180  132.8628  152.4999 C   0  0  0  0  0  0  0  0  0  0  0  0
  147.5892  131.9045  152.7385 N   0  0  0  0  0  0  0  0  0  0  0  0
  148.5376  132.3525  153.6689 C   0  0  0  0  0  0  0  0  0  0  0  0
  148.8692  133.7223  153.7017 C   0  0  0  0  0  0  0  0  0  0  0  0
  149.8214  134.1666  154.6393 C   0  0  0  0  0  0  0  0  0  0  0  0
  150.4131  133.2306  155.5164 C   0  0  0  0  0  0  0  0  0  0  0  0
  151.4336  133.6556  156.5346 C   0  0  0  0  0  0  0  0  0  0  0  0
  151.8548  132.8110  157.3559 O   0  0  0  0  0  0  0  0  0  0  0  0
  151.8311  134.8419  156.5300 O   0  5  0  0  0  0  0  0  0  0  0  0
  150.0103  131.8803  155.4014 C   0  0  0  0  0  0  0  0  0  0  0  0
  149.0983  131.4466  154.5044 N   0  0  0  0  0  0  0  0  0  0  0  0
  147.0844  130.5670  153.0207 C   0  0  0  0  0  0  0  0  0  0  0  0
  146.1539  130.1040  151.8840 C   0  0  1  0  0  0  0  0  0  0  0  0
  145.5199  128.7403  152.1775 C   0  0  0  0  0  0  0  0  0  0  0  0
  145.1086  131.0606  151.7197 O   0  0  0  0  0  0  0  0  0  0  0  0
  144.7208  134.2845  150.8738 H   0  0  0  0  0  0  0  0  0  0  0  0
  143.7879  133.3638  152.0529 H   0  0  0  0  0  0  0  0  0  0  0  0
  143.7577  132.9060  150.3518 H   0  0  0  0  0  0  0  0  0  0  0  0
  146.1596  132.2877  150.4417 H   0  0  0  0  0  0  0  0  0  0  0  0
  146.9444  133.8301  152.2308 H   0  0  0  0  0  0  0  0  0  0  0  0
  145.9427  133.0068  153.4159 H   0  0  0  0  0  0  0  0  0  0  0  0
  148.4049  134.4221  153.0224 H   0  0  0  0  0  0  0  0  0  0  0  0
  150.0858  135.2135  154.6760 H   0  0  0  0  0  0  0  0  0  0  0  0
  150.4250  131.1162  156.0425 H   0  0  0  0  0  0  0  0  0  0  0  0
  147.9205  129.8751  153.1289 H   0  0  0  0  0  0  0  0  0  0  0  0
  146.5423  130.5699  153.9677 H   0  0  0  0  0  0  0  0  0  0  0  0
  146.7193  130.0300  150.9533 H   0  0  0  0  0  0  0  0  0  0  0  0
  146.2830  127.9714  152.3002 H   0  0  0  0  0  0  0  0  0  0  0  0
  144.8658  128.4310  151.3620 H   0  0  0  0  0  0  0  0  0  0  0  0
  144.9239  128.7695  153.0900 H   0  0  0  0  0  0  0  0  0  0  0  0
  1  2  1  0  0  0  0
  1 18  1  0  0  0  0
  1 19  1  0  0  0  0
  1 20  1  0  0  0  0
  2 17  1  0  0  0  0
  2  3  1  0  0  0  0
  2 21  1  0  0  0  0
  3  4  1  0  0  0  0
  3 22  1  0  0  0  0
  3 23  1  0  0  0  0
  4  5  1  0  0  0  0
  4 14  1  0  0  0  0
  5 13  1  0  0  0  0
  5  6  2  0  0  0  0
  6  7  1  0  0  0  0
  6 24  1  0  0  0  0
  7  8  2  0  0  0  0
  7 25  1  0  0  0  0
  8  9  1  0  0  0  0
  8 12  1  0  0  0  0
  9 10  2  0  0  0  0
  9 11  1  0  0  0  0
 12 13  2  0  0  0  0
 12 26  1  0  0  0  0
 14 15  1  0  0  0  0
 14 27  1  0  0  0  0
 14 28  1  0  0  0  0
 15 16  1  0  0  0  0
 15 17  1  0  0  0  0
 15 29  1  0  0  0  0
 16 30  1  0  0  0  0
 16 31  1  0  0  0  0
 16 32  1  0  0  0  0
M  CHG  1  11  -1
M  END
> <s_m_source_file>
AV-unprocessed.smi

> <i_m_source_file_index>
384

> <i_lp_mmshare_version>
43012

> <i_f3d_flags>
0

> <s_epik_input>
W0NIM11bQ0BASF0xW0NIMl1OKFtDSDJdW0NASF0oTzEpW0NIM10pYzJbY0hdW2NIXWMoW2NIXW4yKUMoPU8pW09IXQ==

> <s_epik_cmdline>
J2VwaWtfcHl0aG9uJywgJy1waCcsICc3LjAnLCAnLXRuJywgJzgnLCAnLW1hJywgJzIwMCcsICctbWV0YWxfYmluZGluZycsICctaW1hZScsICc8aW5maWxlLm1hZT4nLCAnLW9tYWUnLCAnPG91dGZpbGUubWFlPic=

> <r_epik_Ionization_Penalty>
0.0114922

> <r_epik_Ionization_Penalty_Charging>
0.000195896

> <r_epik_Ionization_Penalty_Neutral>
0.0112963

> <r_epik_State_Penalty>
0.00868573

> <r_epik_Charging_Adjusted_Penalty>
0.00888162

> <i_epik_Tot_Q>
-1

> <i_epik_Tot_abs_Q>
1

> <r_epik_Metal_State_Penalty>
8.74964e-06

> <b_epik_Metal_Only>
0

> <s_lp_Force_Field>
OPLS_2005

> <r_lp_Energy>
16.9609

> <b_lp_Chiralities_Consistent>
1

> <s_lp_Variant>
AV-unprocessed.smi:384-2

> <Gold.Version>
5.8.1

> <Gold.Id.Protein>
6NUR|6NUR_protein|mol2

> <Gold.PLP.Fitness>
38.8204

> <Gold.PLP.PLP>
-29.1433

> <Gold.PLP.part.hbond>
-2.0000

> <Gold.PLP.part.metal>
0.0000

> <Gold.PLP.part.buried>
-3.2072

> <Gold.PLP.part.nonpolar>
-24.1656

> <Gold.PLP.part.repulsive>
1.1135

> <Gold.PLP.ligand.clash>
0.0000

> <Gold.PLP.ligand.torsion>
0.5375

> <Gold.PLP.Chemscore.Hbond>
3.5520

> <Gold.PLP.Chemscore.CHOScore>
0.0000

> <Gold.PLP.Chemscore.Metal>
0.0000

> <Gold.Chemscore.Hbonds>
donor molecule, donor type, donor heavy atom, donor atom, acceptor molecule, acceptor atom, score
      P1  H  6896  6907       L1    10  1.49
      P1  H 10752 10764       L1    11  1.84

> <Gold.PLP.Chemscore.Internal.Correction>
0.0961

> <Gold.Rescore>
     Score         DG    S(hbond)    S(metal)    S(lipo)     H(rot)  DE(clash)    DE(int)     intcor
     15.41     -15.94       1.67        0.00      63.72       1.00       0.02       0.51       ----

> <Gold.Chemscore.Fitness>
15.4122

> <Gold.Chemscore.DG>
-15.9388

> <Gold.Chemscore.ZeroCoef>
-5.4800

> <Gold.Chemscore.Hbond>
1.6657

> <Gold.Chemscore.Metal>
0.0000

> <Gold.Chemscore.Lipo>
63.7204

> <Gold.Chemscore.Internal_Hbond>
0.0000

> <Gold.Chemscore.DEClash>
0.0194

> <Gold.Chemscore.DEInternal>
0.5072

> <Gold.Chemscore.Rot>
1.0000

> <Gold.Chemscore.Internal.Correction>
   9.000000E+99

> <Gold.Chemscore.Hbonds>
donor molecule, donor type, donor heavy atom, donor atom, acceptor molecule, acceptor atom, score
      P1  H  6896  6907       L1    10  0.68
      P1  H 10752 10764       L1    11  0.81

> <Gold.Chemscore.Hbond.Weighted>
-5.5635

> <Gold.Chemscore.Metal.Weighted>
-0.0000

> <Gold.Chemscore.Lipo.Weighted>
-7.4553

> <Gold.Chemscore.Internal_Hbond.Weighted>
0.0000

> <Gold.Chemscore.DEClash.Weighted>
0.0194

> <Gold.Chemscore.DEInternal.Weighted>
0.5072

> <Gold.Chemscore.Rot.Weighted>
2.5600

> <Gold.Chemscore.Internal.Correction.Weighted>
   9.000000E+99

> <Gold.Protein.RotatedTorsions>
[ 6907 6896 6895 6894 ] final  164.74 input  -60.11 | X-H torsion
[ 7974 7965 7964 7962 ] final  -82.35 input  175.53 | X-H torsion
[ 8008 7997 7996 7995 ] final   43.01 input   59.86 | X-H torsion
[ 10167 10162 10161 10158 ] final -151.92 input  -65.29 | X-H torsion
[ 10718 10713 10712 10709 ] final   25.06 input   66.30 | X-H torsion
[ 10763 10752 10751 10750 ] final  -17.14 input  -60.55 | X-H torsion
[ 11005 11000 10999 10996 ] final  -45.16 input  -57.11 | X-H torsion

> <Gold.Protein.ActiveResidues>
 VAL166  LYS551  ARG553  GLY616  TRP617  ASP618  TYR619  PRO620  LYS621  CYS622 
 ASP623  PHE694  ASN695  SER759  ASP760  ASP761  ALA762  ILE779  LEU786  VAL792 
 PHE793  MET794  SER795  GLU796  ALA797  LYS798  CYS799  TRP800  GLU811  SER814 

> <Gold.Protein.RotatedAtoms>
  151.9053  133.3548  159.3844 H   0  0  0  0  0  0  0  0  0  0  0  0  # atno 6907 bound_to 6896
  150.7070  134.4787  159.5469 H   0  0  0  0  0  0  0  0  0  0  0  0  # atno 6908 bound_to 6896
  152.2383  134.8254  160.0515 H   0  0  0  0  0  0  0  0  0  0  0  0  # atno 6909 bound_to 6896
  145.5345  140.9517  143.1585 H   0  0  0  0  0  0  0  0  0  0  0  0  # atno 7974 bound_to 7965
  155.2956  140.3381  155.4250 H   0  0  0  0  0  0  0  0  0  0  0  0  # atno 8008 bound_to 7997
  156.2026  140.1738  156.7908 H   0  0  0  0  0  0  0  0  0  0  0  0  # atno 8009 bound_to 7997
  154.5578  140.0693  156.8755 H   0  0  0  0  0  0  0  0  0  0  0  0  # atno 8010 bound_to 7997
  139.7225  143.8934  152.2508 H   0  0  0  0  0  0  0  0  0  0  0  0  # atno 10167 bound_to 10162
  157.1883  130.6834  149.6140 H   0  0  0  0  0  0  0  0  0  0  0  0  # atno 10718 bound_to 10713
  153.5692  135.7008  153.5512 H   0  0  0  0  0  0  0  0  0  0  0  0  # atno 10763 bound_to 10752
  153.3359  135.4034  155.1533 H   0  0  0  0  0  0  0  0  0  0  0  0  # atno 10764 bound_to 10752
  154.8636  135.3730  154.5214 H   0  0  0  0  0  0  0  0  0  0  0  0  # atno 10765 bound_to 10752
  141.0497  133.6747  156.2974 H   0  0  0  0  0  0  0  0  0  0  0  0  # atno 11005 bound_to 11000
  144.7608  139.6961  143.7235 LP  0  0  0  0  0  0  0  0  0  0  0  0  # atno 17320 bound_to 7965
  146.2022  139.5324  142.9736 LP  0  0  0  0  0  0  0  0  0  0  0  0  # atno 17321 bound_to 7965
  139.8834  144.7005  150.8852 LP  0  0  0  0  0  0  0  0  0  0  0  0  # atno 17342 bound_to 10162
  140.7756  143.3643  151.1769 LP  0  0  0  0  0  0  0  0  0  0  0  0  # atno 17343 bound_to 10162
  155.9715  130.4623  150.6141 LP  0  0  0  0  0  0  0  0  0  0  0  0  # atno 17370 bound_to 10713
  157.3885  131.0792  151.1414 LP  0  0  0  0  0  0  0  0  0  0  0  0  # atno 17371 bound_to 10713
  140.6078  134.5489  157.5528 LP  0  0  0  0  0  0  0  0  0  0  0  0  # atno 17394 bound_to 11000
  139.9340  134.7909  156.0852 LP  0  0  0  0  0  0  0  0  0  0  0  0  # atno 17395 bound_to 11000

$$$$
