AV-unprocessed.smi:2439|AV-procd|sdf|9606|dock1
  -GOLD-   2272013243D 1   1.00000     0.00000
 Structure written by MMmdl.
 41 43  0  0  0  0  0  0  0  0  2 V2000
  147.7652  144.6478  161.3901 N   0  0  0  0  0  0  0  0  0  0  0  0
  146.6754  144.3446  161.1468 C   0  0  0  0  0  0  0  0  0  0  0  0
  145.3024  143.9612  160.8406 C   0  0  0  0  0  0  0  0  0  0  0  0
  144.2803  144.2974  161.7529 C   0  0  0  0  0  0  0  0  0  0  0  0
  142.9541  143.9277  161.4639 C   0  0  0  0  0  0  0  0  0  0  0  0
  142.7019  143.2346  160.2664 C   0  0  0  0  0  0  0  0  0  0  0  0
  143.6698  142.9069  159.3852 N   0  0  0  0  0  0  0  0  0  0  0  0
  144.9510  143.2580  159.6569 C   0  0  0  0  0  0  0  0  0  0  0  0
  145.9392  142.9021  158.7199 N   0  0  0  0  0  0  0  0  0  0  0  0
  145.6070  142.3025  157.4329 C   0  0  0  0  0  0  0  0  0  0  0  0
  146.6684  142.5902  156.3571 C   0  0  1  0  0  0  0  0  0  0  0  0
  148.0304  141.9794  156.7316 C   0  0  0  0  0  0  0  0  0  0  0  0
  149.0153  142.1911  155.6420 N   0  3  1  0  0  0  0  0  0  0  0  0
  150.3750  141.6769  155.9522 C   0  0  0  0  0  0  0  0  0  0  0  0
  150.4523  140.1408  155.8584 C   0  0  0  0  0  0  0  0  0  0  0  0
  149.9574  139.6449  154.4929 C   0  0  0  0  0  0  0  0  0  0  0  0
  148.5503  140.1867  154.2038 C   0  0  0  0  0  0  0  0  0  0  0  0
  148.5109  141.7265  154.3202 C   0  0  1  0  0  0  0  0  0  0  0  0
  147.1081  142.3064  154.0525 C   0  0  0  0  0  0  0  0  0  0  0  0
  146.2352  142.0039  155.1341 O   0  0  0  0  0  0  0  0  0  0  0  0
  144.5043  144.8315  162.6654 H   0  0  0  0  0  0  0  0  0  0  0  0
  142.1503  144.1701  162.1433 H   0  0  0  0  0  0  0  0  0  0  0  0
  141.6971  142.9338  160.0092 H   0  0  0  0  0  0  0  0  0  0  0  0
  146.9130  142.9667  158.9809 H   0  0  0  0  0  0  0  0  0  0  0  0
  145.4745  141.2272  157.5585 H   0  0  0  0  0  0  0  0  0  0  0  0
  144.6397  142.6898  157.1117 H   0  0  0  0  0  0  0  0  0  0  0  0
  146.7820  143.6681  156.2287 H   0  0  0  0  0  0  0  0  0  0  0  0
  148.4024  142.4409  157.6473 H   0  0  0  0  0  0  0  0  0  0  0  0
  147.9135  140.9158  156.9398 H   0  0  0  0  0  0  0  0  0  0  0  0
  151.0768  142.1176  155.2429 H   0  0  0  0  0  0  0  0  0  0  0  0
  150.6857  142.0158  156.9411 H   0  0  0  0  0  0  0  0  0  0  0  0
  151.4796  139.8125  156.0199 H   0  0  0  0  0  0  0  0  0  0  0  0
  149.8612  139.6849  156.6527 H   0  0  0  0  0  0  0  0  0  0  0  0
  150.6447  139.9732  153.7122 H   0  0  0  0  0  0  0  0  0  0  0  0
  149.9541  138.5548  154.4667 H   0  0  0  0  0  0  0  0  0  0  0  0
  148.2423  139.8821  153.2031 H   0  0  0  0  0  0  0  0  0  0  0  0
  147.8346  139.7343  154.8911 H   0  0  0  0  0  0  0  0  0  0  0  0
  149.1827  142.1289  153.5604 H   0  0  0  0  0  0  0  0  0  0  0  0
  147.1590  143.3874  153.9125 H   0  0  0  0  0  0  0  0  0  0  0  0
  146.6935  141.8927  153.1330 H   0  0  0  0  0  0  0  0  0  0  0  0
  149.1105  143.1939  155.5648 H   0  0  0  0  0  0  0  0  0  0  0  0
  1  2  3  0  0  0  0
  2  3  1  0  0  0  0
  3  8  1  0  0  0  0
  3  4  2  0  0  0  0
  4  5  1  0  0  0  0
  4 21  1  0  0  0  0
  5  6  2  0  0  0  0
  5 22  1  0  0  0  0
  6  7  1  0  0  0  0
  6 23  1  0  0  0  0
  7  8  2  0  0  0  0
  8  9  1  0  0  0  0
  9 10  1  0  0  0  0
  9 24  1  0  0  0  0
 10 11  1  0  0  0  0
 10 25  1  0  0  0  0
 10 26  1  0  0  0  0
 11 20  1  0  0  0  0
 11 12  1  0  0  0  0
 11 27  1  0  0  0  0
 12 13  1  0  0  0  0
 12 28  1  0  0  0  0
 12 29  1  0  0  0  0
 13 18  1  0  0  0  0
 13 14  1  0  0  0  0
 13 41  1  0  0  0  0
 14 15  1  0  0  0  0
 14 30  1  0  0  0  0
 14 31  1  0  0  0  0
 15 16  1  0  0  0  0
 15 32  1  0  0  0  0
 15 33  1  0  0  0  0
 16 17  1  0  0  0  0
 16 34  1  0  0  0  0
 16 35  1  0  0  0  0
 17 18  1  0  0  0  0
 17 36  1  0  0  0  0
 17 37  1  0  0  0  0
 18 19  1  0  0  0  0
 18 38  1  0  0  0  0
 19 20  1  0  0  0  0
 19 39  1  0  0  0  0
 19 40  1  0  0  0  0
M  CHG  1  13   1
M  END
> <s_m_source_file>
AV-unprocessed.smi

> <i_m_source_file_index>
2439

> <i_lp_mmshare_version>
43012

> <i_f3d_flags>
0

> <s_epik_input>
TiNDYzFbY0hdW2NIXVtjSF1uYzFbTkhdW0NIMl1bQ0BIXShbQ0gyXTIpT1tDSDJdW0NAQEhdKE4yMylbQ0gyXVtDSDJdW0NIMl1bQ0gyXTM=

> <s_epik_cmdline>
J2VwaWtfcHl0aG9uJywgJy1waCcsICc3LjAnLCAnLXRuJywgJzgnLCAnLW1hJywgJzIwMCcsICctbWV0YWxfYmluZGluZycsICctaW1hZScsICc8aW5maWxlLm1hZT4nLCAnLW9tYWUnLCAnPG91dGZpbGUubWFlPic=

> <r_epik_Ionization_Penalty>
0.0803594

> <r_epik_Ionization_Penalty_Charging>
0.0803403

> <r_epik_Ionization_Penalty_Neutral>
1.90988e-05

> <r_epik_State_Penalty>
0.0711481

> <r_epik_Charging_Adjusted_Penalty>
0.151488

> <i_epik_Tot_Q>
1

> <i_epik_Tot_abs_Q>
1

> <r_epik_Metal_State_Penalty>
0.0711482

> <b_epik_Metal_Only>
0

> <s_lp_Force_Field>
OPLS_2005

> <r_lp_Energy>
29.8986

> <b_lp_Chiralities_Consistent>
1

> <s_lp_Variant>
AV-unprocessed.smi:2439-4

> <Gold.Version>
5.8.1

> <Gold.Id.Protein>
6NUR|6NUR_protein|mol2

> <Gold.PLP.Fitness>
42.8126

> <Gold.PLP.PLP>
-35.2431

> <Gold.PLP.part.hbond>
-2.0000

> <Gold.PLP.part.metal>
0.0000

> <Gold.PLP.part.buried>
-4.3685

> <Gold.PLP.part.nonpolar>
-28.6412

> <Gold.PLP.part.repulsive>
0.5109

> <Gold.PLP.ligand.clash>
0.0000

> <Gold.PLP.ligand.torsion>
0.1939

> <Gold.PLP.Chemscore.Hbond>
2.6500

> <Gold.PLP.Chemscore.CHOScore>
0.0000

> <Gold.PLP.Chemscore.Metal>
0.0000

> <Gold.Chemscore.Hbonds>
donor molecule, donor type, donor heavy atom, donor atom, acceptor molecule, acceptor atom, score
      L1  H    13    41       P1  8028  2.00
      P1  H  6933  6944       L1     1  0.06

> <Gold.PLP.Chemscore.Internal.Correction>
0.0072

> <Gold.Rescore>
     Score         DG    S(hbond)    S(metal)    S(lipo)     H(rot)  DE(clash)    DE(int)     intcor
     16.49     -16.64       1.94        0.00      67.61       1.27       0.04       0.11       ----

> <Gold.Chemscore.Fitness>
16.4879

> <Gold.Chemscore.DG>
-16.6358

> <Gold.Chemscore.ZeroCoef>
-5.4800

> <Gold.Chemscore.Hbond>
1.9419

> <Gold.Chemscore.Metal>
0.0000

> <Gold.Chemscore.Lipo>
67.6116

> <Gold.Chemscore.Internal_Hbond>
0.0000

> <Gold.Chemscore.DEClash>
0.0366

> <Gold.Chemscore.DEInternal>
0.1113

> <Gold.Chemscore.Rot>
1.2659

> <Gold.Chemscore.Internal.Correction>
   9.000000E+99

> <Gold.Chemscore.Hbonds>
donor molecule, donor type, donor heavy atom, donor atom, acceptor molecule, acceptor atom, score
      L1  H    13    41       P1  8028  0.94
      P1  H  6933  6944       L1     1  0.01

> <Gold.Chemscore.Hbond.Weighted>
-6.4859

> <Gold.Chemscore.Metal.Weighted>
-0.0000

> <Gold.Chemscore.Lipo.Weighted>
-7.9106

> <Gold.Chemscore.Internal_Hbond.Weighted>
0.0000

> <Gold.Chemscore.DEClash.Weighted>
0.0366

> <Gold.Chemscore.DEInternal.Weighted>
0.1113

> <Gold.Chemscore.Rot.Weighted>
3.2408

> <Gold.Chemscore.Internal.Correction.Weighted>
   9.000000E+99

> <Gold.Protein.RotatedTorsions>
[ 6907 6896 6895 6894 ] final -164.16 input  -60.11 | X-H torsion
[ 7974 7965 7964 7962 ] final -140.95 input  175.53 | X-H torsion
[ 8008 7997 7996 7995 ] final  100.71 input   59.86 | X-H torsion
[ 10167 10162 10161 10158 ] final    3.17 input  -65.29 | X-H torsion
[ 10718 10713 10712 10709 ] final  -44.55 input   66.30 | X-H torsion
[ 10763 10752 10751 10750 ] final  131.62 input  -60.55 | X-H torsion
[ 11005 11000 10999 10996 ] final  -80.31 input  -57.11 | X-H torsion

> <Gold.Protein.ActiveResidues>
 VAL166  LYS551  ARG553  GLY616  TRP617  ASP618  TYR619  PRO620  LYS621  CYS622 
 ASP623  PHE694  ASN695  SER759  ASP760  ASP761  ALA762  ILE779  LEU786  VAL792 
 PHE793  MET794  SER795  GLU796  ALA797  LYS798  CYS799  TRP800  GLU811  SER814 

> <Gold.Protein.RotatedAtoms>
  151.4075  133.3738  159.2739 H   0  0  0  0  0  0  0  0  0  0  0  0  # atno 6907 bound_to 6896
  150.9388  134.8800  159.7609 H   0  0  0  0  0  0  0  0  0  0  0  0  # atno 6908 bound_to 6896
  152.5062  134.4024  159.9473 H   0  0  0  0  0  0  0  0  0  0  0  0  # atno 6909 bound_to 6896
  144.8557  140.6138  143.5361 H   0  0  0  0  0  0  0  0  0  0  0  0  # atno 7974 bound_to 7965
  156.1230  140.3209  155.8235 H   0  0  0  0  0  0  0  0  0  0  0  0  # atno 8008 bound_to 7997
  155.4471  140.0529  157.3022 H   0  0  0  0  0  0  0  0  0  0  0  0  # atno 8009 bound_to 7997
  154.4841  140.2065  155.9709 H   0  0  0  0  0  0  0  0  0  0  0  0  # atno 8010 bound_to 7997
  140.6599  143.7331  150.7719 H   0  0  0  0  0  0  0  0  0  0  0  0  # atno 10167 bound_to 10162
  156.2374  130.4177  149.8801 H   0  0  0  0  0  0  0  0  0  0  0  0  # atno 10718 bound_to 10713
  153.7773  135.3173  155.3361 H   0  0  0  0  0  0  0  0  0  0  0  0  # atno 10763 bound_to 10752
  154.8174  135.4627  154.0685 H   0  0  0  0  0  0  0  0  0  0  0  0  # atno 10764 bound_to 10752
  153.1963  135.6916  153.8373 H   0  0  0  0  0  0  0  0  0  0  0  0  # atno 10765 bound_to 10752
  141.1668  133.7145  156.8254 H   0  0  0  0  0  0  0  0  0  0  0  0  # atno 11005 bound_to 11000
  145.4411  139.1535  143.3969 LP  0  0  0  0  0  0  0  0  0  0  0  0  # atno 17320 bound_to 7965
  146.2821  140.4533  142.8772 LP  0  0  0  0  0  0  0  0  0  0  0  0  # atno 17321 bound_to 7965
  140.0998  143.4798  152.2432 LP  0  0  0  0  0  0  0  0  0  0  0  0  # atno 17342 bound_to 10162
  139.5830  144.7519  151.3591 LP  0  0  0  0  0  0  0  0  0  0  0  0  # atno 17343 bound_to 10162
  156.6395  130.8699  151.3511 LP  0  0  0  0  0  0  0  0  0  0  0  0  # atno 17370 bound_to 10713
  157.7160  130.9498  150.1258 LP  0  0  0  0  0  0  0  0  0  0  0  0  # atno 17371 bound_to 10713
  140.2089  134.8842  157.3252 LP  0  0  0  0  0  0  0  0  0  0  0  0  # atno 17394 bound_to 11000
  140.2108  134.4141  155.7614 LP  0  0  0  0  0  0  0  0  0  0  0  0  # atno 17395 bound_to 11000

$$$$
