#       Name:                AV-unprocessed.smi:1543
#       Creating user name   scv26
#       Creation time:       Fri Mar 27 06:37:47 2020


#       File generated by GOLD software.
#

@<TRIPOS>MOLECULE
AV-unprocessed.smi:1543
    54    55     1
SMALL
NO_CHARGES


@<TRIPOS>ATOM
      1 ****        -3.3299   2.9215   1.1988 C.3            1 S1                 0.0000
      2 ****        -2.6204   1.5639   1.2336 C.3            1 S1                 0.0000
      3 ****        -1.0983   1.7073   1.4179 C.3            1 S1                 0.0000
      4 ****        -0.4292   0.4056   1.5157 N.3            1 S1                 0.0000
      5 ****         1.0592   0.4681   1.5660 C.3            1 S1                 0.0000
      6 ****         1.5921   1.2035   2.8195 C.3            1 S1                 0.0000
      7 ****         1.6756  -0.9541   1.5760 C.3            1 S1                 0.0000
      8 ****         1.6491   1.1979   0.3227 C.3            1 S1                 0.0000
      9 ****         1.1443   0.6660  -0.9432 N.am           1 S1                 0.0000
     10 ****         1.8330  -0.0925  -1.8073 C.2            1 S1                 0.0000
     11 ****         3.0021  -0.4345  -1.6321 O.2            1 S1                 0.0000
     12 ****         1.0700  -0.4365  -2.8590 N.am           1 S1                 0.0000
     13 ****         1.4190  -1.2141  -3.9964 C.ar           1 S1                 0.0000
     14 ****         2.7469  -1.4520  -4.4282 C.ar           1 S1                 0.0000
     15 ****         2.9563  -2.2264  -5.5857 C.ar           1 S1                 0.0000
     16 ****         1.8337  -2.7287  -6.2720 C.ar           1 S1                 0.0000
     17 ****         0.5631  -2.5003  -5.8789 N.ar           1 S1                 0.0000
     18 ****         0.3699  -1.7567  -4.7687 C.ar           1 S1                 0.0000
     19 ****        -1.0521  -0.3577   2.6028 C.3            1 S1                 0.0000
     20 ****        -2.5764  -0.4902   2.4238 C.3            1 S1                 0.0000
     21 ****        -3.2367  -1.2123   3.6032 C.3            1 S1                 0.0000
     22 ****        -3.1510   0.8079   2.3166 O.3            1 S1                 0.0000
     23 ****        -2.9650   3.5333   0.3735 H              1 S1                 0.0000
     24 ****        -3.1677   3.4754   2.1238 H              1 S1                 0.0000
     25 ****        -4.4051   2.7958   1.0693 H              1 S1                 0.0000
     26 ****        -2.8269   1.0384   0.2996 H              1 S1                 0.0000
     27 ****        -0.7153   2.2777   0.5739 H              1 S1                 0.0000
     28 ****        -0.9036   2.2979   2.3133 H              1 S1                 0.0000
     29 ****         2.6825   1.2248   2.8252 H              1 S1                 0.0000
     30 ****         1.2848   0.7180   3.7455 H              1 S1                 0.0000
     31 ****         1.2585   2.2401   2.8620 H              1 S1                 0.0000
     32 ****         2.7559  -0.9230   1.4303 H              1 S1                 0.0000
     33 ****         1.2596  -1.5798   0.7856 H              1 S1                 0.0000
     34 ****         1.5126  -1.4694   2.5224 H              1 S1                 0.0000
     35 ****         1.4171   2.2623   0.3495 H              1 S1                 0.0000
     36 ****         2.7398   1.1610   0.3461 H              1 S1                 0.0000
     37 ****         0.1842   0.8823  -1.1674 H              1 S1                 0.0000
     38 ****         0.1049  -0.1431  -2.8183 H              1 S1                 0.0000
     39 ****         3.6031  -1.0498  -3.9099 H              1 S1                 0.0000
     40 ****         3.9557  -2.4276  -5.9420 H              1 S1                 0.0000
     41 ****         1.9597  -3.3250  -7.1635 H              1 S1                 0.0000
     42 ****        -0.6599  -1.5929  -4.4858 H              1 S1                 0.0000
     43 ****        -0.6372  -1.3627   2.6569 H              1 S1                 0.0000
     44 ****        -0.8492   0.1207   3.5612 H              1 S1                 0.0000
     45 ****        -2.7889  -1.0473   1.5097 H              1 S1                 0.0000
     46 ****        -2.8378  -2.2202   3.7198 H              1 S1                 0.0000
     47 ****        -4.3135  -1.2962   3.4548 H              1 S1                 0.0000
     48 ****        -3.0699  -0.6760   4.5380 H              1 S1                 0.0000
     49 ****        -0.5718  -0.0895   0.6587 LP             1 S1                 0.0000
     50 ****         3.4897  -0.1449  -0.8084 LP             1 S1                 0.0000
     51 ****         3.4645  -1.0020  -2.3133 LP             1 S1                 0.0000
     52 ****        -0.2106  -2.8700  -6.3934 LP             1 S1                 0.0000
     53 ****        -4.1372   0.7097   2.1836 LP             1 S1                 0.0000
     54 ****        -2.9772   1.3044   3.1671 LP             1 S1                 0.0000
@<TRIPOS>BOND
    1    1    2 1     
    2    1   23 1     
    3    1   24 1     
    4    1   25 1     
    5    2   22 1     
    6    2    3 1     
    7    2   26 1     
    8    3    4 1     
    9    3   27 1     
   10    3   28 1     
   11    4    5 1     
   12    4   19 1     
   13    5    6 1     
   14    5    7 1     
   15    5    8 1     
   16    6   29 1     
   17    6   30 1     
   18    6   31 1     
   19    7   32 1     
   20    7   33 1     
   21    7   34 1     
   22    8    9 1     
   23    8   35 1     
   24    8   36 1     
   25    9   10 am    
   26    9   37 1     
   27   10   11 2     
   28   10   12 am    
   29   12   13 1     
   30   12   38 1     
   31   13   18 ar    
   32   13   14 ar    
   33   14   15 ar    
   34   14   39 1     
   35   15   16 ar    
   36   15   40 1     
   37   16   17 ar    
   38   16   41 1     
   39   17   18 ar    
   40   18   42 1     
   41   19   20 1     
   42   19   43 1     
   43   19   44 1     
   44   20   21 1     
   45   20   22 1     
   46   20   45 1     
   47   21   46 1     
   48   21   47 1     
   49   21   48 1     
   50    4   49 1     
   51   11   50 1     
   52   11   51 1     
   53   17   52 1     
   54   22   53 1     
   55   22   54 1     
@<TRIPOS>SUBSTRUCTURE
      1 S1             1
@<TRIPOS>SET
LONE_PAIRS      STATIC     ATOMS    <user>   **** ""
6 49 50 51 52 53 54
DONOR_HYDROGENS      STATIC     ATOMS    <user>   **** ""
2 37 38
ATOM$BLUE        STATIC     ATOMS    COLORGROUP SYSTEM
6 49 50 51 52 53 54
ATOM$RED        STATIC     ATOMS    COLORGROUP SYSTEM
2 37 38
