#       Name:                AV-unprocessed.smi:528
#       Creating user name   scv26
#       Creation time:       Thu Mar 26 23:32:21 2020


#       File generated by GOLD software.
#

@<TRIPOS>MOLECULE
AV-unprocessed.smi:528
    49    51     1
SMALL
NO_CHARGES


@<TRIPOS>ATOM
      1 ****        -1.9293  -0.1079   3.3107 C.3            1 S1                 0.0000
      2 ****        -1.5277   0.0005   1.8304 C.3            1 S1                 0.0000
      3 ****        -0.0953  -0.2718   1.7243 N.am           1 S1                 0.0000
      4 ****         0.8177   0.5211   1.1413 C.2            1 S1                 0.0000
      5 ****         0.5514   1.6180   0.6483 O.2            1 S1                 0.0000
      6 ****         2.2563  -0.0120   1.1194 C.3            1 S1                 0.0000
      7 ****         2.9767   0.3505  -0.1124 N.am           1 S1                 0.0000
      8 ****         3.8765   1.4320  -0.0391 C.2            1 S1                 0.0000
      9 ****         4.5813   1.8720  -1.0991 C.2            1 S1                 0.0000
     10 ****         5.5852   3.0080  -0.9774 C.3            1 S1                 0.0000
     11 ****         6.5724   2.8723  -1.8631 F              1 S1                 0.0000
     12 ****         4.9806   4.1728  -1.2054 F              1 S1                 0.0000
     13 ****         6.1204   3.0501   0.2433 F              1 S1                 0.0000
     14 ****         4.3970   1.1487  -2.3419 C.2            1 S1                 0.0000
     15 ****         3.5458   0.1078  -2.4276 C.2            1 S1                 0.0000
     16 ****         2.7689  -0.3446  -1.2714 C.2            1 S1                 0.0000
     17 ****         1.9819  -1.2895  -1.3396 O.2            1 S1                 0.0000
     18 ****        -2.3290  -0.9749   0.9308 C.3            1 S1                 0.0000
     19 ****        -3.8440  -0.6579   0.8769 C.3            1 S1                 0.0000
     20 ****        -4.1330  -0.5515  -0.6308 C.3            1 S1                 0.0000
     21 ****        -4.0256  -1.9450  -1.2754 C.3            1 S1                 0.0000
     22 ****        -2.5086  -2.2072  -1.2587 C.3            1 S1                 0.0000
     23 ****        -1.9520  -0.9440  -0.5744 C.3            1 S1                 0.0000
     24 ****        -2.8712   0.1346  -1.1368 C.3            1 S1                 0.0000
     25 ****        -2.9803   0.1375   3.4618 H              1 S1                 0.0000
     26 ****        -1.3463   0.5793   3.9246 H              1 S1                 0.0000
     27 ****        -1.7655  -1.1155   3.6943 H              1 S1                 0.0000
     28 ****        -1.7357   1.0223   1.5095 H              1 S1                 0.0000
     29 ****         0.2234  -1.1521   2.1029 H              1 S1                 0.0000
     30 ****         2.7729   0.3714   2.0002 H              1 S1                 0.0000
     31 ****         2.2521  -1.0973   1.2400 H              1 S1                 0.0000
     32 ****         3.9552   1.8864   0.9379 H              1 S1                 0.0000
     33 ****         4.9464   1.4499  -3.2217 H              1 S1                 0.0000
     34 ****         3.4309  -0.4054  -3.3711 H              1 S1                 0.0000
     35 ****        -2.1783  -1.9850   1.3155 H              1 S1                 0.0000
     36 ****        -4.4460  -1.4267   1.3625 H              1 S1                 0.0000
     37 ****        -4.0724   0.2926   1.3605 H              1 S1                 0.0000
     38 ****        -5.0641  -0.0331  -0.8614 H              1 S1                 0.0000
     39 ****        -4.5850  -2.6997  -0.7215 H              1 S1                 0.0000
     40 ****        -4.4012  -1.9319  -2.2992 H              1 S1                 0.0000
     41 ****        -2.2475  -3.1221  -0.7259 H              1 S1                 0.0000
     42 ****        -2.1250  -2.2948  -2.2761 H              1 S1                 0.0000
     43 ****        -0.8933  -0.7926  -0.7820 H              1 S1                 0.0000
     44 ****        -2.8287   0.2156  -2.2244 H              1 S1                 0.0000
     45 ****        -2.7058   1.1203  -0.6994 H              1 S1                 0.0000
     46 ****        -0.3877   1.9610   0.6696 LP             1 S1                 0.0000
     47 ****         1.2742   2.1655   0.2268 LP             1 S1                 0.0000
     48 ****         1.4684  -1.5721  -0.5293 LP             1 S1                 0.0000
     49 ****         1.8563  -1.7742  -2.2052 LP             1 S1                 0.0000
@<TRIPOS>BOND
    1    1    2 1     
    2    1   25 1     
    3    1   26 1     
    4    1   27 1     
    5    2    3 1     
    6    2   18 1     
    7    2   28 1     
    8    3    4 am    
    9    3   29 1     
   10    4    5 2     
   11    4    6 1     
   12    6    7 1     
   13    6   30 1     
   14    6   31 1     
   15    7   16 am    
   16    7    8 1     
   17    8    9 2     
   18    8   32 1     
   19    9   10 1     
   20    9   14 1     
   21   10   11 1     
   22   10   12 1     
   23   10   13 1     
   24   14   15 2     
   25   14   33 1     
   26   15   16 1     
   27   15   34 1     
   28   16   17 2     
   29   18   23 1     
   30   18   19 1     
   31   18   35 1     
   32   19   20 1     
   33   19   36 1     
   34   19   37 1     
   35   20   24 1     
   36   20   21 1     
   37   20   38 1     
   38   21   22 1     
   39   21   39 1     
   40   21   40 1     
   41   22   23 1     
   42   22   41 1     
   43   22   42 1     
   44   23   24 1     
   45   23   43 1     
   46   24   44 1     
   47   24   45 1     
   48    5   46 1     
   49    5   47 1     
   50   17   48 1     
   51   17   49 1     
@<TRIPOS>SUBSTRUCTURE
      1 S1             1
@<TRIPOS>SET
LONE_PAIRS      STATIC     ATOMS    <user>   **** ""
4 46 47 48 49
DONOR_HYDROGENS      STATIC     ATOMS    <user>   **** ""
1 29
ATOM$BLUE        STATIC     ATOMS    COLORGROUP SYSTEM
4 46 47 48 49
ATOM$RED        STATIC     ATOMS    COLORGROUP SYSTEM
1 29
