AV-unprocessed.smi:1222|AV-procd|sdf|5124|dock8
  -GOLD-   22720 4183D 1   1.00000     0.00000
 Structure written by MMmdl.
 36 38  0  0  0  0  0  0  0  0  3 V2000
  149.1852  142.3912  158.0957 O   0  0  0  0  0  0  0  0  0  0  0  0
  149.9668  141.6163  157.5397 C   0  0  0  0  0  0  0  0  0  0  0  0
  151.2327  141.3422  157.9270 N   0  5  0  0  0  0  0  0  0  0  0  0
  151.7590  141.9693  158.9915 C   0  0  0  0  0  0  0  0  0  0  0  0
  151.1552  142.9904  159.6107 N   0  0  0  0  0  0  0  0  0  0  0  0
  151.8800  143.4884  160.6950 C   0  0  0  0  0  0  0  0  0  0  0  0
  153.0572  142.8233  160.9138 C   0  0  0  0  0  0  0  0  0  0  0  0
  153.2944  141.5471  159.7545 S   0  0  0  0  0  0  0  0  0  0  0  0
  149.5883  140.9497  156.4394 N   0  0  0  0  0  0  0  0  0  0  0  0
  148.2887  141.0240  155.7768 C   0  0  2  0  0  0  0  0  0  0  0  0
  147.5608  139.6751  155.8980 C   0  0  0  0  0  0  0  0  0  0  0  0
  146.2389  139.6836  155.1080 C   0  0  0  0  0  0  0  0  0  0  0  0
  146.4390  140.0597  153.6846 N   0  3  2  0  0  0  0  0  0  0  0  0
  147.0457  138.9799  152.8713 C   0  0  0  0  0  0  0  0  0  0  0  0
  146.6729  139.0411  151.4083 C   0  0  0  0  0  0  0  0  0  0  0  0
  146.0374  138.0054  152.3086 C   0  0  0  0  0  0  0  0  0  0  0  0
  147.1353  141.3644  153.5427 C   0  0  0  0  0  0  0  0  0  0  0  0
  148.4781  141.3898  154.2960 C   0  0  0  0  0  0  0  0  0  0  0  0
  151.4808  144.3188  161.2582 H   0  0  0  0  0  0  0  0  0  0  0  0
  153.7951  143.0041  161.6805 H   0  0  0  0  0  0  0  0  0  0  0  0
  150.2711  140.3299  156.0283 H   0  0  0  0  0  0  0  0  0  0  0  0
  147.6638  141.7919  156.2360 H   0  0  0  0  0  0  0  0  0  0  0  0
  148.2022  138.8700  155.5371 H   0  0  0  0  0  0  0  0  0  0  0  0
  147.3588  139.4559  156.9472 H   0  0  0  0  0  0  0  0  0  0  0  0
  145.7511  138.7101  155.1720 H   0  0  0  0  0  0  0  0  0  0  0  0
  145.5517  140.4008  155.5591 H   0  0  0  0  0  0  0  0  0  0  0  0
  148.0334  138.6344  153.1710 H   0  0  0  0  0  0  0  0  0  0  0  0
  146.0463  139.8643  151.0694 H   0  0  0  0  0  0  0  0  0  0  0  0
  147.4084  138.6900  150.6873 H   0  0  0  0  0  0  0  0  0  0  0  0
  146.3555  136.9726  152.1824 H   0  0  0  0  0  0  0  0  0  0  0  0
  144.9884  138.1403  152.5662 H   0  0  0  0  0  0  0  0  0  0  0  0
  147.2864  141.5936  152.4873 H   0  0  0  0  0  0  0  0  0  0  0  0
  146.4839  142.1458  153.9364 H   0  0  0  0  0  0  0  0  0  0  0  0
  148.9256  142.3811  154.2132 H   0  0  0  0  0  0  0  0  0  0  0  0
  149.1795  140.6990  153.8266 H   0  0  0  0  0  0  0  0  0  0  0  0
  145.5150  140.1932  153.2993 H   0  0  0  0  0  0  0  0  0  0  0  0
  1  2  2  0  0  0  0
  2  3  1  0  0  0  0
  2  9  1  0  0  0  0
  3  4  1  0  0  0  0
  4  8  1  0  0  0  0
  4  5  2  0  0  0  0
  5  6  1  0  0  0  0
  6  7  2  0  0  0  0
  6 19  1  0  0  0  0
  7  8  1  0  0  0  0
  7 20  1  0  0  0  0
  9 10  1  0  0  0  0
  9 21  1  0  0  0  0
 10 18  1  0  0  0  0
 10 11  1  0  0  0  0
 10 22  1  0  0  0  0
 11 12  1  0  0  0  0
 11 23  1  0  0  0  0
 11 24  1  0  0  0  0
 12 13  1  0  0  0  0
 12 25  1  0  0  0  0
 12 26  1  0  0  0  0
 13 14  1  0  0  0  0
 13 17  1  0  0  0  0
 13 36  1  0  0  0  0
 14 16  1  0  0  0  0
 14 15  1  0  0  0  0
 14 27  1  0  0  0  0
 15 16  1  0  0  0  0
 15 28  1  0  0  0  0
 15 29  1  0  0  0  0
 16 30  1  0  0  0  0
 16 31  1  0  0  0  0
 17 18  1  0  0  0  0
 17 32  1  0  0  0  0
 17 33  1  0  0  0  0
 18 34  1  0  0  0  0
 18 35  1  0  0  0  0
M  CHG  1   3  -1
M  CHG  1  13   1
M  END
> <s_m_source_file>
AV-unprocessed.smi

> <i_m_source_file_index>
1222

> <i_lp_mmshare_version>
43012

> <i_f3d_flags>
0

> <s_epik_input>
czFbY0hdW2NIXW5jMVtOSF1DKD1PKVtOSF1bQ0hdMltDSDJdW0NIMl1OKFtDSDJdW0NIMl0yKVtDSF0zW0NIMl1bQ0gyXTM=

> <s_epik_cmdline>
J2VwaWtfcHl0aG9uJywgJy1waCcsICc3LjAnLCAnLXRuJywgJzgnLCAnLW1hJywgJzIwMCcsICctbWV0YWxfYmluZGluZycsICctaW1hZScsICc8aW5maWxlLm1hZT4nLCAnLW9tYWUnLCAnPG91dGZpbGUubWFlPic=

> <r_lp_tautomer_probability>
0.999

> <r_epik_Ionization_Penalty>
6.4609

> <r_epik_Ionization_Penalty_Charging>
5.58663

> <r_epik_Ionization_Penalty_Neutral>
0.874262

> <r_epik_State_Penalty>
5.57752

> <r_epik_Charging_Adjusted_Penalty>
11.1642

> <i_epik_Tot_Q>
0

> <i_epik_Tot_abs_Q>
2

> <r_epik_Metal_State_Penalty>
1.58738

> <b_epik_Metal_Only>
1

> <s_lp_Force_Field>
OPLS_2005

> <r_lp_Energy>
18.4685

> <b_lp_Chiralities_Consistent>
1

> <s_lp_Variant>
AV-unprocessed.smi:1222-5

> <Gold.Version>
5.8.1

> <Gold.Id.Protein>
6NUR|6NUR_protein|mol2

> <Gold.PLP.Fitness>
38.4449

> <Gold.PLP.PLP>
-32.5520

> <Gold.PLP.part.hbond>
-1.1270

> <Gold.PLP.part.metal>
0.0000

> <Gold.PLP.part.buried>
-2.7920

> <Gold.PLP.part.nonpolar>
-28.6834

> <Gold.PLP.part.repulsive>
0.2010

> <Gold.PLP.ligand.clash>
0.0000

> <Gold.PLP.ligand.torsion>
0.6883

> <Gold.PLP.Chemscore.Hbond>
2.0000

> <Gold.PLP.Chemscore.CHOScore>
0.0000

> <Gold.PLP.Chemscore.Metal>
0.0000

> <Gold.Chemscore.Hbonds>
donor molecule, donor type, donor heavy atom, donor atom, acceptor molecule, acceptor atom, score
      L1  H    13    36       P1 10175  2.00

> <Gold.PLP.Chemscore.Internal.Correction>
1.2695

> <Gold.Rescore>
     Score         DG    S(hbond)    S(metal)    S(lipo)     H(rot)  DE(clash)    DE(int)     intcor
     12.90     -15.36       1.00        0.00      83.34       1.25       0.08       2.38       ----

> <Gold.Chemscore.Fitness>
12.9021

> <Gold.Chemscore.DG>
-15.3643

> <Gold.Chemscore.ZeroCoef>
-5.4800

> <Gold.Chemscore.Hbond>
0.9958

> <Gold.Chemscore.Metal>
0.0000

> <Gold.Chemscore.Lipo>
83.3396

> <Gold.Chemscore.Internal_Hbond>
0.0000

> <Gold.Chemscore.DEClash>
0.0809

> <Gold.Chemscore.DEInternal>
2.3813

> <Gold.Chemscore.Rot>
1.2470

> <Gold.Chemscore.Internal.Correction>
   9.000000E+99

> <Gold.Chemscore.Hbonds>
donor molecule, donor type, donor heavy atom, donor atom, acceptor molecule, acceptor atom, score
      L1  H    13    36       P1 10175  0.93

> <Gold.Chemscore.Hbond.Weighted>
-3.3260

> <Gold.Chemscore.Metal.Weighted>
-0.0000

> <Gold.Chemscore.Lipo.Weighted>
-9.7507

> <Gold.Chemscore.Internal_Hbond.Weighted>
0.0000

> <Gold.Chemscore.DEClash.Weighted>
0.0809

> <Gold.Chemscore.DEInternal.Weighted>
2.3813

> <Gold.Chemscore.Rot.Weighted>
3.1924

> <Gold.Chemscore.Internal.Correction.Weighted>
   9.000000E+99

> <Gold.Protein.RotatedTorsions>
[ 6907 6896 6895 6894 ] final -119.37 input  -60.11 | X-H torsion
[ 7974 7965 7964 7962 ] final -112.91 input  175.53 | X-H torsion
[ 8008 7997 7996 7995 ] final   29.72 input   59.86 | X-H torsion
[ 10167 10162 10161 10158 ] final  141.95 input  -65.29 | X-H torsion
[ 10718 10713 10712 10709 ] final  117.11 input   66.30 | X-H torsion
[ 10763 10752 10751 10750 ] final  124.82 input  -60.55 | X-H torsion
[ 11005 11000 10999 10996 ] final   84.45 input  -57.11 | X-H torsion

> <Gold.Protein.ActiveResidues>
 VAL166  LYS551  ARG553  GLY616  TRP617  ASP618  TYR619  PRO620  LYS621  CYS622 
 ASP623  PHE694  ASN695  SER759  ASP760  ASP761  ALA762  ILE779  LEU786  VAL792 
 PHE793  MET794  SER795  GLU796  ALA797  LYS798  CYS799  TRP800  GLU811  SER814 

> <Gold.Protein.RotatedAtoms>
  150.8300  133.8107  159.3102 H   0  0  0  0  0  0  0  0  0  0  0  0  # atno 6907 bound_to 6896
  151.5840  135.1055  160.0033 H   0  0  0  0  0  0  0  0  0  0  0  0  # atno 6908 bound_to 6896
  152.4380  133.7355  159.6668 H   0  0  0  0  0  0  0  0  0  0  0  0  # atno 6909 bound_to 6896
  145.1384  140.8764  143.3717 H   0  0  0  0  0  0  0  0  0  0  0  0  # atno 7974 bound_to 7965
  155.0790  140.3208  155.4607 H   0  0  0  0  0  0  0  0  0  0  0  0  # atno 8008 bound_to 7997
  156.2772  140.2098  156.5863 H   0  0  0  0  0  0  0  0  0  0  0  0  # atno 8009 bound_to 7997
  154.6994  140.0508  157.0430 H   0  0  0  0  0  0  0  0  0  0  0  0  # atno 8010 bound_to 7997
  139.5007  144.6138  151.6210 H   0  0  0  0  0  0  0  0  0  0  0  0  # atno 10167 bound_to 10162
  157.6118  131.1033  150.7568 H   0  0  0  0  0  0  0  0  0  0  0  0  # atno 10718 bound_to 10713
  153.6674  135.3336  155.3144 H   0  0  0  0  0  0  0  0  0  0  0  0  # atno 10763 bound_to 10752
  154.8499  135.4378  154.1741 H   0  0  0  0  0  0  0  0  0  0  0  0  # atno 10764 bound_to 10752
  153.2723  135.7001  153.7544 H   0  0  0  0  0  0  0  0  0  0  0  0  # atno 10765 bound_to 10752
  139.9000  134.8217  156.2447 H   0  0  0  0  0  0  0  0  0  0  0  0  # atno 11005 bound_to 11000
  145.0559  139.3144  143.5905 LP  0  0  0  0  0  0  0  0  0  0  0  0  # atno 17320 bound_to 7965
  146.3507  139.9984  142.8678 LP  0  0  0  0  0  0  0  0  0  0  0  0  # atno 17321 bound_to 7965
  140.5821  143.9928  150.6274 LP  0  0  0  0  0  0  0  0  0  0  0  0  # atno 17342 bound_to 10162
  140.3081  143.3216  152.0906 LP  0  0  0  0  0  0  0  0  0  0  0  0  # atno 17343 bound_to 10162
  156.7944  130.4900  149.5379 LP  0  0  0  0  0  0  0  0  0  0  0  0  # atno 17370 bound_to 10713
  156.1223  130.6119  151.0212 LP  0  0  0  0  0  0  0  0  0  0  0  0  # atno 17371 bound_to 10713
  141.0262  133.7013  156.1352 LP  0  0  0  0  0  0  0  0  0  0  0  0  # atno 17394 bound_to 11000
  140.7162  134.4408  157.5578 LP  0  0  0  0  0  0  0  0  0  0  0  0  # atno 17395 bound_to 11000

$$$$
