AV-unprocessed.smi:2862|AV-procd|sdf|11010|dock5
  -GOLD-   2272015473D 1   1.00000     0.00000
 Structure written by MMmdl.
 52 54  0  0  0  0  0  0  0  0  1 V2000
  152.5621  141.6936  159.7549 C   0  0  0  0  0  0  0  0  0  0  0  0
  151.3863  142.1604  158.8824 C   0  0  2  0  0  0  0  0  0  0  0  0
  151.3342  141.3798  157.6534 N   0  0  0  0  0  0  0  0  0  0  0  0
  150.3245  140.5887  157.2512 C   0  0  0  0  0  0  0  0  0  0  0  0
  149.3238  140.3821  157.9360 O   0  0  0  0  0  0  0  0  0  0  0  0
  150.4344  139.9318  155.8623 C   0  0  0  0  0  0  0  0  0  0  0  0
  149.2794  140.1796  154.9778 N   0  0  0  0  0  0  0  0  0  0  0  0
  148.7876  141.4997  154.9298 C   0  0  0  0  0  0  0  0  0  0  0  0
  147.7055  141.8329  154.2096 C   0  0  0  0  0  0  0  0  0  0  0  0
  147.0278  140.7948  153.4727 C   0  0  0  0  0  0  0  0  0  0  0  0
  147.4814  139.5222  153.5246 C   0  0  0  0  0  0  0  0  0  0  0  0
  146.8484  138.4355  152.7697 C   0  0  0  0  0  0  0  0  0  0  0  0
  146.9179  138.3573  151.5418 O   0  0  0  0  0  0  0  0  0  0  0  0
  146.1540  137.5261  153.5133 N   0  0  0  0  0  0  0  0  0  0  0  0
  146.3615  137.3383  154.9600 C   0  0  0  0  0  0  0  0  0  0  0  0
  145.2466  136.5245  152.9109 C   0  0  1  0  0  0  0  0  0  0  0  0
  143.8354  137.0975  152.6702 C   0  0  0  0  0  0  0  0  0  0  0  0
  145.7903  135.8491  151.6589 C   0  0  0  0  0  0  0  0  0  0  0  0
  144.9474  134.8732  150.8736 C   0  0  0  0  0  0  0  0  0  0  0  0
  146.1463  134.3823  151.6547 C   0  0  0  0  0  0  0  0  0  0  0  0
  148.6984  139.1528  154.2803 C   0  0  0  0  0  0  0  0  0  0  0  0
  149.1606  138.0095  154.3326 O   0  0  0  0  0  0  0  0  0  0  0  0
  151.4777  143.6479  158.5992 C   0  0  0  0  0  0  0  0  0  0  0  0
  152.8112  144.3407  158.4593 C   0  0  0  0  0  0  0  0  0  0  0  0
  151.9359  144.6155  159.6629 C   0  0  0  0  0  0  0  0  0  0  0  0
  152.6010  142.2533  160.6898 H   0  0  0  0  0  0  0  0  0  0  0  0
  153.5152  141.8339  159.2441 H   0  0  0  0  0  0  0  0  0  0  0  0
  152.4730  140.6372  160.0100 H   0  0  0  0  0  0  0  0  0  0  0  0
  150.4617  141.9904  159.4373 H   0  0  0  0  0  0  0  0  0  0  0  0
  152.1193  141.4830  157.0270 H   0  0  0  0  0  0  0  0  0  0  0  0
  151.3548  140.2853  155.3955 H   0  0  0  0  0  0  0  0  0  0  0  0
  150.5826  138.8586  155.9951 H   0  0  0  0  0  0  0  0  0  0  0  0
  149.3390  142.2181  155.5191 H   0  0  0  0  0  0  0  0  0  0  0  0
  147.3445  142.8507  154.1909 H   0  0  0  0  0  0  0  0  0  0  0  0
  146.1590  141.0467  152.8814 H   0  0  0  0  0  0  0  0  0  0  0  0
  147.3696  137.6066  155.2794 H   0  0  0  0  0  0  0  0  0  0  0  0
  146.2318  136.2979  155.2599 H   0  0  0  0  0  0  0  0  0  0  0  0
  145.6481  137.9368  155.5269 H   0  0  0  0  0  0  0  0  0  0  0  0
  145.0916  135.7301  153.6429 H   0  0  0  0  0  0  0  0  0  0  0  0
  143.1406  136.3048  152.3918 H   0  0  0  0  0  0  0  0  0  0  0  0
  143.8159  137.8356  151.8687 H   0  0  0  0  0  0  0  0  0  0  0  0
  143.4447  137.5707  153.5715 H   0  0  0  0  0  0  0  0  0  0  0  0
  146.4296  136.4888  151.0540 H   0  0  0  0  0  0  0  0  0  0  0  0
  143.9609  134.6261  151.2610 H   0  0  0  0  0  0  0  0  0  0  0  0
  145.0295  134.8996  149.7889 H   0  0  0  0  0  0  0  0  0  0  0  0
  147.0284  134.0839  151.0920 H   0  0  0  0  0  0  0  0  0  0  0  0
  145.9551  133.8096  152.5597 H   0  0  0  0  0  0  0  0  0  0  0  0
  150.6880  144.0128  157.9444 H   0  0  0  0  0  0  0  0  0  0  0  0
  153.7111  143.7496  158.6186 H   0  0  0  0  0  0  0  0  0  0  0  0
  152.8938  145.1229  157.7074 H   0  0  0  0  0  0  0  0  0  0  0  0
  151.4315  145.5784  159.7130 H   0  0  0  0  0  0  0  0  0  0  0  0
  152.2524  144.2043  160.6195 H   0  0  0  0  0  0  0  0  0  0  0  0
  1  2  1  0  0  0  0
  1 26  1  0  0  0  0
  1 27  1  0  0  0  0
  1 28  1  0  0  0  0
  2  3  1  0  0  0  0
  2 23  1  0  0  0  0
  2 29  1  0  0  0  0
  3  4  1  0  0  0  0
  3 30  1  0  0  0  0
  4  5  2  0  0  0  0
  4  6  1  0  0  0  0
  6  7  1  0  0  0  0
  6 31  1  0  0  0  0
  6 32  1  0  0  0  0
  7 21  1  0  0  0  0
  7  8  1  0  0  0  0
  8  9  2  0  0  0  0
  8 33  1  0  0  0  0
  9 10  1  0  0  0  0
  9 34  1  0  0  0  0
 10 11  2  0  0  0  0
 10 35  1  0  0  0  0
 11 12  1  0  0  0  0
 11 21  1  0  0  0  0
 12 13  2  0  0  0  0
 12 14  1  0  0  0  0
 14 15  1  0  0  0  0
 14 16  1  0  0  0  0
 15 36  1  0  0  0  0
 15 37  1  0  0  0  0
 15 38  1  0  0  0  0
 16 17  1  0  0  0  0
 16 18  1  0  0  0  0
 16 39  1  0  0  0  0
 17 40  1  0  0  0  0
 17 41  1  0  0  0  0
 17 42  1  0  0  0  0
 18 20  1  0  0  0  0
 18 19  1  0  0  0  0
 18 43  1  0  0  0  0
 19 20  1  0  0  0  0
 19 44  1  0  0  0  0
 19 45  1  0  0  0  0
 20 46  1  0  0  0  0
 20 47  1  0  0  0  0
 21 22  2  0  0  0  0
 23 25  1  0  0  0  0
 23 24  1  0  0  0  0
 23 48  1  0  0  0  0
 24 25  1  0  0  0  0
 24 49  1  0  0  0  0
 24 50  1  0  0  0  0
 25 51  1  0  0  0  0
 25 52  1  0  0  0  0
M  END
> <s_m_source_file>
AV-unprocessed.smi

> <i_m_source_file_index>
2862

> <i_lp_mmshare_version>
43012

> <i_f3d_flags>
0

> <s_epik_input>
W0NIMl0xW0NIMl1bQ0hdMVtDQEhdKFtDSDNdKVtOSF1DKD1PKVtDSDJdbjJbY0hdW2NIXVtjSF1jKGMyPU8pQyg9TylOKFtDSDNdKVtDQEhdKFtDSDNdKVtDSF0zW0NIMl1bQ0gyXTM=

> <s_epik_cmdline>
J2VwaWtfcHl0aG9uJywgJy1waCcsICc3LjAnLCAnLXRuJywgJzgnLCAnLW1hJywgJzIwMCcsICctbWV0YWxfYmluZGluZycsICctaW1hZScsICc8aW5maWxlLm1hZT4nLCAnLW9tYWUnLCAnPG91dGZpbGUubWFlPic=

> <r_lp_tautomer_probability>
1

> <r_epik_Ionization_Penalty>
4.00841e-08

> <r_epik_Ionization_Penalty_Charging>
2.07773e-08

> <r_epik_Ionization_Penalty_Neutral>
1.93069e-08

> <r_epik_State_Penalty>
-0

> <r_epik_Charging_Adjusted_Penalty>
2.07773e-08

> <i_epik_Tot_Q>
0

> <i_epik_Tot_abs_Q>
0

> <r_epik_Metal_State_Penalty>
-0

> <b_epik_Metal_Only>
0

> <s_lp_Force_Field>
OPLS_2005

> <r_lp_Energy>
59.7867

> <b_lp_Chiralities_Consistent>
1

> <s_lp_Variant>
AV-unprocessed.smi:2862-3

> <Gold.Version>
5.8.1

> <Gold.Id.Protein>
6NUR|6NUR_protein|mol2

> <Gold.PLP.Fitness>
53.4247

> <Gold.PLP.PLP>
-50.3987

> <Gold.PLP.part.hbond>
-0.9758

> <Gold.PLP.part.metal>
0.0000

> <Gold.PLP.part.buried>
-1.9004

> <Gold.PLP.part.nonpolar>
-48.8904

> <Gold.PLP.part.repulsive>
1.8089

> <Gold.PLP.ligand.clash>
0.0000

> <Gold.PLP.ligand.torsion>
3.4556

> <Gold.PLP.Chemscore.Hbond>
0.8613

> <Gold.PLP.Chemscore.CHOScore>
1.0000

> <Gold.PLP.Chemscore.Metal>
0.0000

> <Gold.Chemscore.Hbonds>
donor molecule, donor type, donor heavy atom, donor atom, acceptor molecule, acceptor atom, score
      P1  H  7954  7966       L1    13  0.78
      L1  C     8    33       P1  8028  0.89

> <Gold.PLP.Chemscore.Internal.Correction>
4.3533

> <Gold.Rescore>
     Score         DG    S(hbond)    S(metal)    S(lipo)     H(rot)  DE(clash)    DE(int)     intcor
     11.17     -17.80       0.92        0.00     116.90       1.73       2.05       4.58       ----

> <Gold.Chemscore.Fitness>
11.1663

> <Gold.Chemscore.DG>
-17.8019

> <Gold.Chemscore.ZeroCoef>
-5.4800

> <Gold.Chemscore.Hbond>
0.9239

> <Gold.Chemscore.Metal>
0.0000

> <Gold.Chemscore.Lipo>
116.9002

> <Gold.Chemscore.Internal_Hbond>
0.0000

> <Gold.Chemscore.DEClash>
2.0529

> <Gold.Chemscore.DEInternal>
4.5828

> <Gold.Chemscore.Rot>
1.7348

> <Gold.Chemscore.Internal.Correction>
   9.000000E+99

> <Gold.Chemscore.Hbonds>
donor molecule, donor type, donor heavy atom, donor atom, acceptor molecule, acceptor atom, score
      P1  H  7954  7966       L1    13  0.77

> <Gold.Chemscore.Hbond.Weighted>
-3.0858

> <Gold.Chemscore.Metal.Weighted>
-0.0000

> <Gold.Chemscore.Lipo.Weighted>
-13.6773

> <Gold.Chemscore.Internal_Hbond.Weighted>
0.0000

> <Gold.Chemscore.DEClash.Weighted>
2.0529

> <Gold.Chemscore.DEInternal.Weighted>
4.5828

> <Gold.Chemscore.Rot.Weighted>
4.4412

> <Gold.Chemscore.Internal.Correction.Weighted>
   9.000000E+99

> <Gold.Protein.RotatedTorsions>
[ 6907 6896 6895 6894 ] final   91.09 input  -60.11 | X-H torsion
[ 7974 7965 7964 7962 ] final  122.28 input  175.53 | X-H torsion
[ 8008 7997 7996 7995 ] final   41.94 input   59.86 | X-H torsion
[ 10167 10162 10161 10158 ] final  105.38 input  -65.29 | X-H torsion
[ 10718 10713 10712 10709 ] final  168.16 input   66.30 | X-H torsion
[ 10763 10752 10751 10750 ] final   57.76 input  -60.55 | X-H torsion
[ 11005 11000 10999 10996 ] final -140.63 input  -57.11 | X-H torsion

> <Gold.Protein.ActiveResidues>
 VAL166  LYS551  ARG553  GLY616  TRP617  ASP618  TYR619  PRO620  LYS621  CYS622 
 ASP623  PHE694  ASN695  SER759  ASP760  ASP761  ALA762  ILE779  LEU786  VAL792 
 PHE793  MET794  SER795  GLU796  ALA797  LYS798  CYS799  TRP800  GLU811  SER814 

> <Gold.Protein.RotatedAtoms>
  152.5448  134.1710  159.8596 H   0  0  0  0  0  0  0  0  0  0  0  0  # atno 6907 bound_to 6896
  151.1720  133.4771  159.2601 H   0  0  0  0  0  0  0  0  0  0  0  0  # atno 6908 bound_to 6896
  151.1265  135.0119  159.8618 H   0  0  0  0  0  0  0  0  0  0  0  0  # atno 6909 bound_to 6896
  145.1095  139.3463  143.4771 H   0  0  0  0  0  0  0  0  0  0  0  0  # atno 7974 bound_to 7965
  155.2779  140.3370  155.4260 H   0  0  0  0  0  0  0  0  0  0  0  0  # atno 8008 bound_to 7997
  156.2103  140.1767  156.7750 H   0  0  0  0  0  0  0  0  0  0  0  0  # atno 8009 bound_to 7997
  154.5677  140.0675  156.8901 H   0  0  0  0  0  0  0  0  0  0  0  0  # atno 8010 bound_to 7997
  139.7098  144.7080  151.1046 H   0  0  0  0  0  0  0  0  0  0  0  0  # atno 10167 bound_to 10162
  157.0411  131.0287  151.2713 H   0  0  0  0  0  0  0  0  0  0  0  0  # atno 10718 bound_to 10713
  152.9856  135.5630  154.5442 H   0  0  0  0  0  0  0  0  0  0  0  0  # atno 10763 bound_to 10752
  154.4891  135.2792  155.1513 H   0  0  0  0  0  0  0  0  0  0  0  0  # atno 10764 bound_to 10752
  154.2989  135.6311  153.5469 H   0  0  0  0  0  0  0  0  0  0  0  0  # atno 10765 bound_to 10752
  140.8403  134.2410  157.4813 H   0  0  0  0  0  0  0  0  0  0  0  0  # atno 11005 bound_to 11000
  146.3527  140.1007  142.8608 LP  0  0  0  0  0  0  0  0  0  0  0  0  # atno 17320 bound_to 7965
  145.0864  140.9255  143.4795 LP  0  0  0  0  0  0  0  0  0  0  0  0  # atno 17321 bound_to 7965
  140.7730  143.5309  150.9424 LP  0  0  0  0  0  0  0  0  0  0  0  0  # atno 17342 bound_to 10162
  139.8993  143.6855  152.3133 LP  0  0  0  0  0  0  0  0  0  0  0  0  # atno 17343 bound_to 10162
  157.5104  130.7935  149.7698 LP  0  0  0  0  0  0  0  0  0  0  0  0  # atno 17370 bound_to 10713
  156.0038  130.3866  150.2507 LP  0  0  0  0  0  0  0  0  0  0  0  0  # atno 17371 bound_to 10713
  139.8703  134.9632  156.4454 LP  0  0  0  0  0  0  0  0  0  0  0  0  # atno 17394 bound_to 11000
  140.8902  133.7853  155.9563 LP  0  0  0  0  0  0  0  0  0  0  0  0  # atno 17395 bound_to 11000

$$$$
