AV-unprocessed.smi:3028|AV-procd|sdf|11519|dock4
  -GOLD-   2272016453D 1   1.00000     0.00000
 Structure written by MMmdl.
 48 49  0  0  0  0  0  0  0  0  2 V2000
  150.8553  142.8671  158.7212 C   0  0  0  0  0  0  0  0  0  0  0  0
  150.6899  141.8646  157.6160 C   0  0  0  0  0  0  0  0  0  0  0  0
  151.3788  140.6311  157.4425 C   0  0  0  0  0  0  0  0  0  0  0  0
  150.9988  139.9803  156.3555 N   0  0  0  0  0  0  0  0  0  0  0  0
  150.0558  140.7708  155.7962 N   0  0  0  0  0  0  0  0  0  0  0  0
  149.4080  140.3765  154.5500 C   0  0  2  0  0  0  0  0  0  0  0  0
  148.3625  141.4342  154.1480 C   0  0  0  0  0  0  0  0  0  0  0  0
  148.8243  138.9408  154.6453 C   0  0  1  0  0  0  0  0  0  0  0  0
  147.7732  138.7937  155.7578 C   0  0  0  0  0  0  0  0  0  0  0  0
  148.2064  138.5522  153.3563 N   0  3  0  0  0  0  0  0  0  0  0  0
  146.7965  138.9635  153.1896 C   0  0  0  0  0  0  0  0  0  0  0  0
  145.8366  137.7670  153.1974 C   0  0  0  0  0  0  0  0  0  0  0  0
  144.7623  137.8450  153.7913 O   0  0  0  0  0  0  0  0  0  0  0  0
  146.1822  136.6412  152.5504 N   0  0  0  0  0  0  0  0  0  0  0  0
  145.4233  135.3965  152.4330 C   0  0  0  0  0  0  0  0  0  0  0  0
  146.2647  134.2216  152.9543 C   0  0  0  0  0  0  0  0  0  0  0  0
  145.5616  132.8829  152.6757 C   0  0  0  0  0  0  0  0  0  0  0  0
  145.2919  132.7541  151.2839 O   0  0  0  0  0  0  0  0  0  0  0  0
  144.4109  133.7593  150.7940 C   0  0  0  0  0  0  0  0  0  0  0  0
  145.0498  135.1474  150.9639 C   0  0  0  0  0  0  0  0  0  0  0  0
  149.8471  141.9122  156.5421 C   0  0  0  0  0  0  0  0  0  0  0  0
  151.6505  142.5840  159.4112 H   0  0  0  0  0  0  0  0  0  0  0  0
  149.9429  142.9714  159.3085 H   0  0  0  0  0  0  0  0  0  0  0  0
  151.1036  143.8553  158.3337 H   0  0  0  0  0  0  0  0  0  0  0  0
  152.1414  140.1927  158.0693 H   0  0  0  0  0  0  0  0  0  0  0  0
  150.1812  140.3755  153.7800 H   0  0  0  0  0  0  0  0  0  0  0  0
  147.9825  141.2638  153.1411 H   0  0  0  0  0  0  0  0  0  0  0  0
  148.7970  142.4345  154.1575 H   0  0  0  0  0  0  0  0  0  0  0  0
  147.5121  141.4365  154.8305 H   0  0  0  0  0  0  0  0  0  0  0  0
  149.6382  138.2501  154.8735 H   0  0  0  0  0  0  0  0  0  0  0  0
  148.2044  138.9562  156.7451 H   0  0  0  0  0  0  0  0  0  0  0  0
  147.3475  137.7897  155.7604 H   0  0  0  0  0  0  0  0  0  0  0  0
  146.9535  139.5015  155.6287 H   0  0  0  0  0  0  0  0  0  0  0  0
  148.7460  138.9523  152.6022 H   0  0  0  0  0  0  0  0  0  0  0  0
  146.5249  139.6387  154.0013 H   0  0  0  0  0  0  0  0  0  0  0  0
  146.6925  139.5073  152.2497 H   0  0  0  0  0  0  0  0  0  0  0  0
  147.0792  136.6479  152.0858 H   0  0  0  0  0  0  0  0  0  0  0  0
  144.5001  135.4289  153.0106 H   0  0  0  0  0  0  0  0  0  0  0  0
  147.2418  134.2184  152.4685 H   0  0  0  0  0  0  0  0  0  0  0  0
  146.4482  134.3319  154.0238 H   0  0  0  0  0  0  0  0  0  0  0  0
  146.1973  132.0544  152.9883 H   0  0  0  0  0  0  0  0  0  0  0  0
  144.6345  132.8048  153.2454 H   0  0  0  0  0  0  0  0  0  0  0  0
  144.2090  133.5669  149.7402 H   0  0  0  0  0  0  0  0  0  0  0  0
  143.4542  133.7050  151.3159 H   0  0  0  0  0  0  0  0  0  0  0  0
  144.3650  135.9197  150.6112 H   0  0  0  0  0  0  0  0  0  0  0  0
  145.9407  135.2090  150.3370 H   0  0  0  0  0  0  0  0  0  0  0  0
  149.1260  142.6610  156.2485 H   0  0  0  0  0  0  0  0  0  0  0  0
  148.2480  137.5462  153.2760 H   0  0  0  0  0  0  0  0  0  0  0  0
  1  2  1  0  0  0  0
  1 22  1  0  0  0  0
  1 23  1  0  0  0  0
  1 24  1  0  0  0  0
  2 21  2  0  0  0  0
  2  3  1  0  0  0  0
  3  4  2  0  0  0  0
  3 25  1  0  0  0  0
  4  5  1  0  0  0  0
  5  6  1  0  0  0  0
  5 21  1  0  0  0  0
  6  7  1  0  0  0  0
  6  8  1  0  0  0  0
  6 26  1  0  0  0  0
  7 27  1  0  0  0  0
  7 28  1  0  0  0  0
  7 29  1  0  0  0  0
  8  9  1  0  0  0  0
  8 10  1  0  0  0  0
  8 30  1  0  0  0  0
  9 31  1  0  0  0  0
  9 32  1  0  0  0  0
  9 33  1  0  0  0  0
 10 11  1  0  0  0  0
 10 34  1  0  0  0  0
 10 48  1  0  0  0  0
 11 12  1  0  0  0  0
 11 35  1  0  0  0  0
 11 36  1  0  0  0  0
 12 13  2  0  0  0  0
 12 14  1  0  0  0  0
 14 15  1  0  0  0  0
 14 37  1  0  0  0  0
 15 20  1  0  0  0  0
 15 16  1  0  0  0  0
 15 38  1  0  0  0  0
 16 17  1  0  0  0  0
 16 39  1  0  0  0  0
 16 40  1  0  0  0  0
 17 18  1  0  0  0  0
 17 41  1  0  0  0  0
 17 42  1  0  0  0  0
 18 19  1  0  0  0  0
 19 20  1  0  0  0  0
 19 43  1  0  0  0  0
 19 44  1  0  0  0  0
 20 45  1  0  0  0  0
 20 46  1  0  0  0  0
 21 47  1  0  0  0  0
M  CHG  1  10   1
M  END
> <s_m_source_file>
AV-unprocessed.smi

> <i_m_source_file_index>
3028

> <i_lp_mmshare_version>
43012

> <i_f3d_flags>
0

> <s_epik_input>
W0NIM11jMVtjSF1ubihbY0hdMSlbQ0BIXShbQ0gzXSlbQ0BIXShbQ0gzXSlbTkhdW0NIMl1DKD1PKVtOSF1bQ0hdMltDSDJdW0NIMl1PW0NIMl1bQ0gyXTI=

> <s_epik_cmdline>
J2VwaWtfcHl0aG9uJywgJy1waCcsICc3LjAnLCAnLXRuJywgJzgnLCAnLW1hJywgJzIwMCcsICctbWV0YWxfYmluZGluZycsICctaW1hZScsICc8aW5maWxlLm1hZT4nLCAnLW9tYWUnLCAnPG91dGZpbGUubWFlPic=

> <r_lp_tautomer_probability>
1

> <r_epik_Ionization_Penalty>
0.151514

> <r_epik_Ionization_Penalty_Charging>
0.151494

> <r_epik_Ionization_Penalty_Neutral>
1.95502e-05

> <r_epik_State_Penalty>
0.141395

> <r_epik_Charging_Adjusted_Penalty>
0.292889

> <i_epik_Tot_Q>
1

> <i_epik_Tot_abs_Q>
1

> <r_epik_Metal_State_Penalty>
0.141632

> <b_epik_Metal_Only>
0

> <s_lp_Force_Field>
OPLS_2005

> <r_lp_Energy>
16.7547

> <b_lp_Chiralities_Consistent>
1

> <s_lp_Variant>
AV-unprocessed.smi:3028-3

> <Gold.Version>
5.8.1

> <Gold.Id.Protein>
6NUR|6NUR_protein|mol2

> <Gold.PLP.Fitness>
48.7057

> <Gold.PLP.PLP>
-36.2045

> <Gold.PLP.part.hbond>
-3.0000

> <Gold.PLP.part.metal>
0.0000

> <Gold.PLP.part.buried>
-4.4002

> <Gold.PLP.part.nonpolar>
-29.3817

> <Gold.PLP.part.repulsive>
0.3687

> <Gold.PLP.ligand.clash>
0.0000

> <Gold.PLP.ligand.torsion>
0.9676

> <Gold.PLP.Chemscore.Hbond>
3.7360

> <Gold.PLP.Chemscore.CHOScore>
1.0000

> <Gold.PLP.Chemscore.Metal>
0.0000

> <Gold.Chemscore.Hbonds>
donor molecule, donor type, donor heavy atom, donor atom, acceptor molecule, acceptor atom, score
      L1  H    10    34       P1  7957  1.00
      L1  H    10    48       P1  7948  1.32
      L1  H    14    37       P1  7948  1.00
      L1  C    21    47       P1  8028  1.00

> <Gold.PLP.Chemscore.Internal.Correction>
0.2283

> <Gold.Rescore>
     Score         DG    S(hbond)    S(metal)    S(lipo)     H(rot)  DE(clash)    DE(int)     intcor
     18.07     -19.29       2.92        0.00      78.29       1.99       0.08       1.14       ----

> <Gold.Chemscore.Fitness>
18.0651

> <Gold.Chemscore.DG>
-19.2856

> <Gold.Chemscore.ZeroCoef>
-5.4800

> <Gold.Chemscore.Hbond>
2.9160

> <Gold.Chemscore.Metal>
0.0000

> <Gold.Chemscore.Lipo>
78.2889

> <Gold.Chemscore.Internal_Hbond>
0.0000

> <Gold.Chemscore.DEClash>
0.0777

> <Gold.Chemscore.DEInternal>
1.1429

> <Gold.Chemscore.Rot>
1.9897

> <Gold.Chemscore.Internal.Correction>
   9.000000E+99

> <Gold.Chemscore.Hbonds>
donor molecule, donor type, donor heavy atom, donor atom, acceptor molecule, acceptor atom, score
      L1  H    10    34       P1  7957  0.97
      L1  H    10    48       P1  7948  0.62
      L1  H    14    37       P1  7948  0.99

> <Gold.Chemscore.Hbond.Weighted>
-9.7394

> <Gold.Chemscore.Metal.Weighted>
-0.0000

> <Gold.Chemscore.Lipo.Weighted>
-9.1598

> <Gold.Chemscore.Internal_Hbond.Weighted>
0.0000

> <Gold.Chemscore.DEClash.Weighted>
0.0777

> <Gold.Chemscore.DEInternal.Weighted>
1.1429

> <Gold.Chemscore.Rot.Weighted>
5.0936

> <Gold.Chemscore.Internal.Correction.Weighted>
   9.000000E+99

> <Gold.Protein.RotatedTorsions>
[ 6907 6896 6895 6894 ] final   23.54 input  -60.11 | X-H torsion
[ 7974 7965 7964 7962 ] final  137.18 input  175.53 | X-H torsion
[ 8008 7997 7996 7995 ] final  -14.68 input   59.86 | X-H torsion
[ 10167 10162 10161 10158 ] final  -89.61 input  -65.29 | X-H torsion
[ 10718 10713 10712 10709 ] final -148.30 input   66.30 | X-H torsion
[ 10763 10752 10751 10750 ] final  -78.17 input  -60.55 | X-H torsion
[ 11005 11000 10999 10996 ] final -129.09 input  -57.11 | X-H torsion

> <Gold.Protein.ActiveResidues>
 VAL166  LYS551  ARG553  GLY616  TRP617  ASP618  TYR619  PRO620  LYS621  CYS622 
 ASP623  PHE694  ASN695  SER759  ASP760  ASP761  ALA762  ILE779  LEU786  VAL792 
 PHE793  MET794  SER795  GLU796  ALA797  LYS798  CYS799  TRP800  GLU811  SER814 

> <Gold.Protein.RotatedAtoms>
  151.9439  135.0200  160.0537 H   0  0  0  0  0  0  0  0  0  0  0  0  # atno 6907 bound_to 6896
  152.2012  133.4838  159.5068 H   0  0  0  0  0  0  0  0  0  0  0  0  # atno 6908 bound_to 6896
  150.6955  134.1505  159.4181 H   0  0  0  0  0  0  0  0  0  0  0  0  # atno 6909 bound_to 6896
  144.9492  139.4838  143.5534 H   0  0  0  0  0  0  0  0  0  0  0  0  # atno 7974 bound_to 7965
  154.5191  140.2216  155.9010 H   0  0  0  0  0  0  0  0  0  0  0  0  # atno 8008 bound_to 7997
  156.1641  140.3136  155.8823 H   0  0  0  0  0  0  0  0  0  0  0  0  # atno 8009 bound_to 7997
  155.3692  140.0465  157.3036 H   0  0  0  0  0  0  0  0  0  0  0  0  # atno 8010 bound_to 7997
  140.3632  143.2831  151.9590 H   0  0  0  0  0  0  0  0  0  0  0  0  # atno 10167 bound_to 10162
  156.4185  130.8017  151.2239 H   0  0  0  0  0  0  0  0  0  0  0  0  # atno 10718 bound_to 10713
  154.5224  135.5739  153.6692 H   0  0  0  0  0  0  0  0  0  0  0  0  # atno 10763 bound_to 10752
  152.9920  135.6185  154.2737 H   0  0  0  0  0  0  0  0  0  0  0  0  # atno 10764 bound_to 10752
  154.2658  135.2855  155.2738 H   0  0  0  0  0  0  0  0  0  0  0  0  # atno 10765 bound_to 10752
  140.9461  134.1128  157.4106 H   0  0  0  0  0  0  0  0  0  0  0  0  # atno 11005 bound_to 11000
  146.3315  139.8566  142.8863 LP  0  0  0  0  0  0  0  0  0  0  0  0  # atno 17320 bound_to 7965
  145.2870  141.0156  143.3685 LP  0  0  0  0  0  0  0  0  0  0  0  0  # atno 17321 bound_to 7965
  139.4812  144.5974  151.7666 LP  0  0  0  0  0  0  0  0  0  0  0  0  # atno 17342 bound_to 10162
  140.5107  144.1030  150.5994 LP  0  0  0  0  0  0  0  0  0  0  0  0  # atno 17343 bound_to 10162
  157.7508  131.0235  150.3838 LP  0  0  0  0  0  0  0  0  0  0  0  0  # atno 17370 bound_to 10713
  156.4151  130.3941  149.6864 LP  0  0  0  0  0  0  0  0  0  0  0  0  # atno 17371 bound_to 10713
  139.8834  135.0052  156.6296 LP  0  0  0  0  0  0  0  0  0  0  0  0  # atno 17394 bound_to 11000
  140.7667  133.8772  155.8460 LP  0  0  0  0  0  0  0  0  0  0  0  0  # atno 17395 bound_to 11000

$$$$
