#       Name:                AV-unprocessed.smi:1288
#       Creating user name   scv26
#       Creation time:       Fri Mar 27 04:52:56 2020


#       File generated by GOLD software.
#

@<TRIPOS>MOLECULE
AV-unprocessed.smi:1288
    47    49     1
SMALL
NO_CHARGES


@<TRIPOS>ATOM
      1 ****        -2.1696   1.4673  -2.7167 C.3            1 S1                 0.0000
      2 ****        -2.8154   1.7554  -1.3986 C.2            1 S1                 0.0000
      3 ****        -4.1380   1.8488  -1.2599 N.2            1 S1                 0.0000
      4 ****        -4.2825   2.1262   0.0858 C.ar           1 S1                 0.0000
      5 ****        -5.4458   2.3388   0.8597 C.ar           1 S1                 0.0000
      6 ****        -5.3452   2.6105   2.2398 C.ar           1 S1                 0.0000
      7 ****        -4.0829   2.6745   2.8647 C.ar           1 S1                 0.0000
      8 ****        -2.9111   2.4652   2.1123 C.ar           1 S1                 0.0000
      9 ****        -3.0168   2.1938   0.7349 C.ar           1 S1                 0.0000
     10 ****        -2.0873   1.9423  -0.2702 N.pl3          1 S1                 0.0000
     11 ****        -0.6384   1.8983  -0.1221 C.3            1 S1                 0.0000
     12 ****        -0.1029   0.4702   0.1073 C.3            1 S1                 0.0000
     13 ****        -0.6673  -0.0487   1.2959 O.3            1 S1                 0.0000
     14 ****         1.4277   0.4484   0.2446 C.3            1 S1                 0.0000
     15 ****         1.9034  -0.8562  -0.0450 O.3            1 S1                 0.0000
     16 ****         3.3130  -0.9630   0.0614 C.3            1 S1                 0.0000
     17 ****         3.7863  -2.3681  -0.2553 C.ar           1 S1                 0.0000
     18 ****         4.1087  -3.2572   0.7918 C.ar           1 S1                 0.0000
     19 ****         4.5497  -4.5632   0.5019 C.ar           1 S1                 0.0000
     20 ****         4.6687  -4.9858  -0.8361 C.ar           1 S1                 0.0000
     21 ****         4.3451  -4.1022  -1.8839 C.ar           1 S1                 0.0000
     22 ****         3.9037  -2.7957  -1.5958 C.ar           1 S1                 0.0000
     23 ****         3.5931  -1.9547  -2.6115 F              1 S1                 0.0000
     24 ****        -2.9255   1.3302  -3.4907 H              1 S1                 0.0000
     25 ****        -1.5724   0.5577  -2.6581 H              1 S1                 0.0000
     26 ****        -1.5255   2.2960  -3.0111 H              1 S1                 0.0000
     27 ****        -6.4174   2.2920   0.3904 H              1 S1                 0.0000
     28 ****        -6.2409   2.7705   2.8219 H              1 S1                 0.0000
     29 ****        -4.0146   2.8836   3.9223 H              1 S1                 0.0000
     30 ****        -1.9434   2.5105   2.5892 H              1 S1                 0.0000
     31 ****        -0.1838   2.3356  -1.0114 H              1 S1                 0.0000
     32 ****        -0.3543   2.5460   0.7083 H              1 S1                 0.0000
     33 ****        -0.4006  -0.1636  -0.7285 H              1 S1                 0.0000
     34 ****        -1.6070  -0.0689   1.1968 H              1 S1                 0.0000
     35 ****         1.8700   1.1380  -0.4764 H              1 S1                 0.0000
     36 ****         1.7394   0.7769   1.2379 H              1 S1                 0.0000
     37 ****         3.7952  -0.2626  -0.6224 H              1 S1                 0.0000
     38 ****         3.6308  -0.6916   1.0695 H              1 S1                 0.0000
     39 ****         4.0178  -2.9411   1.8208 H              1 S1                 0.0000
     40 ****         4.7962  -5.2404   1.3064 H              1 S1                 0.0000
     41 ****         5.0066  -5.9873  -1.0584 H              1 S1                 0.0000
     42 ****         4.4348  -4.4266  -2.9100 H              1 S1                 0.0000
     43 ****        -4.8482   1.7442  -1.9561 LP             1 S1                 0.0000
     44 ****        -0.4220   0.5359   2.0692 LP             1 S1                 0.0000
     45 ****        -0.3248  -0.9745   1.4560 LP             1 S1                 0.0000
     46 ****         1.6344  -1.0945  -0.9782 LP             1 S1                 0.0000
     47 ****         1.4849  -1.4987   0.5969 LP             1 S1                 0.0000
@<TRIPOS>BOND
    1    1    2 1     
    2    1   24 1     
    3    1   25 1     
    4    1   26 1     
    5    2   10 1     
    6    2    3 2     
    7    3    4 1     
    8    4    9 ar    
    9    4    5 ar    
   10    5    6 ar    
   11    5   27 1     
   12    6    7 ar    
   13    6   28 1     
   14    7    8 ar    
   15    7   29 1     
   16    8    9 ar    
   17    8   30 1     
   18    9   10 1     
   19   10   11 1     
   20   11   12 1     
   21   11   31 1     
   22   11   32 1     
   23   12   13 1     
   24   12   14 1     
   25   12   33 1     
   26   13   34 1     
   27   14   15 1     
   28   14   35 1     
   29   14   36 1     
   30   15   16 1     
   31   16   17 1     
   32   16   37 1     
   33   16   38 1     
   34   17   22 ar    
   35   17   18 ar    
   36   18   19 ar    
   37   18   39 1     
   38   19   20 ar    
   39   19   40 1     
   40   20   21 ar    
   41   20   41 1     
   42   21   22 ar    
   43   21   42 1     
   44   22   23 1     
   45    3   43 1     
   46   13   44 1     
   47   13   45 1     
   48   15   46 1     
   49   15   47 1     
@<TRIPOS>SUBSTRUCTURE
      1 S1             1
@<TRIPOS>SET
LONE_PAIRS      STATIC     ATOMS    <user>   **** ""
5 43 44 45 46 47
DONOR_HYDROGENS      STATIC     ATOMS    <user>   **** ""
1 34
ATOM$BLUE        STATIC     ATOMS    COLORGROUP SYSTEM
5 43 44 45 46 47
ATOM$RED        STATIC     ATOMS    COLORGROUP SYSTEM
1 34
