AV-unprocessed.smi:3149|AV-procd|sdf|12003|dock4
  -GOLD-   2272017413D 1   1.00000     0.00000
 Structure written by MMmdl.
 37 38  0  0  0  0  0  0  0  0  1 V2000
  152.5511  139.8230  158.6942 C   0  0  0  0  0  0  0  0  0  0  0  0
  151.8899  141.2137  158.7568 C   0  0  2  0  0  0  0  0  0  0  0  0
  151.4626  141.5783  157.4075 N   0  0  0  0  0  0  0  0  0  0  0  0
  150.3347  140.7619  156.9386 C   0  0  0  0  0  0  0  0  0  0  0  0
  150.2162  140.7508  155.4093 C   0  0  0  0  0  0  0  0  0  0  0  0
  151.0755  140.2131  154.7091 O   0  0  0  0  0  0  0  0  0  0  0  0
  149.1494  141.4569  154.8486 N   0  0  0  0  0  0  0  0  0  0  0  0
  148.4567  140.9739  153.6635 C   0  0  0  0  0  0  0  0  0  0  0  0
  147.2217  141.6810  154.2316 C   0  0  0  0  0  0  0  0  0  0  0  0
  147.9214  141.6850  155.5949 C   0  0  0  0  0  0  0  0  0  0  0  0
  152.8455  142.3161  159.2878 C   0  0  2  0  0  0  0  0  0  0  0  0
  153.4798  141.9677  160.6464 C   0  0  0  0  0  0  0  0  0  0  0  0
  152.1631  143.6023  159.3927 N   0  0  0  0  0  0  0  0  0  0  0  0
  152.1578  144.4947  160.4466 C   0  0  0  0  0  0  0  0  0  0  0  0
  151.3776  145.5540  160.0816 C   0  0  0  0  0  0  0  0  0  0  0  0
  150.9462  145.2183  158.7682 C   0  0  0  0  0  0  0  0  0  0  0  0
  151.4189  144.0527  158.3587 N   0  0  0  0  0  0  0  0  0  0  0  0
  152.8238  139.4653  159.6865 H   0  0  0  0  0  0  0  0  0  0  0  0
  153.4567  139.8422  158.0869 H   0  0  0  0  0  0  0  0  0  0  0  0
  151.8844  139.0738  158.2675 H   0  0  0  0  0  0  0  0  0  0  0  0
  151.0243  141.1663  159.4198 H   0  0  0  0  0  0  0  0  0  0  0  0
  151.2173  142.5589  157.4004 H   0  0  0  0  0  0  0  0  0  0  0  0
  150.4456  139.7368  157.2933 H   0  0  0  0  0  0  0  0  0  0  0  0
  149.4054  141.1553  157.3528 H   0  0  0  0  0  0  0  0  0  0  0  0
  148.8298  141.3909  152.7276 H   0  0  0  0  0  0  0  0  0  0  0  0
  148.3500  139.8876  153.6306 H   0  0  0  0  0  0  0  0  0  0  0  0
  147.0688  142.6808  153.8209 H   0  0  0  0  0  0  0  0  0  0  0  0
  146.3090  141.0853  154.1983 H   0  0  0  0  0  0  0  0  0  0  0  0
  147.6314  140.8458  156.2305 H   0  0  0  0  0  0  0  0  0  0  0  0
  147.8922  142.6409  156.1188 H   0  0  0  0  0  0  0  0  0  0  0  0
  153.6615  142.4314  158.5710 H   0  0  0  0  0  0  0  0  0  0  0  0
  154.1332  141.0989  160.5752 H   0  0  0  0  0  0  0  0  0  0  0  0
  152.7199  141.7554  161.3991 H   0  0  0  0  0  0  0  0  0  0  0  0
  154.0894  142.7934  161.0148 H   0  0  0  0  0  0  0  0  0  0  0  0
  152.7017  144.3023  161.3595 H   0  0  0  0  0  0  0  0  0  0  0  0
  151.1502  146.4347  160.6638 H   0  0  0  0  0  0  0  0  0  0  0  0
  150.3086  145.7835  158.1043 H   0  0  0  0  0  0  0  0  0  0  0  0
  1  2  1  0  0  0  0
  1 18  1  0  0  0  0
  1 19  1  0  0  0  0
  1 20  1  0  0  0  0
  2  3  1  0  0  0  0
  2 11  1  0  0  0  0
  2 21  1  0  0  0  0
  3  4  1  0  0  0  0
  3 22  1  0  0  0  0
  4  5  1  0  0  0  0
  4 23  1  0  0  0  0
  4 24  1  0  0  0  0
  5  6  2  0  0  0  0
  5  7  1  0  0  0  0
  7 10  1  0  0  0  0
  7  8  1  0  0  0  0
  8  9  1  0  0  0  0
  8 25  1  0  0  0  0
  8 26  1  0  0  0  0
  9 10  1  0  0  0  0
  9 27  1  0  0  0  0
  9 28  1  0  0  0  0
 10 29  1  0  0  0  0
 10 30  1  0  0  0  0
 11 12  1  0  0  0  0
 11 13  1  0  0  0  0
 11 31  1  0  0  0  0
 12 32  1  0  0  0  0
 12 33  1  0  0  0  0
 12 34  1  0  0  0  0
 13 17  1  0  0  0  0
 13 14  1  0  0  0  0
 14 15  2  0  0  0  0
 14 35  1  0  0  0  0
 15 16  1  0  0  0  0
 15 36  1  0  0  0  0
 16 17  2  0  0  0  0
 16 37  1  0  0  0  0
M  END
> <s_m_source_file>
AV-unprocessed.smi

> <i_m_source_file_index>
3149

> <i_lp_mmshare_version>
43012

> <i_f3d_flags>
0

> <s_epik_input>
bjFbY0hdW2NIXVtjSF1uMVtDQEBIXShbQ0gzXSlbQ0BIXShbQ0gzXSlbTkhdW0NIMl1DKD1PKU4yW0NIMl1bQ0gyXVtDSDJdMg==

> <s_epik_cmdline>
J2VwaWtfcHl0aG9uJywgJy1waCcsICc3LjAnLCAnLXRuJywgJzgnLCAnLW1hJywgJzIwMCcsICctbWV0YWxfYmluZGluZycsICctaW1hZScsICc8aW5maWxlLm1hZT4nLCAnLW9tYWUnLCAnPG91dGZpbGUubWFlPic=

> <r_lp_tautomer_probability>
1

> <r_epik_Ionization_Penalty>
0.918674

> <r_epik_Ionization_Penalty_Charging>
0

> <r_epik_Ionization_Penalty_Neutral>
0.918674

> <r_epik_State_Penalty>
0.958258

> <r_epik_Charging_Adjusted_Penalty>
0.958258

> <i_epik_Tot_Q>
0

> <i_epik_Tot_abs_Q>
0

> <r_epik_Metal_State_Penalty>
0.956881

> <b_epik_Metal_Only>
0

> <s_lp_Force_Field>
OPLS_2005

> <r_lp_Energy>
24.7968

> <b_lp_Chiralities_Consistent>
1

> <s_lp_Variant>
AV-unprocessed.smi:3149-5

> <Gold.Version>
5.8.1

> <Gold.Id.Protein>
6NUR|6NUR_protein|mol2

> <Gold.PLP.Fitness>
47.4402

> <Gold.PLP.PLP>
-42.2460

> <Gold.PLP.part.hbond>
-0.9754

> <Gold.PLP.part.metal>
0.0000

> <Gold.PLP.part.buried>
-4.0206

> <Gold.PLP.part.nonpolar>
-37.7417

> <Gold.PLP.part.repulsive>
0.1884

> <Gold.PLP.ligand.clash>
0.0000

> <Gold.PLP.ligand.torsion>
0.8669

> <Gold.PLP.Chemscore.Hbond>
1.0000

> <Gold.PLP.Chemscore.CHOScore>
1.0000

> <Gold.PLP.Chemscore.Metal>
0.0000

> <Gold.Chemscore.Hbonds>
donor molecule, donor type, donor heavy atom, donor atom, acceptor molecule, acceptor atom, score
      P1  H  7989  7998       L1     6  0.89
      L1  C    16    37       P1  8029  0.97

> <Gold.PLP.Chemscore.Internal.Correction>
0.9280

> <Gold.Rescore>
     Score         DG    S(hbond)    S(metal)    S(lipo)     H(rot)  DE(clash)    DE(int)     intcor
     12.74     -15.07       1.00        0.00      92.67       1.79       0.08       2.25       ----

> <Gold.Chemscore.Fitness>
12.7379

> <Gold.Chemscore.DG>
-15.0721

> <Gold.Chemscore.ZeroCoef>
-5.4800

> <Gold.Chemscore.Hbond>
0.9958

> <Gold.Chemscore.Metal>
0.0000

> <Gold.Chemscore.Lipo>
92.6668

> <Gold.Chemscore.Internal_Hbond>
0.0000

> <Gold.Chemscore.DEClash>
0.0816

> <Gold.Chemscore.DEInternal>
2.2526

> <Gold.Chemscore.Rot>
1.7874

> <Gold.Chemscore.Internal.Correction>
   9.000000E+99

> <Gold.Chemscore.Hbonds>
donor molecule, donor type, donor heavy atom, donor atom, acceptor molecule, acceptor atom, score
      P1  H  7989  7998       L1     6  0.85

> <Gold.Chemscore.Hbond.Weighted>
-3.3259

> <Gold.Chemscore.Metal.Weighted>
-0.0000

> <Gold.Chemscore.Lipo.Weighted>
-10.8420

> <Gold.Chemscore.Internal_Hbond.Weighted>
0.0000

> <Gold.Chemscore.DEClash.Weighted>
0.0816

> <Gold.Chemscore.DEInternal.Weighted>
2.2526

> <Gold.Chemscore.Rot.Weighted>
4.5758

> <Gold.Chemscore.Internal.Correction.Weighted>
   9.000000E+99

> <Gold.Protein.RotatedTorsions>
[ 6907 6896 6895 6894 ] final  162.46 input  -60.11 | X-H torsion
[ 7974 7965 7964 7962 ] final -106.85 input  175.53 | X-H torsion
[ 8008 7997 7996 7995 ] final  170.87 input   59.86 | X-H torsion
[ 10167 10162 10161 10158 ] final  152.03 input  -65.29 | X-H torsion
[ 10718 10713 10712 10709 ] final   54.43 input   66.30 | X-H torsion
[ 10763 10752 10751 10750 ] final   -7.27 input  -60.55 | X-H torsion
[ 11005 11000 10999 10996 ] final   47.00 input  -57.11 | X-H torsion

> <Gold.Protein.ActiveResidues>
 VAL166  LYS551  ARG553  GLY616  TRP617  ASP618  TYR619  PRO620  LYS621  CYS622 
 ASP623  PHE694  ASN695  SER759  ASP760  ASP761  ALA762  ILE779  LEU786  VAL792 
 PHE793  MET794  SER795  GLU796  ALA797  LYS798  CYS799  TRP800  GLU811  SER814 

> <Gold.Protein.RotatedAtoms>
  151.9401  133.3635  159.3961 H   0  0  0  0  0  0  0  0  0  0  0  0  # atno 6907 bound_to 6896
  150.7000  134.4448  159.5318 H   0  0  0  0  0  0  0  0  0  0  0  0  # atno 6908 bound_to 6896
  152.2103  134.8507  160.0549 H   0  0  0  0  0  0  0  0  0  0  0  0  # atno 6909 bound_to 6896
  145.2127  140.9103  143.3305 H   0  0  0  0  0  0  0  0  0  0  0  0  # atno 7974 bound_to 7965
  156.1324  140.1526  156.9045 H   0  0  0  0  0  0  0  0  0  0  0  0  # atno 8008 bound_to 7997
  154.4920  140.0848  156.7654 H   0  0  0  0  0  0  0  0  0  0  0  0  # atno 8009 bound_to 7997
  155.4231  140.3424  155.4275 H   0  0  0  0  0  0  0  0  0  0  0  0  # atno 8010 bound_to 7997
  139.4836  144.5392  151.7593 H   0  0  0  0  0  0  0  0  0  0  0  0  # atno 10167 bound_to 10162
  157.5256  130.8595  149.8617 H   0  0  0  0  0  0  0  0  0  0  0  0  # atno 10718 bound_to 10713
  153.4240  135.7010  153.6275 H   0  0  0  0  0  0  0  0  0  0  0  0  # atno 10763 bound_to 10752
  153.4718  135.3713  155.2395 H   0  0  0  0  0  0  0  0  0  0  0  0  # atno 10764 bound_to 10752
  154.8723  135.4044  154.3613 H   0  0  0  0  0  0  0  0  0  0  0  0  # atno 10765 bound_to 10752
  140.1318  134.4695  155.8515 H   0  0  0  0  0  0  0  0  0  0  0  0  # atno 11005 bound_to 11000
  144.9840  139.3755  143.6248 LP  0  0  0  0  0  0  0  0  0  0  0  0  # atno 17320 bound_to 7965
  146.3394  139.8994  142.8797 LP  0  0  0  0  0  0  0  0  0  0  0  0  # atno 17321 bound_to 7965
  140.4929  144.1284  150.5954 LP  0  0  0  0  0  0  0  0  0  0  0  0  # atno 17342 bound_to 10162
  140.4151  143.2638  151.9785 LP  0  0  0  0  0  0  0  0  0  0  0  0  # atno 17343 bound_to 10162
  156.0384  130.3745  150.1499 LP  0  0  0  0  0  0  0  0  0  0  0  0  # atno 17370 bound_to 10713
  156.9685  130.9827  151.3464 LP  0  0  0  0  0  0  0  0  0  0  0  0  # atno 17371 bound_to 10713
  141.2171  133.6799  156.7084 LP  0  0  0  0  0  0  0  0  0  0  0  0  # atno 17394 bound_to 11000
  140.2832  134.8300  157.3952 LP  0  0  0  0  0  0  0  0  0  0  0  0  # atno 17395 bound_to 11000

$$$$
