#       Name:                AV-unprocessed.smi:2679
#       Creating user name   scv26
#       Creation time:       Fri Mar 27 14:39:53 2020


#       File generated by GOLD software.
#

@<TRIPOS>MOLECULE
AV-unprocessed.smi:2679
    44    45     1
SMALL
NO_CHARGES


@<TRIPOS>ATOM
      1 ****        -4.6807   0.9441   1.8704 C.3            1 S1                 0.0000
      2 ****        -3.5062   0.0196   1.8768 C.2            1 S1                 0.0000
      3 ****        -3.6043  -1.2945   2.0899 N.2            1 S1                 0.0000
      4 ****        -2.3148  -1.7734   2.0193 N.2            1 S1                 0.0000
      5 ****        -1.5512  -0.7073   1.7696 C.2            1 S1                 0.0000
      6 ****         0.1983  -0.7846   1.5897 S.3            1 S1                 0.0000
      7 ****         0.2437  -1.5399  -0.0627 C.3            1 S1                 0.0000
      8 ****         0.0571  -2.9928   0.0896 C.1            1 S1                 0.0000
      9 ****        -0.0899  -4.1343   0.2095 N.1            1 S1                 0.0000
     10 ****         1.5378  -1.1708  -0.8230 C.3            1 S1                 0.0000
     11 ****         1.6026   0.3423  -1.1363 C.3            1 S1                 0.0000
     12 ****         2.8849   0.7194  -1.8953 C.3            1 S1                 0.0000
     13 ****         3.0282  -0.0970  -3.1872 C.3            1 S1                 0.0000
     14 ****         2.9762  -1.6023  -2.8919 C.3            1 S1                 0.0000
     15 ****         1.6945  -1.9795  -2.1312 C.3            1 S1                 0.0000
     16 ****        -2.2436   0.4455   1.6649 N.pl3          1 S1                 0.0000
     17 ****        -1.7543   1.7920   1.3985 C.3            1 S1                 0.0000
     18 ****        -1.2940   2.4783   2.6861 C.2            1 S1                 0.0000
     19 ****         0.0187   2.6696   2.8398 N.am           1 S1                 0.0000
     20 ****        -2.1127   2.8277   3.5335 O.2            1 S1                 0.0000
     21 ****        -5.5948   0.4006   2.1118 H              1 S1                 0.0000
     22 ****        -4.7984   1.3975   0.8861 H              1 S1                 0.0000
     23 ****        -4.5447   1.7335   2.6096 H              1 S1                 0.0000
     24 ****        -0.6124  -1.1761  -0.6319 H              1 S1                 0.0000
     25 ****         2.3836  -1.4218  -0.1810 H              1 S1                 0.0000
     26 ****         0.7324   0.6308  -1.7275 H              1 S1                 0.0000
     27 ****         1.5547   0.9280  -0.2186 H              1 S1                 0.0000
     28 ****         2.8787   1.7846  -2.1284 H              1 S1                 0.0000
     29 ****         3.7516   0.5480  -1.2556 H              1 S1                 0.0000
     30 ****         2.2283   0.1682  -3.8799 H              1 S1                 0.0000
     31 ****         3.9656   0.1532  -3.6849 H              1 S1                 0.0000
     32 ****         3.0339  -2.1654  -3.8238 H              1 S1                 0.0000
     33 ****         3.8481  -1.8899  -2.3030 H              1 S1                 0.0000
     34 ****         1.7179  -3.0485  -1.9198 H              1 S1                 0.0000
     35 ****         0.8273  -1.8115  -2.7712 H              1 S1                 0.0000
     36 ****        -0.9424   1.7413   0.6716 H              1 S1                 0.0000
     37 ****        -2.5453   2.3827   0.9363 H              1 S1                 0.0000
     38 ****         0.3711   3.1221   3.6706 H              1 S1                 0.0000
     39 ****         0.6564   2.3634   2.1191 H              1 S1                 0.0000
     40 ****        -4.4373  -1.8197   2.2639 LP             1 S1                 0.0000
     41 ****        -2.0140  -2.7204   2.1315 LP             1 S1                 0.0000
     42 ****        -0.2170  -5.1207   0.3131 LP             1 S1                 0.0000
     43 ****        -3.0879   2.6640   3.3840 LP             1 S1                 0.0000
     44 ****        -1.8038   3.2757   4.3724 LP             1 S1                 0.0000
@<TRIPOS>BOND
    1    1    2 1     
    2    1   21 1     
    3    1   22 1     
    4    1   23 1     
    5    2   16 1     
    6    2    3 2     
    7    3    4 1     
    8    4    5 2     
    9    5    6 1     
   10    5   16 1     
   11    6    7 1     
   12    7    8 1     
   13    7   10 1     
   14    7   24 1     
   15    8    9 3     
   16   10   15 1     
   17   10   11 1     
   18   10   25 1     
   19   11   12 1     
   20   11   26 1     
   21   11   27 1     
   22   12   13 1     
   23   12   28 1     
   24   12   29 1     
   25   13   14 1     
   26   13   30 1     
   27   13   31 1     
   28   14   15 1     
   29   14   32 1     
   30   14   33 1     
   31   15   34 1     
   32   15   35 1     
   33   16   17 1     
   34   17   18 1     
   35   17   36 1     
   36   17   37 1     
   37   18   19 am    
   38   18   20 2     
   39   19   38 1     
   40   19   39 1     
   41    3   40 1     
   42    4   41 1     
   43    9   42 1     
   44   20   43 1     
   45   20   44 1     
@<TRIPOS>SUBSTRUCTURE
      1 S1             1
@<TRIPOS>SET
LONE_PAIRS      STATIC     ATOMS    <user>   **** ""
5 40 41 42 43 44
DONOR_HYDROGENS      STATIC     ATOMS    <user>   **** ""
2 38 39
ATOM$BLUE        STATIC     ATOMS    COLORGROUP SYSTEM
5 40 41 42 43 44
ATOM$RED        STATIC     ATOMS    COLORGROUP SYSTEM
2 38 39
