AV-unprocessed.smi:33|AV-procd|sdf|209|dock10
  -GOLD-   2262015503D 1   1.00000     0.00000
 Structure written by MMmdl.
 67 72  0  0  0  0  0  0  0  0  1 V2000
  148.2853  142.0292  158.5522 O   0  0  0  0  0  0  0  0  0  0  0  0
  149.4179  142.1371  158.0775 C   0  0  0  0  0  0  0  0  0  0  0  0
  149.9277  141.2893  157.1627 O   0  0  0  0  0  0  0  0  0  0  0  0
  149.2044  140.1279  156.7891 C   0  0  0  0  0  0  0  0  0  0  0  0
  149.8621  139.4909  155.5569 C   0  0  2  0  0  0  0  0  0  0  0  0
  149.1304  138.3239  155.1639 O   0  0  0  0  0  0  0  0  0  0  0  0
  149.8900  137.1698  155.3731 C   0  0  2  0  0  0  0  0  0  0  0  0
  149.0233  136.1144  155.9830 N   0  0  0  0  0  0  0  0  0  0  0  0
  149.2832  135.3978  157.1301 C   0  0  0  0  0  0  0  0  0  0  0  0
  148.3650  134.5375  157.4766 N   0  0  0  0  0  0  0  0  0  0  0  0
  147.3985  134.6646  156.4882 C   0  0  0  0  0  0  0  0  0  0  0  0
  146.1459  134.0379  156.2475 C   0  0  0  0  0  0  0  0  0  0  0  0
  145.6322  133.0873  157.0639 N   0  0  0  0  0  0  0  0  0  0  0  0
  144.4792  133.4623  157.8966 C   0  0  0  0  0  0  0  0  0  0  0  0
  144.2934  134.6481  158.1779 O   0  0  0  0  0  0  0  0  0  0  0  0
  143.5646  132.4090  158.4556 C   0  0  0  0  0  0  0  0  0  0  0  0
  142.7569  132.6991  159.5771 C   0  0  0  0  0  0  0  0  0  0  0  0
  141.8893  131.7208  160.1001 C   0  0  0  0  0  0  0  0  0  0  0  0
  141.8098  130.4524  159.4943 C   0  0  0  0  0  0  0  0  0  0  0  0
  142.5905  130.1660  158.3584 C   0  0  0  0  0  0  0  0  0  0  0  0
  143.4588  131.1436  157.8348 C   0  0  0  0  0  0  0  0  0  0  0  0
  146.2856  131.7704  157.0490 C   0  0  0  0  0  0  0  0  0  0  0  0
  146.2174  131.0469  158.0443 O   0  0  0  0  0  0  0  0  0  0  0  0
  147.0700  131.3222  155.8483 C   0  0  0  0  0  0  0  0  0  0  0  0
  148.2413  130.5511  156.0153 C   0  0  0  0  0  0  0  0  0  0  0  0
  148.9704  130.1146  154.8922 C   0  0  0  0  0  0  0  0  0  0  0  0
  148.5235  130.4309  153.5950 C   0  0  0  0  0  0  0  0  0  0  0  0
  147.3410  131.1747  153.4206 C   0  0  0  0  0  0  0  0  0  0  0  0
  146.6114  131.6114  154.5431 C   0  0  0  0  0  0  0  0  0  0  0  0
  145.4403  134.4218  155.1522 N   0  0  0  0  0  0  0  0  0  0  0  0
  145.9333  135.3639  154.3434 C   0  0  0  0  0  0  0  0  0  0  0  0
  147.0830  136.0337  154.4478 N   0  0  0  0  0  0  0  0  0  0  0  0
  147.7975  135.6516  155.5448 C   0  0  0  0  0  0  0  0  0  0  0  0
  151.0234  137.5589  156.3171 C   0  0  1  0  0  0  0  0  0  0  0  0
  152.1893  136.7738  156.1667 O   0  0  0  0  0  0  0  0  0  0  0  0
  151.2750  138.9852  155.8582 C   0  0  1  0  0  0  0  0  0  0  0  0
  151.9665  139.0039  154.7149 F   0  0  0  0  0  0  0  0  0  0  0  0
  150.3673  143.2231  158.4553 C   0  0  0  0  0  0  0  0  0  0  0  0
  151.5480  143.4046  157.6978 C   0  0  0  0  0  0  0  0  0  0  0  0
  152.4636  144.4222  158.0293 C   0  0  0  0  0  0  0  0  0  0  0  0
  152.2100  145.2704  159.1228 C   0  0  0  0  0  0  0  0  0  0  0  0
  151.0395  145.0994  159.8849 C   0  0  0  0  0  0  0  0  0  0  0  0
  150.1225  144.0822  159.5550 C   0  0  0  0  0  0  0  0  0  0  0  0
  149.2206  139.4266  157.6240 H   0  0  0  0  0  0  0  0  0  0  0  0
  148.1587  140.3590  156.5872 H   0  0  0  0  0  0  0  0  0  0  0  0
  149.8774  140.2152  154.7413 H   0  0  0  0  0  0  0  0  0  0  0  0
  150.2279  136.7643  154.4181 H   0  0  0  0  0  0  0  0  0  0  0  0
  150.1823  135.5404  157.7117 H   0  0  0  0  0  0  0  0  0  0  0  0
  142.8102  133.6686  160.0513 H   0  0  0  0  0  0  0  0  0  0  0  0
  141.2845  131.9439  160.9666 H   0  0  0  0  0  0  0  0  0  0  0  0
  141.1454  129.7020  159.8966 H   0  0  0  0  0  0  0  0  0  0  0  0
  142.5233  129.1965  157.8876 H   0  0  0  0  0  0  0  0  0  0  0  0
  144.0496  130.9137  156.9598 H   0  0  0  0  0  0  0  0  0  0  0  0
  148.5930  130.3014  157.0060 H   0  0  0  0  0  0  0  0  0  0  0  0
  149.8719  129.5354  155.0260 H   0  0  0  0  0  0  0  0  0  0  0  0
  149.0832  130.0960  152.7341 H   0  0  0  0  0  0  0  0  0  0  0  0
  146.9918  131.4091  152.4257 H   0  0  0  0  0  0  0  0  0  0  0  0
  145.7022  132.1767  154.3970 H   0  0  0  0  0  0  0  0  0  0  0  0
  145.3195  135.6197  153.4919 H   0  0  0  0  0  0  0  0  0  0  0  0
  150.6712  137.5429  157.3499 H   0  0  0  0  0  0  0  0  0  0  0  0
  152.6416  136.7479  156.9962 H   0  0  0  0  0  0  0  0  0  0  0  0
  151.8191  139.5913  156.5834 H   0  0  0  0  0  0  0  0  0  0  0  0
  151.7643  142.7660  156.8534 H   0  0  0  0  0  0  0  0  0  0  0  0
  153.3613  144.5518  157.4429 H   0  0  0  0  0  0  0  0  0  0  0  0
  152.9121  146.0508  159.3767 H   0  0  0  0  0  0  0  0  0  0  0  0
  150.8437  145.7497  160.7248 H   0  0  0  0  0  0  0  0  0  0  0  0
  149.2343  143.9783  160.1609 H   0  0  0  0  0  0  0  0  0  0  0  0
  1  2  2  0  0  0  0
  2  3  1  0  0  0  0
  2 38  1  0  0  0  0
  3  4  1  0  0  0  0
  4  5  1  0  0  0  0
  4 44  1  0  0  0  0
  4 45  1  0  0  0  0
  5 36  1  0  0  0  0
  5  6  1  0  0  0  0
  5 46  1  0  0  0  0
  6  7  1  0  0  0  0
  7  8  1  0  0  0  0
  7 34  1  0  0  0  0
  7 47  1  0  0  0  0
  8 33  1  0  0  0  0
  8  9  1  0  0  0  0
  9 10  2  0  0  0  0
  9 48  1  0  0  0  0
 10 11  1  0  0  0  0
 11 33  2  0  0  0  0
 11 12  1  0  0  0  0
 12 13  1  0  0  0  0
 12 30  2  0  0  0  0
 13 14  1  0  0  0  0
 13 22  1  0  0  0  0
 14 15  2  0  0  0  0
 14 16  1  0  0  0  0
 16 21  1  0  0  0  0
 16 17  2  0  0  0  0
 17 18  1  0  0  0  0
 17 49  1  0  0  0  0
 18 19  2  0  0  0  0
 18 50  1  0  0  0  0
 19 20  1  0  0  0  0
 19 51  1  0  0  0  0
 20 21  2  0  0  0  0
 20 52  1  0  0  0  0
 21 53  1  0  0  0  0
 22 23  2  0  0  0  0
 22 24  1  0  0  0  0
 24 29  1  0  0  0  0
 24 25  2  0  0  0  0
 25 26  1  0  0  0  0
 25 54  1  0  0  0  0
 26 27  2  0  0  0  0
 26 55  1  0  0  0  0
 27 28  1  0  0  0  0
 27 56  1  0  0  0  0
 28 29  2  0  0  0  0
 28 57  1  0  0  0  0
 29 58  1  0  0  0  0
 30 31  1  0  0  0  0
 31 32  2  0  0  0  0
 31 59  1  0  0  0  0
 32 33  1  0  0  0  0
 34 35  1  0  0  0  0
 34 36  1  0  0  0  0
 34 60  1  0  0  0  0
 35 61  1  0  0  0  0
 36 37  1  0  0  0  0
 36 62  1  0  0  0  0
 38 43  1  0  0  0  0
 38 39  2  0  0  0  0
 39 40  1  0  0  0  0
 39 63  1  0  0  0  0
 40 41  2  0  0  0  0
 40 64  1  0  0  0  0
 41 42  1  0  0  0  0
 41 65  1  0  0  0  0
 42 43  2  0  0  0  0
 42 66  1  0  0  0  0
 43 67  1  0  0  0  0
M  END
> <s_m_source_file>
AV-unprocessed.smi

> <i_m_source_file_index>
33

> <i_lp_mmshare_version>
43012

> <i_f3d_flags>
0

> <s_epik_input>
W2NIXTFbY0hdW2NIXVtjSF1bY0hdYzFDKD1PKU9bQ0gyXVtDQEBIXTJPW0NASF0oW0NAQEhdKFtPSF0pW0NAQEhdMkYpbihbY0hdbjMpYyhjMzQpbltjSF1uYzROKEMoPU8pYzVbY0hdW2NIXVtjSF1bY0hdW2NIXTUpQyg9TyljNltjSF1bY0hdW2NIXVtjSF1bY0hdNg==

> <s_epik_cmdline>
J2VwaWtfcHl0aG9uJywgJy1waCcsICc3LjAnLCAnLXRuJywgJzgnLCAnLW1hJywgJzIwMCcsICctbWV0YWxfYmluZGluZycsICctaW1hZScsICc8aW5maWxlLm1hZT4nLCAnLW9tYWUnLCAnPG91dGZpbGUubWFlPic=

> <r_lp_tautomer_probability>
1

> <r_epik_Ionization_Penalty>
0.00067664

> <r_epik_Ionization_Penalty_Charging>
0

> <r_epik_Ionization_Penalty_Neutral>
0.00067664

> <r_epik_State_Penalty>
0.000428095

> <r_epik_Charging_Adjusted_Penalty>
0.000428095

> <i_epik_Tot_Q>
0

> <i_epik_Tot_abs_Q>
0

> <r_epik_Metal_State_Penalty>
-0

> <b_epik_Metal_Only>
0

> <s_epik_Chemistry_Notes>
This compound has an ester and may undergo hydrolysis at high or low pH. This compound contains an acetal/aminal-like group ( X-CH(R)-Y where X, Y are N, S, or O) that may be acid/base labile, releasing an aldehyde.

> <s_lp_Force_Field>
OPLS_2005

> <r_lp_Energy>
71.9351

> <b_lp_Chiralities_Consistent>
1

> <s_lp_Variant>
AV-unprocessed.smi:33-11

> <Gold.Version>
5.8.1

> <Gold.Id.Protein>
6NUR|6NUR_protein|mol2

> <Gold.PLP.Fitness>
51.5011

> <Gold.PLP.PLP>
-49.9184

> <Gold.PLP.part.hbond>
-1.2125

> <Gold.PLP.part.metal>
0.0000

> <Gold.PLP.part.buried>
-8.5829

> <Gold.PLP.part.nonpolar>
-39.8392

> <Gold.PLP.part.repulsive>
0.4463

> <Gold.PLP.ligand.clash>
0.0000

> <Gold.PLP.ligand.torsion>
2.8553

> <Gold.PLP.Chemscore.Hbond>
1.0000

> <Gold.PLP.Chemscore.CHOScore>
0.0000

> <Gold.PLP.Chemscore.Metal>
0.0000

> <Gold.Chemscore.Hbonds>
donor molecule, donor type, donor heavy atom, donor atom, acceptor molecule, acceptor atom, score
      P1  H 10752 10765       L1    35  1.00

> <Gold.PLP.Chemscore.Internal.Correction>
4.2932

> <Gold.Rescore>
     Score         DG    S(hbond)    S(metal)    S(lipo)     H(rot)  DE(clash)    DE(int)     intcor
      9.56     -17.01       0.88        0.00     128.52       2.52       0.13       7.32       ----

> <Gold.Chemscore.Fitness>
9.5596

> <Gold.Chemscore.DG>
-17.0080

> <Gold.Chemscore.ZeroCoef>
-5.4800

> <Gold.Chemscore.Hbond>
0.8846

> <Gold.Chemscore.Metal>
0.0000

> <Gold.Chemscore.Lipo>
128.5196

> <Gold.Chemscore.Internal_Hbond>
0.0000

> <Gold.Chemscore.DEClash>
0.1277

> <Gold.Chemscore.DEInternal>
7.3206

> <Gold.Chemscore.Rot>
2.5247

> <Gold.Chemscore.Internal.Correction>
   9.000000E+99

> <Gold.Chemscore.Hbonds>
donor molecule, donor type, donor heavy atom, donor atom, acceptor molecule, acceptor atom, score
      P1  H 10752 10765       L1    35  0.38

> <Gold.Chemscore.Hbond.Weighted>
-2.9544

> <Gold.Chemscore.Metal.Weighted>
-0.0000

> <Gold.Chemscore.Lipo.Weighted>
-15.0368

> <Gold.Chemscore.Internal_Hbond.Weighted>
0.0000

> <Gold.Chemscore.DEClash.Weighted>
0.1277

> <Gold.Chemscore.DEInternal.Weighted>
7.3206

> <Gold.Chemscore.Rot.Weighted>
6.4633

> <Gold.Chemscore.Internal.Correction.Weighted>
   9.000000E+99

> <Gold.Protein.RotatedTorsions>
[ 6907 6896 6895 6894 ] final -111.74 input  -60.11 | X-H torsion
[ 7974 7965 7964 7962 ] final   81.38 input  175.53 | X-H torsion
[ 8008 7997 7996 7995 ] final    8.90 input   59.86 | X-H torsion
[ 10167 10162 10161 10158 ] final  -63.27 input  -65.29 | X-H torsion
[ 10718 10713 10712 10709 ] final -110.40 input   66.30 | X-H torsion
[ 10763 10752 10751 10750 ] final -148.17 input  -60.55 | X-H torsion
[ 11005 11000 10999 10996 ] final  174.39 input  -57.11 | X-H torsion

> <Gold.Protein.ActiveResidues>
 VAL166  LYS551  ARG553  GLY616  TRP617  ASP618  TYR619  PRO620  LYS621  CYS622 
 ASP623  PHE694  ASN695  SER759  ASP760  ASP761  ALA762  ILE779  LEU786  VAL792 
 PHE793  MET794  SER795  GLU796  ALA797  LYS798  CYS799  TRP800  GLU811  SER814 

> <Gold.Protein.RotatedAtoms>
  150.7711  133.9191  159.3392 H   0  0  0  0  0  0  0  0  0  0  0  0  # atno 6907 bound_to 6896
  151.7077  135.0916  160.0271 H   0  0  0  0  0  0  0  0  0  0  0  0  # atno 6908 bound_to 6896
  152.3729  133.6404  159.6136 H   0  0  0  0  0  0  0  0  0  0  0  0  # atno 6909 bound_to 6896
  145.6389  139.2421  143.2042 H   0  0  0  0  0  0  0  0  0  0  0  0  # atno 7974 bound_to 7965
  154.7729  140.2805  155.6123 H   0  0  0  0  0  0  0  0  0  0  0  0  # atno 8008 bound_to 7997
  156.2937  140.2638  156.2464 H   0  0  0  0  0  0  0  0  0  0  0  0  # atno 8009 bound_to 7997
  154.9878  140.0374  157.2296 H   0  0  0  0  0  0  0  0  0  0  0  0  # atno 8010 bound_to 7997
  140.5882  143.2337  151.6197 H   0  0  0  0  0  0  0  0  0  0  0  0  # atno 10167 bound_to 10162
  156.0589  130.5813  150.8232 H   0  0  0  0  0  0  0  0  0  0  0  0  # atno 10718 bound_to 10713
  154.8247  135.3341  154.6932 H   0  0  0  0  0  0  0  0  0  0  0  0  # atno 10763 bound_to 10752
  153.7559  135.6936  153.4940 H   0  0  0  0  0  0  0  0  0  0  0  0  # atno 10764 bound_to 10752
  153.2144  135.4471  155.0366 H   0  0  0  0  0  0  0  0  0  0  0  0  # atno 10765 bound_to 10752
  140.3508  134.7196  157.4266 H   0  0  0  0  0  0  0  0  0  0  0  0  # atno 11005 bound_to 11000
  146.1297  140.7202  142.9418 LP  0  0  0  0  0  0  0  0  0  0  0  0  # atno 17320 bound_to 7965
  144.7165  140.4227  143.7040 LP  0  0  0  0  0  0  0  0  0  0  0  0  # atno 17321 bound_to 7965
  139.5211  144.3204  152.0916 LP  0  0  0  0  0  0  0  0  0  0  0  0  # atno 17342 bound_to 10162
  140.2364  144.4315  150.6278 LP  0  0  0  0  0  0  0  0  0  0  0  0  # atno 17343 bound_to 10162
  157.5581  131.0945  150.9599 LP  0  0  0  0  0  0  0  0  0  0  0  0  # atno 17370 bound_to 10713
  156.9843  130.5539  149.5298 LP  0  0  0  0  0  0  0  0  0  0  0  0  # atno 17371 bound_to 10713
  140.0704  134.5870  155.8648 LP  0  0  0  0  0  0  0  0  0  0  0  0  # atno 17394 bound_to 11000
  141.2012  133.6617  156.5940 LP  0  0  0  0  0  0  0  0  0  0  0  0  # atno 17395 bound_to 11000

$$$$
