AV-unprocessed.smi:2478|AV-procd|sdf|9765|dock1
  -GOLD-   2272013403D 1   1.00000     0.00000
 Structure written by MMmdl.
 42 43  0  0  0  0  0  0  0  0  1 V2000
  154.5640  137.2246  165.1630 C   0  0  0  0  0  0  0  0  0  0  0  0
  154.2970  136.6628  163.7578 C   0  0  2  0  0  0  0  0  0  0  0  0
  155.1111  135.3805  163.4917 C   0  0  0  0  0  0  0  0  0  0  0  0
  154.8161  134.8038  162.0978 C   0  0  0  0  0  0  0  0  0  0  0  0
  155.0670  135.8467  160.9984 C   0  0  0  0  0  0  0  0  0  0  0  0
  154.2612  137.1320  161.2535 C   0  0  0  0  0  0  0  0  0  0  0  0
  154.5378  137.7154  162.6515 C   0  0  2  0  0  0  0  0  0  0  0  0
  155.8959  138.1336  162.6907 O   0  0  0  0  0  0  0  0  0  0  0  0
  156.2256  139.1629  161.7682 C   0  0  0  0  0  0  0  0  0  0  0  0
  155.3506  140.3866  162.0427 C   0  0  0  0  0  0  0  0  0  0  0  0
  155.4396  140.9606  163.1278 O   0  0  0  0  0  0  0  0  0  0  0  0
  154.5348  140.7625  161.0402 N   0  0  0  0  0  0  0  0  0  0  0  0
  153.6050  141.8347  160.9994 C   0  0  0  0  0  0  0  0  0  0  0  0
  153.4859  142.7528  161.9906 N   0  0  0  0  0  0  0  0  0  0  0  0
  152.5758  143.7403  161.8691 C   0  0  0  0  0  0  0  0  0  0  0  0
  151.7324  143.8747  160.7525 C   0  0  0  0  0  0  0  0  0  0  0  0
  151.8465  142.9301  159.7178 C   0  0  0  0  0  0  0  0  0  0  0  0
  152.7919  141.8847  159.8395 C   0  0  0  0  0  0  0  0  0  0  0  0
  152.9626  140.9371  158.8543 O   0  0  0  0  0  0  0  0  0  0  0  0
  151.9036  140.1601  158.5053 C   0  0  0  0  0  0  0  0  0  0  0  0
  151.1241  140.8009  157.6003 F   0  0  0  0  0  0  0  0  0  0  0  0
  152.3445  139.0146  157.9316 F   0  0  0  0  0  0  0  0  0  0  0  0
  155.6122  137.4963  165.2920 H   0  0  0  0  0  0  0  0  0  0  0  0
  154.3158  136.4915  165.9309 H   0  0  0  0  0  0  0  0  0  0  0  0
  153.9629  138.1146  165.3510 H   0  0  0  0  0  0  0  0  0  0  0  0
  153.2408  136.3916  163.7217 H   0  0  0  0  0  0  0  0  0  0  0  0
  156.1774  135.5931  163.5798 H   0  0  0  0  0  0  0  0  0  0  0  0
  154.8845  134.6308  164.2504 H   0  0  0  0  0  0  0  0  0  0  0  0
  155.4342  133.9229  161.9221 H   0  0  0  0  0  0  0  0  0  0  0  0
  153.7792  134.4686  162.0528 H   0  0  0  0  0  0  0  0  0  0  0  0
  156.1313  136.0815  160.9547 H   0  0  0  0  0  0  0  0  0  0  0  0
  154.8042  135.4311  160.0254 H   0  0  0  0  0  0  0  0  0  0  0  0
  154.4914  137.8735  160.4877 H   0  0  0  0  0  0  0  0  0  0  0  0
  153.1969  136.9132  161.1586 H   0  0  0  0  0  0  0  0  0  0  0  0
  153.8634  138.5592  162.8117 H   0  0  0  0  0  0  0  0  0  0  0  0
  157.2789  139.4309  161.8645 H   0  0  0  0  0  0  0  0  0  0  0  0
  156.0528  138.8296  160.7439 H   0  0  0  0  0  0  0  0  0  0  0  0
  154.5665  140.1878  160.2102 H   0  0  0  0  0  0  0  0  0  0  0  0
  152.5200  144.4453  162.6852 H   0  0  0  0  0  0  0  0  0  0  0  0
  151.0189  144.6828  160.6903 H   0  0  0  0  0  0  0  0  0  0  0  0
  151.2172  143.0154  158.8444 H   0  0  0  0  0  0  0  0  0  0  0  0
  151.2999  139.8890  159.3720 H   0  0  0  0  0  0  0  0  0  0  0  0
  1  2  1  0  0  0  0
  1 23  1  0  0  0  0
  1 24  1  0  0  0  0
  1 25  1  0  0  0  0
  2  7  1  0  0  0  0
  2  3  1  0  0  0  0
  2 26  1  0  0  0  0
  3  4  1  0  0  0  0
  3 27  1  0  0  0  0
  3 28  1  0  0  0  0
  4  5  1  0  0  0  0
  4 29  1  0  0  0  0
  4 30  1  0  0  0  0
  5  6  1  0  0  0  0
  5 31  1  0  0  0  0
  5 32  1  0  0  0  0
  6  7  1  0  0  0  0
  6 33  1  0  0  0  0
  6 34  1  0  0  0  0
  7  8  1  0  0  0  0
  7 35  1  0  0  0  0
  8  9  1  0  0  0  0
  9 10  1  0  0  0  0
  9 36  1  0  0  0  0
  9 37  1  0  0  0  0
 10 11  2  0  0  0  0
 10 12  1  0  0  0  0
 12 13  1  0  0  0  0
 12 38  1  0  0  0  0
 13 18  1  0  0  0  0
 13 14  2  0  0  0  0
 14 15  1  0  0  0  0
 15 16  2  0  0  0  0
 15 39  1  0  0  0  0
 16 17  1  0  0  0  0
 16 40  1  0  0  0  0
 17 18  2  0  0  0  0
 17 41  1  0  0  0  0
 18 19  1  0  0  0  0
 19 20  1  0  0  0  0
 20 21  1  0  0  0  0
 20 22  1  0  0  0  0
 20 42  1  0  0  0  0
M  END
> <s_m_source_file>
AV-unprocessed.smi

> <i_m_source_file_index>
2478

> <i_lp_mmshare_version>
43012

> <i_f3d_flags>
0

> <s_epik_input>
W0NIM11bQ0BASF0xW0NIMl1bQ0gyXVtDSDJdW0NIMl1bQ0BIXTFPW0NIMl1DKD1PKVtOSF1jMm5bY0hdW2NIXVtjSF1jMk9bQ0hdKEYpRg==

> <s_epik_cmdline>
J2VwaWtfcHl0aG9uJywgJy1waCcsICc3LjAnLCAnLXRuJywgJzgnLCAnLW1hJywgJzIwMCcsICctbWV0YWxfYmluZGluZycsICctaW1hZScsICc8aW5maWxlLm1hZT4nLCAnLW9tYWUnLCAnPG91dGZpbGUubWFlPic=

> <r_lp_tautomer_probability>
1

> <r_epik_Ionization_Penalty>
6.06012e-05

> <r_epik_Ionization_Penalty_Charging>
0

> <r_epik_Ionization_Penalty_Neutral>
6.06012e-05

> <r_epik_State_Penalty>
-0

> <r_epik_Charging_Adjusted_Penalty>
0

> <i_epik_Tot_Q>
0

> <i_epik_Tot_abs_Q>
0

> <r_epik_Metal_State_Penalty>
-0

> <b_epik_Metal_Only>
0

> <s_lp_Force_Field>
OPLS_2005

> <r_lp_Energy>
14.1885

> <b_lp_Chiralities_Consistent>
1

> <s_lp_Variant>
AV-unprocessed.smi:2478-3

> <Gold.Version>
5.8.1

> <Gold.Id.Protein>
6NUR|6NUR_protein|mol2

> <Gold.PLP.Fitness>
42.2827

> <Gold.PLP.PLP>
-42.7410

> <Gold.PLP.part.hbond>
-1.3405

> <Gold.PLP.part.metal>
0.0000

> <Gold.PLP.part.buried>
-1.4828

> <Gold.PLP.part.nonpolar>
-38.8041

> <Gold.PLP.part.repulsive>
0.0639

> <Gold.PLP.ligand.clash>
0.0000

> <Gold.PLP.ligand.torsion>
0.2641

> <Gold.PLP.Chemscore.Hbond>
0.0000

> <Gold.PLP.Chemscore.CHOScore>
0.0000

> <Gold.PLP.Chemscore.Metal>
0.0000

> <Gold.PLP.Chemscore.Internal.Correction>
0.0699

> <Gold.Rescore>
     Score         DG    S(hbond)    S(metal)    S(lipo)     H(rot)  DE(clash)    DE(int)     intcor
     11.97     -13.61       0.71        0.00      89.81       1.85       0.04       1.61       ----

> <Gold.Chemscore.Fitness>
11.9691

> <Gold.Chemscore.DG>
-13.6121

> <Gold.Chemscore.ZeroCoef>
-5.4800

> <Gold.Chemscore.Hbond>
0.7052

> <Gold.Chemscore.Metal>
0.0000

> <Gold.Chemscore.Lipo>
89.8102

> <Gold.Chemscore.Internal_Hbond>
0.0000

> <Gold.Chemscore.DEClash>
0.0365

> <Gold.Chemscore.DEInternal>
1.6066

> <Gold.Chemscore.Rot>
1.8481

> <Gold.Chemscore.Internal.Correction>
   9.000000E+99

> <Gold.Chemscore.Hbond.Weighted>
-2.3555

> <Gold.Chemscore.Metal.Weighted>
-0.0000

> <Gold.Chemscore.Lipo.Weighted>
-10.5078

> <Gold.Chemscore.Internal_Hbond.Weighted>
0.0000

> <Gold.Chemscore.DEClash.Weighted>
0.0365

> <Gold.Chemscore.DEInternal.Weighted>
1.6066

> <Gold.Chemscore.Rot.Weighted>
4.7311

> <Gold.Chemscore.Internal.Correction.Weighted>
   9.000000E+99

> <Gold.Protein.RotatedTorsions>
[ 6907 6896 6895 6894 ] final  -53.49 input  -60.11 | X-H torsion
[ 7974 7965 7964 7962 ] final  105.73 input  175.53 | X-H torsion
[ 8008 7997 7996 7995 ] final -114.44 input   59.86 | X-H torsion
[ 10167 10162 10161 10158 ] final -107.15 input  -65.29 | X-H torsion
[ 10718 10713 10712 10709 ] final  104.10 input   66.30 | X-H torsion
[ 10763 10752 10751 10750 ] final  140.14 input  -60.55 | X-H torsion
[ 11005 11000 10999 10996 ] final  147.39 input  -57.11 | X-H torsion

> <Gold.Protein.ActiveResidues>
 VAL166  LYS551  ARG553  GLY616  TRP617  ASP618  TYR619  PRO620  LYS621  CYS622 
 ASP623  PHE694  ASN695  SER759  ASP760  ASP761  ALA762  ILE779  LEU786  VAL792 
 PHE793  MET794  SER795  GLU796  ALA797  LYS798  CYS799  TRP800  GLU811  SER814 

> <Gold.Protein.RotatedAtoms>
  150.8422  134.7718  159.6940 H   0  0  0  0  0  0  0  0  0  0  0  0  # atno 6907 bound_to 6896
  152.4507  134.5397  159.9845 H   0  0  0  0  0  0  0  0  0  0  0  0  # atno 6908 bound_to 6896
  151.5535  133.3376  159.2993 H   0  0  0  0  0  0  0  0  0  0  0  0  # atno 6909 bound_to 6896
  145.3159  139.2527  143.3738 H   0  0  0  0  0  0  0  0  0  0  0  0  # atno 7974 bound_to 7965
  155.0363  140.0392  157.2493 H   0  0  0  0  0  0  0  0  0  0  0  0  # atno 8008 bound_to 7997
  154.7254  140.2720  155.6480 H   0  0  0  0  0  0  0  0  0  0  0  0  # atno 8009 bound_to 7997
  156.2827  140.2694  156.1938 H   0  0  0  0  0  0  0  0  0  0  0  0  # atno 8010 bound_to 7997
  140.1800  143.3974  152.1288 H   0  0  0  0  0  0  0  0  0  0  0  0  # atno 10167 bound_to 10162
  157.6751  131.0795  150.5655 H   0  0  0  0  0  0  0  0  0  0  0  0  # atno 10718 bound_to 10713
  153.9177  135.3004  155.3448 H   0  0  0  0  0  0  0  0  0  0  0  0  # atno 10763 bound_to 10752
  154.7591  135.4943  153.9434 H   0  0  0  0  0  0  0  0  0  0  0  0  # atno 10764 bound_to 10752
  153.1159  135.6770  153.9522 H   0  0  0  0  0  0  0  0  0  0  0  0  # atno 10765 bound_to 10752
  140.0871  134.9063  157.1593 H   0  0  0  0  0  0  0  0  0  0  0  0  # atno 11005 bound_to 11000
  146.3101  140.3705  142.8673 LP  0  0  0  0  0  0  0  0  0  0  0  0  # atno 17320 bound_to 7965
  144.8978  140.7605  143.5886 LP  0  0  0  0  0  0  0  0  0  0  0  0  # atno 17321 bound_to 7965
  139.5300  144.7148  151.5090 LP  0  0  0  0  0  0  0  0  0  0  0  0  # atno 17342 bound_to 10162
  140.6526  143.8666  150.6801 LP  0  0  0  0  0  0  0  0  0  0  0  0  # atno 17343 bound_to 10162
  156.5958  130.4341  149.5917 LP  0  0  0  0  0  0  0  0  0  0  0  0  # atno 17370 bound_to 10713
  156.2546  130.6927  151.1676 LP  0  0  0  0  0  0  0  0  0  0  0  0  # atno 17371 bound_to 10713
  140.3404  134.2710  155.7213 LP  0  0  0  0  0  0  0  0  0  0  0  0  # atno 17394 bound_to 11000
  141.2066  133.7828  157.0167 LP  0  0  0  0  0  0  0  0  0  0  0  0  # atno 17395 bound_to 11000

$$$$
