AV-unprocessed.smi:456|AV-procd|sdf|2617|dock2
  -GOLD-   2262023 13D 1   1.00000     0.00000
 Structure written by MMmdl.
 33 35  0  0  0  0  0  0  0  0  2 V2000
  152.3892  139.6824  155.7108 O   0  0  0  0  0  0  0  0  0  0  0  0
  151.3967  140.6519  155.9737 C   0  0  2  0  0  0  0  0  0  0  0  0
  151.1111  140.6466  157.4887 C   0  0  0  0  0  0  0  0  0  0  0  0
  150.7353  141.9721  157.9968 N   0  0  0  0  0  0  0  0  0  0  0  0
  149.8636  142.8869  157.4918 C   0  0  0  0  0  0  0  0  0  0  0  0
  149.8715  143.9645  158.3249 N   0  3  0  0  0  0  0  0  0  0  0  0
  150.7595  143.7333  159.3783 C   0  0  0  0  0  0  0  0  0  0  0  0
  151.1094  144.5244  160.4678 C   0  0  0  0  0  0  0  0  0  0  0  0
  152.0563  143.9875  161.3649 C   0  0  0  0  0  0  0  0  0  0  0  0
  152.4319  144.7159  162.4428 F   0  0  0  0  0  0  0  0  0  0  0  0
  152.6189  142.7094  161.1605 C   0  0  0  0  0  0  0  0  0  0  0  0
  153.5261  142.2324  162.0453 F   0  0  0  0  0  0  0  0  0  0  0  0
  152.2558  141.9162  160.0521 C   0  0  0  0  0  0  0  0  0  0  0  0
  151.3184  142.4549  159.1725 C   0  0  0  0  0  0  0  0  0  0  0  0
  150.1371  140.4257  155.1492 C   0  0  0  0  0  0  0  0  0  0  0  0
  149.7304  139.1188  154.8006 C   0  0  0  0  0  0  0  0  0  0  0  0
  148.5557  138.9175  154.0500 C   0  0  0  0  0  0  0  0  0  0  0  0
  147.7795  140.0207  153.6464 C   0  0  0  0  0  0  0  0  0  0  0  0
  148.1781  141.3256  153.9942 C   0  0  0  0  0  0  0  0  0  0  0  0
  149.3533  141.5274  154.7436 C   0  0  0  0  0  0  0  0  0  0  0  0
  152.3599  139.4646  154.7915 H   0  0  0  0  0  0  0  0  0  0  0  0
  151.8271  141.6143  155.6939 H   0  0  0  0  0  0  0  0  0  0  0  0
  150.2987  139.9578  157.7251 H   0  0  0  0  0  0  0  0  0  0  0  0
  151.9808  140.3021  158.0500 H   0  0  0  0  0  0  0  0  0  0  0  0
  149.2779  142.7797  156.5898 H   0  0  0  0  0  0  0  0  0  0  0  0
  150.6824  145.5035  160.6276 H   0  0  0  0  0  0  0  0  0  0  0  0
  152.6921  140.9395  159.9042 H   0  0  0  0  0  0  0  0  0  0  0  0
  150.3166  138.2658  155.1099 H   0  0  0  0  0  0  0  0  0  0  0  0
  148.2499  137.9161  153.7849 H   0  0  0  0  0  0  0  0  0  0  0  0
  146.8788  139.8660  153.0707 H   0  0  0  0  0  0  0  0  0  0  0  0
  147.5822  142.1720  153.6860 H   0  0  0  0  0  0  0  0  0  0  0  0
  149.6482  142.5318  155.0101 H   0  0  0  0  0  0  0  0  0  0  0  0
  149.3106  144.7948  158.1818 H   0  0  0  0  0  0  0  0  0  0  0  0
  1  2  1  0  0  0  0
  1 21  1  0  0  0  0
  2  3  1  0  0  0  0
  2 15  1  0  0  0  0
  2 22  1  0  0  0  0
  3  4  1  0  0  0  0
  3 23  1  0  0  0  0
  3 24  1  0  0  0  0
  4 14  1  0  0  0  0
  4  5  1  0  0  0  0
  5  6  2  0  0  0  0
  5 25  1  0  0  0  0
  6  7  1  0  0  0  0
  6 33  1  0  0  0  0
  7 14  2  0  0  0  0
  7  8  1  0  0  0  0
  8  9  2  0  0  0  0
  8 26  1  0  0  0  0
  9 10  1  0  0  0  0
  9 11  1  0  0  0  0
 11 12  1  0  0  0  0
 11 13  2  0  0  0  0
 13 14  1  0  0  0  0
 13 27  1  0  0  0  0
 15 20  1  0  0  0  0
 15 16  2  0  0  0  0
 16 17  1  0  0  0  0
 16 28  1  0  0  0  0
 17 18  2  0  0  0  0
 17 29  1  0  0  0  0
 18 19  1  0  0  0  0
 18 30  1  0  0  0  0
 19 20  2  0  0  0  0
 19 31  1  0  0  0  0
 20 32  1  0  0  0  0
M  CHG  1   6   1
M  END
> <s_m_source_file>
AV-unprocessed.smi

> <i_m_source_file_index>
456

> <i_lp_mmshare_version>
43012

> <i_f3d_flags>
0

> <s_epik_input>
W2NIXTFbY0hdW2NIXVtjSF1bY0hdYzFbQ0BIXShbT0hdKVtDSDJdbihbY0hdbjIpYyhjMjMpW2NIXWMoRiljKEYpW2NIXTM=

> <s_epik_cmdline>
J2VwaWtfcHl0aG9uJywgJy1waCcsICc3LjAnLCAnLXRuJywgJzgnLCAnLW1hJywgJzIwMCcsICctbWV0YWxfYmluZGluZycsICctaW1hZScsICc8aW5maWxlLm1hZT4nLCAnLW9tYWUnLCAnPG91dGZpbGUubWFlPic=

> <r_epik_Ionization_Penalty>
2.16139

> <r_epik_Ionization_Penalty_Charging>
2.16138

> <r_epik_Ionization_Penalty_Neutral>
1.34362e-06

> <r_epik_State_Penalty>
2.30198

> <r_epik_Charging_Adjusted_Penalty>
4.46337

> <i_epik_Tot_Q>
1

> <i_epik_Tot_abs_Q>
1

> <r_epik_Metal_State_Penalty>
6.38245

> <b_epik_Metal_Only>
0

> <s_lp_Force_Field>
OPLS_2005

> <r_lp_Energy>
16.094

> <b_lp_Chiralities_Consistent>
1

> <s_lp_Variant>
AV-unprocessed.smi:456-3

> <Gold.Version>
5.8.1

> <Gold.Id.Protein>
6NUR|6NUR_protein|mol2

> <Gold.PLP.Fitness>
49.7650

> <Gold.PLP.PLP>
-41.6003

> <Gold.PLP.part.hbond>
-3.0807

> <Gold.PLP.part.metal>
0.0000

> <Gold.PLP.part.buried>
3.9855

> <Gold.PLP.part.nonpolar>
-40.7658

> <Gold.PLP.part.repulsive>
0.0580

> <Gold.PLP.ligand.clash>
0.0000

> <Gold.PLP.ligand.torsion>
1.2876

> <Gold.PLP.Chemscore.Hbond>
2.9825

> <Gold.PLP.Chemscore.CHOScore>
0.5930

> <Gold.PLP.Chemscore.Metal>
0.0000

> <Gold.Chemscore.Hbonds>
donor molecule, donor type, donor heavy atom, donor atom, acceptor molecule, acceptor atom, score
      L1  H     6    33       P1  8029  2.00
      P1  H  7997  8010       L1     1  0.89
      L1  C     5    25       P1  8028  0.62

> <Gold.PLP.Chemscore.Internal.Correction>
0.0133

> <Gold.Rescore>
     Score         DG    S(hbond)    S(metal)    S(lipo)     H(rot)  DE(clash)    DE(int)     intcor
     13.69     -17.88       1.22        0.00     115.45       2.03       2.84       1.36       ----

> <Gold.Chemscore.Fitness>
13.6897

> <Gold.Chemscore.DG>
-17.8835

> <Gold.Chemscore.ZeroCoef>
-5.4800

> <Gold.Chemscore.Hbond>
1.2218

> <Gold.Chemscore.Metal>
0.0000

> <Gold.Chemscore.Lipo>
115.4544

> <Gold.Chemscore.Internal_Hbond>
0.0000

> <Gold.Chemscore.DEClash>
2.8367

> <Gold.Chemscore.DEInternal>
1.3571

> <Gold.Chemscore.Rot>
2.0256

> <Gold.Chemscore.Internal.Correction>
   9.000000E+99

> <Gold.Chemscore.Hbonds>
donor molecule, donor type, donor heavy atom, donor atom, acceptor molecule, acceptor atom, score
      L1  H     6    33       P1  8029  0.27
      P1  H  7997  8010       L1     1  0.46

> <Gold.Chemscore.Hbond.Weighted>
-4.0809

> <Gold.Chemscore.Metal.Weighted>
-0.0000

> <Gold.Chemscore.Lipo.Weighted>
-13.5082

> <Gold.Chemscore.Internal_Hbond.Weighted>
0.0000

> <Gold.Chemscore.DEClash.Weighted>
2.8367

> <Gold.Chemscore.DEInternal.Weighted>
1.3571

> <Gold.Chemscore.Rot.Weighted>
5.1855

> <Gold.Chemscore.Internal.Correction.Weighted>
   9.000000E+99

> <Gold.Protein.RotatedTorsions>
[ 6907 6896 6895 6894 ] final   77.65 input  -60.11 | X-H torsion
[ 7974 7965 7964 7962 ] final  -30.94 input  175.53 | X-H torsion
[ 8008 7997 7996 7995 ] final   90.04 input   59.86 | X-H torsion
[ 10167 10162 10161 10158 ] final  -53.34 input  -65.29 | X-H torsion
[ 10718 10713 10712 10709 ] final   24.76 input   66.30 | X-H torsion
[ 10763 10752 10751 10750 ] final -175.36 input  -60.55 | X-H torsion
[ 11005 11000 10999 10996 ] final  147.51 input  -57.11 | X-H torsion

> <Gold.Protein.ActiveResidues>
 VAL166  LYS551  ARG553  GLY616  TRP617  ASP618  TYR619  PRO620  LYS621  CYS622 
 ASP623  PHE694  ASN695  SER759  ASP760  ASP761  ALA762  ILE779  LEU786  VAL792 
 PHE793  MET794  SER795  GLU796  ALA797  LYS798  CYS799  TRP800  GLU811  SER814 

> <Gold.Protein.RotatedAtoms>
  152.5127  134.3784  159.9342 H   0  0  0  0  0  0  0  0  0  0  0  0  # atno 6907 bound_to 6896
  151.3740  133.3838  159.2710 H   0  0  0  0  0  0  0  0  0  0  0  0  # atno 6908 bound_to 6896
  150.9556  134.8970  159.7757 H   0  0  0  0  0  0  0  0  0  0  0  0  # atno 6909 bound_to 6896
  146.1105  140.5604  142.8780 H   0  0  0  0  0  0  0  0  0  0  0  0  # atno 7974 bound_to 7965
  156.0072  140.3354  155.6904 H   0  0  0  0  0  0  0  0  0  0  0  0  # atno 8008 bound_to 7997
  155.6208  140.0675  157.2696 H   0  0  0  0  0  0  0  0  0  0  0  0  # atno 8009 bound_to 7997
  154.4269  140.1777  156.1357 H   0  0  0  0  0  0  0  0  0  0  0  0  # atno 8010 bound_to 7997
  140.6490  143.2553  151.4778 H   0  0  0  0  0  0  0  0  0  0  0  0  # atno 10167 bound_to 10162
  157.1842  130.6816  149.6125 H   0  0  0  0  0  0  0  0  0  0  0  0  # atno 10718 bound_to 10713
  154.5853  135.2840  155.0691 H   0  0  0  0  0  0  0  0  0  0  0  0  # atno 10763 bound_to 10752
  154.2012  135.6424  153.5091 H   0  0  0  0  0  0  0  0  0  0  0  0  # atno 10764 bound_to 10752
  153.0102  135.5469  154.6521 H   0  0  0  0  0  0  0  0  0  0  0  0  # atno 10765 bound_to 10752
  140.0882  134.9057  157.1608 H   0  0  0  0  0  0  0  0  0  0  0  0  # atno 11005 bound_to 11000
  144.7507  140.5184  143.6804 LP  0  0  0  0  0  0  0  0  0  0  0  0  # atno 17320 bound_to 7965
  145.5673  139.1482  143.3308 LP  0  0  0  0  0  0  0  0  0  0  0  0  # atno 17321 bound_to 7965
  139.5703  144.1945  152.1826 LP  0  0  0  0  0  0  0  0  0  0  0  0  # atno 17342 bound_to 10162
  140.1239  144.5349  150.6845 LP  0  0  0  0  0  0  0  0  0  0  0  0  # atno 17343 bound_to 10162
  155.9720  130.4636  150.6189 LP  0  0  0  0  0  0  0  0  0  0  0  0  # atno 17370 bound_to 10713
  157.3923  131.0797  151.1382 LP  0  0  0  0  0  0  0  0  0  0  0  0  # atno 17371 bound_to 10713
  140.3390  134.2724  155.7215 LP  0  0  0  0  0  0  0  0  0  0  0  0  # atno 17394 bound_to 11000
  141.2069  133.7820  157.0149 LP  0  0  0  0  0  0  0  0  0  0  0  0  # atno 17395 bound_to 11000

$$$$
