AV-unprocessed.smi:2889|AV-procd|sdf|11111|dock5
  -GOLD-   2272015573D 1   1.00000     0.00000
 Structure written by MMmdl.
 36 37  0  0  0  0  0  0  0  0  1 V2000
  151.8342  145.6707  159.8437 C   0  0  0  0  0  0  0  0  0  0  0  0
  151.1659  144.9058  158.3411 S   0  0  0  0  0  0  0  0  0  0  0  0
  152.0215  143.2975  158.3467 C   0  0  1  0  0  0  0  0  0  0  0  0
  152.5091  142.9813  159.7734 C   0  0  0  0  0  0  0  0  0  0  0  0
  153.2033  141.6134  159.8536 C   0  0  0  0  0  0  0  0  0  0  0  0
  152.2785  140.4976  159.3481 C   0  0  0  0  0  0  0  0  0  0  0  0
  151.8008  140.7862  157.9179 C   0  0  0  0  0  0  0  0  0  0  0  0
  151.1147  142.1621  157.8144 C   0  0  2  0  0  0  0  0  0  0  0  0
  150.7568  142.4083  156.4162 N   0  0  0  0  0  0  0  0  0  0  0  0
  150.1264  141.1054  155.4781 S   0  0  0  0  0  0  0  0  0  0  0  0
  149.3540  140.2355  156.3791 O   0  0  0  0  0  0  0  0  0  0  0  0
  149.4905  141.7009  154.2932 O   0  0  0  0  0  0  0  0  0  0  0  0
  151.6601  140.2237  154.9545 C   0  0  0  0  0  0  0  0  0  0  0  0
  151.4518  138.7361  155.0256 C   0  0  0  0  0  0  0  0  0  0  0  0
  150.3954  137.9624  154.4692 C   0  0  0  0  0  0  0  0  0  0  0  0
  150.7084  136.6851  154.8349 C   0  0  0  0  0  0  0  0  0  0  0  0
  151.8542  136.6663  155.5609 O   0  0  0  0  0  0  0  0  0  0  0  0
  152.3203  137.9806  155.6789 N   0  0  0  0  0  0  0  0  0  0  0  0
  151.3724  146.6453  160.0008 H   0  0  0  0  0  0  0  0  0  0  0  0
  152.9112  145.8138  159.7652 H   0  0  0  0  0  0  0  0  0  0  0  0
  151.6267  145.0482  160.7140 H   0  0  0  0  0  0  0  0  0  0  0  0
  152.9016  143.3829  157.7076 H   0  0  0  0  0  0  0  0  0  0  0  0
  153.1941  143.7587  160.1130 H   0  0  0  0  0  0  0  0  0  0  0  0
  151.6626  142.9955  160.4615 H   0  0  0  0  0  0  0  0  0  0  0  0
  154.1182  141.6304  159.2602 H   0  0  0  0  0  0  0  0  0  0  0  0
  153.5043  141.4094  160.8814 H   0  0  0  0  0  0  0  0  0  0  0  0
  152.7982  139.5395  159.3810 H   0  0  0  0  0  0  0  0  0  0  0  0
  151.4169  140.4059  160.0104 H   0  0  0  0  0  0  0  0  0  0  0  0
  152.6547  140.7483  157.2397 H   0  0  0  0  0  0  0  0  0  0  0  0
  151.1168  140.0006  157.5943 H   0  0  0  0  0  0  0  0  0  0  0  0
  150.2029  142.1455  158.4137 H   0  0  0  0  0  0  0  0  0  0  0  0
  150.1648  143.2345  156.3352 H   0  0  0  0  0  0  0  0  0  0  0  0
  151.8885  140.5348  153.9346 H   0  0  0  0  0  0  0  0  0  0  0  0
  152.4859  140.5461  155.5879 H   0  0  0  0  0  0  0  0  0  0  0  0
  149.5470  138.2918  153.8883 H   0  0  0  0  0  0  0  0  0  0  0  0
  150.2382  135.7276  154.6653 H   0  0  0  0  0  0  0  0  0  0  0  0
  1  2  1  0  0  0  0
  1 19  1  0  0  0  0
  1 20  1  0  0  0  0
  1 21  1  0  0  0  0
  2  3  1  0  0  0  0
  3  8  1  0  0  0  0
  3  4  1  0  0  0  0
  3 22  1  0  0  0  0
  4  5  1  0  0  0  0
  4 23  1  0  0  0  0
  4 24  1  0  0  0  0
  5  6  1  0  0  0  0
  5 25  1  0  0  0  0
  5 26  1  0  0  0  0
  6  7  1  0  0  0  0
  6 27  1  0  0  0  0
  6 28  1  0  0  0  0
  7  8  1  0  0  0  0
  7 29  1  0  0  0  0
  7 30  1  0  0  0  0
  8  9  1  0  0  0  0
  8 31  1  0  0  0  0
  9 10  1  0  0  0  0
  9 32  1  0  0  0  0
 10 11  2  0  0  0  0
 10 12  2  0  0  0  0
 10 13  1  0  0  0  0
 13 14  1  0  0  0  0
 13 33  1  0  0  0  0
 13 34  1  0  0  0  0
 14 18  2  0  0  0  0
 14 15  1  0  0  0  0
 15 16  2  0  0  0  0
 15 35  1  0  0  0  0
 16 17  1  0  0  0  0
 16 36  1  0  0  0  0
 17 18  1  0  0  0  0
M  END
> <s_m_source_file>
AV-unprocessed.smi

> <i_m_source_file_index>
2889

> <i_lp_mmshare_version>
43012

> <i_f3d_flags>
0

> <s_epik_input>
W0NIM11TW0NAQEhdMVtDSDJdW0NIMl1bQ0gyXVtDSDJdW0NASF0xW05IXVMoPU8pKD1PKVtDSDJdYzJbY0hdW2NIXW9uMg==

> <s_epik_cmdline>
J2VwaWtfcHl0aG9uJywgJy1waCcsICc3LjAnLCAnLXRuJywgJzgnLCAnLW1hJywgJzIwMCcsICctbWV0YWxfYmluZGluZycsICctaW1hZScsICc8aW5maWxlLm1hZT4nLCAnLW9tYWUnLCAnPG91dGZpbGUubWFlPic=

> <r_lp_tautomer_probability>
1

> <r_epik_Ionization_Penalty>
0.000229547

> <r_epik_Ionization_Penalty_Charging>
0

> <r_epik_Ionization_Penalty_Neutral>
0.000229547

> <r_epik_State_Penalty>
-0

> <r_epik_Charging_Adjusted_Penalty>
0

> <i_epik_Tot_Q>
0

> <i_epik_Tot_abs_Q>
0

> <r_epik_Metal_State_Penalty>
0.145979

> <b_epik_Metal_Only>
0

> <s_lp_Force_Field>
OPLS_2005

> <r_lp_Energy>
3.91212

> <b_lp_Chiralities_Consistent>
1

> <s_lp_Variant>
AV-unprocessed.smi:2889-4

> <Gold.Version>
5.8.1

> <Gold.Id.Protein>
6NUR|6NUR_protein|mol2

> <Gold.PLP.Fitness>
42.7590

> <Gold.PLP.PLP>
-38.7540

> <Gold.PLP.part.hbond>
-3.8834

> <Gold.PLP.part.metal>
0.0000

> <Gold.PLP.part.buried>
0.5623

> <Gold.PLP.part.nonpolar>
-34.2987

> <Gold.PLP.part.repulsive>
0.2813

> <Gold.PLP.ligand.clash>
0.0000

> <Gold.PLP.ligand.torsion>
1.5811

> <Gold.PLP.Chemscore.Hbond>
2.3343

> <Gold.PLP.Chemscore.CHOScore>
0.0000

> <Gold.PLP.Chemscore.Metal>
0.0000

> <Gold.Chemscore.Hbonds>
donor molecule, donor type, donor heavy atom, donor atom, acceptor molecule, acceptor atom, score
      L1  H     9    32       P1  8028  0.91
      P1  H  8011  8017       L1    12  0.42
      P1  H 10752 10763       L1    17  1.00

> <Gold.PLP.Chemscore.Internal.Correction>
0.1643

> <Gold.Rescore>
     Score         DG    S(hbond)    S(metal)    S(lipo)     H(rot)  DE(clash)    DE(int)     intcor
     16.17     -20.72       2.25        0.00     105.50       1.81       1.69       2.87       ----

> <Gold.Chemscore.Fitness>
16.1676

> <Gold.Chemscore.DG>
-20.7214

> <Gold.Chemscore.ZeroCoef>
-5.4800

> <Gold.Chemscore.Hbond>
2.2518

> <Gold.Chemscore.Metal>
0.0000

> <Gold.Chemscore.Lipo>
105.4979

> <Gold.Chemscore.Internal_Hbond>
0.0000

> <Gold.Chemscore.DEClash>
1.6860

> <Gold.Chemscore.DEInternal>
2.8678

> <Gold.Chemscore.Rot>
1.8058

> <Gold.Chemscore.Internal.Correction>
   9.000000E+99

> <Gold.Chemscore.Hbonds>
donor molecule, donor type, donor heavy atom, donor atom, acceptor molecule, acceptor atom, score
      L1  H     9    32       P1  8028  0.87
      P1  H  8011  8017       L1    12  0.40
      P1  H 10752 10763       L1    17  0.53

> <Gold.Chemscore.Hbond.Weighted>
-7.5210

> <Gold.Chemscore.Metal.Weighted>
-0.0000

> <Gold.Chemscore.Lipo.Weighted>
-12.3433

> <Gold.Chemscore.Internal_Hbond.Weighted>
0.0000

> <Gold.Chemscore.DEClash.Weighted>
1.6860

> <Gold.Chemscore.DEInternal.Weighted>
2.8678

> <Gold.Chemscore.Rot.Weighted>
4.6228

> <Gold.Chemscore.Internal.Correction.Weighted>
   9.000000E+99

> <Gold.Protein.RotatedTorsions>
[ 6907 6896 6895 6894 ] final -102.51 input  -60.11 | X-H torsion
[ 7974 7965 7964 7962 ] final  143.05 input  175.53 | X-H torsion
[ 8008 7997 7996 7995 ] final   47.48 input   59.86 | X-H torsion
[ 10167 10162 10161 10158 ] final -134.39 input  -65.29 | X-H torsion
[ 10718 10713 10712 10709 ] final  155.27 input   66.30 | X-H torsion
[ 10763 10752 10751 10750 ] final   66.41 input  -60.55 | X-H torsion
[ 11005 11000 10999 10996 ] final  -72.06 input  -57.11 | X-H torsion

> <Gold.Protein.ActiveResidues>
 VAL166  LYS551  ARG553  GLY616  TRP617  ASP618  TYR619  PRO620  LYS621  CYS622 
 ASP623  PHE694  ASN695  SER759  ASP760  ASP761  ALA762  ILE779  LEU786  VAL792 
 PHE793  MET794  SER795  GLU796  ALA797  LYS798  CYS799  TRP800  GLU811  SER814 

> <Gold.Protein.RotatedAtoms>
  150.7199  134.0570  159.3817 H   0  0  0  0  0  0  0  0  0  0  0  0  # atno 6907 bound_to 6896
  151.8549  135.0542  160.0472 H   0  0  0  0  0  0  0  0  0  0  0  0  # atno 6908 bound_to 6896
  152.2762  133.5392  159.5506 H   0  0  0  0  0  0  0  0  0  0  0  0  # atno 6909 bound_to 6896
  144.8954  139.5498  143.5779 H   0  0  0  0  0  0  0  0  0  0  0  0  # atno 7974 bound_to 7965
  155.3698  140.3423  155.4243 H   0  0  0  0  0  0  0  0  0  0  0  0  # atno 8008 bound_to 7997
  156.1669  140.1619  156.8550 H   0  0  0  0  0  0  0  0  0  0  0  0  # atno 8009 bound_to 7997
  154.5194  140.0770  156.8124 H   0  0  0  0  0  0  0  0  0  0  0  0  # atno 8010 bound_to 7997
  139.8885  143.6751  152.2616 H   0  0  0  0  0  0  0  0  0  0  0  0  # atno 10167 bound_to 10162
  157.2205  131.0717  151.1915 H   0  0  0  0  0  0  0  0  0  0  0  0  # atno 10718 bound_to 10713
  153.0139  135.5321  154.6819 H   0  0  0  0  0  0  0  0  0  0  0  0  # atno 10763 bound_to 10752
  154.5977  135.2865  155.0571 H   0  0  0  0  0  0  0  0  0  0  0  0  # atno 10764 bound_to 10752
  154.1640  135.6543  153.5045 H   0  0  0  0  0  0  0  0  0  0  0  0  # atno 10765 bound_to 10752
  141.1602  133.6836  156.7001 H   0  0  0  0  0  0  0  0  0  0  0  0  # atno 11005 bound_to 11000
  146.3078  139.7640  142.9043 LP  0  0  0  0  0  0  0  0  0  0  0  0  # atno 17320 bound_to 7965
  145.3709  141.0342  143.3231 LP  0  0  0  0  0  0  0  0  0  0  0  0  # atno 17321 bound_to 7965
  139.7131  144.7616  151.1079 LP  0  0  0  0  0  0  0  0  0  0  0  0  # atno 17342 bound_to 10162
  140.7731  143.5305  150.9429 LP  0  0  0  0  0  0  0  0  0  0  0  0  # atno 17343 bound_to 10162
  157.3580  130.7116  149.6483 LP  0  0  0  0  0  0  0  0  0  0  0  0  # atno 17370 bound_to 10713
  155.9682  130.4233  150.4558 LP  0  0  0  0  0  0  0  0  0  0  0  0  # atno 17371 bound_to 10713
  140.2965  134.8198  157.4061 LP  0  0  0  0  0  0  0  0  0  0  0  0  # atno 17394 bound_to 11000
  140.1300  134.5108  155.8113 LP  0  0  0  0  0  0  0  0  0  0  0  0  # atno 17395 bound_to 11000

$$$$
