#       Name:                AV-unprocessed.smi:1464
#       Creating user name   scv26
#       Creation time:       Fri Mar 27 06:02:15 2020


#       File generated by GOLD software.
#

@<TRIPOS>MOLECULE
AV-unprocessed.smi:1464
    47    48     1
SMALL
NO_CHARGES


@<TRIPOS>ATOM
      1 ****        -3.7924  -2.1624  -2.0498 C.3            1 S1                 0.0000
      2 ****        -3.1662  -1.3365  -0.9109 C.3            1 S1                 0.0000
      3 ****        -3.6015  -1.9212   0.4479 C.3            1 S1                 0.0000
      4 ****        -3.0348  -1.1170   1.6229 C.3            1 S1                 0.0000
      5 ****        -1.5067  -1.0561   1.5471 C.3            1 S1                 0.0000
      6 ****        -1.0348  -0.4610   0.2065 C.3            1 S1                 0.0000
      7 ****         0.4266  -0.4637   0.1672 N.am           1 S1                 0.0000
      8 ****         1.2230   0.5120   0.6308 C.2            1 S1                 0.0000
      9 ****         0.7921   1.5304   1.1747 O.2            1 S1                 0.0000
     10 ****         2.7317   0.2737   0.4602 C.3            1 S1                 0.0000
     11 ****         3.5455   1.4932   0.5690 N.am           1 S1                 0.0000
     12 ****         3.8784   2.0930  -0.7204 N.pl3          1 S1                -1.0000
     13 ****         4.6064   3.2407  -0.7490 C.2            1 S1                 0.0000
     14 ****         4.9097   3.8117  -1.7940 O.2            1 S1                 0.0000
     15 ****         5.0429   3.8058   0.5170 C.2            1 S1                 0.0000
     16 ****         4.7399   3.2183   1.6913 C.2            1 S1                 0.0000
     17 ****         3.9565   1.9913   1.7701 C.2            1 S1                 0.0000
     18 ****         3.6820   1.4465   2.8394 O.2            1 S1                 0.0000
     19 ****        -1.6168  -1.2353  -1.0078 C.3            1 S1                 0.0000
     20 ****        -1.1608  -0.5989  -2.3395 C.3            1 S1                 0.0000
     21 ****        -3.3614  -3.1628  -2.0981 H              1 S1                 0.0000
     22 ****        -3.6547  -1.6879  -3.0209 H              1 S1                 0.0000
     23 ****        -4.8677  -2.2730  -1.9066 H              1 S1                 0.0000
     24 ****        -3.5739  -0.3267  -0.9785 H              1 S1                 0.0000
     25 ****        -4.6899  -1.9373   0.5160 H              1 S1                 0.0000
     26 ****        -3.2732  -2.9588   0.5256 H              1 S1                 0.0000
     27 ****        -3.4455  -0.1066   1.6126 H              1 S1                 0.0000
     28 ****        -3.3423  -1.5685   2.5666 H              1 S1                 0.0000
     29 ****        -1.1257  -0.4610   2.3781 H              1 S1                 0.0000
     30 ****        -1.0969  -2.0594   1.6729 H              1 S1                 0.0000
     31 ****        -1.3906   0.5696   0.1439 H              1 S1                 0.0000
     32 ****         0.8676  -1.2642  -0.2617 H              1 S1                 0.0000
     33 ****         3.0518  -0.4609   1.2007 H              1 S1                 0.0000
     34 ****         2.9042  -0.1996  -0.5086 H              1 S1                 0.0000
     35 ****         5.6248   4.7157   0.5158 H              1 S1                 0.0000
     36 ****         5.0863   3.6726   2.6076 H              1 S1                 0.0000
     37 ****        -1.2161  -2.2499  -0.9767 H              1 S1                 0.0000
     38 ****        -1.5685   0.4057  -2.4560 H              1 S1                 0.0000
     39 ****        -1.4728  -1.1888  -3.2003 H              1 S1                 0.0000
     40 ****        -0.0755  -0.5219  -2.4037 H              1 S1                 0.0000
     41 ****        -0.1933   1.6583   1.2873 LP             1 S1                 0.0000
     42 ****         1.4278   2.2288   1.5034 LP             1 S1                 0.0000
     43 ****         3.5746   1.6648  -1.5715 LP             1 S1                 0.0000
     44 ****         4.6191   3.4335  -2.6730 LP             1 S1                 0.0000
     45 ****         5.4471   4.6545  -1.7655 LP             1 S1                 0.0000
     46 ****         3.1386   0.6070   2.8478 LP             1 S1                 0.0000
     47 ****         4.0024   1.8434   3.6995 LP             1 S1                 0.0000
@<TRIPOS>BOND
    1    1    2 1     
    2    1   21 1     
    3    1   22 1     
    4    1   23 1     
    5    2   19 1     
    6    2    3 1     
    7    2   24 1     
    8    3    4 1     
    9    3   25 1     
   10    3   26 1     
   11    4    5 1     
   12    4   27 1     
   13    4   28 1     
   14    5    6 1     
   15    5   29 1     
   16    5   30 1     
   17    6    7 1     
   18    6   19 1     
   19    6   31 1     
   20    7    8 am    
   21    7   32 1     
   22    8    9 2     
   23    8   10 1     
   24   10   33 1     
   25   10   34 1     
   26   10   11 1     
   27   11   12 1     
   28   11   17 am    
   29   12   13 1     
   30   13   14 2     
   31   13   15 1     
   32   15   35 1     
   33   15   16 2     
   34   16   36 1     
   35   16   17 1     
   36   17   18 2     
   37   19   20 1     
   38   19   37 1     
   39   20   38 1     
   40   20   39 1     
   41   20   40 1     
   42    9   41 1     
   43    9   42 1     
   44   12   43 1     
   45   14   44 1     
   46   14   45 1     
   47   18   46 1     
   48   18   47 1     
@<TRIPOS>SUBSTRUCTURE
      1 S1             1
@<TRIPOS>SET
LONE_PAIRS      STATIC     ATOMS    <user>   **** ""
7 41 42 43 44 45 46 47
DONOR_HYDROGENS      STATIC     ATOMS    <user>   **** ""
1 32
ATOM$BLUE        STATIC     ATOMS    COLORGROUP SYSTEM
7 41 42 43 44 45 46 47
ATOM$RED        STATIC     ATOMS    COLORGROUP SYSTEM
1 32
