AV-unprocessed.smi:102|AV-procd|sdf|964|dock8
  -GOLD-   2262017503D 1   1.00000     0.00000
 Structure written by MMmdl.
 43 44  0  0  0  0  0  0  0  0  2 V2000
  145.5061  133.4625  162.3413 C   0  0  0  0  0  0  0  0  0  0  0  0
  146.6736  133.5463  161.3662 C   0  0  0  0  0  0  0  0  0  0  0  0
  147.6962  132.8814  161.5330 O   0  0  0  0  0  0  0  0  0  0  0  0
  146.4429  134.3974  160.3555 O   0  0  0  0  0  0  0  0  0  0  0  0
  147.3168  134.4101  159.2394 C   0  0  0  0  0  0  0  0  0  0  0  0
  148.5080  135.3422  159.5329 C   0  0  1  0  0  0  0  0  0  0  0  0
  149.3500  135.3977  158.3866 O   0  0  0  0  0  0  0  0  0  0  0  0
  148.8749  136.3743  157.5094 C   0  0  2  0  0  0  0  0  0  0  0  0
  150.0471  137.0227  156.8080 N   0  0  0  0  0  0  0  0  0  0  0  0
  150.1930  138.3968  156.8788 C   0  0  0  0  0  0  0  0  0  0  0  0
  151.2010  139.0296  156.2445 C   0  0  0  0  0  0  0  0  0  0  0  0
  151.3175  140.3654  156.3383 F   0  0  0  0  0  0  0  0  0  0  0  0
  152.1580  138.2551  155.4571 C   0  0  0  0  0  0  0  0  0  0  0  0
  153.0841  138.8350  154.8921 O   0  0  0  0  0  0  0  0  0  0  0  0
  151.9761  136.9049  155.3824 N   0  5  0  0  0  0  0  0  0  0  0  0
  150.9514  136.2612  156.0148 C   0  0  0  0  0  0  0  0  0  0  0  0
  150.7715  135.0479  155.9268 O   0  0  0  0  0  0  0  0  0  0  0  0
  148.0181  137.3693  158.3142 C   0  0  1  0  0  0  0  0  0  0  0  0
  146.6858  137.3270  157.8101 O   0  0  0  0  0  0  0  0  0  0  0  0
  145.7416  138.1492  158.3002 C   0  0  0  0  0  0  0  0  0  0  0  0
  144.4087  137.9931  157.5806 C   0  0  0  0  0  0  0  0  0  0  0  0
  145.8808  138.9461  159.2278 O   0  0  0  0  0  0  0  0  0  0  0  0
  148.1260  136.8154  159.7356 C   0  0  1  0  0  0  0  0  0  0  0  0
  146.9426  137.0159  160.5028 O   0  0  0  0  0  0  0  0  0  0  0  0
  146.9271  136.7348  161.8167 C   0  0  0  0  0  0  0  0  0  0  0  0
  145.5149  136.5325  162.3492 C   0  0  0  0  0  0  0  0  0  0  0  0
  147.9113  136.6297  162.5484 O   0  0  0  0  0  0  0  0  0  0  0  0
  144.7259  134.1774  162.0789 H   0  0  0  0  0  0  0  0  0  0  0  0
  145.8447  133.6789  163.3546 H   0  0  0  0  0  0  0  0  0  0  0  0
  145.0755  132.4611  162.3274 H   0  0  0  0  0  0  0  0  0  0  0  0
  147.6546  133.4001  159.0052 H   0  0  0  0  0  0  0  0  0  0  0  0
  146.7595  134.7745  158.3757 H   0  0  0  0  0  0  0  0  0  0  0  0
  149.0621  134.9721  160.3963 H   0  0  0  0  0  0  0  0  0  0  0  0
  148.3007  135.8815  156.7233 H   0  0  0  0  0  0  0  0  0  0  0  0
  149.4920  138.9825  157.4551 H   0  0  0  0  0  0  0  0  0  0  0  0
  148.4383  138.3734  158.2427 H   0  0  0  0  0  0  0  0  0  0  0  0
  144.5612  137.9454  156.5022 H   0  0  0  0  0  0  0  0  0  0  0  0
  143.7547  138.8375  157.7990 H   0  0  0  0  0  0  0  0  0  0  0  0
  143.9117  137.0779  157.9025 H   0  0  0  0  0  0  0  0  0  0  0  0
  148.9601  137.3225  160.2221 H   0  0  0  0  0  0  0  0  0  0  0  0
  144.8237  137.2311  161.8772 H   0  0  0  0  0  0  0  0  0  0  0  0
  145.4868  136.6937  163.4269 H   0  0  0  0  0  0  0  0  0  0  0  0
  145.1772  135.5170  162.1422 H   0  0  0  0  0  0  0  0  0  0  0  0
  1  2  1  0  0  0  0
  1 28  1  0  0  0  0
  1 29  1  0  0  0  0
  1 30  1  0  0  0  0
  2  3  2  0  0  0  0
  2  4  1  0  0  0  0
  4  5  1  0  0  0  0
  5  6  1  0  0  0  0
  5 31  1  0  0  0  0
  5 32  1  0  0  0  0
  6 23  1  0  0  0  0
  6  7  1  0  0  0  0
  6 33  1  0  0  0  0
  7  8  1  0  0  0  0
  8  9  1  0  0  0  0
  8 18  1  0  0  0  0
  8 34  1  0  0  0  0
  9 16  1  0  0  0  0
  9 10  1  0  0  0  0
 10 11  2  0  0  0  0
 10 35  1  0  0  0  0
 11 12  1  0  0  0  0
 11 13  1  0  0  0  0
 13 14  2  0  0  0  0
 13 15  1  0  0  0  0
 15 16  1  0  0  0  0
 16 17  2  0  0  0  0
 18 19  1  0  0  0  0
 18 23  1  0  0  0  0
 18 36  1  0  0  0  0
 19 20  1  0  0  0  0
 20 21  1  0  0  0  0
 20 22  2  0  0  0  0
 21 37  1  0  0  0  0
 21 38  1  0  0  0  0
 21 39  1  0  0  0  0
 23 24  1  0  0  0  0
 23 40  1  0  0  0  0
 24 25  1  0  0  0  0
 25 26  1  0  0  0  0
 25 27  2  0  0  0  0
 26 41  1  0  0  0  0
 26 42  1  0  0  0  0
 26 43  1  0  0  0  0
M  CHG  1  15  -1
M  END
> <s_m_source_file>
AV-unprocessed.smi

> <i_m_source_file_index>
102

> <i_lp_mmshare_version>
43012

> <i_f3d_flags>
0

> <s_epik_input>
W0NIM11DKD1PKU9bQ0gyXVtDQEBIXTFPW0NASF0oW0NAQEhdKE9DKD1PKVtDSDNdKVtDQEhdMU9DKD1PKVtDSDNdKW4yW2NIXWMoRiljKD1PKVtuSF1jMj1P

> <s_epik_cmdline>
J2VwaWtfcHl0aG9uJywgJy1waCcsICc3LjAnLCAnLXRuJywgJzgnLCAnLW1hJywgJzIwMCcsICctbWV0YWxfYmluZGluZycsICctaW1hZScsICc8aW5maWxlLm1hZT4nLCAnLW9tYWUnLCAnPG91dGZpbGUubWFlPic=

> <r_epik_Ionization_Penalty>
1.40304

> <r_epik_Ionization_Penalty_Charging>
1.43915e-08

> <r_epik_Ionization_Penalty_Neutral>
1.40304

> <r_epik_State_Penalty>
1.48536

> <r_epik_Charging_Adjusted_Penalty>
1.48536

> <i_epik_Tot_Q>
-1

> <i_epik_Tot_abs_Q>
1

> <r_epik_Metal_State_Penalty>
0.00663881

> <b_epik_Metal_Only>
0

> <s_epik_Chemistry_Notes>
This compound has an ester and may undergo hydrolysis at high or low pH. This compound contains an acetal/aminal-like group ( X-CH(R)-Y where X, Y are N, S, or O) that may be acid/base labile, releasing an aldehyde.

> <s_lp_Force_Field>
OPLS_2005

> <r_lp_Energy>
22.8402

> <b_lp_Chiralities_Consistent>
1

> <s_lp_Variant>
AV-unprocessed.smi:102-20

> <Gold.Version>
5.8.1

> <Gold.Id.Protein>
6NUR|6NUR_protein|mol2

> <Gold.PLP.Fitness>
43.2507

> <Gold.PLP.PLP>
-30.6281

> <Gold.PLP.part.hbond>
-6.0000

> <Gold.PLP.part.metal>
0.0000

> <Gold.PLP.part.buried>
-6.0824

> <Gold.PLP.part.nonpolar>
-20.0133

> <Gold.PLP.part.repulsive>
0.0591

> <Gold.PLP.ligand.clash>
0.0000

> <Gold.PLP.ligand.torsion>
0.6507

> <Gold.PLP.Chemscore.Hbond>
4.5972

> <Gold.PLP.Chemscore.CHOScore>
0.0000

> <Gold.PLP.Chemscore.Metal>
0.0000

> <Gold.Chemscore.Hbonds>
donor molecule, donor type, donor heavy atom, donor atom, acceptor molecule, acceptor atom, score
      P1  H  6896  6907       L1     7  0.25
      P1  H  6931  6943       L1    27  0.93
      P1  H  6934  6947       L1    22  0.20
      P1  H  7997  8008       L1    14  0.63
      P1  H 10752 10765       L1    15  2.00

> <Gold.PLP.Chemscore.Internal.Correction>
0.1324

> <Gold.Rescore>
     Score         DG    S(hbond)    S(metal)    S(lipo)     H(rot)  DE(clash)    DE(int)     intcor
      2.06      -8.83       2.84        0.00      35.01       4.00       0.12       6.65       ----

> <Gold.Chemscore.Fitness>
2.0586

> <Gold.Chemscore.DG>
-8.8319

> <Gold.Chemscore.ZeroCoef>
-5.4800

> <Gold.Chemscore.Hbond>
2.8394

> <Gold.Chemscore.Metal>
0.0000

> <Gold.Chemscore.Lipo>
35.0057

> <Gold.Chemscore.Internal_Hbond>
0.0000

> <Gold.Chemscore.DEClash>
0.1214

> <Gold.Chemscore.DEInternal>
6.6519

> <Gold.Chemscore.Rot>
3.9951

> <Gold.Chemscore.Internal.Correction>
   9.000000E+99

> <Gold.Chemscore.Hbonds>
donor molecule, donor type, donor heavy atom, donor atom, acceptor molecule, acceptor atom, score
      P1  H  6931  6943       L1    27  0.26
      P1  H  6934  6947       L1    22  0.19
      P1  H  7997  8008       L1    14  0.61
      P1  H 10752 10765       L1    15  0.38

> <Gold.Chemscore.Hbond.Weighted>
-9.4837

> <Gold.Chemscore.Metal.Weighted>
-0.0000

> <Gold.Chemscore.Lipo.Weighted>
-4.0957

> <Gold.Chemscore.Internal_Hbond.Weighted>
0.0000

> <Gold.Chemscore.DEClash.Weighted>
0.1214

> <Gold.Chemscore.DEInternal.Weighted>
6.6519

> <Gold.Chemscore.Rot.Weighted>
10.2274

> <Gold.Chemscore.Internal.Correction.Weighted>
   9.000000E+99

> <Gold.Protein.RotatedTorsions>
[ 6907 6896 6895 6894 ] final  -73.08 input  -60.11 | X-H torsion
[ 7974 7965 7964 7962 ] final -162.91 input  175.53 | X-H torsion
[ 8008 7997 7996 7995 ] final  -24.34 input   59.86 | X-H torsion
[ 10167 10162 10161 10158 ] final  166.79 input  -65.29 | X-H torsion
[ 10718 10713 10712 10709 ] final    3.36 input   66.30 | X-H torsion
[ 10763 10752 10751 10750 ] final -166.54 input  -60.55 | X-H torsion
[ 11005 11000 10999 10996 ] final -171.14 input  -57.11 | X-H torsion

> <Gold.Protein.ActiveResidues>
 VAL166  LYS551  ARG553  GLY616  TRP617  ASP618  TYR619  PRO620  LYS621  CYS622 
 ASP623  PHE694  ASN695  SER759  ASP760  ASP761  ALA762  ILE779  LEU786  VAL792 
 PHE793  MET794  SER795  GLU796  ALA797  LYS798  CYS799  TRP800  GLU811  SER814 

> <Gold.Protein.RotatedAtoms>
  150.7144  134.5068  159.5587 H   0  0  0  0  0  0  0  0  0  0  0  0  # atno 6907 bound_to 6896
  152.2653  134.7987  160.0432 H   0  0  0  0  0  0  0  0  0  0  0  0  # atno 6908 bound_to 6896
  151.8686  133.3436  159.3764 H   0  0  0  0  0  0  0  0  0  0  0  0  # atno 6909 bound_to 6896
  144.7342  140.3184  143.6175 H   0  0  0  0  0  0  0  0  0  0  0  0  # atno 7974 bound_to 7965
  154.4534  140.1956  156.0450 H   0  0  0  0  0  0  0  0  0  0  0  0  # atno 8008 bound_to 7997
  156.0697  140.3286  155.7533 H   0  0  0  0  0  0  0  0  0  0  0  0  # atno 8009 bound_to 7997
  155.5283  140.0576  157.2884 H   0  0  0  0  0  0  0  0  0  0  0  0  # atno 8010 bound_to 7997
  139.4932  144.3990  151.9431 H   0  0  0  0  0  0  0  0  0  0  0  0  # atno 10167 bound_to 10162
  156.8767  130.5639  149.5655 H   0  0  0  0  0  0  0  0  0  0  0  0  # atno 10718 bound_to 10713
  154.6823  135.2956  154.9596 H   0  0  0  0  0  0  0  0  0  0  0  0  # atno 10763 bound_to 10752
  154.0587  135.6634  153.4813 H   0  0  0  0  0  0  0  0  0  0  0  0  # atno 10764 bound_to 10752
  153.0555  135.5147  154.7872 H   0  0  0  0  0  0  0  0  0  0  0  0  # atno 10765 bound_to 10752
  140.5115  134.5797  157.5020 H   0  0  0  0  0  0  0  0  0  0  0  0  # atno 11005 bound_to 11000
  145.7594  139.1819  143.2276 LP  0  0  0  0  0  0  0  0  0  0  0  0  # atno 17320 bound_to 7965
  146.0998  140.7557  142.9554 LP  0  0  0  0  0  0  0  0  0  0  0  0  # atno 17321 bound_to 7965
  140.3429  144.3182  150.5964 LP  0  0  0  0  0  0  0  0  0  0  0  0  # atno 17342 bound_to 10162
  140.5550  143.2200  151.7862 LP  0  0  0  0  0  0  0  0  0  0  0  0  # atno 17343 bound_to 10162
  156.0698  130.5734  150.9361 LP  0  0  0  0  0  0  0  0  0  0  0  0  # atno 17370 bound_to 10713
  157.6164  131.0933  150.8702 LP  0  0  0  0  0  0  0  0  0  0  0  0  # atno 17371 bound_to 10713
  139.9656  134.7379  156.0145 LP  0  0  0  0  0  0  0  0  0  0  0  0  # atno 17394 bound_to 11000
  141.1383  133.6570  156.3656 LP  0  0  0  0  0  0  0  0  0  0  0  0  # atno 17395 bound_to 11000

$$$$
