AV-unprocessed.smi:1197|AV-procd|sdf|5008|dock1
  -GOLD-   22720 4 23D 1   1.00000     0.00000
 Structure written by MMmdl.
 40 41  0  0  0  0  0  0  0  0  1 V2000
  152.1230  140.9758  158.1242 C   0  0  0  0  0  0  0  0  0  0  0  0
  152.4007  140.5195  156.8048 O   0  0  0  0  0  0  0  0  0  0  0  0
  151.4170  139.8247  156.1314 C   0  0  0  0  0  0  0  0  0  0  0  0
  150.3332  139.3072  156.8677 C   0  0  0  0  0  0  0  0  0  0  0  0
  149.3257  138.5944  156.1895 C   0  0  0  0  0  0  0  0  0  0  0  0
  149.4308  138.4267  154.7873 C   0  0  0  0  0  0  0  0  0  0  0  0
  148.4966  137.7187  153.9815 N   0  0  0  0  0  0  0  0  0  0  0  0
  147.1562  137.6727  154.0743 C   0  0  0  0  0  0  0  0  0  0  0  0
  146.4726  138.2921  154.8885 O   0  0  0  0  0  0  0  0  0  0  0  0
  146.6361  136.8630  153.1409 N   0  0  0  0  0  0  0  0  0  0  0  0
  145.2145  136.5882  152.9698 C   0  0  0  0  0  0  0  0  0  0  0  0
  144.9519  135.7362  151.7134 C   0  0  0  0  0  0  0  0  0  0  0  0
  145.1787  134.3024  151.8844 N   0  0  0  0  0  0  0  0  0  0  0  0
  146.5925  133.9709  152.0487 C   0  0  0  0  0  0  0  0  0  0  0  0
  146.8126  132.4556  152.2004 C   0  0  0  0  0  0  0  0  0  0  0  0
  146.2575  131.7754  151.0796 O   0  0  0  0  0  0  0  0  0  0  0  0
  144.8678  132.0362  150.9135 C   0  0  0  0  0  0  0  0  0  0  0  0
  144.6444  133.5501  150.7540 C   0  0  0  0  0  0  0  0  0  0  0  0
  150.5591  138.9790  154.1462 C   0  0  0  0  0  0  0  0  0  0  0  0
  151.5290  139.6617  154.7901 N   0  0  0  0  0  0  0  0  0  0  0  0
  152.9968  141.4956  158.5171 H   0  0  0  0  0  0  0  0  0  0  0  0
  151.9027  140.1454  158.7965 H   0  0  0  0  0  0  0  0  0  0  0  0
  151.2878  141.6775  158.1354 H   0  0  0  0  0  0  0  0  0  0  0  0
  150.2772  139.4499  157.9368 H   0  0  0  0  0  0  0  0  0  0  0  0
  148.5090  138.1878  156.7639 H   0  0  0  0  0  0  0  0  0  0  0  0
  148.9015  137.1950  153.2196 H   0  0  0  0  0  0  0  0  0  0  0  0
  147.2687  136.3957  152.5083 H   0  0  0  0  0  0  0  0  0  0  0  0
  144.8761  136.0700  153.8663 H   0  0  0  0  0  0  0  0  0  0  0  0
  144.6569  137.5252  152.9204 H   0  0  0  0  0  0  0  0  0  0  0  0
  143.9131  135.8883  151.4169 H   0  0  0  0  0  0  0  0  0  0  0  0
  145.5562  136.1089  150.8849 H   0  0  0  0  0  0  0  0  0  0  0  0
  147.1601  134.3337  151.1904 H   0  0  0  0  0  0  0  0  0  0  0  0
  147.0002  134.4694  152.9275 H   0  0  0  0  0  0  0  0  0  0  0  0
  147.8777  132.2318  152.2619 H   0  0  0  0  0  0  0  0  0  0  0  0
  146.3537  132.0896  153.1203 H   0  0  0  0  0  0  0  0  0  0  0  0
  144.5078  131.5045  150.0327 H   0  0  0  0  0  0  0  0  0  0  0  0
  144.3127  131.6514  151.7706 H   0  0  0  0  0  0  0  0  0  0  0  0
  143.5766  133.7462  150.6501 H   0  0  0  0  0  0  0  0  0  0  0  0
  145.1147  133.8880  149.8291 H   0  0  0  0  0  0  0  0  0  0  0  0
  150.6903  138.8709  153.0793 H   0  0  0  0  0  0  0  0  0  0  0  0
  1  2  1  0  0  0  0
  1 21  1  0  0  0  0
  1 22  1  0  0  0  0
  1 23  1  0  0  0  0
  2  3  1  0  0  0  0
  3 20  1  0  0  0  0
  3  4  2  0  0  0  0
  4  5  1  0  0  0  0
  4 24  1  0  0  0  0
  5  6  2  0  0  0  0
  5 25  1  0  0  0  0
  6  7  1  0  0  0  0
  6 19  1  0  0  0  0
  7  8  1  0  0  0  0
  7 26  1  0  0  0  0
  8  9  2  0  0  0  0
  8 10  1  0  0  0  0
 10 11  1  0  0  0  0
 10 27  1  0  0  0  0
 11 12  1  0  0  0  0
 11 28  1  0  0  0  0
 11 29  1  0  0  0  0
 12 13  1  0  0  0  0
 12 30  1  0  0  0  0
 12 31  1  0  0  0  0
 13 18  1  0  0  0  0
 13 14  1  0  0  0  0
 14 15  1  0  0  0  0
 14 32  1  0  0  0  0
 14 33  1  0  0  0  0
 15 16  1  0  0  0  0
 15 34  1  0  0  0  0
 15 35  1  0  0  0  0
 16 17  1  0  0  0  0
 17 18  1  0  0  0  0
 17 36  1  0  0  0  0
 17 37  1  0  0  0  0
 18 38  1  0  0  0  0
 18 39  1  0  0  0  0
 19 20  2  0  0  0  0
 19 40  1  0  0  0  0
M  END
> <s_m_source_file>
AV-unprocessed.smi

> <i_m_source_file_index>
1197

> <i_lp_mmshare_version>
43012

> <i_f3d_flags>
0

> <s_epik_input>
W0NIM11PYzFbY0hdW2NIXWMoW2NIXW4xKVtOSF1DKD1PKVtOSF1bQ0gyXVtDSDJdTjJbQ0gyXVtDSDJdT1tDSDJdW0NIMl0y

> <s_epik_cmdline>
J2VwaWtfcHl0aG9uJywgJy1waCcsICc3LjAnLCAnLXRuJywgJzgnLCAnLW1hJywgJzIwMCcsICctbWV0YWxfYmluZGluZycsICctaW1hZScsICc8aW5maWxlLm1hZT4nLCAnLW9tYWUnLCAnPG91dGZpbGUubWFlPic=

> <r_lp_tautomer_probability>
1

> <r_epik_Ionization_Penalty>
0.266083

> <r_epik_Ionization_Penalty_Charging>
0

> <r_epik_Ionization_Penalty_Neutral>
0.266083

> <r_epik_State_Penalty>
0.257924

> <r_epik_Charging_Adjusted_Penalty>
0.257924

> <i_epik_Tot_Q>
0

> <i_epik_Tot_abs_Q>
0

> <r_epik_Metal_State_Penalty>
0.257922

> <b_epik_Metal_Only>
0

> <s_lp_Force_Field>
OPLS_2005

> <r_lp_Energy>
24.2104

> <b_lp_Chiralities_Consistent>
1

> <s_lp_Variant>
AV-unprocessed.smi:1197-1

> <Gold.Version>
5.8.1

> <Gold.Id.Protein>
6NUR|6NUR_protein|mol2

> <Gold.PLP.Fitness>
39.3982

> <Gold.PLP.PLP>
-26.8426

> <Gold.PLP.part.hbond>
-3.9747

> <Gold.PLP.part.metal>
0.0000

> <Gold.PLP.part.buried>
-4.1060

> <Gold.PLP.part.nonpolar>
-19.2111

> <Gold.PLP.part.repulsive>
0.4377

> <Gold.PLP.ligand.clash>
0.0000

> <Gold.PLP.ligand.torsion>
0.6567

> <Gold.PLP.Chemscore.Hbond>
3.5960

> <Gold.PLP.Chemscore.CHOScore>
1.0000

> <Gold.PLP.Chemscore.Metal>
0.0000

> <Gold.Chemscore.Hbonds>
donor molecule, donor type, donor heavy atom, donor atom, acceptor molecule, acceptor atom, score
      L1  H     7    26       P1  7948  1.00
      L1  H    10    27       P1  7948  0.98
      P1  H  7989  7998       L1    20  0.65
      P1  H  7997  8009       L1     2  0.90
      L1  C    19    40       P1  7957  1.00

> <Gold.PLP.Chemscore.Internal.Correction>
0.0810

> <Gold.Rescore>
     Score         DG    S(hbond)    S(metal)    S(lipo)     H(rot)  DE(clash)    DE(int)     intcor
     16.89     -17.67       2.86        0.00      61.11       1.76       0.04       0.74       ----

> <Gold.Chemscore.Fitness>
16.8950

> <Gold.Chemscore.DG>
-17.6718

> <Gold.Chemscore.ZeroCoef>
-5.4800

> <Gold.Chemscore.Hbond>
2.8604

> <Gold.Chemscore.Metal>
0.0000

> <Gold.Chemscore.Lipo>
61.1150

> <Gold.Chemscore.Internal_Hbond>
0.0000

> <Gold.Chemscore.DEClash>
0.0381

> <Gold.Chemscore.DEInternal>
0.7387

> <Gold.Chemscore.Rot>
1.7626

> <Gold.Chemscore.Internal.Correction>
   9.000000E+99

> <Gold.Chemscore.Hbonds>
donor molecule, donor type, donor heavy atom, donor atom, acceptor molecule, acceptor atom, score
      L1  H     7    26       P1  7948  0.99
      L1  H    10    27       P1  7948  0.93
      P1  H  7989  7998       L1    20  0.06
      P1  H  7997  8009       L1     2  0.64

> <Gold.Chemscore.Hbond.Weighted>
-9.5536

> <Gold.Chemscore.Metal.Weighted>
-0.0000

> <Gold.Chemscore.Lipo.Weighted>
-7.1505

> <Gold.Chemscore.Internal_Hbond.Weighted>
0.0000

> <Gold.Chemscore.DEClash.Weighted>
0.0381

> <Gold.Chemscore.DEInternal.Weighted>
0.7387

> <Gold.Chemscore.Rot.Weighted>
4.5123

> <Gold.Chemscore.Internal.Correction.Weighted>
   9.000000E+99

> <Gold.Protein.RotatedTorsions>
[ 6907 6896 6895 6894 ] final  145.41 input  -60.11 | X-H torsion
[ 7974 7965 7964 7962 ] final -130.97 input  175.53 | X-H torsion
[ 8008 7997 7996 7995 ] final -176.25 input   59.86 | X-H torsion
[ 10167 10162 10161 10158 ] final   32.77 input  -65.29 | X-H torsion
[ 10718 10713 10712 10709 ] final   30.22 input   66.30 | X-H torsion
[ 10763 10752 10751 10750 ] final   64.26 input  -60.55 | X-H torsion
[ 11005 11000 10999 10996 ] final  -82.29 input  -57.11 | X-H torsion

> <Gold.Protein.ActiveResidues>
 VAL166  LYS551  ARG553  GLY616  TRP617  ASP618  TYR619  PRO620  LYS621  CYS622 
 ASP623  PHE694  ASN695  SER759  ASP760  ASP761  ALA762  ILE779  LEU786  VAL792 
 PHE793  MET794  SER795  GLU796  ALA797  LYS798  CYS799  TRP800  GLU811  SER814 

> <Gold.Protein.RotatedAtoms>
  152.1812  133.4709  159.4959 H   0  0  0  0  0  0  0  0  0  0  0  0  # atno 6907 bound_to 6896
  150.6935  134.1830  159.4265 H   0  0  0  0  0  0  0  0  0  0  0  0  # atno 6908 bound_to 6896
  151.9742  135.0061  160.0605 H   0  0  0  0  0  0  0  0  0  0  0  0  # atno 6909 bound_to 6896
  144.9424  140.7253  143.4838 H   0  0  0  0  0  0  0  0  0  0  0  0  # atno 7974 bound_to 7965
  155.9925  140.1204  157.0624 H   0  0  0  0  0  0  0  0  0  0  0  0  # atno 8008 bound_to 7997
  154.4216  140.1123  156.5654 H   0  0  0  0  0  0  0  0  0  0  0  0  # atno 8009 bound_to 7997
  155.6323  140.3473  155.4689 H   0  0  0  0  0  0  0  0  0  0  0  0  # atno 8010 bound_to 7997
  140.4468  144.1107  150.6184 H   0  0  0  0  0  0  0  0  0  0  0  0  # atno 10167 bound_to 10162
  157.2567  130.7141  149.6433 H   0  0  0  0  0  0  0  0  0  0  0  0  # atno 10718 bound_to 10713
  153.0049  135.5399  154.6482 H   0  0  0  0  0  0  0  0  0  0  0  0  # atno 10763 bound_to 10752
  154.5721  135.2842  155.0819 H   0  0  0  0  0  0  0  0  0  0  0  0  # atno 10764 bound_to 10752
  154.1981  135.6488  153.5131 H   0  0  0  0  0  0  0  0  0  0  0  0  # atno 10765 bound_to 10752
  141.1663  133.7237  156.8549 H   0  0  0  0  0  0  0  0  0  0  0  0  # atno 11005 bound_to 11000
  145.2971  139.1863  143.4709 LP  0  0  0  0  0  0  0  0  0  0  0  0  # atno 17320 bound_to 7965
  146.3290  140.2956  142.8618 LP  0  0  0  0  0  0  0  0  0  0  0  0  # atno 17321 bound_to 7965
  140.4254  143.2592  151.9663 LP  0  0  0  0  0  0  0  0  0  0  0  0  # atno 17342 bound_to 10162
  139.4793  144.5793  151.7959 LP  0  0  0  0  0  0  0  0  0  0  0  0  # atno 17343 bound_to 10162
  155.9665  130.4410  150.5324 LP  0  0  0  0  0  0  0  0  0  0  0  0  # atno 17370 bound_to 10713
  157.3219  131.0683  151.1925 LP  0  0  0  0  0  0  0  0  0  0  0  0  # atno 17371 bound_to 10713
  140.1889  134.8980  157.3037 LP  0  0  0  0  0  0  0  0  0  0  0  0  # atno 17394 bound_to 11000
  140.2312  134.3907  155.7521 LP  0  0  0  0  0  0  0  0  0  0  0  0  # atno 17395 bound_to 11000

$$$$
