AV-unprocessed.smi:626|AV-procd|sdf|3112|dock5
  -GOLD-   22720 0 33D 1   1.00000     0.00000
 Structure written by MMmdl.
 34 36  0  0  0  0  0  0  0  0  1 V2000
  147.6482  139.0464  153.4180 C   0  0  0  0  0  0  0  0  0  0  0  0
  149.0411  139.4375  153.5696 N   0  0  0  0  0  0  0  0  0  0  0  0
  149.8115  139.0963  154.6134 C   0  0  0  0  0  0  0  0  0  0  0  0
  149.4069  138.4181  155.5580 O   0  0  0  0  0  0  0  0  0  0  0  0
  151.2586  139.5939  154.5906 C   0  0  0  0  0  0  0  0  0  0  0  0
  151.6168  140.2384  155.8916 C   0  0  0  0  0  0  0  0  0  0  0  0
  152.6976  139.8717  156.5706 N   0  0  0  0  0  0  0  0  0  0  0  0
  152.6744  140.7115  157.6930 O   0  0  0  0  0  0  0  0  0  0  0  0
  151.5544  141.4655  157.5731 C   0  0  0  0  0  0  0  0  0  0  0  0
  151.3063  142.5425  158.5853 C   0  0  1  0  0  0  0  0  0  0  0  0
  152.3782  142.6318  159.6917 C   0  0  0  0  0  0  0  0  0  0  0  0
  152.7385  144.1297  159.6904 C   0  0  2  0  0  0  0  0  0  0  0  0
  151.5414  144.9574  160.1984 C   0  0  0  0  0  0  0  0  0  0  0  0
  150.5515  144.8903  159.0175 C   0  0  0  0  0  0  0  0  0  0  0  0
  151.2858  143.9797  158.0148 C   0  0  1  0  0  0  0  0  0  0  0  0
  152.7283  144.4458  158.2002 C   0  0  0  0  0  0  0  0  0  0  0  0
  150.8844  141.2447  156.4434 N   0  0  0  0  0  0  0  0  0  0  0  0
  147.2213  139.5246  152.5366 H   0  0  0  0  0  0  0  0  0  0  0  0
  147.0597  139.3465  154.2861 H   0  0  0  0  0  0  0  0  0  0  0  0
  147.5630  137.9660  153.2957 H   0  0  0  0  0  0  0  0  0  0  0  0
  149.4477  139.9958  152.8327 H   0  0  0  0  0  0  0  0  0  0  0  0
  151.9468  138.7722  154.3860 H   0  0  0  0  0  0  0  0  0  0  0  0
  151.3767  140.3141  153.7799 H   0  0  0  0  0  0  0  0  0  0  0  0
  150.3376  142.3244  159.0377 H   0  0  0  0  0  0  0  0  0  0  0  0
  152.0125  142.2837  160.6583 H   0  0  0  0  0  0  0  0  0  0  0  0
  153.2582  142.0390  159.4368 H   0  0  0  0  0  0  0  0  0  0  0  0
  153.6752  144.3533  160.2018 H   0  0  0  0  0  0  0  0  0  0  0  0
  151.1207  144.5486  161.1178 H   0  0  0  0  0  0  0  0  0  0  0  0
  151.8345  145.9896  160.3939 H   0  0  0  0  0  0  0  0  0  0  0  0
  149.5767  144.4977  159.3092 H   0  0  0  0  0  0  0  0  0  0  0  0
  150.3955  145.8830  158.5933 H   0  0  0  0  0  0  0  0  0  0  0  0
  150.8905  144.0544  157.0009 H   0  0  0  0  0  0  0  0  0  0  0  0
  152.8732  145.5053  157.9810 H   0  0  0  0  0  0  0  0  0  0  0  0
  153.4543  143.8637  157.6307 H   0  0  0  0  0  0  0  0  0  0  0  0
  1  2  1  0  0  0  0
  1 18  1  0  0  0  0
  1 19  1  0  0  0  0
  1 20  1  0  0  0  0
  2  3  1  0  0  0  0
  2 21  1  0  0  0  0
  3  4  2  0  0  0  0
  3  5  1  0  0  0  0
  5  6  1  0  0  0  0
  5 22  1  0  0  0  0
  5 23  1  0  0  0  0
  6 17  1  0  0  0  0
  6  7  2  0  0  0  0
  7  8  1  0  0  0  0
  8  9  1  0  0  0  0
  9 10  1  0  0  0  0
  9 17  2  0  0  0  0
 10 15  1  0  0  0  0
 10 11  1  0  0  0  0
 10 24  1  0  0  0  0
 11 12  1  0  0  0  0
 11 25  1  0  0  0  0
 11 26  1  0  0  0  0
 12 16  1  0  0  0  0
 12 13  1  0  0  0  0
 12 27  1  0  0  0  0
 13 14  1  0  0  0  0
 13 28  1  0  0  0  0
 13 29  1  0  0  0  0
 14 15  1  0  0  0  0
 14 30  1  0  0  0  0
 14 31  1  0  0  0  0
 15 16  1  0  0  0  0
 15 32  1  0  0  0  0
 16 33  1  0  0  0  0
 16 34  1  0  0  0  0
M  END
> <s_m_source_file>
AV-unprocessed.smi

> <i_m_source_file_index>
626

> <i_lp_mmshare_version>
43012

> <i_f3d_flags>
0

> <s_epik_input>
W0NIM11bTkhdQyg9TylbQ0gyXWMxbm9jKG4xKVtDQEhdKFtDSDJdW0NAQEhdMjMpW0NAQEhdKFtDSDJdMylbQ0gyXVtDSDJdMg==

> <s_epik_cmdline>
J2VwaWtfcHl0aG9uJywgJy1waCcsICc3LjAnLCAnLXRuJywgJzgnLCAnLW1hJywgJzIwMCcsICctbWV0YWxfYmluZGluZycsICctaW1hZScsICc8aW5maWxlLm1hZT4nLCAnLW9tYWUnLCAnPG91dGZpbGUubWFlPic=

> <r_lp_tautomer_probability>
1

> <r_epik_Ionization_Penalty>
1.02916e-07

> <r_epik_Ionization_Penalty_Charging>
0

> <r_epik_Ionization_Penalty_Neutral>
1.02916e-07

> <r_epik_State_Penalty>
-0

> <r_epik_Charging_Adjusted_Penalty>
0

> <i_epik_Tot_Q>
0

> <i_epik_Tot_abs_Q>
0

> <r_epik_Metal_State_Penalty>
-0

> <b_epik_Metal_Only>
0

> <s_lp_Force_Field>
OPLS_2005

> <r_lp_Energy>
48.5493

> <b_lp_Chiralities_Consistent>
1

> <s_lp_Variant>
AV-unprocessed.smi:626-4

> <Gold.Version>
5.8.1

> <Gold.Id.Protein>
6NUR|6NUR_protein|mol2

> <Gold.PLP.Fitness>
42.9070

> <Gold.PLP.PLP>
-38.0936

> <Gold.PLP.part.hbond>
-3.0000

> <Gold.PLP.part.metal>
0.0000

> <Gold.PLP.part.buried>
-2.0572

> <Gold.PLP.part.nonpolar>
-32.7647

> <Gold.PLP.part.repulsive>
0.1732

> <Gold.PLP.ligand.clash>
0.0000

> <Gold.PLP.ligand.torsion>
0.2076

> <Gold.PLP.Chemscore.Hbond>
1.7140

> <Gold.PLP.Chemscore.CHOScore>
0.0000

> <Gold.PLP.Chemscore.Metal>
0.0000

> <Gold.Chemscore.Hbonds>
donor molecule, donor type, donor heavy atom, donor atom, acceptor molecule, acceptor atom, score
      L1  H     2    21       P1  7957  0.83
      P1  H  7997  8009       L1     7  0.70

> <Gold.PLP.Chemscore.Internal.Correction>
0.0865

> <Gold.Rescore>
     Score         DG    S(hbond)    S(metal)    S(lipo)     H(rot)  DE(clash)    DE(int)     intcor
     15.44     -15.91       1.01        0.00      95.63       1.61       0.18       0.29       ----

> <Gold.Chemscore.Fitness>
15.4392

> <Gold.Chemscore.DG>
-15.9073

> <Gold.Chemscore.ZeroCoef>
-5.4800

> <Gold.Chemscore.Hbond>
1.0077

> <Gold.Chemscore.Metal>
0.0000

> <Gold.Chemscore.Lipo>
95.6251

> <Gold.Chemscore.Internal_Hbond>
0.0000

> <Gold.Chemscore.DEClash>
0.1811

> <Gold.Chemscore.DEInternal>
0.2870

> <Gold.Chemscore.Rot>
1.6119

> <Gold.Chemscore.Internal.Correction>
   9.000000E+99

> <Gold.Chemscore.Hbonds>
donor molecule, donor type, donor heavy atom, donor atom, acceptor molecule, acceptor atom, score
      L1  H     2    21       P1  7957  0.81
      P1  H  7997  8009       L1     7  0.07

> <Gold.Chemscore.Hbond.Weighted>
-3.3658

> <Gold.Chemscore.Metal.Weighted>
-0.0000

> <Gold.Chemscore.Lipo.Weighted>
-11.1881

> <Gold.Chemscore.Internal_Hbond.Weighted>
0.0000

> <Gold.Chemscore.DEClash.Weighted>
0.1811

> <Gold.Chemscore.DEInternal.Weighted>
0.2870

> <Gold.Chemscore.Rot.Weighted>
4.1266

> <Gold.Chemscore.Internal.Correction.Weighted>
   9.000000E+99

> <Gold.Protein.RotatedTorsions>
[ 6907 6896 6895 6894 ] final  146.54 input  -60.11 | X-H torsion
[ 7974 7965 7964 7962 ] final   76.69 input  175.53 | X-H torsion
[ 8008 7997 7996 7995 ] final -155.28 input   59.86 | X-H torsion
[ 10167 10162 10161 10158 ] final -157.92 input  -65.29 | X-H torsion
[ 10718 10713 10712 10709 ] final  159.11 input   66.30 | X-H torsion
[ 10763 10752 10751 10750 ] final  -23.03 input  -60.55 | X-H torsion
[ 11005 11000 10999 10996 ] final  -94.50 input  -57.11 | X-H torsion

> <Gold.Protein.ActiveResidues>
 VAL166  LYS551  ARG553  GLY616  TRP617  ASP618  TYR619  PRO620  LYS621  CYS622 
 ASP623  PHE694  ASN695  SER759  ASP760  ASP761  ALA762  ILE779  LEU786  VAL792 
 PHE793  MET794  SER795  GLU796  ALA797  LYS798  CYS799  TRP800  GLU811  SER814 

> <Gold.Protein.RotatedAtoms>
  152.1665  133.4616  159.4887 H   0  0  0  0  0  0  0  0  0  0  0  0  # atno 6907 bound_to 6896
  150.6914  134.2006  159.4329 H   0  0  0  0  0  0  0  0  0  0  0  0  # atno 6908 bound_to 6896
  151.9911  134.9978  160.0612 H   0  0  0  0  0  0  0  0  0  0  0  0  # atno 6909 bound_to 6896
  145.6996  139.2578  143.1713 H   0  0  0  0  0  0  0  0  0  0  0  0  # atno 7974 bound_to 7965
  155.6995  140.0765  157.2416 H   0  0  0  0  0  0  0  0  0  0  0  0  # atno 8008 bound_to 7997
  154.4075  140.1650  156.2228 H   0  0  0  0  0  0  0  0  0  0  0  0  # atno 8009 bound_to 7997
  155.9381  140.3386  155.6307 H   0  0  0  0  0  0  0  0  0  0  0  0  # atno 8010 bound_to 7997
  139.6732  143.9708  152.2296 H   0  0  0  0  0  0  0  0  0  0  0  0  # atno 10167 bound_to 10162
  157.1687  131.0605  151.2194 H   0  0  0  0  0  0  0  0  0  0  0  0  # atno 10718 bound_to 10713
  153.6614  135.6976  153.5176 H   0  0  0  0  0  0  0  0  0  0  0  0  # atno 10763 bound_to 10752
  153.2629  135.4239  155.0911 H   0  0  0  0  0  0  0  0  0  0  0  0  # atno 10764 bound_to 10752
  154.8451  135.3559  154.6158 H   0  0  0  0  0  0  0  0  0  0  0  0  # atno 10765 bound_to 10752
  141.1469  133.7960  157.0306 H   0  0  0  0  0  0  0  0  0  0  0  0  # atno 11005 bound_to 11000
  146.0809  140.7764  142.9642 LP  0  0  0  0  0  0  0  0  0  0  0  0  # atno 17320 bound_to 7965
  144.6972  140.3488  143.7185 LP  0  0  0  0  0  0  0  0  0  0  0  0  # atno 17321 bound_to 7965
  139.9478  144.6640  150.8202 LP  0  0  0  0  0  0  0  0  0  0  0  0  # atno 17342 bound_to 10162
  140.7626  143.3202  151.2640 LP  0  0  0  0  0  0  0  0  0  0  0  0  # atno 17343 bound_to 10162
  157.4064  130.7361  149.6805 LP  0  0  0  0  0  0  0  0  0  0  0  0  # atno 17370 bound_to 10713
  155.9742  130.4107  150.3943 LP  0  0  0  0  0  0  0  0  0  0  0  0  # atno 17371 bound_to 10713
  140.0756  134.9677  157.1540 LP  0  0  0  0  0  0  0  0  0  0  0  0  # atno 17394 bound_to 11000
  140.3648  134.2454  155.7183 LP  0  0  0  0  0  0  0  0  0  0  0  0  # atno 17395 bound_to 11000

$$$$
