AV-unprocessed.smi:2040|AV-procd|sdf|8288|dock4
  -GOLD-   2272010553D 1   1.00000     0.00000
 Structure written by MMmdl.
 38 39  0  0  0  0  0  0  0  0  1 V2000
  150.5125  142.1314  156.1343 C   0  0  0  0  0  0  0  0  0  0  0  0
  150.2344  140.8729  155.3665 C   0  0  0  0  0  0  0  0  0  0  0  0
  149.0231  140.4881  154.7216 C   0  0  0  0  0  0  0  0  0  0  0  0
  149.3390  139.2671  154.1911 C   0  0  0  0  0  0  0  0  0  0  0  0
  148.5625  138.4277  153.4557 N   0  0  0  0  0  0  0  0  0  0  0  0
  147.2209  138.3632  153.3947 C   0  0  0  0  0  0  0  0  0  0  0  0
  146.4422  139.0772  154.0270 O   0  0  0  0  0  0  0  0  0  0  0  0
  146.8214  137.4014  152.5502 N   0  0  0  0  0  0  0  0  0  0  0  0
  145.4324  137.0695  152.2425 C   0  0  2  0  0  0  0  0  0  0  0  0
  144.6481  136.8651  153.5506 C   0  0  0  0  0  0  0  0  0  0  0  0
  145.3994  135.8194  151.3426 C   0  0  1  0  0  0  0  0  0  0  0  0
  146.0829  134.5835  151.9355 C   0  0  0  0  0  0  0  0  0  0  0  0
  145.3274  133.4110  151.3255 C   0  0  0  0  0  0  0  0  0  0  0  0
  144.1396  134.0600  150.6130 C   0  0  0  0  0  0  0  0  0  0  0  0
  144.0658  135.3666  151.1615 O   0  0  0  0  0  0  0  0  0  0  0  0
  150.6467  138.9707  154.5049 N   0  0  0  0  0  0  0  0  0  0  0  0
  151.4323  137.8000  154.1664 C   0  0  0  0  0  0  0  0  0  0  0  0
  151.1959  139.9658  155.2347 N   0  0  0  0  0  0  0  0  0  0  0  0
  149.6673  142.8182  156.0841 H   0  0  0  0  0  0  0  0  0  0  0  0
  151.3850  142.6508  155.7370 H   0  0  0  0  0  0  0  0  0  0  0  0
  150.7020  141.9152  157.1860 H   0  0  0  0  0  0  0  0  0  0  0  0
  148.0925  141.0324  154.6678 H   0  0  0  0  0  0  0  0  0  0  0  0
  149.0657  137.7583  152.8924 H   0  0  0  0  0  0  0  0  0  0  0  0
  147.5297  136.8667  152.0692 H   0  0  0  0  0  0  0  0  0  0  0  0
  144.9822  137.8973  151.6912 H   0  0  0  0  0  0  0  0  0  0  0  0
  143.5971  136.6531  153.3549 H   0  0  0  0  0  0  0  0  0  0  0  0
  144.6850  137.7569  154.1770 H   0  0  0  0  0  0  0  0  0  0  0  0
  145.0531  136.0348  154.1300 H   0  0  0  0  0  0  0  0  0  0  0  0
  145.8278  136.0431  150.3633 H   0  0  0  0  0  0  0  0  0  0  0  0
  147.1505  134.5558  151.7154 H   0  0  0  0  0  0  0  0  0  0  0  0
  145.9651  134.5652  153.0199 H   0  0  0  0  0  0  0  0  0  0  0  0
  145.9433  132.8446  150.6262 H   0  0  0  0  0  0  0  0  0  0  0  0
  144.9923  132.7281  152.1070 H   0  0  0  0  0  0  0  0  0  0  0  0
  144.3268  134.1320  149.5405 H   0  0  0  0  0  0  0  0  0  0  0  0
  143.2088  133.5118  150.7608 H   0  0  0  0  0  0  0  0  0  0  0  0
  150.9644  136.9105  154.5887 H   0  0  0  0  0  0  0  0  0  0  0  0
  152.4449  137.8887  154.5623 H   0  0  0  0  0  0  0  0  0  0  0  0
  151.4849  137.6956  153.0826 H   0  0  0  0  0  0  0  0  0  0  0  0
  1  2  1  0  0  0  0
  1 19  1  0  0  0  0
  1 20  1  0  0  0  0
  1 21  1  0  0  0  0
  2 18  2  0  0  0  0
  2  3  1  0  0  0  0
  3  4  2  0  0  0  0
  3 22  1  0  0  0  0
  4  5  1  0  0  0  0
  4 16  1  0  0  0  0
  5  6  1  0  0  0  0
  5 23  1  0  0  0  0
  6  7  2  0  0  0  0
  6  8  1  0  0  0  0
  8  9  1  0  0  0  0
  8 24  1  0  0  0  0
  9 10  1  0  0  0  0
  9 11  1  0  0  0  0
  9 25  1  0  0  0  0
 10 26  1  0  0  0  0
 10 27  1  0  0  0  0
 10 28  1  0  0  0  0
 11 15  1  0  0  0  0
 11 12  1  0  0  0  0
 11 29  1  0  0  0  0
 12 13  1  0  0  0  0
 12 30  1  0  0  0  0
 12 31  1  0  0  0  0
 13 14  1  0  0  0  0
 13 32  1  0  0  0  0
 13 33  1  0  0  0  0
 14 15  1  0  0  0  0
 14 34  1  0  0  0  0
 14 35  1  0  0  0  0
 16 17  1  0  0  0  0
 16 18  1  0  0  0  0
 17 36  1  0  0  0  0
 17 37  1  0  0  0  0
 17 38  1  0  0  0  0
M  END
> <s_m_source_file>
AV-unprocessed.smi

> <i_m_source_file_index>
2040

> <i_lp_mmshare_version>
43012

> <i_f3d_flags>
0

> <s_epik_input>
W0NIM11jMVtjSF1jKG4objEpW0NIM10pW05IXUMoPU8pW05IXVtDQEhdKFtDSDNdKVtDQEBIXTJbQ0gyXVtDSDJdW0NIMl1PMg==

> <s_epik_cmdline>
J2VwaWtfcHl0aG9uJywgJy1waCcsICc3LjAnLCAnLXRuJywgJzgnLCAnLW1hJywgJzIwMCcsICctbWV0YWxfYmluZGluZycsICctaW1hZScsICc8aW5maWxlLm1hZT4nLCAnLW9tYWUnLCAnPG91dGZpbGUubWFlPic=

> <r_lp_tautomer_probability>
1

> <r_epik_Ionization_Penalty>
9.09088e-05

> <r_epik_Ionization_Penalty_Charging>
0

> <r_epik_Ionization_Penalty_Neutral>
9.09088e-05

> <r_epik_State_Penalty>
-0

> <r_epik_Charging_Adjusted_Penalty>
0

> <i_epik_Tot_Q>
0

> <i_epik_Tot_abs_Q>
0

> <r_epik_Metal_State_Penalty>
-0

> <b_epik_Metal_Only>
0

> <s_lp_Force_Field>
OPLS_2005

> <r_lp_Energy>
19.5885

> <b_lp_Chiralities_Consistent>
1

> <s_lp_Variant>
AV-unprocessed.smi:2040-3

> <Gold.Version>
5.8.1

> <Gold.Id.Protein>
6NUR|6NUR_protein|mol2

> <Gold.PLP.Fitness>
36.5494

> <Gold.PLP.PLP>
-30.7234

> <Gold.PLP.part.hbond>
-3.8421

> <Gold.PLP.part.metal>
0.0000

> <Gold.PLP.part.buried>
-1.6202

> <Gold.PLP.part.nonpolar>
-26.9816

> <Gold.PLP.part.repulsive>
0.4931

> <Gold.PLP.ligand.clash>
0.0000

> <Gold.PLP.ligand.torsion>
0.1989

> <Gold.PLP.Chemscore.Hbond>
2.0680

> <Gold.PLP.Chemscore.CHOScore>
0.0000

> <Gold.PLP.Chemscore.Metal>
0.0000

> <Gold.Chemscore.Hbonds>
donor molecule, donor type, donor heavy atom, donor atom, acceptor molecule, acceptor atom, score
      L1  H     5    23       P1  7948  0.96
      L1  H     8    24       P1  7948  1.00
      P1  H  7989  7998       L1    18  0.14

> <Gold.PLP.Chemscore.Internal.Correction>
0.0198

> <Gold.Rescore>
     Score         DG    S(hbond)    S(metal)    S(lipo)     H(rot)  DE(clash)    DE(int)     intcor
     14.07     -15.90       1.93        0.00      61.07       1.23       0.18       1.65       ----

> <Gold.Chemscore.Fitness>
14.0744

> <Gold.Chemscore.DG>
-15.9039

> <Gold.Chemscore.ZeroCoef>
-5.4800

> <Gold.Chemscore.Hbond>
1.9273

> <Gold.Chemscore.Metal>
0.0000

> <Gold.Chemscore.Lipo>
61.0688

> <Gold.Chemscore.Internal_Hbond>
0.0000

> <Gold.Chemscore.DEClash>
0.1840

> <Gold.Chemscore.DEInternal>
1.6454

> <Gold.Chemscore.Rot>
1.2338

> <Gold.Chemscore.Internal.Correction>
   9.000000E+99

> <Gold.Chemscore.Hbonds>
donor molecule, donor type, donor heavy atom, donor atom, acceptor molecule, acceptor atom, score
      L1  H     5    23       P1  7948  0.92
      L1  H     8    24       P1  7948  0.95

> <Gold.Chemscore.Hbond.Weighted>
-6.4372

> <Gold.Chemscore.Metal.Weighted>
-0.0000

> <Gold.Chemscore.Lipo.Weighted>
-7.1450

> <Gold.Chemscore.Internal_Hbond.Weighted>
0.0000

> <Gold.Chemscore.DEClash.Weighted>
0.1840

> <Gold.Chemscore.DEInternal.Weighted>
1.6454

> <Gold.Chemscore.Rot.Weighted>
3.1584

> <Gold.Chemscore.Internal.Correction.Weighted>
   9.000000E+99

> <Gold.Protein.RotatedTorsions>
[ 6907 6896 6895 6894 ] final -152.19 input  -60.11 | X-H torsion
[ 7974 7965 7964 7962 ] final  -58.60 input  175.53 | X-H torsion
[ 8008 7997 7996 7995 ] final   75.79 input   59.86 | X-H torsion
[ 10167 10162 10161 10158 ] final  -74.04 input  -65.29 | X-H torsion
[ 10718 10713 10712 10709 ] final -155.26 input   66.30 | X-H torsion
[ 10763 10752 10751 10750 ] final   82.40 input  -60.55 | X-H torsion
[ 11005 11000 10999 10996 ] final  -49.19 input  -57.11 | X-H torsion

> <Gold.Protein.ActiveResidues>
 VAL166  LYS551  ARG553  GLY616  TRP617  ASP618  TYR619  PRO620  LYS621  CYS622 
 ASP623  PHE694  ASN695  SER759  ASP760  ASP761  ALA762  ILE779  LEU786  VAL792 
 PHE793  MET794  SER795  GLU796  ALA797  LYS798  CYS799  TRP800  GLU811  SER814 

> <Gold.Protein.RotatedAtoms>
  151.2241  133.4486  159.2601 H   0  0  0  0  0  0  0  0  0  0  0  0  # atno 6907 bound_to 6896
  151.0857  134.9885  159.8388 H   0  0  0  0  0  0  0  0  0  0  0  0  # atno 6908 bound_to 6896
  152.5429  134.2178  159.8828 H   0  0  0  0  0  0  0  0  0  0  0  0  # atno 6909 bound_to 6896
  145.8374  140.8440  143.0052 H   0  0  0  0  0  0  0  0  0  0  0  0  # atno 7974 bound_to 7965
  155.8180  140.3471  155.5497 H   0  0  0  0  0  0  0  0  0  0  0  0  # atno 8008 bound_to 7997
  155.8372  140.0936  157.1777 H   0  0  0  0  0  0  0  0  0  0  0  0  # atno 8009 bound_to 7997
  154.4004  140.1401  156.3672 H   0  0  0  0  0  0  0  0  0  0  0  0  # atno 8010 bound_to 7997
  140.5060  143.2353  151.7673 H   0  0  0  0  0  0  0  0  0  0  0  0  # atno 10167 bound_to 10162
  156.5104  130.8432  151.2644 H   0  0  0  0  0  0  0  0  0  0  0  0  # atno 10718 bound_to 10713
  153.1200  135.4729  154.9179 H   0  0  0  0  0  0  0  0  0  0  0  0  # atno 10763 bound_to 10752
  154.7566  135.3120  154.8461 H   0  0  0  0  0  0  0  0  0  0  0  0  # atno 10764 bound_to 10752
  153.9028  135.6873  153.4808 H   0  0  0  0  0  0  0  0  0  0  0  0  # atno 10765 bound_to 10752
  141.0745  133.6670  156.3550 H   0  0  0  0  0  0  0  0  0  0  0  0  # atno 11005 bound_to 11000
  144.6735  140.0761  143.7471 LP  0  0  0  0  0  0  0  0  0  0  0  0  # atno 17320 bound_to 7965
  145.9503  139.2729  143.1216 LP  0  0  0  0  0  0  0  0  0  0  0  0  # atno 17321 bound_to 7965
  139.4884  144.4457  151.9713 LP  0  0  0  0  0  0  0  0  0  0  0  0  # atno 17342 bound_to 10162
  140.3547  144.3046  150.5943 LP  0  0  0  0  0  0  0  0  0  0  0  0  # atno 17343 bound_to 10162
  157.7451  130.9951  150.2733 LP  0  0  0  0  0  0  0  0  0  0  0  0  # atno 17370 bound_to 10713
  156.3246  130.3791  149.7545 LP  0  0  0  0  0  0  0  0  0  0  0  0  # atno 17371 bound_to 10713
  140.5603  134.5940  157.5432 LP  0  0  0  0  0  0  0  0  0  0  0  0  # atno 17394 bound_to 11000
  139.9557  134.7539  156.0347 LP  0  0  0  0  0  0  0  0  0  0  0  0  # atno 17395 bound_to 11000

$$$$
