AV-unprocessed.smi:2750|AV-procd|sdf|10590|dock9
  -GOLD-   2272015 43D 1   1.00000     0.00000
 Structure written by MMmdl.
 25 26  0  0  0  0  0  0  0  0  2 V2000
  153.7880  139.4084  154.7249 O   0  0  0  0  0  0  0  0  0  0  0  0
  152.9083  138.9424  155.4818 C   0  0  0  0  0  0  0  0  0  0  0  0
  152.7509  139.2500  156.6845 O   0  5  0  0  0  0  0  0  0  0  0  0
  151.9333  137.9315  154.8700 C   0  0  0  0  0  0  0  0  0  0  0  0
  150.5398  138.3150  155.0226 N   0  0  0  0  0  0  0  0  0  0  0  0
  149.6159  138.6105  154.0411 C   0  0  0  0  0  0  0  0  0  0  0  0
  148.4830  138.8988  154.7470 C   0  0  0  0  0  0  0  0  0  0  0  0
  147.1269  139.2893  154.2385 C   0  0  0  0  0  0  0  0  0  0  0  0
  147.1337  140.6242  153.4658 C   0  0  1  0  0  0  0  0  0  0  0  0
  145.9152  141.3962  153.6443 N   0  0  0  0  0  0  0  0  0  0  0  0
  146.1471  142.6037  154.1765 C   0  0  0  0  0  0  0  0  0  0  0  0
  145.2992  143.4553  154.4323 O   0  0  0  0  0  0  0  0  0  0  0  0
  147.4638  142.7178  154.3822 N   0  0  0  0  0  0  0  0  0  0  0  0
  148.1324  141.6247  154.0187 C   0  0  0  0  0  0  0  0  0  0  0  0
  149.3440  141.4345  154.1060 O   0  0  0  0  0  0  0  0  0  0  0  0
  148.7584  138.7661  156.1080 N   0  0  0  0  0  0  0  0  0  0  0  0
  149.9981  138.4191  156.2603 N   0  0  0  0  0  0  0  0  0  0  0  0
  152.1512  137.8304  153.8065 H   0  0  0  0  0  0  0  0  0  0  0  0
  152.0823  136.9481  155.3191 H   0  0  0  0  0  0  0  0  0  0  0  0
  149.8397  138.5936  152.9849 H   0  0  0  0  0  0  0  0  0  0  0  0
  146.7311  138.4949  153.6035 H   0  0  0  0  0  0  0  0  0  0  0  0
  146.4343  139.3658  155.0777 H   0  0  0  0  0  0  0  0  0  0  0  0
  147.3158  140.4631  152.4024 H   0  0  0  0  0  0  0  0  0  0  0  0
  145.0013  141.0421  153.4006 H   0  0  0  0  0  0  0  0  0  0  0  0
  147.9000  143.5364  154.7809 H   0  0  0  0  0  0  0  0  0  0  0  0
  1  2  2  0  0  0  0
  2  3  1  0  0  0  0
  2  4  1  0  0  0  0
  4  5  1  0  0  0  0
  4 18  1  0  0  0  0
  4 19  1  0  0  0  0
  5 17  1  0  0  0  0
  5  6  1  0  0  0  0
  6  7  2  0  0  0  0
  6 20  1  0  0  0  0
  7  8  1  0  0  0  0
  7 16  1  0  0  0  0
  8  9  1  0  0  0  0
  8 21  1  0  0  0  0
  8 22  1  0  0  0  0
  9 14  1  0  0  0  0
  9 10  1  0  0  0  0
  9 23  1  0  0  0  0
 10 11  1  0  0  0  0
 10 24  1  0  0  0  0
 11 12  2  0  0  0  0
 11 13  1  0  0  0  0
 13 14  1  0  0  0  0
 13 25  1  0  0  0  0
 14 15  2  0  0  0  0
 16 17  2  0  0  0  0
M  CHG  1   3  -1
M  END
> <s_m_source_file>
AV-unprocessed.smi

> <i_m_source_file_index>
2750

> <i_lp_mmshare_version>
43012

> <i_f3d_flags>
0

> <s_epik_input>
Tz1DKFtPSF0pW0NIMl1uMVtjSF1jKG5uMSlbQ0gyXVtDQEBIXTJbTkhdQyg9TylbTkhdQzI9Tw==

> <s_epik_cmdline>
J2VwaWtfcHl0aG9uJywgJy1waCcsICc3LjAnLCAnLXRuJywgJzgnLCAnLW1hJywgJzIwMCcsICctbWV0YWxfYmluZGluZycsICctaW1hZScsICc8aW5maWxlLm1hZT4nLCAnLW9tYWUnLCAnPG91dGZpbGUubWFlPic=

> <r_lp_tautomer_probability>
1

> <r_epik_Ionization_Penalty>
0.019671

> <r_epik_Ionization_Penalty_Charging>
2.66176e-05

> <r_epik_Ionization_Penalty_Neutral>
0.0196444

> <r_epik_State_Penalty>
0.0155882

> <r_epik_Charging_Adjusted_Penalty>
0.0156148

> <i_epik_Tot_Q>
-1

> <i_epik_Tot_abs_Q>
1

> <r_epik_Metal_State_Penalty>
0.396229

> <b_epik_Metal_Only>
0

> <s_lp_Force_Field>
OPLS_2005

> <r_lp_Energy>
18.3652

> <b_lp_Chiralities_Consistent>
1

> <s_lp_Variant>
AV-unprocessed.smi:2750-2

> <Gold.Version>
5.8.1

> <Gold.Id.Protein>
6NUR|6NUR_protein|mol2

> <Gold.PLP.Fitness>
45.1894

> <Gold.PLP.PLP>
-25.7546

> <Gold.PLP.part.hbond>
-6.2796

> <Gold.PLP.part.metal>
0.0000

> <Gold.PLP.part.buried>
-0.4322

> <Gold.PLP.part.nonpolar>
-20.4040

> <Gold.PLP.part.repulsive>
0.6251

> <Gold.PLP.ligand.clash>
0.0000

> <Gold.PLP.ligand.torsion>
0.4117

> <Gold.PLP.Chemscore.Hbond>
5.2888

> <Gold.PLP.Chemscore.CHOScore>
1.4570

> <Gold.PLP.Chemscore.Metal>
0.0000

> <Gold.Chemscore.Hbonds>
donor molecule, donor type, donor heavy atom, donor atom, acceptor molecule, acceptor atom, score
      L1  H    10    24       P1 10175  1.00
      L1  H    13    25       P1  8028  1.00
      P1  H  7989  7998       L1    15  0.02
      P1  H  7997  8009       L1     3  1.34
      P1  H  7997  8010       L1     1  0.70
      P1  H  8011  8017       L1    15  0.46
      L1  C     6    20       P1  7948  0.34
      L1  C     6    20       P1  7957  1.00

> <Gold.PLP.Chemscore.Internal.Correction>
0.0208

> <Gold.Rescore>
     Score         DG    S(hbond)    S(metal)    S(lipo)     H(rot)  DE(clash)    DE(int)     intcor
      5.82     -10.72       2.68        0.00      30.27       2.84       0.44       4.46       ----

> <Gold.Chemscore.Fitness>
5.8181

> <Gold.Chemscore.DG>
-10.7166

> <Gold.Chemscore.ZeroCoef>
-5.4800

> <Gold.Chemscore.Hbond>
2.6806

> <Gold.Chemscore.Metal>
0.0000

> <Gold.Chemscore.Lipo>
30.2746

> <Gold.Chemscore.Internal_Hbond>
0.0000

> <Gold.Chemscore.DEClash>
0.4433

> <Gold.Chemscore.DEInternal>
4.4553

> <Gold.Chemscore.Rot>
2.8354

> <Gold.Chemscore.Internal.Correction>
   9.000000E+99

> <Gold.Chemscore.Hbonds>
donor molecule, donor type, donor heavy atom, donor atom, acceptor molecule, acceptor atom, score
      L1  H    10    24       P1 10175  0.50
      L1  H    13    25       P1  8028  0.60
      P1  H  7989  7998       L1    15  0.03
      P1  H  7997  8009       L1     3  0.07
      P1  H  7997  8010       L1     1  0.35
      P1  H  8011  8017       L1    15  0.06

> <Gold.Chemscore.Hbond.Weighted>
-8.9531

> <Gold.Chemscore.Metal.Weighted>
-0.0000

> <Gold.Chemscore.Lipo.Weighted>
-3.5421

> <Gold.Chemscore.Internal_Hbond.Weighted>
0.0000

> <Gold.Chemscore.DEClash.Weighted>
0.4433

> <Gold.Chemscore.DEInternal.Weighted>
4.4553

> <Gold.Chemscore.Rot.Weighted>
7.2586

> <Gold.Chemscore.Internal.Correction.Weighted>
   9.000000E+99

> <Gold.Protein.RotatedTorsions>
[ 6907 6896 6895 6894 ] final -100.86 input  -60.11 | X-H torsion
[ 7974 7965 7964 7962 ] final  136.36 input  175.53 | X-H torsion
[ 8008 7997 7996 7995 ] final  163.98 input   59.86 | X-H torsion
[ 10167 10162 10161 10158 ] final   13.72 input  -65.29 | X-H torsion
[ 10718 10713 10712 10709 ] final  -31.69 input   66.30 | X-H torsion
[ 10763 10752 10751 10750 ] final  144.61 input  -60.55 | X-H torsion
[ 11005 11000 10999 10996 ] final  105.43 input  -57.11 | X-H torsion

> <Gold.Protein.ActiveResidues>
 VAL166  LYS551  ARG553  GLY616  TRP617  ASP618  TYR619  PRO620  LYS621  CYS622 
 ASP623  PHE694  ASN695  SER759  ASP760  ASP761  ALA762  ILE779  LEU786  VAL792 
 PHE793  MET794  SER795  GLU796  ALA797  LYS798  CYS799  TRP800  GLU811  SER814 

> <Gold.Protein.RotatedAtoms>
  150.7132  134.0823  159.3901 H   0  0  0  0  0  0  0  0  0  0  0  0  # atno 6907 bound_to 6896
  151.8807  135.0452  160.0498 H   0  0  0  0  0  0  0  0  0  0  0  0  # atno 6908 bound_to 6896
  152.2570  133.5228  159.5396 H   0  0  0  0  0  0  0  0  0  0  0  0  # atno 6909 bound_to 6896
  144.9573  139.4750  143.5497 H   0  0  0  0  0  0  0  0  0  0  0  0  # atno 7974 bound_to 7965
  156.1915  140.1709  156.8082 H   0  0  0  0  0  0  0  0  0  0  0  0  # atno 8008 bound_to 7997
  154.5477  140.0724  156.8649 H   0  0  0  0  0  0  0  0  0  0  0  0  # atno 8009 bound_to 7997
  155.3089  140.3366  155.4247 H   0  0  0  0  0  0  0  0  0  0  0  0  # atno 8010 bound_to 7997
  140.5984  143.8655  150.6940 H   0  0  0  0  0  0  0  0  0  0  0  0  # atno 10167 bound_to 10162
  156.3841  130.4361  149.7446 H   0  0  0  0  0  0  0  0  0  0  0  0  # atno 10718 bound_to 10713
  153.9917  135.2931  155.3411 H   0  0  0  0  0  0  0  0  0  0  0  0  # atno 10763 bound_to 10752
  154.7211  135.5109  153.8816 H   0  0  0  0  0  0  0  0  0  0  0  0  # atno 10764 bound_to 10752
  153.0807  135.6678  154.0168 H   0  0  0  0  0  0  0  0  0  0  0  0  # atno 10765 bound_to 10752
  139.8802  134.9335  156.5513 H   0  0  0  0  0  0  0  0  0  0  0  0  # atno 11005 bound_to 11000
  146.3341  139.8699  142.8842 LP  0  0  0  0  0  0  0  0  0  0  0  0  # atno 17320 bound_to 7965
  145.2753  141.0122  143.3748 LP  0  0  0  0  0  0  0  0  0  0  0  0  # atno 17321 bound_to 7965
  140.2195  143.3820  152.1654 LP  0  0  0  0  0  0  0  0  0  0  0  0  # atno 17342 bound_to 10162
  139.5274  144.7119  151.5180 LP  0  0  0  0  0  0  0  0  0  0  0  0  # atno 17343 bound_to 10162
  156.4525  130.7913  151.2934 LP  0  0  0  0  0  0  0  0  0  0  0  0  # atno 17370 bound_to 10713
  157.7494  131.0091  150.3254 LP  0  0  0  0  0  0  0  0  0  0  0  0  # atno 17371 bound_to 10713
  140.8238  133.8333  155.8920 LP  0  0  0  0  0  0  0  0  0  0  0  0  # atno 17394 bound_to 11000
  140.9393  134.1921  157.4809 LP  0  0  0  0  0  0  0  0  0  0  0  0  # atno 17395 bound_to 11000

$$$$
