#       Name:                AV-unprocessed.smi:762
#       Creating user name   scv26
#       Creation time:       Fri Mar 27 01:02:43 2020


#       File generated by GOLD software.
#

@<TRIPOS>MOLECULE
AV-unprocessed.smi:762
    46    48     1
SMALL
NO_CHARGES


@<TRIPOS>ATOM
      1 ****        -0.4117   1.8683   0.5829 O.2            1 S1                 0.0000
      2 ****        -0.8651   0.8279   0.1062 C.2            1 S1                 0.0000
      3 ****        -2.3762   0.5995   0.0681 C.3            1 S1                 0.0000
      4 ****        -3.0437   0.5054   1.4290 C.2            1 S1                 0.0000
      5 ****        -3.5766   1.5816   2.0398 C.2            1 S1                 0.0000
      6 ****        -4.2040   1.5528   3.4217 C.3            1 S1                 0.0000
      7 ****        -3.8312   0.2820   4.2031 C.3            1 S1                 0.0000
      8 ****        -3.9427  -0.9647   3.3169 C.3            1 S1                 0.0000
      9 ****        -3.0206  -0.8695   2.0874 C.3            1 S1                 0.0000
     10 ****        -0.0965  -0.1538  -0.3898 N.am           1 S1                 0.0000
     11 ****         1.3605  -0.1370  -0.4242 C.3            1 S1                 0.0000
     12 ****         1.8908   0.7356  -1.5743 C.3            1 S1                 0.0000
     13 ****         3.3411   0.7237  -1.6281 N.pl3          1 S1                 0.0000
     14 ****         4.2073   1.3677  -0.8311 C.2            1 S1                 0.0000
     15 ****         5.4926   1.1849  -1.1302 N.2            1 S1                 0.0000
     16 ****         5.4778   0.3484  -2.2284 N.2            1 S1                 0.0000
     17 ****         4.1860   0.0973  -2.4727 C.2            1 S1                 0.0000
     18 ****         3.7089  -0.7500  -3.6088 C.3            1 S1                 0.0000
     19 ****         2.9568  -2.0389  -3.3605 C.3            1 S1                 0.0000
     20 ****         4.3560  -2.0822  -3.9168 C.3            1 S1                 0.0000
     21 ****        -2.8142   1.4366  -0.4774 H              1 S1                 0.0000
     22 ****        -2.6164  -0.2901  -0.5159 H              1 S1                 0.0000
     23 ****        -3.5730   2.5389   1.5391 H              1 S1                 0.0000
     24 ****        -3.8878   2.4354   3.9781 H              1 S1                 0.0000
     25 ****        -5.2858   1.6215   3.3039 H              1 S1                 0.0000
     26 ****        -2.8081   0.3681   4.5720 H              1 S1                 0.0000
     27 ****        -4.4692   0.1834   5.0818 H              1 S1                 0.0000
     28 ****        -3.7045  -1.8607   3.8910 H              1 S1                 0.0000
     29 ****        -4.9766  -1.0760   2.9876 H              1 S1                 0.0000
     30 ****        -3.3082  -1.6295   1.3603 H              1 S1                 0.0000
     31 ****        -1.9919  -1.0850   2.3780 H              1 S1                 0.0000
     32 ****        -0.5536  -0.9753  -0.7589 H              1 S1                 0.0000
     33 ****         1.7500   0.2111   0.5342 H              1 S1                 0.0000
     34 ****         1.7059  -1.1638  -0.5429 H              1 S1                 0.0000
     35 ****         1.4917   0.3951  -2.5301 H              1 S1                 0.0000
     36 ****         1.5672   1.7699  -1.4517 H              1 S1                 0.0000
     37 ****         3.8879   1.9920  -0.0094 H              1 S1                 0.0000
     38 ****         3.3971  -0.1295  -4.4467 H              1 S1                 0.0000
     39 ****         2.8217  -2.3603  -2.3300 H              1 S1                 0.0000
     40 ****         2.1378  -2.2784  -4.0356 H              1 S1                 0.0000
     41 ****         4.4733  -2.3527  -4.9641 H              1 S1                 0.0000
     42 ****         5.1471  -2.4284  -3.2544 H              1 S1                 0.0000
     43 ****        -1.0318   2.5641   0.9453 LP             1 S1                 0.0000
     44 ****         0.5768   2.0177   0.6078 LP             1 S1                 0.0000
     45 ****         6.2898   1.5679  -0.6636 LP             1 S1                 0.0000
     46 ****         6.2673   0.0024  -2.7354 LP             1 S1                 0.0000
@<TRIPOS>BOND
    1    1    2 2     
    2    2    3 1     
    3    2   10 am    
    4    3    4 1     
    5    3   21 1     
    6    3   22 1     
    7    4    9 1     
    8    4    5 2     
    9    5    6 1     
   10    5   23 1     
   11    6    7 1     
   12    6   24 1     
   13    6   25 1     
   14    7    8 1     
   15    7   26 1     
   16    7   27 1     
   17    8    9 1     
   18    8   28 1     
   19    8   29 1     
   20    9   30 1     
   21    9   31 1     
   22   10   11 1     
   23   10   32 1     
   24   11   12 1     
   25   11   33 1     
   26   11   34 1     
   27   12   13 1     
   28   12   35 1     
   29   12   36 1     
   30   13   17 1     
   31   13   14 1     
   32   14   15 2     
   33   14   37 1     
   34   15   16 1     
   35   16   17 2     
   36   17   18 1     
   37   18   20 1     
   38   18   19 1     
   39   18   38 1     
   40   19   20 1     
   41   19   39 1     
   42   19   40 1     
   43   20   41 1     
   44   20   42 1     
   45    1   43 1     
   46    1   44 1     
   47   15   45 1     
   48   16   46 1     
@<TRIPOS>SUBSTRUCTURE
      1 S1             1
@<TRIPOS>SET
LONE_PAIRS      STATIC     ATOMS    <user>   **** ""
4 43 44 45 46
DONOR_HYDROGENS      STATIC     ATOMS    <user>   **** ""
1 32
ATOM$BLUE        STATIC     ATOMS    COLORGROUP SYSTEM
4 43 44 45 46
ATOM$RED        STATIC     ATOMS    COLORGROUP SYSTEM
1 32
