#       Name:                AV-unprocessed.smi:1738
#       Creating user name   scv26
#       Creation time:       Fri Mar 27 08:21:17 2020


#       File generated by GOLD software.
#

@<TRIPOS>MOLECULE
AV-unprocessed.smi:1738
    49    51     1
SMALL
NO_CHARGES


@<TRIPOS>ATOM
      1 ****        -7.7218   1.5127  -1.2518 C.3            1 S1                 0.0000
      2 ****        -7.1252  -0.2217  -1.1189 S.o2           1 S1                 0.0000
      3 ****        -7.6057  -0.7669   0.1605 O.2            1 S1                 0.0000
      4 ****        -7.4497  -0.9192  -2.3729 O.2            1 S1                 0.0000
      5 ****        -5.3461  -0.0541  -1.0263 C.ar           1 S1                 0.0000
      6 ****        -4.6737  -0.2441   0.1974 C.ar           1 S1                 0.0000
      7 ****        -3.2770  -0.0676   0.2227 C.ar           1 S1                 0.0000
      8 ****        -2.6118   0.3094  -0.9707 C.ar           1 S1                 0.0000
      9 ****        -1.2082   0.5050  -1.0886 N.am           1 S1                 0.0000
     10 ****        -0.2871   0.6508  -0.1206 C.2            1 S1                 0.0000
     11 ****        -0.5134   0.6565   1.0887 O.2            1 S1                 0.0000
     12 ****         0.9392   0.8021  -0.6408 N.am           1 S1                 0.0000
     13 ****         2.1650   0.9775   0.1336 C.3            1 S1                 0.0000
     14 ****         3.2444   1.7734  -0.6215 C.3            1 S1                 0.0000
     15 ****         4.5831   1.1109  -0.2394 C.3            1 S1                 0.0000
     16 ****         4.2377   0.0701   0.7476 N.4            1 S1                 1.0000
     17 ****         5.1736  -1.0673   0.8837 C.3            1 S1                 0.0000
     18 ****         4.6855  -1.9947   2.0149 C.3            1 S1                 0.0000
     19 ****         3.2177  -2.4224   1.8122 C.3            1 S1                 0.0000
     20 ****         2.3074  -1.2005   1.5826 C.3            1 S1                 0.0000
     21 ****         2.8654  -0.3518   0.4276 C.3            1 S1                 0.0000
     22 ****        -3.3933   0.4777  -2.1344 C.ar           1 S1                 0.0000
     23 ****        -4.7320   0.3122  -2.1709 N.ar           1 S1                 0.0000
     24 ****        -8.8100   1.5185  -1.3058 H              1 S1                 0.0000
     25 ****        -7.3112   1.9704  -2.1516 H              1 S1                 0.0000
     26 ****        -7.3976   2.0767  -0.3775 H              1 S1                 0.0000
     27 ****        -5.2063  -0.5239   1.0940 H              1 S1                 0.0000
     28 ****        -2.7537  -0.2349   1.1504 H              1 S1                 0.0000
     29 ****        -0.8665   0.5793  -2.0356 H              1 S1                 0.0000
     30 ****         1.0316   0.7931  -1.6463 H              1 S1                 0.0000
     31 ****         1.9550   1.4934   1.0730 H              1 S1                 0.0000
     32 ****         3.1011   1.7151  -1.7017 H              1 S1                 0.0000
     33 ****         3.2194   2.8282  -0.3455 H              1 S1                 0.0000
     34 ****         5.0403   0.6571  -1.1200 H              1 S1                 0.0000
     35 ****         5.2939   1.8217   0.1827 H              1 S1                 0.0000
     36 ****         5.2360  -1.6135  -0.0589 H              1 S1                 0.0000
     37 ****         6.1735  -0.6942   1.1078 H              1 S1                 0.0000
     38 ****         5.3257  -2.8750   2.0792 H              1 S1                 0.0000
     39 ****         4.7788  -1.4767   2.9703 H              1 S1                 0.0000
     40 ****         3.1506  -3.0904   0.9525 H              1 S1                 0.0000
     41 ****         2.8702  -2.9929   2.6740 H              1 S1                 0.0000
     42 ****         1.2937  -1.5320   1.3569 H              1 S1                 0.0000
     43 ****         2.2474  -0.6039   2.4937 H              1 S1                 0.0000
     44 ****         2.8903  -0.9528  -0.4847 H              1 S1                 0.0000
     45 ****        -2.9293   0.7590  -3.0686 H              1 S1                 0.0000
     46 ****         4.1916   0.5304   1.6457 H              1 S1                 0.0000
     47 ****        -1.4494   0.5461   1.4228 LP             1 S1                 0.0000
     48 ****         0.2388   0.7715   1.7376 LP             1 S1                 0.0000
     49 ****        -5.2496   0.4556  -3.0144 LP             1 S1                 0.0000
@<TRIPOS>BOND
    1    1    2 1     
    2    1   24 1     
    3    1   25 1     
    4    1   26 1     
    5    2    3 2     
    6    2    4 2     
    7    2    5 1     
    8    5   23 ar    
    9    5    6 ar    
   10    6    7 ar    
   11    6   27 1     
   12    7    8 ar    
   13    7   28 1     
   14    8    9 1     
   15    8   22 ar    
   16    9   10 am    
   17    9   29 1     
   18   10   11 2     
   19   10   12 am    
   20   12   13 1     
   21   12   30 1     
   22   13   21 1     
   23   13   14 1     
   24   13   31 1     
   25   14   15 1     
   26   14   32 1     
   27   14   33 1     
   28   15   16 1     
   29   15   34 1     
   30   15   35 1     
   31   16   21 1     
   32   16   17 1     
   33   16   46 1     
   34   17   18 1     
   35   17   36 1     
   36   17   37 1     
   37   18   19 1     
   38   18   38 1     
   39   18   39 1     
   40   19   20 1     
   41   19   40 1     
   42   19   41 1     
   43   20   21 1     
   44   20   42 1     
   45   20   43 1     
   46   21   44 1     
   47   22   23 ar    
   48   22   45 1     
   49   11   47 1     
   50   11   48 1     
   51   23   49 1     
@<TRIPOS>SUBSTRUCTURE
      1 S1             1
@<TRIPOS>SET
LONE_PAIRS      STATIC     ATOMS    <user>   **** ""
5 3 4 47 48 49
DONOR_HYDROGENS      STATIC     ATOMS    <user>   **** ""
3 29 30 46
ATOM$BLUE        STATIC     ATOMS    COLORGROUP SYSTEM
5 3 4 47 48 49
ATOM$RED        STATIC     ATOMS    COLORGROUP SYSTEM
3 29 30 46
