AV-unprocessed.smi:2032|AV-procd|sdf|8256|dock5
  -GOLD-   2272010533D 1   1.00000     0.00000
 Structure written by MMmdl.
 42 43  0  0  0  0  0  0  0  0  3 V2000
  146.7252  129.1913  151.4241 C   0  0  0  0  0  0  0  0  0  0  0  0
  146.2519  130.1572  152.5250 C   0  0  1  0  0  0  0  0  0  0  0  0
  147.4050  130.8330  153.2893 C   0  0  0  0  0  0  0  0  0  0  0  0
  148.0871  131.8600  152.4571 N   0  3  2  0  0  0  0  0  0  0  0  0
  149.2953  132.4302  153.1355 C   0  0  2  0  0  0  0  0  0  0  0  0
  150.1251  131.3849  153.9197 C   0  0  0  0  0  0  0  0  0  0  0  0
  148.8713  133.5919  154.0721 C   0  0  0  0  0  0  0  0  0  0  0  0
  149.7093  134.7774  153.9237 N   0  0  0  0  0  0  0  0  0  0  0  0
  150.8309  135.0306  154.6123 C   0  0  0  0  0  0  0  0  0  0  0  0
  151.2420  134.2125  155.4385 O   0  0  0  0  0  0  0  0  0  0  0  0
  151.3993  136.2180  154.3059 N   0  5  0  0  0  0  0  0  0  0  0  0
  151.6226  137.1252  155.2707 C   0  0  0  0  0  0  0  0  0  0  0  0
  151.4588  136.8619  156.5722 N   0  0  0  0  0  0  0  0  0  0  0  0
  151.7555  137.9467  157.3996 C   0  0  0  0  0  0  0  0  0  0  0  0
  152.1616  139.0597  156.7125 C   0  0  0  0  0  0  0  0  0  0  0  0
  152.1850  138.7764  154.9953 S   0  0  0  0  0  0  0  0  0  0  0  0
  147.0830  132.8432  151.9697 C   0  0  0  0  0  0  0  0  0  0  0  0
  145.9469  132.1364  151.2068 C   0  0  2  0  0  0  0  0  0  0  0  0
  144.8482  133.1158  150.7784 C   0  0  0  0  0  0  0  0  0  0  0  0
  145.3481  131.1452  152.0347 O   0  0  0  0  0  0  0  0  0  0  0  0
  147.3066  128.3744  151.8528 H   0  0  0  0  0  0  0  0  0  0  0  0
  147.3566  129.6817  150.6837 H   0  0  0  0  0  0  0  0  0  0  0  0
  145.8757  128.7508  150.9018 H   0  0  0  0  0  0  0  0  0  0  0  0
  145.6851  129.5618  153.2413 H   0  0  0  0  0  0  0  0  0  0  0  0
  147.0107  131.3119  154.1873 H   0  0  0  0  0  0  0  0  0  0  0  0
  148.1012  130.0691  153.6317 H   0  0  0  0  0  0  0  0  0  0  0  0
  149.9511  132.8231  152.3568 H   0  0  0  0  0  0  0  0  0  0  0  0
  150.9841  131.8414  154.4114 H   0  0  0  0  0  0  0  0  0  0  0  0
  150.5358  130.6152  153.2663 H   0  0  0  0  0  0  0  0  0  0  0  0
  149.5286  130.8987  154.6923 H   0  0  0  0  0  0  0  0  0  0  0  0
  147.8343  133.8868  153.9162 H   0  0  0  0  0  0  0  0  0  0  0  0
  148.9362  133.2682  155.1114 H   0  0  0  0  0  0  0  0  0  0  0  0
  149.4105  135.4706  153.2530 H   0  0  0  0  0  0  0  0  0  0  0  0
  151.6500  137.8375  158.4687 H   0  0  0  0  0  0  0  0  0  0  0  0
  152.4482  140.0223  157.1079 H   0  0  0  0  0  0  0  0  0  0  0  0
  146.6851  133.4083  152.8144 H   0  0  0  0  0  0  0  0  0  0  0  0
  147.5387  133.5562  151.2833 H   0  0  0  0  0  0  0  0  0  0  0  0
  146.3479  131.6691  150.3072 H   0  0  0  0  0  0  0  0  0  0  0  0
  145.2465  133.8945  150.1274 H   0  0  0  0  0  0  0  0  0  0  0  0
  144.3933  133.6019  151.6419 H   0  0  0  0  0  0  0  0  0  0  0  0
  144.0580  132.5997  150.2325 H   0  0  0  0  0  0  0  0  0  0  0  0
  148.4310  131.3895  151.6323 H   0  0  0  0  0  0  0  0  0  0  0  0
  1  2  1  0  0  0  0
  1 21  1  0  0  0  0
  1 22  1  0  0  0  0
  1 23  1  0  0  0  0
  2 20  1  0  0  0  0
  2  3  1  0  0  0  0
  2 24  1  0  0  0  0
  3  4  1  0  0  0  0
  3 25  1  0  0  0  0
  3 26  1  0  0  0  0
  4  5  1  0  0  0  0
  4 17  1  0  0  0  0
  4 42  1  0  0  0  0
  5  6  1  0  0  0  0
  5  7  1  0  0  0  0
  5 27  1  0  0  0  0
  6 28  1  0  0  0  0
  6 29  1  0  0  0  0
  6 30  1  0  0  0  0
  7  8  1  0  0  0  0
  7 31  1  0  0  0  0
  7 32  1  0  0  0  0
  8  9  1  0  0  0  0
  8 33  1  0  0  0  0
  9 10  2  0  0  0  0
  9 11  1  0  0  0  0
 11 12  1  0  0  0  0
 12 16  1  0  0  0  0
 12 13  2  0  0  0  0
 13 14  1  0  0  0  0
 14 15  2  0  0  0  0
 14 34  1  0  0  0  0
 15 16  1  0  0  0  0
 15 35  1  0  0  0  0
 17 18  1  0  0  0  0
 17 36  1  0  0  0  0
 17 37  1  0  0  0  0
 18 19  1  0  0  0  0
 18 20  1  0  0  0  0
 18 38  1  0  0  0  0
 19 39  1  0  0  0  0
 19 40  1  0  0  0  0
 19 41  1  0  0  0  0
M  CHG  1   4   1
M  CHG  1  11  -1
M  END
> <s_m_source_file>
AV-unprocessed.smi

> <i_m_source_file_index>
2032

> <i_lp_mmshare_version>
43012

> <i_f3d_flags>
0

> <s_epik_input>
W0NIM11bQ0BASF0xW0NIMl1OKFtDSDJdW0NASF0oTzEpW0NIM10pW0NASF0oW0NIM10pW0NIMl1bTkhdQyg9TylbTkhdYzJuW2NIXVtjSF1zMg==

> <s_epik_cmdline>
J2VwaWtfcHl0aG9uJywgJy1waCcsICc3LjAnLCAnLXRuJywgJzgnLCAnLW1hJywgJzIwMCcsICctbWV0YWxfYmluZGluZycsICctaW1hZScsICc8aW5maWxlLm1hZT4nLCAnLW9tYWUnLCAnPG91dGZpbGUubWFlPic=

> <r_lp_tautomer_probability>
0.999

> <r_epik_Ionization_Penalty>
6.71699

> <r_epik_Ionization_Penalty_Charging>
5.88592

> <r_epik_Ionization_Penalty_Neutral>
0.831074

> <r_epik_State_Penalty>
6.08365

> <r_epik_Charging_Adjusted_Penalty>
11.9696

> <i_epik_Tot_Q>
0

> <i_epik_Tot_abs_Q>
2

> <r_epik_Metal_State_Penalty>
2.0947

> <b_epik_Metal_Only>
1

> <s_lp_Force_Field>
OPLS_2005

> <r_lp_Energy>
13.0478

> <b_lp_Chiralities_Consistent>
1

> <s_lp_Variant>
AV-unprocessed.smi:2032-26

> <Gold.Version>
5.8.1

> <Gold.Id.Protein>
6NUR|6NUR_protein|mol2

> <Gold.PLP.Fitness>
41.6058

> <Gold.PLP.PLP>
-32.9242

> <Gold.PLP.part.hbond>
-3.0000

> <Gold.PLP.part.metal>
0.0000

> <Gold.PLP.part.buried>
-3.7101

> <Gold.PLP.part.nonpolar>
-26.9028

> <Gold.PLP.part.repulsive>
0.3853

> <Gold.PLP.ligand.clash>
0.0000

> <Gold.PLP.ligand.torsion>
1.7095

> <Gold.PLP.Chemscore.Hbond>
4.0000

> <Gold.PLP.Chemscore.CHOScore>
0.0000

> <Gold.PLP.Chemscore.Metal>
0.0000

> <Gold.Chemscore.Hbonds>
donor molecule, donor type, donor heavy atom, donor atom, acceptor molecule, acceptor atom, score
      L1  H     4    42       P1 10747  1.00
      L1  H     8    33       P1  7948  0.75
      P1  H 10752 10765       L1    11  0.91

> <Gold.PLP.Chemscore.Internal.Correction>
0.1005

> <Gold.Rescore>
     Score         DG    S(hbond)    S(metal)    S(lipo)     H(rot)  DE(clash)    DE(int)     intcor
     13.92     -17.12       1.89        0.00      80.15       1.58       0.00       3.20       ----

> <Gold.Chemscore.Fitness>
13.9166

> <Gold.Chemscore.DG>
-17.1179

> <Gold.Chemscore.ZeroCoef>
-5.4800

> <Gold.Chemscore.Hbond>
1.8871

> <Gold.Chemscore.Metal>
0.0000

> <Gold.Chemscore.Lipo>
80.1490

> <Gold.Chemscore.Internal_Hbond>
0.0000

> <Gold.Chemscore.DEClash>
0.0024

> <Gold.Chemscore.DEInternal>
3.1989

> <Gold.Chemscore.Rot>
1.5791

> <Gold.Chemscore.Internal.Correction>
   9.000000E+99

> <Gold.Chemscore.Hbonds>
donor molecule, donor type, donor heavy atom, donor atom, acceptor molecule, acceptor atom, score
      L1  H     4    42       P1 10747  0.94
      L1  H     8    33       P1  7948  0.09

> <Gold.Chemscore.Hbond.Weighted>
-6.3030

> <Gold.Chemscore.Metal.Weighted>
-0.0000

> <Gold.Chemscore.Lipo.Weighted>
-9.3774

> <Gold.Chemscore.Internal_Hbond.Weighted>
0.0000

> <Gold.Chemscore.DEClash.Weighted>
0.0024

> <Gold.Chemscore.DEInternal.Weighted>
3.1989

> <Gold.Chemscore.Rot.Weighted>
4.0425

> <Gold.Chemscore.Internal.Correction.Weighted>
   9.000000E+99

> <Gold.Protein.RotatedTorsions>
[ 6907 6896 6895 6894 ] final  -78.51 input  -60.11 | X-H torsion
[ 7974 7965 7964 7962 ] final  119.76 input  175.53 | X-H torsion
[ 8008 7997 7996 7995 ] final -158.68 input   59.86 | X-H torsion
[ 10167 10162 10161 10158 ] final -157.58 input  -65.29 | X-H torsion
[ 10718 10713 10712 10709 ] final   30.28 input   66.30 | X-H torsion
[ 10763 10752 10751 10750 ] final  167.32 input  -60.55 | X-H torsion
[ 11005 11000 10999 10996 ] final  -12.42 input  -57.11 | X-H torsion

> <Gold.Protein.ActiveResidues>
 VAL166  LYS551  ARG553  GLY616  TRP617  ASP618  TYR619  PRO620  LYS621  CYS622 
 ASP623  PHE694  ASN695  SER759  ASP760  ASP761  ALA762  ILE779  LEU786  VAL792 
 PHE793  MET794  SER795  GLU796  ALA797  LYS798  CYS799  TRP800  GLU811  SER814 

> <Gold.Protein.RotatedAtoms>
  150.6971  134.4260  159.5226 H   0  0  0  0  0  0  0  0  0  0  0  0  # atno 6907 bound_to 6896
  152.1995  134.8598  160.0518 H   0  0  0  0  0  0  0  0  0  0  0  0  # atno 6908 bound_to 6896
  151.9523  133.3635  159.4041 H   0  0  0  0  0  0  0  0  0  0  0  0  # atno 6909 bound_to 6896
  145.1393  139.3278  143.4624 H   0  0  0  0  0  0  0  0  0  0  0  0  # atno 7974 bound_to 7965
  155.7512  140.0827  157.2200 H   0  0  0  0  0  0  0  0  0  0  0  0  # atno 8008 bound_to 7997
  154.4012  140.1560  156.2782 H   0  0  0  0  0  0  0  0  0  0  0  0  # atno 8009 bound_to 7997
  155.8928  140.3414  155.5971 H   0  0  0  0  0  0  0  0  0  0  0  0  # atno 8010 bound_to 7997
  139.6759  143.9664  152.2310 H   0  0  0  0  0  0  0  0  0  0  0  0  # atno 10167 bound_to 10162
  157.2575  130.7145  149.6437 H   0  0  0  0  0  0  0  0  0  0  0  0  # atno 10718 bound_to 10713
  154.3521  135.2753  155.2366 H   0  0  0  0  0  0  0  0  0  0  0  0  # atno 10763 bound_to 10752
  154.4591  135.5911  153.6247 H   0  0  0  0  0  0  0  0  0  0  0  0  # atno 10764 bound_to 10752
  152.9849  135.6060  154.3732 H   0  0  0  0  0  0  0  0  0  0  0  0  # atno 10765 bound_to 10752
  140.7656  133.8480  155.9162 H   0  0  0  0  0  0  0  0  0  0  0  0  # atno 11005 bound_to 11000
  146.3506  140.1423  142.8594 LP  0  0  0  0  0  0  0  0  0  0  0  0  # atno 17320 bound_to 7965
  145.0550  140.9045  143.4973 LP  0  0  0  0  0  0  0  0  0  0  0  0  # atno 17321 bound_to 7965
  139.9441  144.6662  150.8236 LP  0  0  0  0  0  0  0  0  0  0  0  0  # atno 17342 bound_to 10162
  140.7635  143.3225  151.2590 LP  0  0  0  0  0  0  0  0  0  0  0  0  # atno 17343 bound_to 10162
  155.9664  130.4408  150.5314 LP  0  0  0  0  0  0  0  0  0  0  0  0  # atno 17370 bound_to 10713
  157.3211  131.0682  151.1931 LP  0  0  0  0  0  0  0  0  0  0  0  0  # atno 17371 bound_to 10713
  140.9622  134.1640  157.4644 LP  0  0  0  0  0  0  0  0  0  0  0  0  # atno 17394 bound_to 11000
  139.8764  134.9949  156.5716 LP  0  0  0  0  0  0  0  0  0  0  0  0  # atno 17395 bound_to 11000

$$$$
