AV-unprocessed.smi:109|AV-procd|sdf|1039|dock1
  -GOLD-   2262018 63D 1   1.00000     0.00000
 Structure written by MMmdl.
 58 61  0  0  0  0  0  0  0  0  1 V2000
  150.9551  140.1010  154.8779 O   0  0  0  0  0  0  0  0  0  0  0  0
  151.7504  140.0355  156.0419 C   0  0  0  0  0  0  0  0  0  0  0  0
  151.7660  141.4052  156.7424 C   0  0  0  0  0  0  0  0  0  0  0  0
  150.5744  141.6393  157.7032 C   0  0  2  0  0  0  0  0  0  0  0  0
  149.3785  141.9689  156.9249 N   0  0  0  0  0  0  0  0  0  0  0  0
  148.2840  141.1754  156.9094 C   0  0  0  0  0  0  0  0  0  0  0  0
  147.4875  141.0386  158.0013 N   0  0  0  0  0  0  0  0  0  0  0  0
  146.4201  140.2360  157.9550 C   0  0  0  0  0  0  0  0  0  0  0  0
  145.9760  139.4971  156.9360 N   0  0  0  0  0  0  0  0  0  0  0  0
  146.7673  139.6379  155.8332 C   0  0  0  0  0  0  0  0  0  0  0  0
  147.9346  140.4456  155.7443 C   0  0  0  0  0  0  0  0  0  0  0  0
  148.4960  140.3225  154.4807 N   0  0  0  0  0  0  0  0  0  0  0  0
  147.7068  139.4835  153.8656 C   0  0  0  0  0  0  0  0  0  0  0  0
  146.6197  139.0468  154.5951 N   0  0  0  0  0  0  0  0  0  0  0  0
  145.5517  138.0707  154.2009 C   0  0  2  0  0  0  0  0  0  0  0  0
  145.5049  137.0565  155.1642 O   0  0  0  0  0  0  0  0  0  0  0  0
  146.0920  135.8511  154.6773 C   0  0  2  0  0  0  0  0  0  0  0  0
  147.6040  135.8186  154.9982 C   0  0  0  0  0  0  0  0  0  0  0  0
  148.2249  134.7877  154.2611 O   0  0  0  0  0  0  0  0  0  0  0  0
  145.7385  135.9169  153.1858 C   0  0  2  0  0  0  0  0  0  0  0  0
  146.5823  135.1172  152.3801 O   0  0  0  0  0  0  0  0  0  0  0  0
  145.8688  137.3972  152.8508 C   0  0  1  0  0  0  0  0  0  0  0  0
  144.9235  137.7420  151.8572 O   0  0  0  0  0  0  0  0  0  0  0  0
  150.8288  142.7597  158.7525 C   0  0  0  0  0  0  0  0  0  0  0  0
  151.0594  144.1537  158.1169 C   0  0  0  0  0  0  0  0  0  0  0  0
  151.3476  145.2381  159.1684 C   0  0  0  0  0  0  0  0  0  0  0  0
  152.5442  144.8618  160.0503 C   0  0  0  0  0  0  0  0  0  0  0  0
  152.3196  143.4958  160.7093 C   0  0  0  0  0  0  0  0  0  0  0  0
  152.0392  142.4119  159.6574 C   0  0  0  0  0  0  0  0  0  0  0  0
  144.6322  138.6577  154.2114 H   0  0  0  0  0  0  0  0  0  0  0  0
  145.6070  134.9876  155.1346 H   0  0  0  0  0  0  0  0  0  0  0  0
  144.7051  135.5891  153.0586 H   0  0  0  0  0  0  0  0  0  0  0  0
  146.8838  137.6410  152.5322 H   0  0  0  0  0  0  0  0  0  0  0  0
  150.0491  140.1712  155.1367 H   0  0  0  0  0  0  0  0  0  0  0  0
  151.3452  139.2614  156.6936 H   0  0  0  0  0  0  0  0  0  0  0  0
  152.7609  139.7347  155.7639 H   0  0  0  0  0  0  0  0  0  0  0  0
  152.7024  141.4635  157.2944 H   0  0  0  0  0  0  0  0  0  0  0  0
  151.7982  142.2002  155.9960 H   0  0  0  0  0  0  0  0  0  0  0  0
  150.4236  140.7194  158.2677 H   0  0  0  0  0  0  0  0  0  0  0  0
  149.4093  142.8549  156.4411 H   0  0  0  0  0  0  0  0  0  0  0  0
  145.8386  140.1779  158.8633 H   0  0  0  0  0  0  0  0  0  0  0  0
  147.8992  139.1665  152.8512 H   0  0  0  0  0  0  0  0  0  0  0  0
  148.0830  136.7470  154.6874 H   0  0  0  0  0  0  0  0  0  0  0  0
  147.8066  135.7056  156.0619 H   0  0  0  0  0  0  0  0  0  0  0  0
  148.3657  135.0928  153.3779 H   0  0  0  0  0  0  0  0  0  0  0  0
  147.3538  135.6180  152.1627 H   0  0  0  0  0  0  0  0  0  0  0  0
  144.5790  138.5995  152.0535 H   0  0  0  0  0  0  0  0  0  0  0  0
  149.9448  142.8310  159.3884 H   0  0  0  0  0  0  0  0  0  0  0  0
  151.8876  144.1032  157.4088 H   0  0  0  0  0  0  0  0  0  0  0  0
  150.1850  144.4730  157.5524 H   0  0  0  0  0  0  0  0  0  0  0  0
  151.5368  146.1917  158.6749 H   0  0  0  0  0  0  0  0  0  0  0  0
  150.4653  145.3839  159.7928 H   0  0  0  0  0  0  0  0  0  0  0  0
  153.4525  144.8348  159.4469 H   0  0  0  0  0  0  0  0  0  0  0  0
  152.7000  145.6242  160.8142 H   0  0  0  0  0  0  0  0  0  0  0  0
  153.1935  143.2212  161.3007 H   0  0  0  0  0  0  0  0  0  0  0  0
  151.4814  143.5566  161.4049 H   0  0  0  0  0  0  0  0  0  0  0  0
  151.8761  141.4679  160.1779 H   0  0  0  0  0  0  0  0  0  0  0  0
  152.9272  142.2682  159.0403 H   0  0  0  0  0  0  0  0  0  0  0  0
  1  2  1  0  0  0  0
  1 34  1  0  0  0  0
  2  3  1  0  0  0  0
  2 35  1  0  0  0  0
  2 36  1  0  0  0  0
  3  4  1  0  0  0  0
  3 37  1  0  0  0  0
  3 38  1  0  0  0  0
  4  5  1  0  0  0  0
  4 24  1  0  0  0  0
  4 39  1  0  0  0  0
  5  6  1  0  0  0  0
  5 40  1  0  0  0  0
  6 11  1  0  0  0  0
  6  7  2  0  0  0  0
  7  8  1  0  0  0  0
  8  9  2  0  0  0  0
  8 41  1  0  0  0  0
  9 10  1  0  0  0  0
 10 14  1  0  0  0  0
 10 11  2  0  0  0  0
 11 12  1  0  0  0  0
 12 13  2  0  0  0  0
 13 14  1  0  0  0  0
 13 42  1  0  0  0  0
 14 15  1  0  0  0  0
 15 30  1  0  0  0  0
 15 22  1  0  0  0  0
 15 16  1  0  0  0  0
 16 17  1  0  0  0  0
 17 31  1  0  0  0  0
 17 18  1  0  0  0  0
 17 20  1  0  0  0  0
 18 19  1  0  0  0  0
 18 43  1  0  0  0  0
 18 44  1  0  0  0  0
 19 45  1  0  0  0  0
 20 32  1  0  0  0  0
 20 21  1  0  0  0  0
 20 22  1  0  0  0  0
 21 46  1  0  0  0  0
 22 33  1  0  0  0  0
 22 23  1  0  0  0  0
 23 47  1  0  0  0  0
 24 29  1  0  0  0  0
 24 25  1  0  0  0  0
 24 48  1  0  0  0  0
 25 26  1  0  0  0  0
 25 49  1  0  0  0  0
 25 50  1  0  0  0  0
 26 27  1  0  0  0  0
 26 51  1  0  0  0  0
 26 52  1  0  0  0  0
 27 28  1  0  0  0  0
 27 53  1  0  0  0  0
 27 54  1  0  0  0  0
 28 29  1  0  0  0  0
 28 55  1  0  0  0  0
 28 56  1  0  0  0  0
 29 57  1  0  0  0  0
 29 58  1  0  0  0  0
M  END
> <s_m_source_file>
AV-unprocessed.smi

> <i_m_source_file_index>
109

> <i_lp_mmshare_version>
43012

> <i_f3d_flags>
0

> <s_epik_input>
W0NIMl0xW0NIMl1bQ0gyXVtDSDJdW0NIMl1bQ0hdMVtDQEhdKFtDSDJdW0NIMl1bT0hdKVtOSF1jKG5bY0hdbjIpYyhjMjMpbltjSF1uM1tDQEBIXTRPW0NASF0oW0NIMl1bT0hdKVtDQEBIXShbT0hdKVtDQEhdNFtPSF0=

> <s_epik_cmdline>
J2VwaWtfcHl0aG9uJywgJy1waCcsICc3LjAnLCAnLXRuJywgJzgnLCAnLW1hJywgJzIwMCcsICctbWV0YWxfYmluZGluZycsICctaW1hZScsICc8aW5maWxlLm1hZT4nLCAnLW9tYWUnLCAnPG91dGZpbGUubWFlPic=

> <r_lp_tautomer_probability>
1

> <r_epik_Ionization_Penalty>
0.000793976

> <r_epik_Ionization_Penalty_Charging>
0

> <r_epik_Ionization_Penalty_Neutral>
0.000793976

> <r_epik_State_Penalty>
-0

> <r_epik_Charging_Adjusted_Penalty>
0

> <i_epik_Tot_Q>
0

> <i_epik_Tot_abs_Q>
0

> <r_epik_Metal_State_Penalty>
-0

> <b_epik_Metal_Only>
0

> <s_epik_Chemistry_Notes>
This compound contains an acetal/aminal-like group ( X-CH(R)-Y where X, Y are N, S, or O) that may be acid/base labile, releasing an aldehyde.

> <s_lp_Force_Field>
OPLS_2005

> <r_lp_Energy>
51.6151

> <b_lp_Chiralities_Consistent>
1

> <s_lp_Variant>
AV-unprocessed.smi:109-9

> <Gold.Version>
5.8.1

> <Gold.Id.Protein>
6NUR|6NUR_protein|mol2

> <Gold.PLP.Fitness>
52.2112

> <Gold.PLP.PLP>
-36.1378

> <Gold.PLP.part.hbond>
-5.4567

> <Gold.PLP.part.metal>
0.0000

> <Gold.PLP.part.buried>
-8.5036

> <Gold.PLP.part.nonpolar>
-23.4614

> <Gold.PLP.part.repulsive>
0.1770

> <Gold.PLP.ligand.clash>
0.0000

> <Gold.PLP.ligand.torsion>
1.1874

> <Gold.PLP.Chemscore.Hbond>
5.0000

> <Gold.PLP.Chemscore.CHOScore>
1.0000

> <Gold.PLP.Chemscore.Metal>
0.0000

> <Gold.Chemscore.Hbonds>
donor molecule, donor type, donor heavy atom, donor atom, acceptor molecule, acceptor atom, score
      L1  H     5    40       P1  8028  0.86
      L1  H    19    45       P1  7948  1.00
      L1  H    21    46       P1  7948  1.00
      L1  H    23    47       P1 10175  0.84
      P1  H  7989  7998       L1     1  1.00
      L1  C    13    42       P1  7957  0.97

> <Gold.PLP.Chemscore.Internal.Correction>
0.4481

> <Gold.Rescore>
     Score         DG    S(hbond)    S(metal)    S(lipo)     H(rot)  DE(clash)    DE(int)     intcor
     13.70     -18.90       4.93        0.00      93.63       5.47       1.14       4.06       ----

> <Gold.Chemscore.Fitness>
13.7007

> <Gold.Chemscore.DG>
-18.9016

> <Gold.Chemscore.ZeroCoef>
-5.4800

> <Gold.Chemscore.Hbond>
4.9282

> <Gold.Chemscore.Metal>
0.0000

> <Gold.Chemscore.Lipo>
93.6302

> <Gold.Chemscore.Internal_Hbond>
0.0000

> <Gold.Chemscore.DEClash>
1.1416

> <Gold.Chemscore.DEInternal>
4.0593

> <Gold.Chemscore.Rot>
5.4662

> <Gold.Chemscore.Internal.Correction>
   9.000000E+99

> <Gold.Chemscore.Hbonds>
donor molecule, donor type, donor heavy atom, donor atom, acceptor molecule, acceptor atom, score
      L1  H     5    40       P1  8028  0.84
      L1  H    19    45       P1  7948  0.91
      L1  H    21    46       P1  7948  1.00
      L1  H    23    47       P1 10175  0.82
      P1  H  7989  7998       L1     1  0.94

> <Gold.Chemscore.Hbond.Weighted>
-16.4604

> <Gold.Chemscore.Metal.Weighted>
-0.0000

> <Gold.Chemscore.Lipo.Weighted>
-10.9547

> <Gold.Chemscore.Internal_Hbond.Weighted>
0.0000

> <Gold.Chemscore.DEClash.Weighted>
1.1416

> <Gold.Chemscore.DEInternal.Weighted>
4.0593

> <Gold.Chemscore.Rot.Weighted>
13.9935

> <Gold.Chemscore.Internal.Correction.Weighted>
   9.000000E+99

> <Gold.Protein.RotatedTorsions>
[ 6907 6896 6895 6894 ] final   76.92 input  -60.11 | X-H torsion
[ 7974 7965 7964 7962 ] final -167.50 input  175.53 | X-H torsion
[ 8008 7997 7996 7995 ] final  103.67 input   59.86 | X-H torsion
[ 10167 10162 10161 10158 ] final  177.75 input  -65.29 | X-H torsion
[ 10718 10713 10712 10709 ] final -136.68 input   66.30 | X-H torsion
[ 10763 10752 10751 10750 ] final -155.52 input  -60.55 | X-H torsion
[ 11005 11000 10999 10996 ] final  -97.83 input  -57.11 | X-H torsion

> <Gold.Protein.ActiveResidues>
 VAL166  LYS551  ARG553  GLY616  TRP617  ASP618  TYR619  PRO620  LYS621  CYS622 
 ASP623  PHE694  ASN695  SER759  ASP760  ASP761  ALA762  ILE779  LEU786  VAL792 
 PHE793  MET794  SER795  GLU796  ALA797  LYS798  CYS799  TRP800  GLU811  SER814 

> <Gold.Protein.RotatedAtoms>
  152.5095  134.3896  159.9379 H   0  0  0  0  0  0  0  0  0  0  0  0  # atno 6907 bound_to 6896
  151.3855  133.3800  159.2722 H   0  0  0  0  0  0  0  0  0  0  0  0  # atno 6908 bound_to 6896
  150.9472  134.8896  159.7708 H   0  0  0  0  0  0  0  0  0  0  0  0  # atno 6909 bound_to 6896
  144.7222  140.2510  143.6278 H   0  0  0  0  0  0  0  0  0  0  0  0  # atno 7974 bound_to 7965
  156.1505  140.3161  155.8640 H   0  0  0  0  0  0  0  0  0  0  0  0  # atno 8008 bound_to 7997
  155.3980  140.0498  157.3055 H   0  0  0  0  0  0  0  0  0  0  0  0  # atno 8009 bound_to 7997
  154.5054  140.2145  155.9273 H   0  0  0  0  0  0  0  0  0  0  0  0  # atno 8010 bound_to 7997
  139.5266  144.2762  152.0586 H   0  0  0  0  0  0  0  0  0  0  0  0  # atno 10167 bound_to 10162
  156.2797  130.7314  151.1307 H   0  0  0  0  0  0  0  0  0  0  0  0  # atno 10718 bound_to 10713
  154.7781  135.3166  154.8049 H   0  0  0  0  0  0  0  0  0  0  0  0  # atno 10763 bound_to 10752
  153.8767  135.6839  153.4774 H   0  0  0  0  0  0  0  0  0  0  0  0  # atno 10764 bound_to 10752
  153.1410  135.4739  154.9432 H   0  0  0  0  0  0  0  0  0  0  0  0  # atno 10765 bound_to 10752
  141.1366  133.8200  157.0758 H   0  0  0  0  0  0  0  0  0  0  0  0  # atno 11005 bound_to 11000
  145.8228  139.2051  143.1928 LP  0  0  0  0  0  0  0  0  0  0  0  0  # atno 17320 bound_to 7965
  146.0499  140.8080  142.9787 LP  0  0  0  0  0  0  0  0  0  0  0  0  # atno 17321 bound_to 7965
  140.2219  144.4457  150.6338 LP  0  0  0  0  0  0  0  0  0  0  0  0  # atno 17342 bound_to 10162
  140.6413  143.2204  151.6284 LP  0  0  0  0  0  0  0  0  0  0  0  0  # atno 17343 bound_to 10162
  157.7310  131.0611  150.5696 LP  0  0  0  0  0  0  0  0  0  0  0  0  # atno 17370 bound_to 10713
  156.5801  130.4302  149.5981 LP  0  0  0  0  0  0  0  0  0  0  0  0  # atno 17371 bound_to 10713
  140.0482  134.9819  157.1088 LP  0  0  0  0  0  0  0  0  0  0  0  0  # atno 17394 bound_to 11000
  140.4030  134.2063  155.7163 LP  0  0  0  0  0  0  0  0  0  0  0  0  # atno 17395 bound_to 11000

$$$$
