#       Name:                AV-unprocessed.smi:1768
#       Creating user name   scv26
#       Creation time:       Fri Mar 27 08:38:53 2020


#       File generated by GOLD software.
#

@<TRIPOS>MOLECULE
AV-unprocessed.smi:1768
    39    40     1
SMALL
NO_CHARGES


@<TRIPOS>ATOM
      1 ****        -5.7446   3.9328   0.1219 C.3            1 S1                 0.0000
      2 ****        -4.7169   2.9881  -0.3994 C.2            1 S1                 0.0000
      3 ****        -4.4168   2.8923  -1.6969 N.2            1 S1                 0.0000
      4 ****        -3.4287   1.9481  -1.9360 N.2            1 S1                 0.0000
      5 ****        -2.9892   1.3518  -0.8186 C.2            1 S1                 0.0000
      6 ****        -2.0343   0.4071  -0.8353 N.pl3          1 S1                -1.0000
      7 ****        -0.7576   0.7309  -0.5269 C.2            1 S1                 0.0000
      8 ****        -0.3448   1.8481  -0.2066 O.2            1 S1                 0.0000
      9 ****         0.0928  -0.3034  -0.5955 N.am           1 S1                 0.0000
     10 ****         1.5262  -0.2637  -0.3135 C.3            1 S1                 0.0000
     11 ****         2.2851   0.2259  -1.5598 C.3            1 S1                 0.0000
     12 ****         1.9889  -1.6621   0.1386 C.3            1 S1                 0.0000
     13 ****         3.4590  -1.7490   0.5537 C.3            1 S1                 0.0000
     14 ****         3.4938  -2.9185   1.5260 C.3            1 S1                 0.0000
     15 ****         2.0219  -3.1676   1.8639 C.3            1 S1                 0.0000
     16 ****         1.3280  -2.0478   1.3345 O.3            1 S1                 0.0000
     17 ****        -3.8014   1.9123   0.6430 S.3            1 S1                 0.0000
     18 ****        -5.3332   4.9412   0.1688 H              1 S1                 0.0000
     19 ****        -6.0595   3.6354   1.1223 H              1 S1                 0.0000
     20 ****        -6.6179   3.9386  -0.5308 H              1 S1                 0.0000
     21 ****        -0.2921  -1.1988  -0.8579 H              1 S1                 0.0000
     22 ****         1.7092   0.4354   0.5045 H              1 S1                 0.0000
     23 ****         3.3559   0.2991  -1.3705 H              1 S1                 0.0000
     24 ****         1.9443   1.2153  -1.8665 H              1 S1                 0.0000
     25 ****         2.1406  -0.4508  -2.4025 H              1 S1                 0.0000
     26 ****         1.7780  -2.4035  -0.6350 H              1 S1                 0.0000
     27 ****         4.1279  -1.8873  -0.2963 H              1 S1                 0.0000
     28 ****         3.7589  -0.8371   1.0721 H              1 S1                 0.0000
     29 ****         3.9402  -3.8045   1.0736 H              1 S1                 0.0000
     30 ****         4.0734  -2.6666   2.4147 H              1 S1                 0.0000
     31 ****         1.6644  -4.0747   1.3747 H              1 S1                 0.0000
     32 ****         1.8478  -3.2669   2.9355 H              1 S1                 0.0000
     33 ****        -4.8532   3.4374  -2.4127 LP             1 S1                 0.0000
     34 ****        -3.0800   1.7342  -2.8485 LP             1 S1                 0.0000
     35 ****        -2.2672  -0.5352  -1.0756 LP             1 S1                 0.0000
     36 ****        -0.9786   2.6199  -0.1565 LP             1 S1                 0.0000
     37 ****         0.6238   1.9821   0.0030 LP             1 S1                 0.0000
     38 ****         0.3800  -2.2964   1.1357 LP             1 S1                 0.0000
     39 ****         1.3442  -1.2943   1.9917 LP             1 S1                 0.0000
@<TRIPOS>BOND
    1    1    2 1     
    2    1   18 1     
    3    1   19 1     
    4    1   20 1     
    5    2   17 1     
    6    2    3 2     
    7    3    4 1     
    8    4    5 2     
    9    5    6 1     
   10    5   17 1     
   11    6    7 1     
   12    7    8 2     
   13    7    9 am    
   14    9   10 1     
   15    9   21 1     
   16   10   11 1     
   17   10   12 1     
   18   10   22 1     
   19   11   23 1     
   20   11   24 1     
   21   11   25 1     
   22   12   16 1     
   23   12   13 1     
   24   12   26 1     
   25   13   14 1     
   26   13   27 1     
   27   13   28 1     
   28   14   15 1     
   29   14   29 1     
   30   14   30 1     
   31   15   16 1     
   32   15   31 1     
   33   15   32 1     
   34    3   33 1     
   35    4   34 1     
   36    6   35 1     
   37    8   36 1     
   38    8   37 1     
   39   16   38 1     
   40   16   39 1     
@<TRIPOS>SUBSTRUCTURE
      1 S1             1
@<TRIPOS>SET
LONE_PAIRS      STATIC     ATOMS    <user>   **** ""
7 33 34 35 36 37 38 39
DONOR_HYDROGENS      STATIC     ATOMS    <user>   **** ""
1 21
ATOM$BLUE        STATIC     ATOMS    COLORGROUP SYSTEM
7 33 34 35 36 37 38 39
ATOM$RED        STATIC     ATOMS    COLORGROUP SYSTEM
1 21
