AV-unprocessed.smi:1445|AV-procd|sdf|5888|dock7
  -GOLD-   22720 5573D 1   1.00000     0.00000
 Structure written by MMmdl.
 46 47  0  0  0  0  0  0  0  0  2 V2000
  153.9140  141.1516  160.8147 C   0  0  0  0  0  0  0  0  0  0  0  0
  153.1696  140.9273  159.6223 O   0  0  0  0  0  0  0  0  0  0  0  0
  152.5683  142.0087  159.0065 C   0  0  0  0  0  0  0  0  0  0  0  0
  152.6831  143.2291  159.5879 N   0  0  0  0  0  0  0  0  0  0  0  0
  152.0987  144.2853  158.9861 C   0  0  0  0  0  0  0  0  0  0  0  0
  151.3804  144.1848  157.7804 C   0  0  0  0  0  0  0  0  0  0  0  0
  151.2601  142.9203  157.1753 C   0  0  0  0  0  0  0  0  0  0  0  0
  151.8550  141.7993  157.8032 C   0  0  0  0  0  0  0  0  0  0  0  0
  151.8095  140.4828  157.2681 N   0  0  0  0  0  0  0  0  0  0  0  0
  151.2541  140.0686  156.1172 C   0  0  0  0  0  0  0  0  0  0  0  0
  150.6687  140.7879  155.3077 O   0  0  0  0  0  0  0  0  0  0  0  0
  151.3930  138.7447  155.9602 N   0  0  0  0  0  0  0  0  0  0  0  0
  150.8860  137.9815  154.8258 C   0  0  0  0  0  0  0  0  0  0  0  0
  149.3597  137.7881  154.9130 C   0  0  0  0  0  0  0  0  0  0  0  0
  148.9353  136.4268  154.4990 N   0  3  2  0  0  0  0  0  0  0  0  0
  147.5080  136.1644  154.8187 C   0  0  0  0  0  0  0  0  0  0  0  0
  147.0543  134.8079  154.2572 C   0  0  0  0  0  0  0  0  0  0  0  0
  147.9440  133.6731  154.7791 C   0  0  0  0  0  0  0  0  0  0  0  0
  149.4207  133.9686  154.4680 C   0  0  2  0  0  0  0  0  0  0  0  0
  150.3390  132.8616  155.0050 C   0  0  0  0  0  0  0  0  0  0  0  0
  149.8189  135.3508  155.0244 C   0  0  0  0  0  0  0  0  0  0  0  0
  154.3204  140.2044  161.1691 H   0  0  0  0  0  0  0  0  0  0  0  0
  153.2837  141.5577  161.6070 H   0  0  0  0  0  0  0  0  0  0  0  0
  154.7530  141.8269  160.6414 H   0  0  0  0  0  0  0  0  0  0  0  0
  152.2124  145.2405  159.4771 H   0  0  0  0  0  0  0  0  0  0  0  0
  150.9366  145.0589  157.3271 H   0  0  0  0  0  0  0  0  0  0  0  0
  150.7293  142.8377  156.2394 H   0  0  0  0  0  0  0  0  0  0  0  0
  152.1761  139.7611  157.8716 H   0  0  0  0  0  0  0  0  0  0  0  0
  151.8856  138.2298  156.6759 H   0  0  0  0  0  0  0  0  0  0  0  0
  151.1563  138.4778  153.8920 H   0  0  0  0  0  0  0  0  0  0  0  0
  151.4020  137.0223  154.8283 H   0  0  0  0  0  0  0  0  0  0  0  0
  148.9982  137.9991  155.9207 H   0  0  0  0  0  0  0  0  0  0  0  0
  148.8846  138.5198  154.2578 H   0  0  0  0  0  0  0  0  0  0  0  0
  147.3652  136.1921  155.9003 H   0  0  0  0  0  0  0  0  0  0  0  0
  146.8821  136.9511  154.3954 H   0  0  0  0  0  0  0  0  0  0  0  0
  146.0148  134.6209  154.5283 H   0  0  0  0  0  0  0  0  0  0  0  0
  147.0903  134.8311  153.1671 H   0  0  0  0  0  0  0  0  0  0  0  0
  147.8039  133.5621  155.8555 H   0  0  0  0  0  0  0  0  0  0  0  0
  147.6430  132.7276  154.3264 H   0  0  0  0  0  0  0  0  0  0  0  0
  149.5387  133.9948  153.3835 H   0  0  0  0  0  0  0  0  0  0  0  0
  150.2769  132.7865  156.0913 H   0  0  0  0  0  0  0  0  0  0  0  0
  151.3801  133.0535  154.7435 H   0  0  0  0  0  0  0  0  0  0  0  0
  150.0691  131.8907  154.5883 H   0  0  0  0  0  0  0  0  0  0  0  0
  150.8547  135.5523  154.7547 H   0  0  0  0  0  0  0  0  0  0  0  0
  149.7741  135.3462  156.1150 H   0  0  0  0  0  0  0  0  0  0  0  0
  149.0050  136.4020  153.4915 H   0  0  0  0  0  0  0  0  0  0  0  0
  1  2  1  0  0  0  0
  1 22  1  0  0  0  0
  1 23  1  0  0  0  0
  1 24  1  0  0  0  0
  2  3  1  0  0  0  0
  3  8  1  0  0  0  0
  3  4  2  0  0  0  0
  4  5  1  0  0  0  0
  5  6  2  0  0  0  0
  5 25  1  0  0  0  0
  6  7  1  0  0  0  0
  6 26  1  0  0  0  0
  7  8  2  0  0  0  0
  7 27  1  0  0  0  0
  8  9  1  0  0  0  0
  9 10  1  0  0  0  0
  9 28  1  0  0  0  0
 10 11  2  0  0  0  0
 10 12  1  0  0  0  0
 12 13  1  0  0  0  0
 12 29  1  0  0  0  0
 13 14  1  0  0  0  0
 13 30  1  0  0  0  0
 13 31  1  0  0  0  0
 14 15  1  0  0  0  0
 14 32  1  0  0  0  0
 14 33  1  0  0  0  0
 15 21  1  0  0  0  0
 15 16  1  0  0  0  0
 15 46  1  0  0  0  0
 16 17  1  0  0  0  0
 16 34  1  0  0  0  0
 16 35  1  0  0  0  0
 17 18  1  0  0  0  0
 17 36  1  0  0  0  0
 17 37  1  0  0  0  0
 18 19  1  0  0  0  0
 18 38  1  0  0  0  0
 18 39  1  0  0  0  0
 19 20  1  0  0  0  0
 19 21  1  0  0  0  0
 19 40  1  0  0  0  0
 20 41  1  0  0  0  0
 20 42  1  0  0  0  0
 20 43  1  0  0  0  0
 21 44  1  0  0  0  0
 21 45  1  0  0  0  0
M  CHG  1  15   1
M  END
> <s_m_source_file>
AV-unprocessed.smi

> <i_m_source_file_index>
1445

> <i_lp_mmshare_version>
43012

> <i_f3d_flags>
0

> <s_epik_input>
W0NIM11PYzFuW2NIXVtjSF1bY0hdYzFbTkhdQyg9TylbTkhdW0NIMl1bQ0gyXU4yW0NIMl1bQ0gyXVtDSDJdW0NAQEhdKFtDSDNdKVtDSDJdMg==

> <s_epik_cmdline>
J2VwaWtfcHl0aG9uJywgJy1waCcsICc3LjAnLCAnLXRuJywgJzgnLCAnLW1hJywgJzIwMCcsICctbWV0YWxfYmluZGluZycsICctaW1hZScsICc8aW5maWxlLm1hZT4nLCAnLW9tYWUnLCAnPG91dGZpbGUubWFlPic=

> <r_lp_tautomer_probability>
1

> <r_epik_Ionization_Penalty>
0.00179544

> <r_epik_Ionization_Penalty_Charging>
0.00171832

> <r_epik_Ionization_Penalty_Neutral>
7.71118e-05

> <r_epik_State_Penalty>
0.0011618

> <r_epik_Charging_Adjusted_Penalty>
0.00288012

> <i_epik_Tot_Q>
1

> <i_epik_Tot_abs_Q>
1

> <r_epik_Metal_State_Penalty>
-0

> <b_epik_Metal_Only>
0

> <s_lp_Force_Field>
OPLS_2005

> <r_lp_Energy>
18.8635

> <b_lp_Chiralities_Consistent>
1

> <s_lp_Variant>
AV-unprocessed.smi:1445-4

> <Gold.Version>
5.8.1

> <Gold.Id.Protein>
6NUR|6NUR_protein|mol2

> <Gold.PLP.Fitness>
43.7163

> <Gold.PLP.PLP>
-36.1698

> <Gold.PLP.part.hbond>
-2.0000

> <Gold.PLP.part.metal>
0.0000

> <Gold.PLP.part.buried>
-4.7914

> <Gold.PLP.part.nonpolar>
-29.0240

> <Gold.PLP.part.repulsive>
0.2568

> <Gold.PLP.ligand.clash>
0.0000

> <Gold.PLP.ligand.torsion>
0.4867

> <Gold.PLP.Chemscore.Hbond>
2.8320

> <Gold.PLP.Chemscore.CHOScore>
0.0000

> <Gold.PLP.Chemscore.Metal>
0.0000

> <Gold.Chemscore.Hbonds>
donor molecule, donor type, donor heavy atom, donor atom, acceptor molecule, acceptor atom, score
      L1  H    15    46       P1  7948  2.00
      P1  H  7989  7998       L1    11  0.80

> <Gold.PLP.Chemscore.Internal.Correction>
0.0239

> <Gold.Rescore>
     Score         DG    S(hbond)    S(metal)    S(lipo)     H(rot)  DE(clash)    DE(int)     intcor
     15.78     -17.61       1.83        0.00      88.87       1.71       0.03       1.79       ----

> <Gold.Chemscore.Fitness>
15.7837

> <Gold.Chemscore.DG>
-17.6086

> <Gold.Chemscore.ZeroCoef>
-5.4800

> <Gold.Chemscore.Hbond>
1.8295

> <Gold.Chemscore.Metal>
0.0000

> <Gold.Chemscore.Lipo>
88.8680

> <Gold.Chemscore.Internal_Hbond>
0.0000

> <Gold.Chemscore.DEClash>
0.0328

> <Gold.Chemscore.DEInternal>
1.7920

> <Gold.Chemscore.Rot>
1.7107

> <Gold.Chemscore.Internal.Correction>
   9.000000E+99

> <Gold.Chemscore.Hbonds>
donor molecule, donor type, donor heavy atom, donor atom, acceptor molecule, acceptor atom, score
      L1  H    15    46       P1  7948  0.99
      P1  H  7989  7998       L1    11  0.65

> <Gold.Chemscore.Hbond.Weighted>
-6.1104

> <Gold.Chemscore.Metal.Weighted>
-0.0000

> <Gold.Chemscore.Lipo.Weighted>
-10.3976

> <Gold.Chemscore.Internal_Hbond.Weighted>
0.0000

> <Gold.Chemscore.DEClash.Weighted>
0.0328

> <Gold.Chemscore.DEInternal.Weighted>
1.7920

> <Gold.Chemscore.Rot.Weighted>
4.3794

> <Gold.Chemscore.Internal.Correction.Weighted>
   9.000000E+99

> <Gold.Protein.RotatedTorsions>
[ 6907 6896 6895 6894 ] final  -38.07 input  -60.11 | X-H torsion
[ 7974 7965 7964 7962 ] final   25.78 input  175.53 | X-H torsion
[ 8008 7997 7996 7995 ] final -104.90 input   59.86 | X-H torsion
[ 10167 10162 10161 10158 ] final    1.14 input  -65.29 | X-H torsion
[ 10718 10713 10712 10709 ] final -128.78 input   66.30 | X-H torsion
[ 10763 10752 10751 10750 ] final  -40.52 input  -60.55 | X-H torsion
[ 11005 11000 10999 10996 ] final  -48.26 input  -57.11 | X-H torsion

> <Gold.Protein.ActiveResidues>
 VAL166  LYS551  ARG553  GLY616  TRP617  ASP618  TYR619  PRO620  LYS621  CYS622 
 ASP623  PHE694  ASN695  SER759  ASP760  ASP761  ALA762  ILE779  LEU786  VAL792 
 PHE793  MET794  SER795  GLU796  ALA797  LYS798  CYS799  TRP800  GLU811  SER814 

> <Gold.Protein.RotatedAtoms>
  151.0069  134.9366  159.7985 H   0  0  0  0  0  0  0  0  0  0  0  0  # atno 6907 bound_to 6896
  152.5292  134.3079  159.9113 H   0  0  0  0  0  0  0  0  0  0  0  0  # atno 6908 bound_to 6896
  151.3085  133.4049  159.2679 H   0  0  0  0  0  0  0  0  0  0  0  0  # atno 6909 bound_to 6896
  146.1871  139.7418  142.8859 H   0  0  0  0  0  0  0  0  0  0  0  0  # atno 7974 bound_to 7965
  154.8921  140.0415  157.1844 H   0  0  0  0  0  0  0  0  0  0  0  0  # atno 8008 bound_to 7997
  154.8530  140.2932  155.5565 H   0  0  0  0  0  0  0  0  0  0  0  0  # atno 8009 bound_to 7997
  156.2996  140.2461  156.3492 H   0  0  0  0  0  0  0  0  0  0  0  0  # atno 8010 bound_to 7997
  140.6696  143.7084  150.7896 H   0  0  0  0  0  0  0  0  0  0  0  0  # atno 10167 bound_to 10162
  156.1983  130.6841  151.0508 H   0  0  0  0  0  0  0  0  0  0  0  0  # atno 10718 bound_to 10713
  153.9472  135.6754  153.4744 H   0  0  0  0  0  0  0  0  0  0  0  0  # atno 10763 bound_to 10752
  153.0902  135.4878  154.8672 H   0  0  0  0  0  0  0  0  0  0  0  0  # atno 10764 bound_to 10752
  154.7345  135.3146  154.8794 H   0  0  0  0  0  0  0  0  0  0  0  0  # atno 10765 bound_to 10752
  141.0690  133.6685  156.3416 H   0  0  0  0  0  0  0  0  0  0  0  0  # atno 11005 bound_to 11000
  145.3906  141.0372  143.3126 LP  0  0  0  0  0  0  0  0  0  0  0  0  # atno 17320 bound_to 7965
  144.8417  139.5461  143.6897 LP  0  0  0  0  0  0  0  0  0  0  0  0  # atno 17321 bound_to 7965
  140.0768  143.5008  152.2551 LP  0  0  0  0  0  0  0  0  0  0  0  0  # atno 17342 bound_to 10162
  139.5959  144.7566  151.3288 LP  0  0  0  0  0  0  0  0  0  0  0  0  # atno 17343 bound_to 10162
  157.6971  131.0790  150.6936 LP  0  0  0  0  0  0  0  0  0  0  0  0  # atno 17370 bound_to 10713
  156.6993  130.4618  149.5577 LP  0  0  0  0  0  0  0  0  0  0  0  0  # atno 17371 bound_to 10713
  140.5713  134.5838  157.5458 LP  0  0  0  0  0  0  0  0  0  0  0  0  # atno 17394 bound_to 11000
  139.9505  134.7626  156.0460 LP  0  0  0  0  0  0  0  0  0  0  0  0  # atno 17395 bound_to 11000

$$$$
