AV-unprocessed.smi:2531|AV-procd|sdf|9967|dock1
  -GOLD-   2272014 13D 1   1.00000     0.00000
 Structure written by MMmdl.
 46 48  0  0  0  0  0  0  0  0  3 V2000
  149.9350  142.4264  158.2154 O   0  0  0  0  0  0  0  0  0  0  0  0
  151.0493  142.0131  158.5397 C   0  0  0  0  0  0  0  0  0  0  0  0
  152.1584  142.9963  158.9671 C   0  0  0  0  0  0  0  0  0  0  0  0
  152.6203  142.7735  160.4262 C   0  0  0  0  0  0  0  0  0  0  0  0
  152.2056  144.0174  161.2266 C   0  0  0  0  0  0  0  0  0  0  0  0
  151.2099  144.7681  160.3443 C   0  0  0  0  0  0  0  0  0  0  0  0
  151.6648  144.4532  158.9205 C   0  0  0  0  0  0  0  0  0  0  0  0
  151.3802  140.6580  158.4450 N   0  0  0  0  0  0  0  0  0  0  0  0
  150.6595  139.7737  157.5405 C   0  0  0  0  0  0  0  0  0  0  0  0
  151.9643  138.9735  157.4569 C   0  0  0  0  0  0  0  0  0  0  0  0
  152.4087  138.4987  155.7263 S   0  0  0  0  0  0  0  0  0  0  0  0
  151.7777  139.5086  154.8610 O   0  0  0  0  0  0  0  0  0  0  0  0
  153.8768  138.4042  155.6716 O   0  0  0  0  0  0  0  0  0  0  0  0
  151.6859  137.0494  155.6226 N   0  5  0  0  0  0  0  0  0  0  0  0
  150.5434  136.8639  154.7426 C   0  0  0  0  0  0  0  0  0  0  0  0
  149.8078  135.5416  155.0572 C   0  0  0  0  0  0  0  0  0  0  0  0
  148.2984  135.6926  155.1898 C   0  0  0  0  0  0  0  0  0  0  0  0
  147.6162  135.3893  156.3902 C   0  0  0  0  0  0  0  0  0  0  0  0
  146.2150  135.5407  156.4467 C   0  0  0  0  0  0  0  0  0  0  0  0
  145.5218  135.9877  155.3027 C   0  0  0  0  0  0  0  0  0  0  0  0
  146.2482  136.2716  154.1287 C   0  0  0  0  0  0  0  0  0  0  0  0
  147.5899  136.1145  154.1138 N   0  3  0  0  0  0  0  0  0  0  0  0
  152.6903  140.2177  157.9867 C   0  0  0  0  0  0  0  0  0  0  0  0
  153.0155  142.8771  158.3035 H   0  0  0  0  0  0  0  0  0  0  0  0
  152.1804  141.8775  160.8669 H   0  0  0  0  0  0  0  0  0  0  0  0
  153.7013  142.6378  160.4732 H   0  0  0  0  0  0  0  0  0  0  0  0
  151.7848  143.7649  162.2006 H   0  0  0  0  0  0  0  0  0  0  0  0
  153.0806  144.6451  161.4010 H   0  0  0  0  0  0  0  0  0  0  0  0
  150.2040  144.3784  160.5062 H   0  0  0  0  0  0  0  0  0  0  0  0
  151.1895  145.8384  160.5515 H   0  0  0  0  0  0  0  0  0  0  0  0
  152.4914  145.1087  158.6439 H   0  0  0  0  0  0  0  0  0  0  0  0
  150.8667  144.6200  158.1952 H   0  0  0  0  0  0  0  0  0  0  0  0
  149.8303  139.2412  158.0069 H   0  0  0  0  0  0  0  0  0  0  0  0
  150.3770  140.2493  156.5989 H   0  0  0  0  0  0  0  0  0  0  0  0
  151.9870  138.1167  158.1321 H   0  0  0  0  0  0  0  0  0  0  0  0
  149.8349  137.6850  154.8557 H   0  0  0  0  0  0  0  0  0  0  0  0
  150.8336  136.8738  153.6914 H   0  0  0  0  0  0  0  0  0  0  0  0
  149.9984  134.8055  154.2764 H   0  0  0  0  0  0  0  0  0  0  0  0
  150.1976  135.1110  155.9807 H   0  0  0  0  0  0  0  0  0  0  0  0
  148.1612  135.0473  157.2582 H   0  0  0  0  0  0  0  0  0  0  0  0
  145.6787  135.3156  157.3568 H   0  0  0  0  0  0  0  0  0  0  0  0
  144.4487  136.1100  155.3259 H   0  0  0  0  0  0  0  0  0  0  0  0
  145.8013  136.6169  153.2079 H   0  0  0  0  0  0  0  0  0  0  0  0
  153.1180  140.8564  157.2130 H   0  0  0  0  0  0  0  0  0  0  0  0
  153.3952  140.0136  158.7930 H   0  0  0  0  0  0  0  0  0  0  0  0
  148.0965  136.3260  153.2533 H   0  0  0  0  0  0  0  0  0  0  0  0
  1  2  2  0  0  0  0
  2  3  1  0  0  0  0
  2  8  1  0  0  0  0
  3  7  1  0  0  0  0
  3  4  1  0  0  0  0
  3 24  1  0  0  0  0
  4  5  1  0  0  0  0
  4 25  1  0  0  0  0
  4 26  1  0  0  0  0
  5  6  1  0  0  0  0
  5 27  1  0  0  0  0
  5 28  1  0  0  0  0
  6  7  1  0  0  0  0
  6 29  1  0  0  0  0
  6 30  1  0  0  0  0
  7 31  1  0  0  0  0
  7 32  1  0  0  0  0
  8 23  1  0  0  0  0
  8  9  1  0  0  0  0
  9 10  1  0  0  0  0
  9 33  1  0  0  0  0
  9 34  1  0  0  0  0
 10 11  1  0  0  0  0
 10 23  1  0  0  0  0
 10 35  1  0  0  0  0
 11 12  2  0  0  0  0
 11 13  2  0  0  0  0
 11 14  1  0  0  0  0
 14 15  1  0  0  0  0
 15 16  1  0  0  0  0
 15 36  1  0  0  0  0
 15 37  1  0  0  0  0
 16 17  1  0  0  0  0
 16 38  1  0  0  0  0
 16 39  1  0  0  0  0
 17 22  1  0  0  0  0
 17 18  2  0  0  0  0
 18 19  1  0  0  0  0
 18 40  1  0  0  0  0
 19 20  2  0  0  0  0
 19 41  1  0  0  0  0
 20 21  1  0  0  0  0
 20 42  1  0  0  0  0
 21 22  2  0  0  0  0
 21 43  1  0  0  0  0
 22 46  1  0  0  0  0
 23 44  1  0  0  0  0
 23 45  1  0  0  0  0
M  CHG  1  14  -1
M  CHG  1  22   1
M  END
> <s_m_source_file>
AV-unprocessed.smi

> <i_m_source_file_index>
2531

> <i_lp_mmshare_version>
43012

> <i_f3d_flags>
0

> <s_epik_input>
W0NIMl0xW0NIMl1bQ0gyXVtDSDJdW0NIXTFDKD1PKU4yW0NIMl1bQ0hdKFtDSDJdMilTKD1PKSg9TylbTkhdW0NIMl1bQ0gyXWMzW2NIXVtjSF1bY0hdW2NIXW4z

> <s_epik_cmdline>
J2VwaWtfcHl0aG9uJywgJy1waCcsICc3LjAnLCAnLXRuJywgJzgnLCAnLW1hJywgJzIwMCcsICctbWV0YWxfYmluZGluZycsICctaW1hZScsICc8aW5maWxlLm1hZT4nLCAnLW9tYWUnLCAnPG91dGZpbGUubWFlPic=

> <r_epik_Ionization_Penalty>
6.66855

> <r_epik_Ionization_Penalty_Charging>
6.66855

> <r_epik_Ionization_Penalty_Neutral>
2.37876e-07

> <r_epik_State_Penalty>
7.51815

> <r_epik_Charging_Adjusted_Penalty>
14.1867

> <i_epik_Tot_Q>
0

> <i_epik_Tot_abs_Q>
2

> <r_epik_Metal_State_Penalty>
3.5378

> <b_epik_Metal_Only>
1

> <s_lp_Force_Field>
OPLS_2005

> <r_lp_Energy>
33.2094

> <b_lp_Chiralities_Consistent>
1

> <s_lp_Variant>
AV-unprocessed.smi:2531-4

> <Gold.Version>
5.8.1

> <Gold.Id.Protein>
6NUR|6NUR_protein|mol2

> <Gold.PLP.Fitness>
52.1263

> <Gold.PLP.PLP>
-37.1573

> <Gold.PLP.part.hbond>
-4.0000

> <Gold.PLP.part.metal>
0.0000

> <Gold.PLP.part.buried>
-4.6972

> <Gold.PLP.part.nonpolar>
-29.1922

> <Gold.PLP.part.repulsive>
0.1984

> <Gold.PLP.ligand.clash>
0.0000

> <Gold.PLP.ligand.torsion>
2.0815

> <Gold.PLP.Chemscore.Hbond>
5.5040

> <Gold.PLP.Chemscore.CHOScore>
0.0000

> <Gold.PLP.Chemscore.Metal>
0.0000

> <Gold.Chemscore.Hbonds>
donor molecule, donor type, donor heavy atom, donor atom, acceptor molecule, acceptor atom, score
      L1  H    22    46       P1  7948  2.00
      P1  H  7989  7998       L1    12  1.00
      P1  H  7997  8010       L1    13  0.58
      P1  H 10752 10763       L1    14  1.27

> <Gold.PLP.Chemscore.Internal.Correction>
2.6200

> <Gold.Rescore>
     Score         DG    S(hbond)    S(metal)    S(lipo)     H(rot)  DE(clash)    DE(int)     intcor
     19.75     -21.95       3.32        0.00      83.47       1.72       0.14       2.05       ----

> <Gold.Chemscore.Fitness>
19.7537

> <Gold.Chemscore.DG>
-21.9463

> <Gold.Chemscore.ZeroCoef>
-5.4800

> <Gold.Chemscore.Hbond>
3.3213

> <Gold.Chemscore.Metal>
0.0000

> <Gold.Chemscore.Lipo>
83.4653

> <Gold.Chemscore.Internal_Hbond>
0.0000

> <Gold.Chemscore.DEClash>
0.1438

> <Gold.Chemscore.DEInternal>
2.0488

> <Gold.Chemscore.Rot>
1.7158

> <Gold.Chemscore.Internal.Correction>
   9.000000E+99

> <Gold.Chemscore.Hbonds>
donor molecule, donor type, donor heavy atom, donor atom, acceptor molecule, acceptor atom, score
      L1  H    22    46       P1  7948  0.99
      P1  H  7989  7998       L1    12  0.97
      P1  H  7997  8010       L1    13  0.29
      P1  H 10752 10763       L1    14  0.19

> <Gold.Chemscore.Hbond.Weighted>
-11.0932

> <Gold.Chemscore.Metal.Weighted>
-0.0000

> <Gold.Chemscore.Lipo.Weighted>
-9.7654

> <Gold.Chemscore.Internal_Hbond.Weighted>
0.0000

> <Gold.Chemscore.DEClash.Weighted>
0.1438

> <Gold.Chemscore.DEInternal.Weighted>
2.0488

> <Gold.Chemscore.Rot.Weighted>
4.3924

> <Gold.Chemscore.Internal.Correction.Weighted>
   9.000000E+99

> <Gold.Protein.RotatedTorsions>
[ 6907 6896 6895 6894 ] final  -91.88 input  -60.11 | X-H torsion
[ 7974 7965 7964 7962 ] final  -23.21 input  175.53 | X-H torsion
[ 8008 7997 7996 7995 ] final  101.66 input   59.86 | X-H torsion
[ 10167 10162 10161 10158 ] final   27.34 input  -65.29 | X-H torsion
[ 10718 10713 10712 10709 ] final  -11.92 input   66.30 | X-H torsion
[ 10763 10752 10751 10750 ] final   82.97 input  -60.55 | X-H torsion
[ 11005 11000 10999 10996 ] final   89.13 input  -57.11 | X-H torsion

> <Gold.Protein.ActiveResidues>
 VAL166  LYS551  ARG553  GLY616  TRP617  ASP618  TYR619  PRO620  LYS621  CYS622 
 ASP623  PHE694  ASN695  SER759  ASP760  ASP761  ALA762  ILE779  LEU786  VAL792 
 PHE793  MET794  SER795  GLU796  ALA797  LYS798  CYS799  TRP800  GLU811  SER814 

> <Gold.Protein.RotatedAtoms>
  150.6898  134.2209  159.4395 H   0  0  0  0  0  0  0  0  0  0  0  0  # atno 6907 bound_to 6896
  152.0165  134.9844  160.0579 H   0  0  0  0  0  0  0  0  0  0  0  0  # atno 6908 bound_to 6896
  152.1438  133.4445  159.4817 H   0  0  0  0  0  0  0  0  0  0  0  0  # atno 6909 bound_to 6896
  146.1630  140.4585  142.8564 H   0  0  0  0  0  0  0  0  0  0  0  0  # atno 7974 bound_to 7965
  156.1321  140.3194  155.8364 H   0  0  0  0  0  0  0  0  0  0  0  0  # atno 8008 bound_to 7997
  155.4313  140.0519  157.3035 H   0  0  0  0  0  0  0  0  0  0  0  0  # atno 8009 bound_to 7997
  154.4907  140.2091  155.9567 H   0  0  0  0  0  0  0  0  0  0  0  0  # atno 8010 bound_to 7997
  140.4946  144.0412  150.6309 H   0  0  0  0  0  0  0  0  0  0  0  0  # atno 10167 bound_to 10162
  156.6520  130.4957  149.6059 H   0  0  0  0  0  0  0  0  0  0  0  0  # atno 10718 bound_to 10713
  153.1250  135.4708  154.9257 H   0  0  0  0  0  0  0  0  0  0  0  0  # atno 10763 bound_to 10752
  154.7611  135.3132  154.8379 H   0  0  0  0  0  0  0  0  0  0  0  0  # atno 10764 bound_to 10752
  153.8934  135.6882  153.4813 H   0  0  0  0  0  0  0  0  0  0  0  0  # atno 10765 bound_to 10752
  139.8882  134.8532  156.3098 H   0  0  0  0  0  0  0  0  0  0  0  0  # atno 11005 bound_to 11000
  144.8053  140.6287  143.6451 LP  0  0  0  0  0  0  0  0  0  0  0  0  # atno 17320 bound_to 7965
  145.4540  139.1520  143.3902 LP  0  0  0  0  0  0  0  0  0  0  0  0  # atno 17321 bound_to 7965
  140.3691  143.2865  152.0298 LP  0  0  0  0  0  0  0  0  0  0  0  0  # atno 17342 bound_to 10162
  139.4858  144.6244  151.7193 LP  0  0  0  0  0  0  0  0  0  0  0  0  # atno 17343 bound_to 10162
  156.2077  130.6659  151.1236 LP  0  0  0  0  0  0  0  0  0  0  0  0  # atno 17370 bound_to 10713
  157.7138  131.0721  150.6405 LP  0  0  0  0  0  0  0  0  0  0  0  0  # atno 17371 bound_to 10713
  140.9858  133.7239  156.0739 LP  0  0  0  0  0  0  0  0  0  0  0  0  # atno 17394 bound_to 11000
  140.7690  134.3853  157.5511 LP  0  0  0  0  0  0  0  0  0  0  0  0  # atno 17395 bound_to 11000

$$$$
