AV-unprocessed.smi:36|AV-procd|sdf|297|dock7
  -GOLD-   2262016 93D 1   1.00000     0.00000
 Structure written by MMmdl.
 63 66  0  0  0  0  0  0  0  0  2 V2000
  146.2057  132.1641  161.3036 C   0  0  0  0  0  0  0  0  0  0  0  0
  147.0178  133.1505  162.1589 C   0  0  0  0  0  0  0  0  0  0  0  0
  146.3016  133.3916  163.4980 C   0  0  0  0  0  0  0  0  0  0  0  0
  148.4246  132.5855  162.4187 C   0  0  0  0  0  0  0  0  0  0  0  0
  147.1799  134.8139  161.2327 Si  0  0  0  0  0  0  0  0  0  0  0  0
  145.4773  135.6047  160.9370 C   0  0  0  0  0  0  0  0  0  0  0  0
  148.2951  136.0237  162.1822 C   0  0  0  0  0  0  0  0  0  0  0  0
  147.8942  134.4994  159.7327 O   0  0  0  0  0  0  0  0  0  0  0  0
  149.2423  134.1132  159.5730 C   0  0  0  0  0  0  0  0  0  0  0  0
  149.5226  133.8987  158.0805 C   0  0  2  0  0  0  0  0  0  0  0  0
  150.8583  134.2882  157.7499 O   0  0  0  0  0  0  0  0  0  0  0  0
  150.8714  135.0491  156.5764 C   0  0  2  0  0  0  0  0  0  0  0  0
  151.0588  136.4890  156.9461 N   0  0  0  0  0  0  0  0  0  0  0  0
  151.3779  137.0370  158.1380 C   0  0  0  0  0  0  0  0  0  0  0  0
  151.4929  138.3626  158.1934 N   0  0  0  0  0  0  0  0  0  0  0  0
  151.2329  138.7217  156.8792 C   0  0  0  0  0  0  0  0  0  0  0  0
  151.1885  139.9797  156.2185 C   0  0  0  0  0  0  0  0  0  0  0  0
  151.4242  141.1388  156.8510 N   0  5  0  0  0  0  0  0  0  0  0  0
  152.3958  141.2084  157.7960 C   0  0  0  0  0  0  0  0  0  0  0  0
  153.2830  140.3856  158.0322 O   0  0  0  0  0  0  0  0  0  0  0  0
  152.2834  142.4262  158.6732 C   0  0  0  0  0  0  0  0  0  0  0  0
  152.7619  142.3782  160.0025 C   0  0  0  0  0  0  0  0  0  0  0  0
  152.6865  143.5138  160.8323 C   0  0  0  0  0  0  0  0  0  0  0  0
  152.1410  144.7133  160.3380 C   0  0  0  0  0  0  0  0  0  0  0  0
  151.6740  144.7773  159.0119 C   0  0  0  0  0  0  0  0  0  0  0  0
  151.7484  143.6419  158.1815 C   0  0  0  0  0  0  0  0  0  0  0  0
  150.9156  139.9666  154.8884 N   0  0  0  0  0  0  0  0  0  0  0  0
  150.6881  138.8095  154.2558 C   0  0  0  0  0  0  0  0  0  0  0  0
  150.6889  137.5673  154.7496 N   0  0  0  0  0  0  0  0  0  0  0  0
  150.9695  137.5685  156.0852 C   0  0  0  0  0  0  0  0  0  0  0  0
  149.5023  134.8531  155.9248 C   0  0  0  0  0  0  0  0  0  0  0  0
  148.6120  134.6960  157.1399 C   0  0  1  0  0  0  0  0  0  0  0  0
  147.4273  133.9997  156.8123 O   0  0  0  0  0  0  0  0  0  0  0  0
  146.0935  131.2035  161.8074 H   0  0  0  0  0  0  0  0  0  0  0  0
  146.6887  131.9772  160.3442 H   0  0  0  0  0  0  0  0  0  0  0  0
  145.2050  132.5460  161.0999 H   0  0  0  0  0  0  0  0  0  0  0  0
  145.2966  133.7864  163.3464 H   0  0  0  0  0  0  0  0  0  0  0  0
  146.8462  134.1069  164.1153 H   0  0  0  0  0  0  0  0  0  0  0  0
  146.2077  132.4677  164.0697 H   0  0  0  0  0  0  0  0  0  0  0  0
  148.3793  131.6451  162.9689 H   0  0  0  0  0  0  0  0  0  0  0  0
  149.0288  133.2806  163.0032 H   0  0  0  0  0  0  0  0  0  0  0  0
  148.9554  132.3935  161.4860 H   0  0  0  0  0  0  0  0  0  0  0  0
  144.9533  135.7893  161.8745 H   0  0  0  0  0  0  0  0  0  0  0  0
  144.8393  134.9657  160.3269 H   0  0  0  0  0  0  0  0  0  0  0  0
  145.5642  136.5611  160.4216 H   0  0  0  0  0  0  0  0  0  0  0  0
  147.8908  136.2516  163.1682 H   0  0  0  0  0  0  0  0  0  0  0  0
  148.4033  136.9687  161.6505 H   0  0  0  0  0  0  0  0  0  0  0  0
  149.2958  135.6171  162.3269 H   0  0  0  0  0  0  0  0  0  0  0  0
  149.9038  134.8690  159.9961 H   0  0  0  0  0  0  0  0  0  0  0  0
  149.4083  133.1865  160.1230 H   0  0  0  0  0  0  0  0  0  0  0  0
  149.4544  132.8351  157.8455 H   0  0  0  0  0  0  0  0  0  0  0  0
  151.7208  134.8152  155.9335 H   0  0  0  0  0  0  0  0  0  0  0  0
  151.5391  136.4346  159.0186 H   0  0  0  0  0  0  0  0  0  0  0  0
  153.1846  141.4653  160.3964 H   0  0  0  0  0  0  0  0  0  0  0  0
  153.0492  143.4638  161.8484 H   0  0  0  0  0  0  0  0  0  0  0  0
  152.0840  145.5841  160.9741 H   0  0  0  0  0  0  0  0  0  0  0  0
  151.2604  145.6984  158.6288 H   0  0  0  0  0  0  0  0  0  0  0  0
  151.3940  143.7147  157.1634 H   0  0  0  0  0  0  0  0  0  0  0  0
  150.4751  138.8910  153.2004 H   0  0  0  0  0  0  0  0  0  0  0  0
  149.2251  135.6826  155.2735 H   0  0  0  0  0  0  0  0  0  0  0  0
  149.5325  133.9356  155.3351 H   0  0  0  0  0  0  0  0  0  0  0  0
  148.3694  135.6731  157.5603 H   0  0  0  0  0  0  0  0  0  0  0  0
  147.0570  134.3877  156.0346 H   0  0  0  0  0  0  0  0  0  0  0  0
  1  2  1  0  0  0  0
  1 34  1  0  0  0  0
  1 35  1  0  0  0  0
  1 36  1  0  0  0  0
  2  3  1  0  0  0  0
  2  4  1  0  0  0  0
  2  5  1  0  0  0  0
  3 37  1  0  0  0  0
  3 38  1  0  0  0  0
  3 39  1  0  0  0  0
  4 40  1  0  0  0  0
  4 41  1  0  0  0  0
  4 42  1  0  0  0  0
  5  6  1  0  0  0  0
  5  7  1  0  0  0  0
  5  8  1  0  0  0  0
  6 43  1  0  0  0  0
  6 44  1  0  0  0  0
  6 45  1  0  0  0  0
  7 46  1  0  0  0  0
  7 47  1  0  0  0  0
  7 48  1  0  0  0  0
  8  9  1  0  0  0  0
  9 10  1  0  0  0  0
  9 49  1  0  0  0  0
  9 50  1  0  0  0  0
 10 32  1  0  0  0  0
 10 11  1  0  0  0  0
 10 51  1  0  0  0  0
 11 12  1  0  0  0  0
 12 13  1  0  0  0  0
 12 31  1  0  0  0  0
 12 52  1  0  0  0  0
 13 30  1  0  0  0  0
 13 14  1  0  0  0  0
 14 15  2  0  0  0  0
 14 53  1  0  0  0  0
 15 16  1  0  0  0  0
 16 30  2  0  0  0  0
 16 17  1  0  0  0  0
 17 18  1  0  0  0  0
 17 27  2  0  0  0  0
 18 19  1  0  0  0  0
 19 20  2  0  0  0  0
 19 21  1  0  0  0  0
 21 26  1  0  0  0  0
 21 22  2  0  0  0  0
 22 23  1  0  0  0  0
 22 54  1  0  0  0  0
 23 24  2  0  0  0  0
 23 55  1  0  0  0  0
 24 25  1  0  0  0  0
 24 56  1  0  0  0  0
 25 26  2  0  0  0  0
 25 57  1  0  0  0  0
 26 58  1  0  0  0  0
 27 28  1  0  0  0  0
 28 29  2  0  0  0  0
 28 59  1  0  0  0  0
 29 30  1  0  0  0  0
 31 32  1  0  0  0  0
 31 60  1  0  0  0  0
 31 61  1  0  0  0  0
 32 33  1  0  0  0  0
 32 62  1  0  0  0  0
 33 63  1  0  0  0  0
M  CHG  1  18  -1
M  END
> <s_m_source_file>
AV-unprocessed.smi

> <i_m_source_file_index>
36

> <i_lp_mmshare_version>
43012

> <i_f3d_flags>
0

> <s_epik_input>
W0NIM11DKFtDSDNdKShbQ0gzXSlbU2ldKFtDSDNdKShbQ0gzXSlPW0NIMl1bQ0BASF0xT1tDQEhdKFtDSDJdW0NASF0xW09IXSluKFtjSF1uMiljKGMyMyluW2NIXW5jM1tOSF1DKD1PKWM0W2NIXVtjSF1bY0hdW2NIXVtjSF00

> <s_epik_cmdline>
J2VwaWtfcHl0aG9uJywgJy1waCcsICc3LjAnLCAnLXRuJywgJzgnLCAnLW1hJywgJzIwMCcsICctbWV0YWxfYmluZGluZycsICctaW1hZScsICc8aW5maWxlLm1hZT4nLCAnLW9tYWUnLCAnPG91dGZpbGUubWFlPic=

> <r_lp_tautomer_probability>
1

> <r_epik_Ionization_Penalty>
4.75685

> <r_epik_Ionization_Penalty_Charging>
3.55822

> <r_epik_Ionization_Penalty_Neutral>
1.19863

> <r_epik_State_Penalty>
3.564

> <r_epik_Charging_Adjusted_Penalty>
7.12222

> <i_epik_Tot_Q>
-1

> <i_epik_Tot_abs_Q>
1

> <r_epik_Metal_State_Penalty>
0.523258

> <b_epik_Metal_Only>
1

> <s_epik_Chemistry_Notes>
This compound contains an acetal/aminal-like group ( X-CH(R)-Y where X, Y are N, S, or O) that may be acid/base labile, releasing an aldehyde.

> <s_lp_Force_Field>
OPLS_2005

> <r_lp_Energy>
31.8386

> <b_lp_Chiralities_Consistent>
1

> <s_lp_Variant>
AV-unprocessed.smi:36-19

> <Gold.Version>
5.8.1

> <Gold.Id.Protein>
6NUR|6NUR_protein|mol2

> <Gold.PLP.Fitness>
59.2240

> <Gold.PLP.PLP>
-49.4292

> <Gold.PLP.part.hbond>
-3.0000

> <Gold.PLP.part.metal>
0.0000

> <Gold.PLP.part.buried>
-7.9760

> <Gold.PLP.part.nonpolar>
-38.2212

> <Gold.PLP.part.repulsive>
0.2497

> <Gold.PLP.ligand.clash>
0.0000

> <Gold.PLP.ligand.torsion>
1.3539

> <Gold.PLP.Chemscore.Hbond>
2.9595

> <Gold.PLP.Chemscore.CHOScore>
1.0000

> <Gold.PLP.Chemscore.Metal>
0.0000

> <Gold.Chemscore.Hbonds>
donor molecule, donor type, donor heavy atom, donor atom, acceptor molecule, acceptor atom, score
      P1  H  7989  7998       L1    27  0.90
      P1  H  7997  8009       L1    20  0.83
      L1  C    28    59       P1  7957  1.00

> <Gold.PLP.Chemscore.Internal.Correction>
0.6242

> <Gold.Rescore>
     Score         DG    S(hbond)    S(metal)    S(lipo)     H(rot)  DE(clash)    DE(int)     intcor
     16.04     -21.84       2.77        0.00     119.17       2.67       0.05       5.76       ----

> <Gold.Chemscore.Fitness>
16.0393

> <Gold.Chemscore.DG>
-21.8436

> <Gold.Chemscore.ZeroCoef>
-5.4800

> <Gold.Chemscore.Hbond>
2.7712

> <Gold.Chemscore.Metal>
0.0000

> <Gold.Chemscore.Lipo>
119.1740

> <Gold.Chemscore.Internal_Hbond>
0.0000

> <Gold.Chemscore.DEClash>
0.0477

> <Gold.Chemscore.DEInternal>
5.7565

> <Gold.Chemscore.Rot>
2.6702

> <Gold.Chemscore.Internal.Correction>
   9.000000E+99

> <Gold.Chemscore.Hbonds>
donor molecule, donor type, donor heavy atom, donor atom, acceptor molecule, acceptor atom, score
      P1  H  7989  7998       L1    27  0.18
      P1  H  7997  8009       L1    20  0.82

> <Gold.Chemscore.Hbond.Weighted>
-9.2560

> <Gold.Chemscore.Metal.Weighted>
-0.0000

> <Gold.Chemscore.Lipo.Weighted>
-13.9434

> <Gold.Chemscore.Internal_Hbond.Weighted>
0.0000

> <Gold.Chemscore.DEClash.Weighted>
0.0477

> <Gold.Chemscore.DEInternal.Weighted>
5.7565

> <Gold.Chemscore.Rot.Weighted>
6.8358

> <Gold.Chemscore.Internal.Correction.Weighted>
   9.000000E+99

> <Gold.Protein.RotatedTorsions>
[ 6907 6896 6895 6894 ] final  131.23 input  -60.11 | X-H torsion
[ 7974 7965 7964 7962 ] final  113.87 input  175.53 | X-H torsion
[ 8008 7997 7996 7995 ] final  159.77 input   59.86 | X-H torsion
[ 10167 10162 10161 10158 ] final  113.00 input  -65.29 | X-H torsion
[ 10718 10713 10712 10709 ] final -151.70 input   66.30 | X-H torsion
[ 10763 10752 10751 10750 ] final -102.26 input  -60.55 | X-H torsion
[ 11005 11000 10999 10996 ] final   13.42 input  -57.11 | X-H torsion

> <Gold.Protein.ActiveResidues>
 VAL166  LYS551  ARG553  GLY616  TRP617  ASP618  TYR619  PRO620  LYS621  CYS622 
 ASP623  PHE694  ASN695  SER759  ASP760  ASP761  ALA762  ILE779  LEU786  VAL792 
 PHE793  MET794  SER795  GLU796  ALA797  LYS798  CYS799  TRP800  GLU811  SER814 

> <Gold.Protein.RotatedAtoms>
  152.3447  133.6108  159.5901 H   0  0  0  0  0  0  0  0  0  0  0  0  # atno 6907 bound_to 6896
  150.7500  133.9667  159.3542 H   0  0  0  0  0  0  0  0  0  0  0  0  # atno 6908 bound_to 6896
  151.7527  135.0829  160.0384 H   0  0  0  0  0  0  0  0  0  0  0  0  # atno 6909 bound_to 6896
  145.2115  139.2904  143.4266 H   0  0  0  0  0  0  0  0  0  0  0  0  # atno 7974 bound_to 7965
  156.2217  140.1822  156.7461 H   0  0  0  0  0  0  0  0  0  0  0  0  # atno 8008 bound_to 7997
  154.5876  140.0656  156.9221 H   0  0  0  0  0  0  0  0  0  0  0  0  # atno 8009 bound_to 7997
  155.2393  140.3320  155.4296 H   0  0  0  0  0  0  0  0  0  0  0  0  # atno 8010 bound_to 7997
  139.6494  144.7128  151.2078 H   0  0  0  0  0  0  0  0  0  0  0  0  # atno 10167 bound_to 10162
  156.4627  130.8221  151.2451 H   0  0  0  0  0  0  0  0  0  0  0  0  # atno 10718 bound_to 10713
  154.7720  135.4867  153.9668 H   0  0  0  0  0  0  0  0  0  0  0  0  # atno 10763 bound_to 10752
  153.1380  135.6767  153.9079 H   0  0  0  0  0  0  0  0  0  0  0  0  # atno 10764 bound_to 10752
  153.8762  135.3137  155.3422 H   0  0  0  0  0  0  0  0  0  0  0  0  # atno 10765 bound_to 10752
  140.4809  134.0936  155.7751 H   0  0  0  0  0  0  0  0  0  0  0  0  # atno 11005 bound_to 11000
  146.3396  140.2392  142.8595 LP  0  0  0  0  0  0  0  0  0  0  0  0  # atno 17320 bound_to 7965
  144.9852  140.8496  143.5373 LP  0  0  0  0  0  0  0  0  0  0  0  0  # atno 17321 bound_to 7965
  140.7530  143.6176  150.8545 LP  0  0  0  0  0  0  0  0  0  0  0  0  # atno 17342 bound_to 10162
  139.9822  143.5938  152.2939 LP  0  0  0  0  0  0  0  0  0  0  0  0  # atno 17343 bound_to 10162
  157.7497  131.0102  150.3296 LP  0  0  0  0  0  0  0  0  0  0  0  0  # atno 17370 bound_to 10713
  156.3700  130.3862  149.7183 LP  0  0  0  0  0  0  0  0  0  0  0  0  # atno 17371 bound_to 10713
  141.1531  133.8931  157.2046 LP  0  0  0  0  0  0  0  0  0  0  0  0  # atno 17394 bound_to 11000
  139.9827  135.0093  156.9788 LP  0  0  0  0  0  0  0  0  0  0  0  0  # atno 17395 bound_to 11000

$$$$
