AV-unprocessed.smi:1703|AV-procd|sdf|6874|dock10
  -GOLD-   22720 8 73D 1   1.00000     0.00000
 Structure written by MMmdl.
 50 52  0  0  0  0  0  0  0  0  3 V2000
  149.0943  141.6079  154.5263 C   0  0  0  0  0  0  0  0  0  0  0  0
  149.5384  140.1919  154.9088 C   0  0  1  0  0  0  0  0  0  0  0  0
  148.8652  139.1170  154.0320 C   0  0  0  0  0  0  0  0  0  0  0  0
  149.3662  137.7610  154.3631 N   0  3  2  0  0  0  0  0  0  0  0  0
  148.7807  137.1949  155.6081 C   0  0  0  0  0  0  0  0  0  0  0  0
  147.5154  136.3546  155.3320 C   0  0  2  0  0  0  0  0  0  0  0  0
  147.0103  135.8732  156.5604 O   0  0  0  0  0  0  0  0  0  0  0  0
  147.7593  135.1375  154.4166 C   0  0  0  0  0  0  0  0  0  0  0  0
  146.5140  134.4671  154.0072 N   0  0  0  0  0  0  0  0  0  0  0  0
  145.7595  133.5424  154.6705 C   0  0  0  0  0  0  0  0  0  0  0  0
  146.0262  132.9587  156.0189 C   0  0  0  0  0  0  0  0  0  0  0  0
  145.0089  132.0720  156.4273 O   0  0  0  0  0  0  0  0  0  0  0  0
  144.7079  133.2250  153.8648 N   0  3  0  0  0  0  0  0  0  0  0  0
  144.7892  133.9463  152.6738 C   0  0  0  0  0  0  0  0  0  0  0  0
  143.9561  133.9576  151.5594 C   0  0  0  0  0  0  0  0  0  0  0  0
  144.3268  134.8117  150.5007 C   0  0  0  0  0  0  0  0  0  0  0  0
  145.4855  135.6117  150.5749 C   0  0  0  0  0  0  0  0  0  0  0  0
  146.3223  135.5924  151.7105 C   0  0  0  0  0  0  0  0  0  0  0  0
  145.9496  134.7444  152.7543 C   0  0  0  0  0  0  0  0  0  0  0  0
  150.8502  137.7263  154.3020 C   0  0  0  0  0  0  0  0  0  0  0  0
  151.4856  138.8550  155.1439 C   0  0  1  0  0  0  0  0  0  0  0  0
  153.0074  138.9107  154.9711 C   0  0  0  0  0  0  0  0  0  0  0  0
  150.9488  140.1085  154.7349 O   0  0  0  0  0  0  0  0  0  0  0  0
  148.0166  141.7265  154.6415 H   0  0  0  0  0  0  0  0  0  0  0  0
  149.3469  141.8345  153.4899 H   0  0  0  0  0  0  0  0  0  0  0  0
  149.5795  142.3531  155.1574 H   0  0  0  0  0  0  0  0  0  0  0  0
  149.2933  140.0270  155.9595 H   0  0  0  0  0  0  0  0  0  0  0  0
  147.7794  139.1575  154.1271 H   0  0  0  0  0  0  0  0  0  0  0  0
  149.0857  139.3139  152.9816 H   0  0  0  0  0  0  0  0  0  0  0  0
  149.5354  136.6018  156.1221 H   0  0  0  0  0  0  0  0  0  0  0  0
  148.5152  138.0004  156.2945 H   0  0  0  0  0  0  0  0  0  0  0  0
  146.7433  136.9757  154.8801 H   0  0  0  0  0  0  0  0  0  0  0  0
  147.6118  136.1064  157.2514 H   0  0  0  0  0  0  0  0  0  0  0  0
  148.3324  135.4158  153.5324 H   0  0  0  0  0  0  0  0  0  0  0  0
  148.3620  134.3941  154.9404 H   0  0  0  0  0  0  0  0  0  0  0  0
  146.9801  132.4321  156.0185 H   0  0  0  0  0  0  0  0  0  0  0  0
  146.1069  133.7644  156.7491 H   0  0  0  0  0  0  0  0  0  0  0  0
  144.4736  131.8597  155.6777 H   0  0  0  0  0  0  0  0  0  0  0  0
  143.0688  133.3438  151.4993 H   0  0  0  0  0  0  0  0  0  0  0  0
  143.7114  134.8523  149.6133 H   0  0  0  0  0  0  0  0  0  0  0  0
  145.7385  136.2520  149.7421 H   0  0  0  0  0  0  0  0  0  0  0  0
  147.2058  136.2117  151.7501 H   0  0  0  0  0  0  0  0  0  0  0  0
  151.2336  136.7551  154.6123 H   0  0  0  0  0  0  0  0  0  0  0  0
  151.1427  137.8471  153.2580 H   0  0  0  0  0  0  0  0  0  0  0  0
  151.2722  138.7049  156.2031 H   0  0  0  0  0  0  0  0  0  0  0  0
  153.4732  137.9765  155.2862 H   0  0  0  0  0  0  0  0  0  0  0  0
  153.4387  139.7145  155.5686 H   0  0  0  0  0  0  0  0  0  0  0  0
  153.2811  139.0870  153.9304 H   0  0  0  0  0  0  0  0  0  0  0  0
  149.0328  137.1576  153.6240 H   0  0  0  0  0  0  0  0  0  0  0  0
  143.9923  132.5529  154.1117 H   0  0  0  0  0  0  0  0  0  0  0  0
  1  2  1  0  0  0  0
  1 24  1  0  0  0  0
  1 25  1  0  0  0  0
  1 26  1  0  0  0  0
  2 23  1  0  0  0  0
  2  3  1  0  0  0  0
  2 27  1  0  0  0  0
  3  4  1  0  0  0  0
  3 28  1  0  0  0  0
  3 29  1  0  0  0  0
  4  5  1  0  0  0  0
  4 20  1  0  0  0  0
  4 49  1  0  0  0  0
  5  6  1  0  0  0  0
  5 30  1  0  0  0  0
  5 31  1  0  0  0  0
  6  7  1  0  0  0  0
  6  8  1  0  0  0  0
  6 32  1  0  0  0  0
  7 33  1  0  0  0  0
  8  9  1  0  0  0  0
  8 34  1  0  0  0  0
  8 35  1  0  0  0  0
  9 19  1  0  0  0  0
  9 10  1  0  0  0  0
 10 11  1  0  0  0  0
 10 13  2  0  0  0  0
 11 12  1  0  0  0  0
 11 36  1  0  0  0  0
 11 37  1  0  0  0  0
 12 38  1  0  0  0  0
 13 14  1  0  0  0  0
 13 50  1  0  0  0  0
 14 19  2  0  0  0  0
 14 15  1  0  0  0  0
 15 16  2  0  0  0  0
 15 39  1  0  0  0  0
 16 17  1  0  0  0  0
 16 40  1  0  0  0  0
 17 18  2  0  0  0  0
 17 41  1  0  0  0  0
 18 19  1  0  0  0  0
 18 42  1  0  0  0  0
 20 21  1  0  0  0  0
 20 43  1  0  0  0  0
 20 44  1  0  0  0  0
 21 22  1  0  0  0  0
 21 23  1  0  0  0  0
 21 45  1  0  0  0  0
 22 46  1  0  0  0  0
 22 47  1  0  0  0  0
 22 48  1  0  0  0  0
M  CHG  1   4   1
M  CHG  1  13   1
M  END
> <s_m_source_file>
AV-unprocessed.smi

> <i_m_source_file_index>
1703

> <i_lp_mmshare_version>
43012

> <i_f3d_flags>
0

> <s_epik_input>
W0NIM11bQ0BASF0xW0NIMl1OKFtDSDJdW0NASF0oTzEpW0NIM10pW0NIMl1bQ0BIXShbT0hdKVtDSDJdbihjKG4yKVtDSDJdW09IXSljKGMyMylbY0hdW2NIXVtjSF1bY0hdMw==

> <s_epik_cmdline>
J2VwaWtfcHl0aG9uJywgJy1waCcsICc3LjAnLCAnLXRuJywgJzgnLCAnLW1hJywgJzIwMCcsICctbWV0YWxfYmluZGluZycsICctaW1hZScsICc8aW5maWxlLm1hZT4nLCAnLW9tYWUnLCAnPG91dGZpbGUubWFlPic=

> <r_epik_Ionization_Penalty>
2.22579

> <r_epik_Ionization_Penalty_Charging>
2.22492

> <r_epik_Ionization_Penalty_Neutral>
0.000870007

> <r_epik_State_Penalty>
2.3141

> <r_epik_Charging_Adjusted_Penalty>
4.53902

> <i_epik_Tot_Q>
2

> <i_epik_Tot_abs_Q>
2

> <r_epik_Metal_State_Penalty>
6.36517

> <b_epik_Metal_Only>
0

> <s_lp_Force_Field>
OPLS_2005

> <r_lp_Energy>
32.0601

> <b_lp_Chiralities_Consistent>
1

> <s_lp_Variant>
AV-unprocessed.smi:1703-22

> <Gold.Version>
5.8.1

> <Gold.Id.Protein>
6NUR|6NUR_protein|mol2

> <Gold.PLP.Fitness>
47.8917

> <Gold.PLP.PLP>
-31.5287

> <Gold.PLP.part.hbond>
-4.0000

> <Gold.PLP.part.metal>
0.0000

> <Gold.PLP.part.buried>
2.8203

> <Gold.PLP.part.nonpolar>
-30.3898

> <Gold.PLP.part.repulsive>
0.0796

> <Gold.PLP.ligand.clash>
0.0000

> <Gold.PLP.ligand.torsion>
0.8493

> <Gold.PLP.Chemscore.Hbond>
6.0000

> <Gold.PLP.Chemscore.CHOScore>
0.0000

> <Gold.PLP.Chemscore.Metal>
0.0000

> <Gold.Chemscore.Hbonds>
donor molecule, donor type, donor heavy atom, donor atom, acceptor molecule, acceptor atom, score
      L1  H     4    49       P1  7948  2.00
      L1  H    12    38       P1 10957  1.00
      L1  H    13    50       P1 10957  2.00
      P1  H  7989  7998       L1    23  1.00

> <Gold.PLP.Chemscore.Internal.Correction>
0.0617

> <Gold.Rescore>
     Score         DG    S(hbond)    S(metal)    S(lipo)     H(rot)  DE(clash)    DE(int)     intcor
     18.34     -20.66       3.90        0.00      85.00       3.04       1.53       0.79       ----

> <Gold.Chemscore.Fitness>
18.3406

> <Gold.Chemscore.DG>
-20.6593

> <Gold.Chemscore.ZeroCoef>
-5.4800

> <Gold.Chemscore.Hbond>
3.8955

> <Gold.Chemscore.Metal>
0.0000

> <Gold.Chemscore.Lipo>
84.9987

> <Gold.Chemscore.Internal_Hbond>
0.0000

> <Gold.Chemscore.DEClash>
1.5303

> <Gold.Chemscore.DEInternal>
0.7884

> <Gold.Chemscore.Rot>
3.0378

> <Gold.Chemscore.Internal.Correction>
   9.000000E+99

> <Gold.Chemscore.Hbonds>
donor molecule, donor type, donor heavy atom, donor atom, acceptor molecule, acceptor atom, score
      L1  H     4    49       P1  7948  0.97
      L1  H    12    38       P1 10957  0.51
      L1  H    13    50       P1 10957  0.82
      P1  H  7989  7998       L1    23  0.93

> <Gold.Chemscore.Hbond.Weighted>
-13.0111

> <Gold.Chemscore.Metal.Weighted>
-0.0000

> <Gold.Chemscore.Lipo.Weighted>
-9.9449

> <Gold.Chemscore.Internal_Hbond.Weighted>
0.0000

> <Gold.Chemscore.DEClash.Weighted>
1.5303

> <Gold.Chemscore.DEInternal.Weighted>
0.7884

> <Gold.Chemscore.Rot.Weighted>
7.7767

> <Gold.Chemscore.Internal.Correction.Weighted>
   9.000000E+99

> <Gold.Protein.RotatedTorsions>
[ 6907 6896 6895 6894 ] final  121.08 input  -60.11 | X-H torsion
[ 7974 7965 7964 7962 ] final  -32.90 input  175.53 | X-H torsion
[ 8008 7997 7996 7995 ] final  140.03 input   59.86 | X-H torsion
[ 10167 10162 10161 10158 ] final  106.42 input  -65.29 | X-H torsion
[ 10718 10713 10712 10709 ] final -179.02 input   66.30 | X-H torsion
[ 10763 10752 10751 10750 ] final    8.56 input  -60.55 | X-H torsion
[ 11005 11000 10999 10996 ] final   -9.27 input  -57.11 | X-H torsion

> <Gold.Protein.ActiveResidues>
 VAL166  LYS551  ARG553  GLY616  TRP617  ASP618  TYR619  PRO620  LYS621  CYS622 
 ASP623  PHE694  ASN695  SER759  ASP760  ASP761  ALA762  ILE779  LEU786  VAL792 
 PHE793  MET794  SER795  GLU796  ALA797  LYS798  CYS799  TRP800  GLU811  SER814 

> <Gold.Protein.RotatedAtoms>
  152.4349  133.7343  159.6604 H   0  0  0  0  0  0  0  0  0  0  0  0  # atno 6907 bound_to 6896
  150.8232  133.8206  159.3136 H   0  0  0  0  0  0  0  0  0  0  0  0  # atno 6908 bound_to 6896
  151.5882  135.1057  160.0084 H   0  0  0  0  0  0  0  0  0  0  0  0  # atno 6909 bound_to 6896
  146.0953  140.5849  142.8845 H   0  0  0  0  0  0  0  0  0  0  0  0  # atno 7974 bound_to 7965
  156.2983  140.2352  156.4334 H   0  0  0  0  0  0  0  0  0  0  0  0  # atno 8008 bound_to 7997
  154.8250  140.0436  157.1457 H   0  0  0  0  0  0  0  0  0  0  0  0  # atno 8009 bound_to 7997
  154.9272  140.3012  155.5189 H   0  0  0  0  0  0  0  0  0  0  0  0  # atno 8010 bound_to 7997
  139.7010  144.7094  151.1185 H   0  0  0  0  0  0  0  0  0  0  0  0  # atno 10167 bound_to 10162
  156.8529  130.9725  151.3090 H   0  0  0  0  0  0  0  0  0  0  0  0  # atno 10718 bound_to 10713
  153.2237  135.6884  153.7970 H   0  0  0  0  0  0  0  0  0  0  0  0  # atno 10763 bound_to 10752
  153.7159  135.3275  155.3257 H   0  0  0  0  0  0  0  0  0  0  0  0  # atno 10764 bound_to 10752
  154.8282  135.4601  154.1095 H   0  0  0  0  0  0  0  0  0  0  0  0  # atno 10765 bound_to 10752
  140.7324  133.8738  155.8903 H   0  0  0  0  0  0  0  0  0  0  0  0  # atno 11005 bound_to 11000
  144.7391  140.4892  143.6882 LP  0  0  0  0  0  0  0  0  0  0  0  0  # atno 17320 bound_to 7965
  145.5959  139.1499  143.3156 LP  0  0  0  0  0  0  0  0  0  0  0  0  # atno 17321 bound_to 7965
  140.7709  143.5424  150.9298 LP  0  0  0  0  0  0  0  0  0  0  0  0  # atno 17342 bound_to 10162
  139.9105  143.6726  152.3116 LP  0  0  0  0  0  0  0  0  0  0  0  0  # atno 17343 bound_to 10162
  157.6293  130.8716  149.9245 LP  0  0  0  0  0  0  0  0  0  0  0  0  # atno 17370 bound_to 10713
  156.0818  130.3672  150.0565 LP  0  0  0  0  0  0  0  0  0  0  0  0  # atno 17371 bound_to 10713
  140.9909  134.1280  157.4409 LP  0  0  0  0  0  0  0  0  0  0  0  0  # atno 17394 bound_to 11000
  139.8823  135.0040  156.6222 LP  0  0  0  0  0  0  0  0  0  0  0  0  # atno 17395 bound_to 11000

$$$$
