#       Name:                AV-unprocessed.smi:1118
#       Creating user name   scv26
#       Creation time:       Fri Mar 27 03:36:55 2020


#       File generated by GOLD software.
#

@<TRIPOS>MOLECULE
AV-unprocessed.smi:1118
    50    51     1
SMALL
NO_CHARGES


@<TRIPOS>ATOM
      1 ****        -3.1004   4.5409  -2.5359 C.3            1 S1                 0.0000
      2 ****        -2.7090   3.3011  -1.9720 O.3            1 S1                 0.0000
      3 ****        -2.9584   3.2355  -0.5775 C.3            1 S1                 0.0000
      4 ****        -2.5350   1.8524  -0.0593 C.3            1 S1                 0.0000
      5 ****        -1.0774   1.6086  -0.2066 N.4            1 S1                 1.0000
      6 ****        -0.7550   0.1591  -0.2382 C.3            1 S1                 0.0000
      7 ****         0.7360  -0.0685  -0.5354 C.3            1 S1                 0.0000
      8 ****         1.6422   0.6401   0.4932 C.3            1 S1                 0.0000
      9 ****         1.6485  -0.0076   1.8983 C.3            1 S1                 0.0000
     10 ****         2.0466  -1.4100   1.8445 N.am           1 S1                 0.0000
     11 ****         1.2300  -2.4596   2.0282 C.2            1 S1                 0.0000
     12 ****         0.0483  -2.3573   2.3574 O.2            1 S1                 0.0000
     13 ****         1.8299  -3.8382   1.7557 C.3            1 S1                 0.0000
     14 ****         1.6776  -4.1887   0.3550 N.pl3          1 S1                 0.0000
     15 ****         0.6502  -4.8858  -0.2464 C.2            1 S1                 0.0000
     16 ****         0.9309  -4.9526  -1.5811 C.2            1 S1                 0.0000
     17 ****         2.1663  -4.2571  -1.7023 C.2            1 S1                 0.0000
     18 ****         2.6106  -3.8001  -0.5425 N.2            1 S1                 0.0000
     19 ****         1.2539   2.1295   0.5423 C.3            1 S1                 0.0000
     20 ****        -0.2522   2.3348   0.7960 C.3            1 S1                 0.0000
     21 ****        -2.8833   4.5428  -3.6042 H              1 S1                 0.0000
     22 ****        -2.5579   5.3708  -2.0807 H              1 S1                 0.0000
     23 ****        -4.1705   4.7113  -2.4100 H              1 S1                 0.0000
     24 ****        -2.4386   4.0384  -0.0545 H              1 S1                 0.0000
     25 ****        -4.0247   3.3763  -0.3938 H              1 S1                 0.0000
     26 ****        -2.8226   1.7316   0.9861 H              1 S1                 0.0000
     27 ****        -3.0929   1.1000  -0.6183 H              1 S1                 0.0000
     28 ****        -1.0342  -0.3021   0.7100 H              1 S1                 0.0000
     29 ****        -1.3466  -0.3314  -1.0119 H              1 S1                 0.0000
     30 ****         0.9520  -1.1356  -0.5853 H              1 S1                 0.0000
     31 ****         0.9587   0.3189  -1.5305 H              1 S1                 0.0000
     32 ****         2.6655   0.5811   0.1192 H              1 S1                 0.0000
     33 ****         2.3645   0.5127   2.5351 H              1 S1                 0.0000
     34 ****         0.6805   0.1047   2.3872 H              1 S1                 0.0000
     35 ****         3.0014  -1.6006   1.5754 H              1 S1                 0.0000
     36 ****         2.8876  -3.8589   2.0238 H              1 S1                 0.0000
     37 ****         1.3272  -4.5898   2.3658 H              1 S1                 0.0000
     38 ****        -0.1865  -5.2693   0.3192 H              1 S1                 0.0000
     39 ****         0.3425  -5.4254  -2.3535 H              1 S1                 0.0000
     40 ****         2.7488  -4.0711  -2.5925 H              1 S1                 0.0000
     41 ****         1.8358   2.6471   1.3056 H              1 S1                 0.0000
     42 ****         1.5182   2.5988  -0.4064 H              1 S1                 0.0000
     43 ****        -0.4659   3.4020   0.7567 H              1 S1                 0.0000
     44 ****        -0.5198   2.0030   1.7998 H              1 S1                 0.0000
     45 ****        -0.8214   1.9691  -1.1152 H              1 S1                 0.0000
     46 ****        -1.7299   3.1723  -2.1290 LP             1 S1                 0.0000
     47 ****        -3.2182   2.5684  -2.4236 LP             1 S1                 0.0000
     48 ****        -0.3537  -1.4534   2.5033 LP             1 S1                 0.0000
     49 ****        -0.5098  -3.1782   2.4789 LP             1 S1                 0.0000
     50 ****         3.4488  -3.2831  -0.3690 LP             1 S1                 0.0000
@<TRIPOS>BOND
    1    1    2 1     
    2    1   21 1     
    3    1   22 1     
    4    1   23 1     
    5    2    3 1     
    6    3    4 1     
    7    3   24 1     
    8    3   25 1     
    9    4    5 1     
   10    4   26 1     
   11    4   27 1     
   12    5   20 1     
   13    5    6 1     
   14    5   45 1     
   15    6    7 1     
   16    6   28 1     
   17    6   29 1     
   18    7    8 1     
   19    7   30 1     
   20    7   31 1     
   21    8    9 1     
   22    8   19 1     
   23    8   32 1     
   24    9   10 1     
   25    9   33 1     
   26    9   34 1     
   27   10   11 am    
   28   10   35 1     
   29   11   12 2     
   30   11   13 1     
   31   13   14 1     
   32   13   36 1     
   33   13   37 1     
   34   14   18 1     
   35   14   15 1     
   36   15   16 2     
   37   15   38 1     
   38   16   17 1     
   39   16   39 1     
   40   17   18 2     
   41   17   40 1     
   42   19   20 1     
   43   19   41 1     
   44   19   42 1     
   45   20   43 1     
   46   20   44 1     
   47    2   46 1     
   48    2   47 1     
   49   12   48 1     
   50   12   49 1     
   51   18   50 1     
@<TRIPOS>SUBSTRUCTURE
      1 S1             1
@<TRIPOS>SET
LONE_PAIRS      STATIC     ATOMS    <user>   **** ""
5 46 47 48 49 50
DONOR_HYDROGENS      STATIC     ATOMS    <user>   **** ""
2 45 35
ATOM$BLUE        STATIC     ATOMS    COLORGROUP SYSTEM
5 46 47 48 49 50
ATOM$RED        STATIC     ATOMS    COLORGROUP SYSTEM
2 45 35
