AV-unprocessed.smi:2286|AV-procd|sdf|9204|dock2
  -GOLD-   2272012423D 1   1.00000     0.00000
 Structure written by MMmdl.
 46 47  0  0  0  0  0  0  0  0  1 V2000
  147.1974  132.9371  161.8072 C   0  0  0  0  0  0  0  0  0  0  0  0
  147.4272  134.4158  161.5748 C   0  0  0  0  0  0  0  0  0  0  0  0
  146.8412  135.3801  162.4169 C   0  0  0  0  0  0  0  0  0  0  0  0
  147.0946  136.7395  162.1479 C   0  0  0  0  0  0  0  0  0  0  0  0
  146.4995  137.8279  163.0160 C   0  0  0  0  0  0  0  0  0  0  0  0
  147.8730  137.1561  161.1262 N   0  0  0  0  0  0  0  0  0  0  0  0
  148.4423  136.2362  160.3084 C   0  0  0  0  0  0  0  0  0  0  0  0
  149.2787  136.5685  159.2099 N   0  0  0  0  0  0  0  0  0  0  0  0
  149.3997  137.7532  158.5852 C   0  0  0  0  0  0  0  0  0  0  0  0
  148.7600  138.7709  158.8539 O   0  0  0  0  0  0  0  0  0  0  0  0
  150.3221  137.6960  157.6130 N   0  0  0  0  0  0  0  0  0  0  0  0
  150.6946  138.8067  156.7403 C   0  0  0  0  0  0  0  0  0  0  0  0
  151.6707  139.7895  157.3982 C   0  0  0  0  0  0  0  0  0  0  0  0
  152.7895  139.4236  157.7624 O   0  0  0  0  0  0  0  0  0  0  0  0
  151.2145  141.0402  157.5662 N   0  0  0  0  0  0  0  0  0  0  0  0
  151.9536  142.1354  158.1869 C   0  0  0  0  0  0  0  0  0  0  0  0
  152.2422  141.8245  159.6710 C   0  0  0  0  0  0  0  0  0  0  0  0
  152.9423  143.0015  160.3693 C   0  0  0  0  0  0  0  0  0  0  0  0
  152.1319  144.2991  160.2255 C   0  0  0  0  0  0  0  0  0  0  0  0
  151.8533  144.6165  158.7483 C   0  0  0  0  0  0  0  0  0  0  0  0
  151.1489  143.4422  158.0492 C   0  0  0  0  0  0  0  0  0  0  0  0
  148.2362  134.8522  160.5063 C   0  0  0  0  0  0  0  0  0  0  0  0
  146.6426  132.7620  162.7296 H   0  0  0  0  0  0  0  0  0  0  0  0
  148.1504  132.4124  161.8791 H   0  0  0  0  0  0  0  0  0  0  0  0
  146.6301  132.5092  160.9803 H   0  0  0  0  0  0  0  0  0  0  0  0
  146.2151  135.0867  163.2470 H   0  0  0  0  0  0  0  0  0  0  0  0
  145.6986  137.4367  163.6440 H   0  0  0  0  0  0  0  0  0  0  0  0
  146.0867  138.6277  162.4001 H   0  0  0  0  0  0  0  0  0  0  0  0
  147.2664  138.2531  163.6637 H   0  0  0  0  0  0  0  0  0  0  0  0
  149.8670  135.8215  158.8719 H   0  0  0  0  0  0  0  0  0  0  0  0
  150.7930  136.8176  157.4538 H   0  0  0  0  0  0  0  0  0  0  0  0
  151.1192  138.4288  155.8085 H   0  0  0  0  0  0  0  0  0  0  0  0
  149.7872  139.3481  156.4725 H   0  0  0  0  0  0  0  0  0  0  0  0
  150.2824  141.2498  157.2391 H   0  0  0  0  0  0  0  0  0  0  0  0
  152.9022  142.2649  157.6619 H   0  0  0  0  0  0  0  0  0  0  0  0
  151.3086  141.6017  160.1896 H   0  0  0  0  0  0  0  0  0  0  0  0
  152.8624  140.9314  159.7567 H   0  0  0  0  0  0  0  0  0  0  0  0
  153.0909  142.7715  161.4247 H   0  0  0  0  0  0  0  0  0  0  0  0
  153.9354  143.1414  159.9406 H   0  0  0  0  0  0  0  0  0  0  0  0
  151.1881  144.2027  160.7637 H   0  0  0  0  0  0  0  0  0  0  0  0
  152.6695  145.1267  160.6891 H   0  0  0  0  0  0  0  0  0  0  0  0
  151.2418  145.5157  158.6706 H   0  0  0  0  0  0  0  0  0  0  0  0
  152.7922  144.8358  158.2384 H   0  0  0  0  0  0  0  0  0  0  0  0
  150.9997  143.6798  156.9952 H   0  0  0  0  0  0  0  0  0  0  0  0
  150.1549  143.3121  158.4801 H   0  0  0  0  0  0  0  0  0  0  0  0
  148.6959  134.1293  159.8476 H   0  0  0  0  0  0  0  0  0  0  0  0
  1  2  1  0  0  0  0
  1 23  1  0  0  0  0
  1 24  1  0  0  0  0
  1 25  1  0  0  0  0
  2 22  1  0  0  0  0
  2  3  2  0  0  0  0
  3  4  1  0  0  0  0
  3 26  1  0  0  0  0
  4  5  1  0  0  0  0
  4  6  2  0  0  0  0
  5 27  1  0  0  0  0
  5 28  1  0  0  0  0
  5 29  1  0  0  0  0
  6  7  1  0  0  0  0
  7  8  1  0  0  0  0
  7 22  2  0  0  0  0
  8  9  1  0  0  0  0
  8 30  1  0  0  0  0
  9 10  2  0  0  0  0
  9 11  1  0  0  0  0
 11 12  1  0  0  0  0
 11 31  1  0  0  0  0
 12 13  1  0  0  0  0
 12 32  1  0  0  0  0
 12 33  1  0  0  0  0
 13 14  2  0  0  0  0
 13 15  1  0  0  0  0
 15 16  1  0  0  0  0
 15 34  1  0  0  0  0
 16 21  1  0  0  0  0
 16 17  1  0  0  0  0
 16 35  1  0  0  0  0
 17 18  1  0  0  0  0
 17 36  1  0  0  0  0
 17 37  1  0  0  0  0
 18 19  1  0  0  0  0
 18 38  1  0  0  0  0
 18 39  1  0  0  0  0
 19 20  1  0  0  0  0
 19 40  1  0  0  0  0
 19 41  1  0  0  0  0
 20 21  1  0  0  0  0
 20 42  1  0  0  0  0
 20 43  1  0  0  0  0
 21 44  1  0  0  0  0
 21 45  1  0  0  0  0
 22 46  1  0  0  0  0
M  END
> <s_m_source_file>
AV-unprocessed.smi

> <i_m_source_file_index>
2286

> <i_lp_mmshare_version>
43012

> <i_f3d_flags>
0

> <s_epik_input>
W0NIM11jMVtjSF1jKFtDSDNdKW5jKFtjSF0xKVtOSF1DKD1PKVtOSF1bQ0gyXUMoPU8pW05IXVtDSF0yW0NIMl1bQ0gyXVtDSDJdW0NIMl1bQ0gyXTI=

> <s_epik_cmdline>
J2VwaWtfcHl0aG9uJywgJy1waCcsICc3LjAnLCAnLXRuJywgJzgnLCAnLW1hJywgJzIwMCcsICctbWV0YWxfYmluZGluZycsICctaW1hZScsICc8aW5maWxlLm1hZT4nLCAnLW9tYWUnLCAnPG91dGZpbGUubWFlPic=

> <r_lp_tautomer_probability>
1

> <r_epik_Ionization_Penalty>
0.000219548

> <r_epik_Ionization_Penalty_Charging>
0

> <r_epik_Ionization_Penalty_Neutral>
0.000219548

> <r_epik_State_Penalty>
-0

> <r_epik_Charging_Adjusted_Penalty>
0

> <i_epik_Tot_Q>
0

> <i_epik_Tot_abs_Q>
0

> <r_epik_Metal_State_Penalty>
-0

> <b_epik_Metal_Only>
0

> <s_lp_Force_Field>
OPLS_2005

> <r_lp_Energy>
6.54337

> <b_lp_Chiralities_Consistent>
1

> <s_lp_Variant>
AV-unprocessed.smi:2286-1

> <Gold.Version>
5.8.1

> <Gold.Id.Protein>
6NUR|6NUR_protein|mol2

> <Gold.PLP.Fitness>
50.3169

> <Gold.PLP.PLP>
-42.4699

> <Gold.PLP.part.hbond>
-4.3740

> <Gold.PLP.part.metal>
0.0000

> <Gold.PLP.part.buried>
-2.9014

> <Gold.PLP.part.nonpolar>
-35.5099

> <Gold.PLP.part.repulsive>
0.2775

> <Gold.PLP.ligand.clash>
0.0000

> <Gold.PLP.ligand.torsion>
0.2441

> <Gold.PLP.Chemscore.Hbond>
2.7760

> <Gold.PLP.Chemscore.CHOScore>
0.0000

> <Gold.PLP.Chemscore.Metal>
0.0000

> <Gold.Chemscore.Hbonds>
donor molecule, donor type, donor heavy atom, donor atom, acceptor molecule, acceptor atom, score
      P1  H  6931  6943       L1     6  0.98
      P1  H  6934  6947       L1     6  0.78
      P1  H  7997  8009       L1    14  0.99

> <Gold.PLP.Chemscore.Internal.Correction>
0.0072

> <Gold.Rescore>
     Score         DG    S(hbond)    S(metal)    S(lipo)     H(rot)  DE(clash)    DE(int)     intcor
     18.93     -21.78       1.75        0.00     121.76       1.48       1.30       1.55       ----

> <Gold.Chemscore.Fitness>
18.9317

> <Gold.Chemscore.DG>
-21.7809

> <Gold.Chemscore.ZeroCoef>
-5.4800

> <Gold.Chemscore.Hbond>
1.7534

> <Gold.Chemscore.Metal>
0.0000

> <Gold.Chemscore.Lipo>
121.7582

> <Gold.Chemscore.Internal_Hbond>
0.0000

> <Gold.Chemscore.DEClash>
1.2997

> <Gold.Chemscore.DEInternal>
1.5495

> <Gold.Chemscore.Rot>
1.4849

> <Gold.Chemscore.Internal.Correction>
   9.000000E+99

> <Gold.Chemscore.Hbonds>
donor molecule, donor type, donor heavy atom, donor atom, acceptor molecule, acceptor atom, score
      P1  H  6931  6943       L1     6  0.37
      P1  H  6934  6947       L1     6  0.19
      P1  H  7997  8009       L1    14  0.88

> <Gold.Chemscore.Hbond.Weighted>
-5.8564

> <Gold.Chemscore.Metal.Weighted>
-0.0000

> <Gold.Chemscore.Lipo.Weighted>
-14.2457

> <Gold.Chemscore.Internal_Hbond.Weighted>
0.0000

> <Gold.Chemscore.DEClash.Weighted>
1.2997

> <Gold.Chemscore.DEInternal.Weighted>
1.5495

> <Gold.Chemscore.Rot.Weighted>
3.8012

> <Gold.Chemscore.Internal.Correction.Weighted>
   9.000000E+99

> <Gold.Protein.RotatedTorsions>
[ 6907 6896 6895 6894 ] final  -58.79 input  -60.11 | X-H torsion
[ 7974 7965 7964 7962 ] final -155.00 input  175.53 | X-H torsion
[ 8008 7997 7996 7995 ] final  177.25 input   59.86 | X-H torsion
[ 10167 10162 10161 10158 ] final  -11.12 input  -65.29 | X-H torsion
[ 10718 10713 10712 10709 ] final  123.25 input   66.30 | X-H torsion
[ 10763 10752 10751 10750 ] final   72.41 input  -60.55 | X-H torsion
[ 11005 11000 10999 10996 ] final  172.41 input  -57.11 | X-H torsion

> <Gold.Protein.ActiveResidues>
 VAL166  LYS551  ARG553  GLY616  TRP617  ASP618  TYR619  PRO620  LYS621  CYS622 
 ASP623  PHE694  ASN695  SER759  ASP760  ASP761  ALA762  ILE779  LEU786  VAL792 
 PHE793  MET794  SER795  GLU796  ALA797  LYS798  CYS799  TRP800  GLU811  SER814 

> <Gold.Protein.RotatedAtoms>
  150.7979  134.7052  159.6572 H   0  0  0  0  0  0  0  0  0  0  0  0  # atno 6907 bound_to 6896
  152.4094  134.6148  160.0045 H   0  0  0  0  0  0  0  0  0  0  0  0  # atno 6908 bound_to 6896
  151.6396  133.3290  159.3163 H   0  0  0  0  0  0  0  0  0  0  0  0  # atno 6909 bound_to 6896
  144.7661  140.4310  143.5941 H   0  0  0  0  0  0  0  0  0  0  0  0  # atno 7974 bound_to 7965
  156.0677  140.1363  156.9866 H   0  0  0  0  0  0  0  0  0  0  0  0  # atno 8008 bound_to 7997
  154.4515  140.0978  156.6683 H   0  0  0  0  0  0  0  0  0  0  0  0  # atno 8009 bound_to 7997
  155.5278  140.3458  155.4422 H   0  0  0  0  0  0  0  0  0  0  0  0  # atno 8010 bound_to 7997
  140.7131  143.5674  150.9130 H   0  0  0  0  0  0  0  0  0  0  0  0  # atno 10167 bound_to 10162
  157.5679  131.1085  150.8420 H   0  0  0  0  0  0  0  0  0  0  0  0  # atno 10718 bound_to 10713
  153.0457  135.5101  154.7739 H   0  0  0  0  0  0  0  0  0  0  0  0  # atno 10763 bound_to 10752
  154.6641  135.2943  154.9830 H   0  0  0  0  0  0  0  0  0  0  0  0  # atno 10764 bound_to 10752
  154.0671  135.6683  153.4872 H   0  0  0  0  0  0  0  0  0  0  0  0  # atno 10765 bound_to 10752
  140.3294  134.7370  157.4123 H   0  0  0  0  0  0  0  0  0  0  0  0  # atno 11005 bound_to 11000
  145.6465  139.1558  143.2886 LP  0  0  0  0  0  0  0  0  0  0  0  0  # atno 17320 bound_to 7965
  146.1770  140.6557  142.9207 LP  0  0  0  0  0  0  0  0  0  0  0  0  # atno 17321 bound_to 7965
  139.9400  143.6393  152.3056 LP  0  0  0  0  0  0  0  0  0  0  0  0  # atno 17342 bound_to 10162
  139.6874  144.7650  151.1498 LP  0  0  0  0  0  0  0  0  0  0  0  0  # atno 17343 bound_to 10162
  156.8900  130.5209  149.5286 LP  0  0  0  0  0  0  0  0  0  0  0  0  # atno 17370 bound_to 10713
  156.0726  130.5756  150.9413 LP  0  0  0  0  0  0  0  0  0  0  0  0  # atno 17371 bound_to 10713
  140.0873  134.5649  155.8479 LP  0  0  0  0  0  0  0  0  0  0  0  0  # atno 17394 bound_to 11000
  141.2067  133.6657  156.6259 LP  0  0  0  0  0  0  0  0  0  0  0  0  # atno 17395 bound_to 11000

$$$$
