AV-unprocessed.smi:2482|AV-procd|sdf|9780|dock10
  -GOLD-   2272013423D 1   1.00000     0.00000
 Structure written by MMmdl.
 34 35  0  0  0  0  0  0  0  0  1 V2000
  152.1782  145.0900  160.0253 C   0  0  0  0  0  0  0  0  0  0  0  0
  152.4920  143.6245  160.2619 C   0  0  0  0  0  0  0  0  0  0  0  0
  152.8166  143.2935  161.5307 N   0  0  0  0  0  0  0  0  0  0  0  0
  153.1123  142.0044  161.7945 C   0  0  0  0  0  0  0  0  0  0  0  0
  153.0935  140.9898  160.8187 C   0  0  0  0  0  0  0  0  0  0  0  0
  152.7377  141.3299  159.4916 C   0  0  0  0  0  0  0  0  0  0  0  0
  152.7079  140.3902  158.4245 N   0  0  0  0  0  0  0  0  0  0  0  0
  152.8738  139.0549  158.4659 C   0  0  0  0  0  0  0  0  0  0  0  0
  153.0976  138.4138  159.4929 O   0  0  0  0  0  0  0  0  0  0  0  0
  152.7685  138.3320  157.1152 C   0  0  1  0  0  0  0  0  0  0  0  0
  151.5320  137.4085  157.0209 C   0  0  0  0  0  0  0  0  0  0  0  0
  151.4181  136.7873  155.7072 N   0  0  0  0  0  0  0  0  0  0  0  0
  150.2516  135.9220  155.6227 C   0  0  0  0  0  0  0  0  0  0  0  0
  151.3991  137.8171  154.6776 C   0  0  0  0  0  0  0  0  0  0  0  0
  152.6304  138.7334  154.7708 C   0  0  0  0  0  0  0  0  0  0  0  0
  152.6994  139.3066  156.0727 O   0  0  0  0  0  0  0  0  0  0  0  0
  152.4433  142.6840  159.2062 C   0  0  0  0  0  0  0  0  0  0  0  0
  152.0253  143.1801  157.5999 Cl  0  0  0  0  0  0  0  0  0  0  0  0
  151.1617  145.2040  159.6484 H   0  0  0  0  0  0  0  0  0  0  0  0
  152.8676  145.5128  159.2941 H   0  0  0  0  0  0  0  0  0  0  0  0
  152.2634  145.6720  160.9440 H   0  0  0  0  0  0  0  0  0  0  0  0
  153.3798  141.7746  162.8152 H   0  0  0  0  0  0  0  0  0  0  0  0
  153.3629  139.9847  161.1032 H   0  0  0  0  0  0  0  0  0  0  0  0
  152.4461  140.7680  157.5250 H   0  0  0  0  0  0  0  0  0  0  0  0
  153.6771  137.7410  156.9869 H   0  0  0  0  0  0  0  0  0  0  0  0
  151.5953  136.6311  157.7836 H   0  0  0  0  0  0  0  0  0  0  0  0
  150.6289  137.9829  157.2356 H   0  0  0  0  0  0  0  0  0  0  0  0
  150.2002  135.4371  154.6473 H   0  0  0  0  0  0  0  0  0  0  0  0
  149.3301  136.4866  155.7706 H   0  0  0  0  0  0  0  0  0  0  0  0
  150.2956  135.1392  156.3806 H   0  0  0  0  0  0  0  0  0  0  0  0
  151.3642  137.3541  153.6908 H   0  0  0  0  0  0  0  0  0  0  0  0
  150.4941  138.4191  154.7730 H   0  0  0  0  0  0  0  0  0  0  0  0
  153.5448  138.1760  154.5624 H   0  0  0  0  0  0  0  0  0  0  0  0
  152.5660  139.5325  154.0322 H   0  0  0  0  0  0  0  0  0  0  0  0
  1  2  1  0  0  0  0
  1 19  1  0  0  0  0
  1 20  1  0  0  0  0
  1 21  1  0  0  0  0
  2 17  1  0  0  0  0
  2  3  2  0  0  0  0
  3  4  1  0  0  0  0
  4  5  2  0  0  0  0
  4 22  1  0  0  0  0
  5  6  1  0  0  0  0
  5 23  1  0  0  0  0
  6  7  1  0  0  0  0
  6 17  2  0  0  0  0
  7  8  1  0  0  0  0
  7 24  1  0  0  0  0
  8  9  2  0  0  0  0
  8 10  1  0  0  0  0
 10 16  1  0  0  0  0
 10 11  1  0  0  0  0
 10 25  1  0  0  0  0
 11 12  1  0  0  0  0
 11 26  1  0  0  0  0
 11 27  1  0  0  0  0
 12 13  1  0  0  0  0
 12 14  1  0  0  0  0
 13 28  1  0  0  0  0
 13 29  1  0  0  0  0
 13 30  1  0  0  0  0
 14 15  1  0  0  0  0
 14 31  1  0  0  0  0
 14 32  1  0  0  0  0
 15 16  1  0  0  0  0
 15 33  1  0  0  0  0
 15 34  1  0  0  0  0
 17 18  1  0  0  0  0
M  END
> <s_m_source_file>
AV-unprocessed.smi

> <i_m_source_file_index>
2482

> <i_lp_mmshare_version>
43012

> <i_f3d_flags>
0

> <s_epik_input>
W0NIM11jMW5bY0hdW2NIXWMoYzFDbClbTkhdQyg9TylbQ0BASF0yW0NIMl1OKFtDSDNdKVtDSDJdW0NIMl1PMg==

> <s_epik_cmdline>
J2VwaWtfcHl0aG9uJywgJy1waCcsICc3LjAnLCAnLXRuJywgJzgnLCAnLW1hJywgJzIwMCcsICctbWV0YWxfYmluZGluZycsICctaW1hZScsICc8aW5maWxlLm1hZT4nLCAnLW9tYWUnLCAnPG91dGZpbGUubWFlPic=

> <r_epik_Ionization_Penalty>
0.52656

> <r_epik_Ionization_Penalty_Charging>
0

> <r_epik_Ionization_Penalty_Neutral>
0.52656

> <r_epik_State_Penalty>
0.534659

> <r_epik_Charging_Adjusted_Penalty>
0.534659

> <i_epik_Tot_Q>
0

> <i_epik_Tot_abs_Q>
0

> <r_epik_Metal_State_Penalty>
0.54077

> <b_epik_Metal_Only>
0

> <s_lp_Force_Field>
OPLS_2005

> <r_lp_Energy>
25.124

> <b_lp_Chiralities_Consistent>
1

> <s_lp_Variant>
AV-unprocessed.smi:2482-6

> <Gold.Version>
5.8.1

> <Gold.Id.Protein>
6NUR|6NUR_protein|mol2

> <Gold.PLP.Fitness>
39.1555

> <Gold.PLP.PLP>
-35.3434

> <Gold.PLP.part.hbond>
-2.0000

> <Gold.PLP.part.metal>
0.0000

> <Gold.PLP.part.buried>
-4.9072

> <Gold.PLP.part.nonpolar>
-29.3590

> <Gold.PLP.part.repulsive>
0.2250

> <Gold.PLP.ligand.clash>
0.0000

> <Gold.PLP.ligand.torsion>
0.1199

> <Gold.PLP.Chemscore.Hbond>
1.3500

> <Gold.PLP.Chemscore.CHOScore>
0.0000

> <Gold.PLP.Chemscore.Metal>
0.0000

> <Gold.Chemscore.Hbonds>
donor molecule, donor type, donor heavy atom, donor atom, acceptor molecule, acceptor atom, score
      P1  H  7997  8010       L1    16  0.65
      P1  H 10752 10763       L1    12  0.37

> <Gold.PLP.Chemscore.Internal.Correction>
0.0020

> <Gold.Rescore>
     Score         DG    S(hbond)    S(metal)    S(lipo)     H(rot)  DE(clash)    DE(int)     intcor
     14.50     -15.88       0.24        0.00     103.82       1.00       0.01       1.37       ----

> <Gold.Chemscore.Fitness>
14.5017

> <Gold.Chemscore.DG>
-15.8772

> <Gold.Chemscore.ZeroCoef>
-5.4800

> <Gold.Chemscore.Hbond>
0.2426

> <Gold.Chemscore.Metal>
0.0000

> <Gold.Chemscore.Lipo>
103.8208

> <Gold.Chemscore.Internal_Hbond>
0.0000

> <Gold.Chemscore.DEClash>
0.0102

> <Gold.Chemscore.DEInternal>
1.3652

> <Gold.Chemscore.Rot>
1.0000

> <Gold.Chemscore.Internal.Correction>
   9.000000E+99

> <Gold.Chemscore.Hbonds>
donor molecule, donor type, donor heavy atom, donor atom, acceptor molecule, acceptor atom, score
      P1  H  7997  8010       L1    16  0.05
      P1  H 10752 10763       L1    12  0.06

> <Gold.Chemscore.Hbond.Weighted>
-0.8101

> <Gold.Chemscore.Metal.Weighted>
-0.0000

> <Gold.Chemscore.Lipo.Weighted>
-12.1470

> <Gold.Chemscore.Internal_Hbond.Weighted>
0.0000

> <Gold.Chemscore.DEClash.Weighted>
0.0102

> <Gold.Chemscore.DEInternal.Weighted>
1.3652

> <Gold.Chemscore.Rot.Weighted>
2.5600

> <Gold.Chemscore.Internal.Correction.Weighted>
   9.000000E+99

> <Gold.Protein.RotatedTorsions>
[ 6907 6896 6895 6894 ] final  163.54 input  -60.11 | X-H torsion
[ 7974 7965 7964 7962 ] final -138.32 input  175.53 | X-H torsion
[ 8008 7997 7996 7995 ] final   62.20 input   59.86 | X-H torsion
[ 10167 10162 10161 10158 ] final -177.68 input  -65.29 | X-H torsion
[ 10718 10713 10712 10709 ] final -163.91 input   66.30 | X-H torsion
[ 10763 10752 10751 10750 ] final   92.58 input  -60.55 | X-H torsion
[ 11005 11000 10999 10996 ] final  -95.33 input  -57.11 | X-H torsion

> <Gold.Protein.ActiveResidues>
 VAL166  LYS551  ARG553  GLY616  TRP617  ASP618  TYR619  PRO620  LYS621  CYS622 
 ASP623  PHE694  ASN695  SER759  ASP760  ASP761  ALA762  ILE779  LEU786  VAL792 
 PHE793  MET794  SER795  GLU796  ALA797  LYS798  CYS799  TRP800  GLU811  SER814 

> <Gold.Protein.RotatedAtoms>
  151.9236  133.3592  159.3905 H   0  0  0  0  0  0  0  0  0  0  0  0  # atno 6907 bound_to 6896
  150.7032  134.4610  159.5390 H   0  0  0  0  0  0  0  0  0  0  0  0  # atno 6908 bound_to 6896
  152.2237  134.8388  160.0533 H   0  0  0  0  0  0  0  0  0  0  0  0  # atno 6909 bound_to 6896
  144.8768  140.6449  143.5231 H   0  0  0  0  0  0  0  0  0  0  0  0  # atno 7974 bound_to 7965
  155.6105  140.3495  155.4621 H   0  0  0  0  0  0  0  0  0  0  0  0  # atno 8008 bound_to 7997
  156.0158  140.1243  157.0432 H   0  0  0  0  0  0  0  0  0  0  0  0  # atno 8009 bound_to 7997
  154.4297  140.1072  156.5879 H   0  0  0  0  0  0  0  0  0  0  0  0  # atno 8010 bound_to 7997
  139.5468  144.2213  152.1003 H   0  0  0  0  0  0  0  0  0  0  0  0  # atno 10167 bound_to 10162
  156.6315  130.8931  151.2978 H   0  0  0  0  0  0  0  0  0  0  0  0  # atno 10718 bound_to 10713
  153.2208  135.4356  155.0486 H   0  0  0  0  0  0  0  0  0  0  0  0  # atno 10763 bound_to 10752
  154.8249  135.3355  154.6930 H   0  0  0  0  0  0  0  0  0  0  0  0  # atno 10764 bound_to 10752
  153.7363  135.7007  153.5033 H   0  0  0  0  0  0  0  0  0  0  0  0  # atno 10765 bound_to 10752
  141.1445  133.8019  157.0421 H   0  0  0  0  0  0  0  0  0  0  0  0  # atno 11005 bound_to 11000
  145.4027  139.1594  143.4169 LP  0  0  0  0  0  0  0  0  0  0  0  0  # atno 17320 bound_to 7965
  146.2968  140.4125  142.8719 LP  0  0  0  0  0  0  0  0  0  0  0  0  # atno 17321 bound_to 7965
  140.1701  144.4943  150.6584 LP  0  0  0  0  0  0  0  0  0  0  0  0  # atno 17342 bound_to 10162
  140.6719  143.2289  151.5604 LP  0  0  0  0  0  0  0  0  0  0  0  0  # atno 17343 bound_to 10162
  157.7198  130.9544  150.1395 LP  0  0  0  0  0  0  0  0  0  0  0  0  # atno 17370 bound_to 10713
  156.2231  130.3675  149.8533 LP  0  0  0  0  0  0  0  0  0  0  0  0  # atno 17371 bound_to 10713
  140.0686  134.9715  157.1429 LP  0  0  0  0  0  0  0  0  0  0  0  0  # atno 17394 bound_to 11000
  140.3743  134.2356  155.7175 LP  0  0  0  0  0  0  0  0  0  0  0  0  # atno 17395 bound_to 11000

$$$$
