#       Name:                AV-unprocessed.smi:2492
#       Creating user name   scv26
#       Creation time:       Fri Mar 27 13:44:27 2020


#       File generated by GOLD software.
#

@<TRIPOS>MOLECULE
AV-unprocessed.smi:2492
    39    40     1
SMALL
NO_CHARGES


@<TRIPOS>ATOM
      1 ****        -4.7817  -3.1509   1.4094 C.3            1 S1                 0.0000
      2 ****        -3.2131  -2.3720   1.8760 S.3            1 S1                 0.0000
      3 ****        -2.9752  -1.2520   0.4660 C.3            1 S1                 0.0000
      4 ****        -2.6211  -1.9814  -0.8290 C.3            1 S1                 0.0000
      5 ****        -1.9873  -0.9001  -1.7045 C.3            1 S1                 0.0000
      6 ****        -1.3000   0.0809  -0.7371 C.3            1 S1                 0.0000
      7 ****         0.1528  -0.0313  -0.8369 N.am           1 S1                 0.0000
      8 ****         1.0252   0.8846  -0.3918 C.2            1 S1                 0.0000
      9 ****         0.6870   1.9345   0.1555 O.2            1 S1                 0.0000
     10 ****         2.2932   0.5022  -0.6187 N.am           1 S1                 0.0000
     11 ****         3.4813   1.2045  -0.2939 C.2            1 S1                 0.0000
     12 ****         3.5628   2.4014   0.2877 N.2            1 S1                 0.0000
     13 ****         4.9129   2.5674   0.3445 C.2            1 S1                 0.0000
     14 ****         5.5550   3.7793   0.9280 C.3            1 S1                 0.0000
     15 ****         5.6425   1.5735  -0.1493 N.2            1 S1                 0.0000
     16 ****         4.6811   0.6497  -0.5855 O.3            1 S1                 0.0000
     17 ****        -1.8060  -0.2851   0.6736 C.3            1 S1                 0.0000
     18 ****        -5.0961  -3.8520   2.1823 H              1 S1                 0.0000
     19 ****        -4.6767  -3.6978   0.4726 H              1 S1                 0.0000
     20 ****        -5.5606  -2.3978   1.2890 H              1 S1                 0.0000
     21 ****        -3.8876  -0.6729   0.3158 H              1 S1                 0.0000
     22 ****        -1.8897  -2.7658  -0.6291 H              1 S1                 0.0000
     23 ****        -3.4866  -2.4439  -1.3040 H              1 S1                 0.0000
     24 ****        -1.3114  -1.3215  -2.4498 H              1 S1                 0.0000
     25 ****        -2.7734  -0.3743  -2.2485 H              1 S1                 0.0000
     26 ****        -1.6044   1.0973  -0.9945 H              1 S1                 0.0000
     27 ****         0.5161  -0.8667  -1.2722 H              1 S1                 0.0000
     28 ****         2.4246  -0.3893  -1.0731 H              1 S1                 0.0000
     29 ****         6.4152   4.0823   0.3300 H              1 S1                 0.0000
     30 ****         5.8928   3.5730   1.9437 H              1 S1                 0.0000
     31 ****         4.8496   4.6102   0.9601 H              1 S1                 0.0000
     32 ****        -2.1021   0.5958   1.2441 H              1 S1                 0.0000
     33 ****        -1.0177  -0.7829   1.2412 H              1 S1                 0.0000
     34 ****        -0.2828   2.1397   0.2875 LP             1 S1                 0.0000
     35 ****         1.3821   2.5820   0.4679 LP             1 S1                 0.0000
     36 ****         2.8324   3.0103   0.5973 LP             1 S1                 0.0000
     37 ****         6.6386   1.5011  -0.1984 LP             1 S1                 0.0000
     38 ****         4.7649   0.4980  -1.5704 LP             1 S1                 0.0000
     39 ****         4.7894  -0.2199  -0.1039 LP             1 S1                 0.0000
@<TRIPOS>BOND
    1    1    2 1     
    2    1   18 1     
    3    1   19 1     
    4    1   20 1     
    5    2    3 1     
    6    3   17 1     
    7    3    4 1     
    8    3   21 1     
    9    4    5 1     
   10    4   22 1     
   11    4   23 1     
   12    5    6 1     
   13    5   24 1     
   14    5   25 1     
   15    6    7 1     
   16    6   17 1     
   17    6   26 1     
   18    7    8 am    
   19    7   27 1     
   20    8    9 2     
   21    8   10 am    
   22   10   11 1     
   23   10   28 1     
   24   11   16 1     
   25   11   12 2     
   26   12   13 1     
   27   13   14 1     
   28   13   15 2     
   29   14   29 1     
   30   14   30 1     
   31   14   31 1     
   32   15   16 1     
   33   17   32 1     
   34   17   33 1     
   35    9   34 1     
   36    9   35 1     
   37   12   36 1     
   38   15   37 1     
   39   16   38 1     
   40   16   39 1     
@<TRIPOS>SUBSTRUCTURE
      1 S1             1
@<TRIPOS>SET
LONE_PAIRS      STATIC     ATOMS    <user>   **** ""
6 34 35 36 37 38 39
DONOR_HYDROGENS      STATIC     ATOMS    <user>   **** ""
2 27 28
ATOM$BLUE        STATIC     ATOMS    COLORGROUP SYSTEM
6 34 35 36 37 38 39
ATOM$RED        STATIC     ATOMS    COLORGROUP SYSTEM
2 27 28
