#       Name:                AV-unprocessed.smi:306
#       Creating user name   scv26
#       Creation time:       Thu Mar 26 22:18:12 2020


#       File generated by GOLD software.
#

@<TRIPOS>MOLECULE
AV-unprocessed.smi:306
    55    57     1
SMALL
NO_CHARGES


@<TRIPOS>ATOM
      1 ****        -4.5641   2.8173  -0.0661 C.3            1 S1                 0.0000
      2 ****        -4.3465   1.8029  -1.1947 C.3            1 S1                 0.0000
      3 ****        -3.2194   0.8564  -0.8924 C.2            1 S1                 0.0000
      4 ****        -3.3004  -0.4866  -0.4291 C.2            1 S1                 0.0000
      5 ****        -1.9983  -0.8853  -0.3164 C.2            1 S1                 0.0000
      6 ****        -1.4283  -2.1989   0.1196 C.3            1 S1                 0.0000
      7 ****        -1.1511  -3.1540  -1.0462 C.3            1 S1                 0.0000
      8 ****        -1.2180   0.1924  -0.6954 N.pl3          1 S1                 0.0000
      9 ****         0.1871   0.2760  -0.7486 C.2            1 S1                 0.0000
     10 ****         0.9245  -0.2367  -1.7363 N.2            1 S1                 0.0000
     11 ****         2.2188   0.0573  -1.3319 C.2            1 S1                 0.0000
     12 ****         2.2203   0.7154  -0.1434 C.2            1 S1                 0.0000
     13 ****         3.4600   1.1213   0.5318 C.2            1 S1                 0.0000
     14 ****         3.4856   1.7055   1.6128 O.2            1 S1                 0.0000
     15 ****         4.5758   0.7778  -0.1566 N.am           1 S1                 0.0000
     16 ****         4.6452   0.1209  -1.3546 C.2            1 S1                 0.0000
     17 ****         5.7411  -0.1283  -1.8566 O.2            1 S1                 0.0000
     18 ****         3.4651  -0.2400  -1.9534 N.am           1 S1                 0.0000
     19 ****         3.4794  -0.9473  -3.2353 C.3            1 S1                 0.0000
     20 ****         0.8897   0.8759   0.2443 N.pl3          1 S1                 0.0000
     21 ****         0.3626   1.5172   1.4452 C.3            1 S1                 0.0000
     22 ****         0.0868   0.5087   2.5692 C.3            1 S1                 0.0000
     23 ****         1.2533  -0.2538   2.8332 O.3            1 S1                 0.0000
     24 ****         1.0486  -1.2302   3.8381 C.3            1 S1                 0.0000
     25 ****        -1.9681   1.2561  -1.0520 N.2            1 S1                 0.0000
     26 ****         5.4570   1.0321   0.2652 H              1 S1                 0.0000
     27 ****        -5.3890   3.4894  -0.3030 H              1 S1                 0.0000
     28 ****        -3.6740   3.4266   0.0941 H              1 S1                 0.0000
     29 ****        -4.8015   2.3160   0.8726 H              1 S1                 0.0000
     30 ****        -5.2670   1.2412  -1.3571 H              1 S1                 0.0000
     31 ****        -4.1491   2.3335  -2.1268 H              1 S1                 0.0000
     32 ****        -4.1828  -1.0706  -0.2135 H              1 S1                 0.0000
     33 ****        -0.5069  -2.0378   0.6804 H              1 S1                 0.0000
     34 ****        -2.1190  -2.6756   0.8155 H              1 S1                 0.0000
     35 ****        -0.7457  -4.0992  -0.6854 H              1 S1                 0.0000
     36 ****        -0.4307  -2.7293  -1.7452 H              1 S1                 0.0000
     37 ****        -2.0647  -3.3725  -1.5996 H              1 S1                 0.0000
     38 ****         4.0708  -0.4025  -3.9725 H              1 S1                 0.0000
     39 ****         2.4816  -1.0732  -3.6550 H              1 S1                 0.0000
     40 ****         3.9140  -1.9403  -3.1157 H              1 S1                 0.0000
     41 ****         1.0596   2.2815   1.7838 H              1 S1                 0.0000
     42 ****        -0.5525   2.0526   1.1927 H              1 S1                 0.0000
     43 ****        -0.2272   1.0373   3.4702 H              1 S1                 0.0000
     44 ****        -0.7319  -0.1521   2.2822 H              1 S1                 0.0000
     45 ****         1.9754  -1.7771   4.0105 H              1 S1                 0.0000
     46 ****         0.2842  -1.9483   3.5392 H              1 S1                 0.0000
     47 ****         0.7487  -0.7699   4.7804 H              1 S1                 0.0000
     48 ****         0.6203  -0.7133  -2.5611 LP             1 S1                 0.0000
     49 ****         2.6306   1.9292   2.0806 LP             1 S1                 0.0000
     50 ****         4.3615   1.9570   2.0246 LP             1 S1                 0.0000
     51 ****         6.5802   0.1494  -1.3887 LP             1 S1                 0.0000
     52 ****         5.7924  -0.6085  -2.7322 LP             1 S1                 0.0000
     53 ****         1.9801   0.3651   3.1311 LP             1 S1                 0.0000
     54 ****         1.5324  -0.7147   1.9908 LP             1 S1                 0.0000
     55 ****        -1.6486   2.1496  -1.3674 LP             1 S1                 0.0000
@<TRIPOS>BOND
    1    1    2 1     
    2    1   27 1     
    3    1   28 1     
    4    1   29 1     
    5    2    3 1     
    6    2   30 1     
    7    2   31 1     
    8    3   25 2     
    9    3    4 1     
   10    4    5 2     
   11    4   32 1     
   12    5    6 1     
   13    5    8 1     
   14    6    7 1     
   15    6   33 1     
   16    6   34 1     
   17    7   35 1     
   18    7   36 1     
   19    7   37 1     
   20    8    9 1     
   21    8   25 1     
   22    9   20 1     
   23    9   10 2     
   24   10   11 1     
   25   11   18 1     
   26   11   12 2     
   27   12   13 1     
   28   12   20 1     
   29   13   14 2     
   30   13   15 1     
   31   15   26 1     
   32   15   16 1     
   33   16   17 2     
   34   16   18 1     
   35   18   19 1     
   36   19   38 1     
   37   19   39 1     
   38   19   40 1     
   39   20   21 1     
   40   21   22 1     
   41   21   41 1     
   42   21   42 1     
   43   22   23 1     
   44   22   43 1     
   45   22   44 1     
   46   23   24 1     
   47   24   45 1     
   48   24   46 1     
   49   24   47 1     
   50   10   48 1     
   51   14   49 1     
   52   14   50 1     
   53   17   51 1     
   54   17   52 1     
   55   23   53 1     
   56   23   54 1     
   57   25   55 1     
@<TRIPOS>SUBSTRUCTURE
      1 S1             1
@<TRIPOS>SET
LONE_PAIRS      STATIC     ATOMS    <user>   **** ""
8 48 49 50 51 52 53 54 55
DONOR_HYDROGENS      STATIC     ATOMS    <user>   **** ""
1 26
ATOM$BLUE        STATIC     ATOMS    COLORGROUP SYSTEM
8 48 49 50 51 52 53 54 55
ATOM$RED        STATIC     ATOMS    COLORGROUP SYSTEM
1 26
