#       Name:                AV-unprocessed.smi:2822
#       Creating user name   scv26
#       Creation time:       Fri Mar 27 15:31:07 2020


#       File generated by GOLD software.
#

@<TRIPOS>MOLECULE
AV-unprocessed.smi:2822
    43    45     1
SMALL
NO_CHARGES


@<TRIPOS>ATOM
      1 ****        -5.1006   1.2159  -0.3578 Cl             1 S1                 0.0000
      2 ****        -4.2109   2.6983  -0.3451 C.ar           1 S1                 0.0000
      3 ****        -4.9113   3.9217  -0.3085 C.ar           1 S1                 0.0000
      4 ****        -4.2327   5.0884  -0.2980 N.pl3          1 S1                 1.0000
      5 ****        -2.8845   5.1479  -0.3205 C.ar           1 S1                 0.0000
      6 ****        -2.1284   3.9586  -0.3571 C.ar           1 S1                 0.0000
      7 ****        -2.7942   2.7071  -0.3706 C.ar           1 S1                 0.0000
      8 ****        -2.1014   1.4870  -0.4118 N.pl3          1 S1                 0.0000
      9 ****        -0.6544   1.4335  -0.2658 C.3            1 S1                 0.0000
     10 ****        -0.1381  -0.0125  -0.2940 C.3            1 S1                 0.0000
     11 ****         1.4004  -0.0683  -0.3307 C.3            1 S1                 0.0000
     12 ****         1.8732  -1.4717  -0.2856 N.4            1 S1                 1.0000
     13 ****         3.3529  -1.5743  -0.3587 C.3            1 S1                 0.0000
     14 ****         3.8044  -3.0431  -0.4049 C.3            1 S1                 0.0000
     15 ****         3.2555  -3.8216   0.7975 C.3            1 S1                 0.0000
     16 ****         1.7294  -3.6759   0.8661 C.3            1 S1                 0.0000
     17 ****         1.3092  -2.1927   0.8880 C.3            1 S1                 0.0000
     18 ****        -0.2248  -2.0444   0.9096 C.3            1 S1                 0.0000
     19 ****        -0.5792  -0.6674   0.8906 O.3            1 S1                 0.0000
     20 ****        -5.9884   4.0010  -0.2875 H              1 S1                 0.0000
     21 ****        -2.4533   6.1384  -0.3093 H              1 S1                 0.0000
     22 ****        -1.0510   4.0277  -0.3766 H              1 S1                 0.0000
     23 ****        -2.6243   0.6249  -0.3417 H              1 S1                 0.0000
     24 ****        -0.2035   1.9930  -1.0863 H              1 S1                 0.0000
     25 ****        -0.3579   1.9212   0.6637 H              1 S1                 0.0000
     26 ****        -0.5418  -0.5211  -1.1721 H              1 S1                 0.0000
     27 ****         1.7679   0.4090  -1.2401 H              1 S1                 0.0000
     28 ****         1.8179   0.4846   0.5125 H              1 S1                 0.0000
     29 ****         3.7120  -1.0544  -1.2477 H              1 S1                 0.0000
     30 ****         3.7971  -1.0737   0.5030 H              1 S1                 0.0000
     31 ****         3.4586  -3.5050  -1.3307 H              1 S1                 0.0000
     32 ****         4.8934  -3.0984  -0.4189 H              1 S1                 0.0000
     33 ****         3.5310  -4.8741   0.7235 H              1 S1                 0.0000
     34 ****         3.7046  -3.4449   1.7175 H              1 S1                 0.0000
     35 ****         1.2784  -4.1761   0.0078 H              1 S1                 0.0000
     36 ****         1.3517  -4.1855   1.7534 H              1 S1                 0.0000
     37 ****         1.7097  -1.7303   1.7921 H              1 S1                 0.0000
     38 ****        -0.6831  -2.5594   0.0634 H              1 S1                 0.0000
     39 ****        -0.6333  -2.4962   1.8140 H              1 S1                 0.0000
     40 ****         1.5089  -1.9286  -1.1095 H              1 S1                 0.0000
     41 ****        -4.7609   5.9611  -0.2720 H              1 S1                 0.0000
     42 ****        -1.5745  -0.5906   0.9489 LP             1 S1                 0.0000
     43 ****        -0.1632  -0.2173   1.6808 LP             1 S1                 0.0000
@<TRIPOS>BOND
    1    1    2 1     
    2    2    7 ar    
    3    2    3 ar    
    4    3    4 ar    
    5    3   20 1     
    6    4    5 ar    
    7    4   41 1     
    8    5    6 ar    
    9    5   21 1     
   10    6    7 ar    
   11    6   22 1     
   12    7    8 1     
   13    8    9 1     
   14    8   23 1     
   15    9   10 1     
   16    9   24 1     
   17    9   25 1     
   18   10   19 1     
   19   10   11 1     
   20   10   26 1     
   21   11   12 1     
   22   11   27 1     
   23   11   28 1     
   24   12   17 1     
   25   12   13 1     
   26   12   40 1     
   27   13   14 1     
   28   13   29 1     
   29   13   30 1     
   30   14   15 1     
   31   14   31 1     
   32   14   32 1     
   33   15   16 1     
   34   15   33 1     
   35   15   34 1     
   36   16   17 1     
   37   16   35 1     
   38   16   36 1     
   39   17   18 1     
   40   17   37 1     
   41   18   19 1     
   42   18   38 1     
   43   18   39 1     
   44   19   42 1     
   45   19   43 1     
@<TRIPOS>SUBSTRUCTURE
      1 S1             1
@<TRIPOS>SET
LONE_PAIRS      STATIC     ATOMS    <user>   **** ""
2 42 43
DONOR_HYDROGENS      STATIC     ATOMS    <user>   **** ""
3 41 23 40
ATOM$BLUE        STATIC     ATOMS    COLORGROUP SYSTEM
2 42 43
ATOM$RED        STATIC     ATOMS    COLORGROUP SYSTEM
3 41 23 40
