AV-unprocessed.smi:1448|AV-procd|sdf|5894|dock5
  -GOLD-   22720 5573D 1   1.00000     0.00000
 Structure written by MMmdl.
 49 50  0  0  0  0  0  0  0  0  2 V2000
  144.9532  130.3577  151.3357 C   0  0  0  0  0  0  0  0  0  0  0  0
  145.2030  131.8352  151.4128 C   0  0  0  0  0  0  0  0  0  0  0  0
  146.1721  132.5217  152.2007 C   0  0  0  0  0  0  0  0  0  0  0  0
  145.9503  133.8323  151.8766 C   0  0  0  0  0  0  0  0  0  0  0  0
  146.5884  134.9449  152.3278 N   0  0  0  0  0  0  0  0  0  0  0  0
  146.1678  135.8430  153.2353 C   0  0  0  0  0  0  0  0  0  0  0  0
  145.0978  135.7984  153.8416 O   0  0  0  0  0  0  0  0  0  0  0  0
  147.0646  136.8270  153.3955 N   0  0  0  0  0  0  0  0  0  0  0  0
  146.9367  137.9673  154.3045 C   0  0  0  0  0  0  0  0  0  0  0  0
  148.2220  138.8546  154.3777 C   0  0  0  0  0  0  0  0  0  0  0  0
  149.4267  137.9405  154.3693 N   0  3  0  0  0  0  0  0  0  0  0  0
  149.4540  136.8627  155.3911 C   0  0  0  0  0  0  0  0  0  0  0  0
  150.7453  138.6253  154.3144 C   0  0  0  0  0  0  0  0  0  0  0  0
  148.2641  139.8350  153.1657 C   0  0  0  0  0  0  0  0  0  0  0  0
  147.1508  140.9014  153.1791 C   0  0  0  0  0  0  0  0  0  0  0  0
  147.1318  141.6942  154.4925 C   0  0  0  0  0  0  0  0  0  0  0  0
  147.0384  140.7593  155.7049 C   0  0  0  0  0  0  0  0  0  0  0  0
  148.1744  139.7207  155.6815 C   0  0  0  0  0  0  0  0  0  0  0  0
  144.9234  133.8966  150.9613 N   0  0  0  0  0  0  0  0  0  0  0  0
  144.3312  135.0549  150.3211 C   0  0  0  0  0  0  0  0  0  0  0  0
  144.4632  132.6587  150.6790 N   0  0  0  0  0  0  0  0  0  0  0  0
  145.6577  129.8058  151.9580 H   0  0  0  0  0  0  0  0  0  0  0  0
  145.0591  129.9939  150.3134 H   0  0  0  0  0  0  0  0  0  0  0  0
  143.9471  130.1115  151.6760 H   0  0  0  0  0  0  0  0  0  0  0  0
  146.8984  132.1019  152.8800 H   0  0  0  0  0  0  0  0  0  0  0  0
  147.4898  135.1210  151.9090 H   0  0  0  0  0  0  0  0  0  0  0  0
  147.9164  136.7782  152.8552 H   0  0  0  0  0  0  0  0  0  0  0  0
  146.0598  138.5588  154.0421 H   0  0  0  0  0  0  0  0  0  0  0  0
  146.6887  137.5517  155.2789 H   0  0  0  0  0  0  0  0  0  0  0  0
  149.3711  137.2684  156.3999 H   0  0  0  0  0  0  0  0  0  0  0  0
  150.3868  136.3003  155.3347 H   0  0  0  0  0  0  0  0  0  0  0  0
  148.6563  136.1374  155.2328 H   0  0  0  0  0  0  0  0  0  0  0  0
  151.0019  139.0725  155.2753 H   0  0  0  0  0  0  0  0  0  0  0  0
  150.7841  139.4047  153.5558 H   0  0  0  0  0  0  0  0  0  0  0  0
  151.5287  137.9082  154.0669 H   0  0  0  0  0  0  0  0  0  0  0  0
  149.2260  140.3486  153.1457 H   0  0  0  0  0  0  0  0  0  0  0  0
  148.1929  139.2907  152.2239 H   0  0  0  0  0  0  0  0  0  0  0  0
  147.2939  141.5872  152.3434 H   0  0  0  0  0  0  0  0  0  0  0  0
  146.1792  140.4350  153.0164 H   0  0  0  0  0  0  0  0  0  0  0  0
  148.0382  142.2967  154.5658 H   0  0  0  0  0  0  0  0  0  0  0  0
  146.2958  142.3943  154.4939 H   0  0  0  0  0  0  0  0  0  0  0  0
  147.1019  141.3482  156.6205 H   0  0  0  0  0  0  0  0  0  0  0  0
  146.0639  140.2726  155.7333 H   0  0  0  0  0  0  0  0  0  0  0  0
  148.1128  139.0884  156.5677 H   0  0  0  0  0  0  0  0  0  0  0  0
  149.0916  140.2990  155.7897 H   0  0  0  0  0  0  0  0  0  0  0  0
  143.9960  135.7621  151.0799 H   0  0  0  0  0  0  0  0  0  0  0  0
  143.4762  134.7618  149.7105 H   0  0  0  0  0  0  0  0  0  0  0  0
  145.0717  135.5390  149.6840 H   0  0  0  0  0  0  0  0  0  0  0  0
  149.3574  137.4487  153.4896 H   0  0  0  0  0  0  0  0  0  0  0  0
  1  2  1  0  0  0  0
  1 22  1  0  0  0  0
  1 23  1  0  0  0  0
  1 24  1  0  0  0  0
  2 21  2  0  0  0  0
  2  3  1  0  0  0  0
  3  4  2  0  0  0  0
  3 25  1  0  0  0  0
  4  5  1  0  0  0  0
  4 19  1  0  0  0  0
  5  6  1  0  0  0  0
  5 26  1  0  0  0  0
  6  7  2  0  0  0  0
  6  8  1  0  0  0  0
  8  9  1  0  0  0  0
  8 27  1  0  0  0  0
  9 10  1  0  0  0  0
  9 28  1  0  0  0  0
  9 29  1  0  0  0  0
 10 18  1  0  0  0  0
 10 11  1  0  0  0  0
 10 14  1  0  0  0  0
 11 12  1  0  0  0  0
 11 13  1  0  0  0  0
 11 49  1  0  0  0  0
 12 30  1  0  0  0  0
 12 31  1  0  0  0  0
 12 32  1  0  0  0  0
 13 33  1  0  0  0  0
 13 34  1  0  0  0  0
 13 35  1  0  0  0  0
 14 15  1  0  0  0  0
 14 36  1  0  0  0  0
 14 37  1  0  0  0  0
 15 16  1  0  0  0  0
 15 38  1  0  0  0  0
 15 39  1  0  0  0  0
 16 17  1  0  0  0  0
 16 40  1  0  0  0  0
 16 41  1  0  0  0  0
 17 18  1  0  0  0  0
 17 42  1  0  0  0  0
 17 43  1  0  0  0  0
 18 44  1  0  0  0  0
 18 45  1  0  0  0  0
 19 20  1  0  0  0  0
 19 21  1  0  0  0  0
 20 46  1  0  0  0  0
 20 47  1  0  0  0  0
 20 48  1  0  0  0  0
M  CHG  1  11   1
M  END
> <s_m_source_file>
AV-unprocessed.smi

> <i_m_source_file_index>
1448

> <i_lp_mmshare_version>
43012

> <i_f3d_flags>
0

> <s_epik_input>
W0NIM11jMVtjSF1jKG4objEpW0NIM10pW05IXUMoPU8pW05IXVtDSDJdQzIoTihbQ0gzXSlbQ0gzXSlbQ0gyXVtDSDJdW0NIMl1bQ0gyXVtDSDJdMg==

> <s_epik_cmdline>
J2VwaWtfcHl0aG9uJywgJy1waCcsICc3LjAnLCAnLXRuJywgJzgnLCAnLW1hJywgJzIwMCcsICctbWV0YWxfYmluZGluZycsICctaW1hZScsICc8aW5maWxlLm1hZT4nLCAnLW9tYWUnLCAnPG91dGZpbGUubWFlPic=

> <r_lp_tautomer_probability>
1

> <r_epik_Ionization_Penalty>
0.00238996

> <r_epik_Ionization_Penalty_Charging>
0.00230992

> <r_epik_Ionization_Penalty_Neutral>
8.00361e-05

> <r_epik_State_Penalty>
0.00159337

> <r_epik_Charging_Adjusted_Penalty>
0.00390329

> <i_epik_Tot_Q>
1

> <i_epik_Tot_abs_Q>
1

> <r_epik_Metal_State_Penalty>
-0

> <b_epik_Metal_Only>
0

> <s_lp_Force_Field>
OPLS_2005

> <r_lp_Energy>
34.408

> <b_lp_Chiralities_Consistent>
1

> <s_lp_Variant>
AV-unprocessed.smi:1448-1

> <Gold.Version>
5.8.1

> <Gold.Id.Protein>
6NUR|6NUR_protein|mol2

> <Gold.PLP.Fitness>
36.7688

> <Gold.PLP.PLP>
-26.8535

> <Gold.PLP.part.hbond>
-2.9031

> <Gold.PLP.part.metal>
0.0000

> <Gold.PLP.part.buried>
-1.3387

> <Gold.PLP.part.nonpolar>
-23.6244

> <Gold.PLP.part.repulsive>
0.2202

> <Gold.PLP.ligand.clash>
0.0000

> <Gold.PLP.ligand.torsion>
1.0644

> <Gold.PLP.Chemscore.Hbond>
3.9600

> <Gold.PLP.Chemscore.CHOScore>
0.0000

> <Gold.PLP.Chemscore.Metal>
0.0000

> <Gold.Chemscore.Hbonds>
donor molecule, donor type, donor heavy atom, donor atom, acceptor molecule, acceptor atom, score
      L1  H     5    26       P1  7948  0.96
      L1  H     8    27       P1  7948  1.00
      L1  H    11    49       P1  7948  1.92

> <Gold.PLP.Chemscore.Internal.Correction>
0.1641

> <Gold.Rescore>
     Score         DG    S(hbond)    S(metal)    S(lipo)     H(rot)  DE(clash)    DE(int)     intcor
     17.08     -19.85       2.80        0.00      75.02       1.47       1.73       1.04       ----

> <Gold.Chemscore.Fitness>
17.0754

> <Gold.Chemscore.DG>
-19.8475

> <Gold.Chemscore.ZeroCoef>
-5.4800

> <Gold.Chemscore.Hbond>
2.8024

> <Gold.Chemscore.Metal>
0.0000

> <Gold.Chemscore.Lipo>
75.0226

> <Gold.Chemscore.Internal_Hbond>
0.0000

> <Gold.Chemscore.DEClash>
1.7287

> <Gold.Chemscore.DEInternal>
1.0435

> <Gold.Chemscore.Rot>
1.4727

> <Gold.Chemscore.Internal.Correction>
   9.000000E+99

> <Gold.Chemscore.Hbonds>
donor molecule, donor type, donor heavy atom, donor atom, acceptor molecule, acceptor atom, score
      L1  H     5    26       P1  7948  0.85
      L1  H     8    27       P1  7948  0.93
      L1  H    11    49       P1  7948  0.88

> <Gold.Chemscore.Hbond.Weighted>
-9.3599

> <Gold.Chemscore.Metal.Weighted>
-0.0000

> <Gold.Chemscore.Lipo.Weighted>
-8.7776

> <Gold.Chemscore.Internal_Hbond.Weighted>
0.0000

> <Gold.Chemscore.DEClash.Weighted>
1.7287

> <Gold.Chemscore.DEInternal.Weighted>
1.0435

> <Gold.Chemscore.Rot.Weighted>
3.7700

> <Gold.Chemscore.Internal.Correction.Weighted>
   9.000000E+99

> <Gold.Protein.RotatedTorsions>
[ 6907 6896 6895 6894 ] final  121.48 input  -60.11 | X-H torsion
[ 7974 7965 7964 7962 ] final   46.53 input  175.53 | X-H torsion
[ 8008 7997 7996 7995 ] final -116.46 input   59.86 | X-H torsion
[ 10167 10162 10161 10158 ] final  -68.38 input  -65.29 | X-H torsion
[ 10718 10713 10712 10709 ] final -163.52 input   66.30 | X-H torsion
[ 10763 10752 10751 10750 ] final -112.38 input  -60.55 | X-H torsion
[ 11005 11000 10999 10996 ] final  -71.83 input  -57.11 | X-H torsion

> <Gold.Protein.ActiveResidues>
 VAL166  LYS551  ARG553  GLY616  TRP617  ASP618  TYR619  PRO620  LYS621  CYS622 
 ASP623  PHE694  ASN695  SER759  ASP760  ASP761  ALA762  ILE779  LEU786  VAL792 
 PHE793  MET794  SER795  GLU796  ALA797  LYS798  CYS799  TRP800  GLU811  SER814 

> <Gold.Protein.RotatedAtoms>
  152.4319  133.7292  159.6577 H   0  0  0  0  0  0  0  0  0  0  0  0  # atno 6907 bound_to 6896
  150.8198  133.8261  159.3150 H   0  0  0  0  0  0  0  0  0  0  0  0  # atno 6908 bound_to 6896
  151.5947  135.1053  160.0098 H   0  0  0  0  0  0  0  0  0  0  0  0  # atno 6909 bound_to 6896
  146.0381  139.4846  142.9795 H   0  0  0  0  0  0  0  0  0  0  0  0  # atno 7974 bound_to 7965
  155.0682  140.0393  157.2600 H   0  0  0  0  0  0  0  0  0  0  0  0  # atno 8008 bound_to 7997
  154.7004  140.2672  155.6701 H   0  0  0  0  0  0  0  0  0  0  0  0  # atno 8009 bound_to 7997
  156.2758  140.2741  156.1612 H   0  0  0  0  0  0  0  0  0  0  0  0  # atno 8010 bound_to 7997
  140.5511  143.2312  151.6909 H   0  0  0  0  0  0  0  0  0  0  0  0  # atno 10167 bound_to 10162
  156.6259  130.8909  151.2967 H   0  0  0  0  0  0  0  0  0  0  0  0  # atno 10718 bound_to 10713
  154.8346  135.4493  154.1184 H   0  0  0  0  0  0  0  0  0  0  0  0  # atno 10763 bound_to 10752
  153.2427  135.6918  153.7771 H   0  0  0  0  0  0  0  0  0  0  0  0  # atno 10764 bound_to 10752
  153.7113  135.3356  155.3223 H   0  0  0  0  0  0  0  0  0  0  0  0  # atno 10765 bound_to 10752
  141.1599  133.6829  156.6967 H   0  0  0  0  0  0  0  0  0  0  0  0  # atno 11005 bound_to 11000
  145.6930  141.0158  143.1545 LP  0  0  0  0  0  0  0  0  0  0  0  0  # atno 17320 bound_to 7965
  144.7061  139.8555  143.7429 LP  0  0  0  0  0  0  0  0  0  0  0  0  # atno 17321 bound_to 7965
  139.5028  144.3816  152.0370 LP  0  0  0  0  0  0  0  0  0  0  0  0  # atno 17342 bound_to 10162
  140.2933  144.3729  150.6082 LP  0  0  0  0  0  0  0  0  0  0  0  0  # atno 17343 bound_to 10162
  157.7214  130.9564  150.1455 LP  0  0  0  0  0  0  0  0  0  0  0  0  # atno 17370 bound_to 10713
  156.2274  130.3679  149.8485 LP  0  0  0  0  0  0  0  0  0  0  0  0  # atno 17371 bound_to 10713
  140.2990  134.8179  157.4081 LP  0  0  0  0  0  0  0  0  0  0  0  0  # atno 17394 bound_to 11000
  140.1279  134.5134  155.8129 LP  0  0  0  0  0  0  0  0  0  0  0  0  # atno 17395 bound_to 11000

$$$$
