AV-unprocessed.smi:240|AV-procd|sdf|1837|dock2
  -GOLD-   2262020443D 1   1.00000     0.00000
 Structure written by MMmdl.
 55 59  0  0  0  0  0  0  0  0  1 V2000
  147.0221  131.0745  153.5930 O   0  0  0  0  0  0  0  0  0  0  0  0
  147.7658  131.9886  152.8064 C   0  0  1  0  0  0  0  0  0  0  0  0
  146.7896  132.9327  152.1016 C   0  0  0  0  0  0  0  0  0  0  0  0
  146.5092  134.0563  153.1042 C   0  0  0  0  0  0  0  0  0  0  0  0
  147.5807  133.9344  154.1967 C   0  0  0  0  0  0  0  0  0  0  0  0
  148.6255  132.9177  153.6889 C   0  0  1  0  0  0  0  0  0  0  0  0
  149.5102  132.1986  154.7639 C   0  0  1  0  0  0  0  0  0  0  0  0
  150.2424  130.9840  154.1321 C   0  0  0  0  0  0  0  0  0  0  0  0
  151.0779  130.3317  155.0800 O   0  0  0  0  0  0  0  0  0  0  0  0
  152.1029  131.1904  155.5538 C   0  0  0  0  0  0  0  0  0  0  0  0
  151.4481  132.3732  156.2731 C   0  0  0  0  0  0  0  0  0  0  0  0
  150.5275  133.0703  155.3795 N   0  0  0  0  0  0  0  0  0  0  0  0
  150.0995  134.2039  155.9748 C   0  0  0  0  0  0  0  0  0  0  0  0
  149.3819  134.0672  157.1169 N   0  0  0  0  0  0  0  0  0  0  0  0
  148.9438  135.1520  157.7628 C   0  0  0  0  0  0  0  0  0  0  0  0
  149.1092  136.4376  157.4437 N   0  0  0  0  0  0  0  0  0  0  0  0
  149.8172  136.5753  156.2856 C   0  0  0  0  0  0  0  0  0  0  0  0
  150.3372  135.5199  155.4861 C   0  0  0  0  0  0  0  0  0  0  0  0
  150.9927  136.0420  154.3776 N   0  0  0  0  0  0  0  0  0  0  0  0
  150.8788  137.3341  154.5215 C   0  0  0  0  0  0  0  0  0  0  0  0
  150.2001  137.7420  155.6478 N   0  0  0  0  0  0  0  0  0  0  0  0
  149.9385  139.1111  156.0633 C   0  0  0  0  0  0  0  0  0  0  0  0
  151.2176  139.9238  156.3887 C   0  0  2  0  0  0  0  0  0  0  0  0
  152.0121  140.0223  155.2209 O   0  0  0  0  0  0  0  0  0  0  0  0
  152.0636  139.3380  157.5211 C   0  0  0  0  0  0  0  0  0  0  0  0
  151.5888  140.1249  158.7329 C   0  0  0  0  0  0  0  0  0  0  0  0
  151.4549  141.4337  158.2071 O   0  0  0  0  0  0  0  0  0  0  0  0
  150.8742  141.3341  156.9113 C   0  0  0  0  0  0  0  0  0  0  0  0
  146.8541  131.4690  154.4352 H   0  0  0  0  0  0  0  0  0  0  0  0
  148.3631  131.4329  152.0827 H   0  0  0  0  0  0  0  0  0  0  0  0
  147.2743  133.3545  151.2202 H   0  0  0  0  0  0  0  0  0  0  0  0
  145.8808  132.4340  151.7616 H   0  0  0  0  0  0  0  0  0  0  0  0
  146.5506  135.0290  152.6124 H   0  0  0  0  0  0  0  0  0  0  0  0
  145.5144  133.9523  153.5390 H   0  0  0  0  0  0  0  0  0  0  0  0
  148.0138  134.9096  154.4146 H   0  0  0  0  0  0  0  0  0  0  0  0
  147.1153  133.5670  155.1119 H   0  0  0  0  0  0  0  0  0  0  0  0
  149.2971  133.4533  153.0154 H   0  0  0  0  0  0  0  0  0  0  0  0
  148.8628  131.8183  155.5545 H   0  0  0  0  0  0  0  0  0  0  0  0
  149.5333  130.2384  153.7756 H   0  0  0  0  0  0  0  0  0  0  0  0
  150.8348  131.2931  153.2692 H   0  0  0  0  0  0  0  0  0  0  0  0
  152.7430  130.6376  156.2413 H   0  0  0  0  0  0  0  0  0  0  0  0
  152.7315  131.5289  154.7288 H   0  0  0  0  0  0  0  0  0  0  0  0
  150.9111  132.0144  157.1523 H   0  0  0  0  0  0  0  0  0  0  0  0
  152.2207  133.0586  156.6254 H   0  0  0  0  0  0  0  0  0  0  0  0
  148.3850  134.9629  158.6674 H   0  0  0  0  0  0  0  0  0  0  0  0
  151.2974  138.0305  153.8094 H   0  0  0  0  0  0  0  0  0  0  0  0
  149.3681  139.6033  155.2743 H   0  0  0  0  0  0  0  0  0  0  0  0
  149.2841  139.0807  156.9356 H   0  0  0  0  0  0  0  0  0  0  0  0
  152.9100  140.1612  155.4810 H   0  0  0  0  0  0  0  0  0  0  0  0
  151.9692  138.2613  157.6533 H   0  0  0  0  0  0  0  0  0  0  0  0
  153.1219  139.5514  157.3620 H   0  0  0  0  0  0  0  0  0  0  0  0
  150.6210  139.7625  159.0831 H   0  0  0  0  0  0  0  0  0  0  0  0
  152.2955  140.0924  159.5624 H   0  0  0  0  0  0  0  0  0  0  0  0
  151.2536  142.1329  156.2724 H   0  0  0  0  0  0  0  0  0  0  0  0
  149.7959  141.4746  156.9999 H   0  0  0  0  0  0  0  0  0  0  0  0
  1  2  1  0  0  0  0
  1 29  1  0  0  0  0
  2  6  1  0  0  0  0
  2  3  1  0  0  0  0
  2 30  1  0  0  0  0
  3  4  1  0  0  0  0
  3 31  1  0  0  0  0
  3 32  1  0  0  0  0
  4  5  1  0  0  0  0
  4 33  1  0  0  0  0
  4 34  1  0  0  0  0
  5  6  1  0  0  0  0
  5 35  1  0  0  0  0
  5 36  1  0  0  0  0
  6  7  1  0  0  0  0
  6 37  1  0  0  0  0
  7 12  1  0  0  0  0
  7  8  1  0  0  0  0
  7 38  1  0  0  0  0
  8  9  1  0  0  0  0
  8 39  1  0  0  0  0
  8 40  1  0  0  0  0
  9 10  1  0  0  0  0
 10 11  1  0  0  0  0
 10 41  1  0  0  0  0
 10 42  1  0  0  0  0
 11 12  1  0  0  0  0
 11 43  1  0  0  0  0
 11 44  1  0  0  0  0
 12 13  1  0  0  0  0
 13 18  1  0  0  0  0
 13 14  2  0  0  0  0
 14 15  1  0  0  0  0
 15 16  2  0  0  0  0
 15 45  1  0  0  0  0
 16 17  1  0  0  0  0
 17 21  1  0  0  0  0
 17 18  2  0  0  0  0
 18 19  1  0  0  0  0
 19 20  2  0  0  0  0
 20 21  1  0  0  0  0
 20 46  1  0  0  0  0
 21 22  1  0  0  0  0
 22 23  1  0  0  0  0
 22 47  1  0  0  0  0
 22 48  1  0  0  0  0
 23 28  1  0  0  0  0
 23 24  1  0  0  0  0
 23 25  1  0  0  0  0
 24 49  1  0  0  0  0
 25 26  1  0  0  0  0
 25 50  1  0  0  0  0
 25 51  1  0  0  0  0
 26 27  1  0  0  0  0
 26 52  1  0  0  0  0
 26 53  1  0  0  0  0
 27 28  1  0  0  0  0
 28 54  1  0  0  0  0
 28 55  1  0  0  0  0
M  END
> <s_m_source_file>
AV-unprocessed.smi

> <i_m_source_file_index>
240

> <i_lp_mmshare_version>
43012

> <i_f3d_flags>
0

> <s_epik_input>
W09IXVtDQEBIXTFbQ0gyXVtDSDJdW0NIMl1bQ0BIXTFbQ0BASF0yW0NIMl1PW0NIMl1bQ0gyXU4yYyhuW2NIXW4zKWMoYzM0KW5bY0hdbjRbQ0gyXVtDQEBdNShbT0hdKVtDSDJdW0NIMl1PW0NIMl01

> <s_epik_cmdline>
J2VwaWtfcHl0aG9uJywgJy1waCcsICc3LjAnLCAnLXRuJywgJzgnLCAnLW1hJywgJzIwMCcsICctbWV0YWxfYmluZGluZycsICctaW1hZScsICc8aW5maWxlLm1hZT4nLCAnLW9tYWUnLCAnPG91dGZpbGUubWFlPic=

> <r_lp_tautomer_probability>
1

> <r_epik_Ionization_Penalty>
0.000130618

> <r_epik_Ionization_Penalty_Charging>
0

> <r_epik_Ionization_Penalty_Neutral>
0.000130618

> <r_epik_State_Penalty>
-0

> <r_epik_Charging_Adjusted_Penalty>
0

> <i_epik_Tot_Q>
0

> <i_epik_Tot_abs_Q>
0

> <r_epik_Metal_State_Penalty>
-0

> <b_epik_Metal_Only>
0

> <s_lp_Force_Field>
OPLS_2005

> <r_lp_Energy>
64.0442

> <b_lp_Chiralities_Consistent>
1

> <s_lp_Variant>
AV-unprocessed.smi:240-14

> <Gold.Version>
5.8.1

> <Gold.Id.Protein>
6NUR|6NUR_protein|mol2

> <Gold.PLP.Fitness>
41.4177

> <Gold.PLP.PLP>
-36.6673

> <Gold.PLP.part.hbond>
-1.8985

> <Gold.PLP.part.metal>
0.0000

> <Gold.PLP.part.buried>
-4.5189

> <Gold.PLP.part.nonpolar>
-30.5791

> <Gold.PLP.part.repulsive>
1.5503

> <Gold.PLP.ligand.clash>
0.0018

> <Gold.PLP.ligand.torsion>
0.2832

> <Gold.PLP.Chemscore.Hbond>
1.6880

> <Gold.PLP.Chemscore.CHOScore>
0.0000

> <Gold.PLP.Chemscore.Metal>
0.0000

> <Gold.Chemscore.Hbonds>
donor molecule, donor type, donor heavy atom, donor atom, acceptor molecule, acceptor atom, score
      P1  H  7989  7998       L1    24  0.82
      P1  H 10752 10764       L1    19  1.00

> <Gold.PLP.Chemscore.Internal.Correction>
0.2546

> <Gold.Rescore>
     Score         DG    S(hbond)    S(metal)    S(lipo)     H(rot)  DE(clash)    DE(int)     intcor
     10.62     -12.12       1.60        0.00      76.77       3.00       0.13       1.38       ----

> <Gold.Chemscore.Fitness>
10.6171

> <Gold.Chemscore.DG>
-12.1249

> <Gold.Chemscore.ZeroCoef>
-5.4800

> <Gold.Chemscore.Hbond>
1.6025

> <Gold.Chemscore.Metal>
0.0000

> <Gold.Chemscore.Lipo>
76.7741

> <Gold.Chemscore.Internal_Hbond>
0.0000

> <Gold.Chemscore.DEClash>
0.1295

> <Gold.Chemscore.DEInternal>
1.3782

> <Gold.Chemscore.Rot>
3.0039

> <Gold.Chemscore.Internal.Correction>
   9.000000E+99

> <Gold.Chemscore.Hbonds>
donor molecule, donor type, donor heavy atom, donor atom, acceptor molecule, acceptor atom, score
      P1  H  7989  7998       L1    24  0.60
      P1  H 10752 10764       L1    19  0.55

> <Gold.Chemscore.Hbond.Weighted>
-5.3522

> <Gold.Chemscore.Metal.Weighted>
-0.0000

> <Gold.Chemscore.Lipo.Weighted>
-8.9826

> <Gold.Chemscore.Internal_Hbond.Weighted>
0.0000

> <Gold.Chemscore.DEClash.Weighted>
0.1295

> <Gold.Chemscore.DEInternal.Weighted>
1.3782

> <Gold.Chemscore.Rot.Weighted>
7.6899

> <Gold.Chemscore.Internal.Correction.Weighted>
   9.000000E+99

> <Gold.Protein.RotatedTorsions>
[ 6907 6896 6895 6894 ] final  130.63 input  -60.11 | X-H torsion
[ 7974 7965 7964 7962 ] final   71.11 input  175.53 | X-H torsion
[ 8008 7997 7996 7995 ] final  -68.65 input   59.86 | X-H torsion
[ 10167 10162 10161 10158 ] final   65.71 input  -65.29 | X-H torsion
[ 10718 10713 10712 10709 ] final -137.56 input   66.30 | X-H torsion
[ 10763 10752 10751 10750 ] final  -81.76 input  -60.55 | X-H torsion
[ 11005 11000 10999 10996 ] final  -86.20 input  -57.11 | X-H torsion

> <Gold.Protein.ActiveResidues>
 VAL166  LYS551  ARG553  GLY616  TRP617  ASP618  TYR619  PRO620  LYS621  CYS622 
 ASP623  PHE694  ASN695  SER759  ASP760  ASP761  ALA762  ILE779  LEU786  VAL792 
 PHE793  MET794  SER795  GLU796  ALA797  LYS798  CYS799  TRP800  GLU811  SER814 

> <Gold.Protein.RotatedAtoms>
  152.3507  133.6176  159.5942 H   0  0  0  0  0  0  0  0  0  0  0  0  # atno 6907 bound_to 6896
  150.7536  133.9579  159.3515 H   0  0  0  0  0  0  0  0  0  0  0  0  # atno 6908 bound_to 6896
  151.7431  135.0850  160.0370 H   0  0  0  0  0  0  0  0  0  0  0  0  # atno 6909 bound_to 6896
  145.7699  139.2838  143.1327 H   0  0  0  0  0  0  0  0  0  0  0  0  # atno 7974 bound_to 7965
  154.4882  140.0869  156.7535 H   0  0  0  0  0  0  0  0  0  0  0  0  # atno 8008 bound_to 7997
  155.4296  140.3449  155.4260 H   0  0  0  0  0  0  0  0  0  0  0  0  # atno 8009 bound_to 7997
  156.1292  140.1496  156.9078 H   0  0  0  0  0  0  0  0  0  0  0  0  # atno 8010 bound_to 7997
  140.1084  144.4841  150.6993 H   0  0  0  0  0  0  0  0  0  0  0  0  # atno 10167 bound_to 10162
  156.2895  130.7367  151.1388 H   0  0  0  0  0  0  0  0  0  0  0  0  # atno 10718 bound_to 10713
  154.5675  135.5615  153.7064 H   0  0  0  0  0  0  0  0  0  0  0  0  # atno 10763 bound_to 10752
  153.0037  135.6289  154.2160 H   0  0  0  0  0  0  0  0  0  0  0  0  # atno 10764 bound_to 10752
  154.2099  135.2874  155.2941 H   0  0  0  0  0  0  0  0  0  0  0  0  # atno 10765 bound_to 10752
  141.1633  133.7441  156.9127 H   0  0  0  0  0  0  0  0  0  0  0  0  # atno 11005 bound_to 11000
  146.0180  140.8374  142.9937 LP  0  0  0  0  0  0  0  0  0  0  0  0  # atno 17320 bound_to 7965
  144.6814  140.2587  143.7322 LP  0  0  0  0  0  0  0  0  0  0  0  0  # atno 17321 bound_to 7965
  140.6939  143.2392  151.5054 LP  0  0  0  0  0  0  0  0  0  0  0  0  # atno 17342 bound_to 10162
  139.5633  144.2104  152.1725 LP  0  0  0  0  0  0  0  0  0  0  0  0  # atno 17343 bound_to 10162
  157.7338  131.0587  150.5556 LP  0  0  0  0  0  0  0  0  0  0  0  0  # atno 17370 bound_to 10713
  156.5671  130.4270  149.6036 LP  0  0  0  0  0  0  0  0  0  0  0  0  # atno 17371 bound_to 10713
  140.1506  134.9233  157.2587 LP  0  0  0  0  0  0  0  0  0  0  0  0  # atno 17394 bound_to 11000
  140.2727  134.3441  155.7368 LP  0  0  0  0  0  0  0  0  0  0  0  0  # atno 17395 bound_to 11000

$$$$
