AV-unprocessed.smi:865|AV-procd|sdf|3991|dock5
  -GOLD-   22720 1473D 1   1.00000     0.00000
 Structure written by MMmdl.
 36 36  0  0  0  0  0  0  0  0  1 V2000
  154.0039  141.8566  160.5520 C   0  0  0  0  0  0  0  0  0  0  0  0
  152.5410  141.6214  160.1469 C   0  0  0  0  0  0  0  0  0  0  0  0
  152.1221  142.2857  158.8102 C   0  0  0  0  0  0  0  0  0  0  0  0
  152.5900  143.7629  158.7413 C   0  0  0  0  0  0  0  0  0  0  0  0
  152.2148  144.4874  157.4398 C   0  0  0  0  0  0  0  0  0  0  0  0
  150.6019  142.1303  158.5207 C   0  0  1  0  0  0  0  0  0  0  0  0
  149.8966  143.1601  159.1873 O   0  0  0  0  0  0  0  0  0  0  0  0
  150.2541  142.1764  157.0156 C   0  0  0  0  0  0  0  0  0  0  0  0
  150.2501  140.8430  156.4248 N   0  0  0  0  0  0  0  0  0  0  0  0
  149.8412  140.5498  155.1810 C   0  0  0  0  0  0  0  0  0  0  0  0
  149.4541  141.3937  154.3733 O   0  0  0  0  0  0  0  0  0  0  0  0
  149.8589  139.0728  154.7902 C   0  0  0  0  0  0  0  0  0  0  0  0
  151.2034  138.5370  154.8795 N   0  0  0  0  0  0  0  0  0  0  0  0
  151.6701  137.3024  154.6814 C   0  0  0  0  0  0  0  0  0  0  0  0
  152.9770  137.2358  154.8844 N   0  0  0  0  0  0  0  0  0  0  0  0
  153.3085  138.5353  155.2312 N   0  0  0  0  0  0  0  0  0  0  0  0
  152.2600  139.3118  155.2306 N   0  0  0  0  0  0  0  0  0  0  0  0
  154.1880  141.4753  161.5565 H   0  0  0  0  0  0  0  0  0  0  0  0
  154.2483  142.9189  160.5526 H   0  0  0  0  0  0  0  0  0  0  0  0
  154.6991  141.3479  159.8851 H   0  0  0  0  0  0  0  0  0  0  0  0
  152.3397  140.5503  160.1156 H   0  0  0  0  0  0  0  0  0  0  0  0
  151.9240  142.0118  160.9547 H   0  0  0  0  0  0  0  0  0  0  0  0
  152.6450  141.7505  158.0162 H   0  0  0  0  0  0  0  0  0  0  0  0
  152.1473  144.3317  159.5577 H   0  0  0  0  0  0  0  0  0  0  0  0
  153.6687  143.8208  158.8908 H   0  0  0  0  0  0  0  0  0  0  0  0
  152.4868  145.5415  157.4969 H   0  0  0  0  0  0  0  0  0  0  0  0
  151.1417  144.4344  157.2542 H   0  0  0  0  0  0  0  0  0  0  0  0
  152.7287  144.0698  156.5751 H   0  0  0  0  0  0  0  0  0  0  0  0
  150.2612  141.1740  158.9162 H   0  0  0  0  0  0  0  0  0  0  0  0
  150.4321  143.4787  159.8977 H   0  0  0  0  0  0  0  0  0  0  0  0
  149.3140  142.6990  156.8297 H   0  0  0  0  0  0  0  0  0  0  0  0
  151.0218  142.7370  156.4816 H   0  0  0  0  0  0  0  0  0  0  0  0
  150.5488  140.0818  157.0173 H   0  0  0  0  0  0  0  0  0  0  0  0
  149.2090  138.5040  155.4562 H   0  0  0  0  0  0  0  0  0  0  0  0
  149.4792  138.9394  153.7758 H   0  0  0  0  0  0  0  0  0  0  0  0
  151.0572  136.4603  154.3950 H   0  0  0  0  0  0  0  0  0  0  0  0
  1  2  1  0  0  0  0
  1 18  1  0  0  0  0
  1 19  1  0  0  0  0
  1 20  1  0  0  0  0
  2  3  1  0  0  0  0
  2 21  1  0  0  0  0
  2 22  1  0  0  0  0
  3  4  1  0  0  0  0
  3  6  1  0  0  0  0
  3 23  1  0  0  0  0
  4  5  1  0  0  0  0
  4 24  1  0  0  0  0
  4 25  1  0  0  0  0
  5 26  1  0  0  0  0
  5 27  1  0  0  0  0
  5 28  1  0  0  0  0
  6  7  1  0  0  0  0
  6  8  1  0  0  0  0
  6 29  1  0  0  0  0
  7 30  1  0  0  0  0
  8  9  1  0  0  0  0
  8 31  1  0  0  0  0
  8 32  1  0  0  0  0
  9 10  1  0  0  0  0
  9 33  1  0  0  0  0
 10 11  2  0  0  0  0
 10 12  1  0  0  0  0
 12 13  1  0  0  0  0
 12 34  1  0  0  0  0
 12 35  1  0  0  0  0
 13 17  1  0  0  0  0
 13 14  1  0  0  0  0
 14 15  2  0  0  0  0
 14 36  1  0  0  0  0
 15 16  1  0  0  0  0
 16 17  2  0  0  0  0
M  END
> <s_m_source_file>
AV-unprocessed.smi

> <i_m_source_file_index>
865

> <i_lp_mmshare_version>
43012

> <i_f3d_flags>
0

> <s_epik_input>
W0NIM11bQ0gyXVtDSF0oW0NIMl1bQ0gzXSlbQ0BIXShbT0hdKVtDSDJdW05IXUMoPU8pW0NIMl1uMVtjSF1ubm4x

> <s_epik_cmdline>
J2VwaWtfcHl0aG9uJywgJy1waCcsICc3LjAnLCAnLXRuJywgJzgnLCAnLW1hJywgJzIwMCcsICctbWV0YWxfYmluZGluZycsICctaW1hZScsICc8aW5maWxlLm1hZT4nLCAnLW9tYWUnLCAnPG91dGZpbGUubWFlPic=

> <r_lp_tautomer_probability>
1

> <r_epik_Ionization_Penalty>
9.39891e-07

> <r_epik_Ionization_Penalty_Charging>
0

> <r_epik_Ionization_Penalty_Neutral>
9.39891e-07

> <r_epik_State_Penalty>
-0

> <r_epik_Charging_Adjusted_Penalty>
0

> <i_epik_Tot_Q>
0

> <i_epik_Tot_abs_Q>
0

> <r_epik_Metal_State_Penalty>
-0

> <b_epik_Metal_Only>
0

> <s_lp_Force_Field>
OPLS_2005

> <r_lp_Energy>
13.5174

> <b_lp_Chiralities_Consistent>
1

> <s_lp_Variant>
AV-unprocessed.smi:865-2

> <Gold.Version>
5.8.1

> <Gold.Id.Protein>
6NUR|6NUR_protein|mol2

> <Gold.PLP.Fitness>
44.9177

> <Gold.PLP.PLP>
-38.6266

> <Gold.PLP.part.hbond>
-5.9200

> <Gold.PLP.part.metal>
0.0000

> <Gold.PLP.part.buried>
-2.1102

> <Gold.PLP.part.nonpolar>
-29.5401

> <Gold.PLP.part.repulsive>
0.3706

> <Gold.PLP.ligand.clash>
0.0000

> <Gold.PLP.ligand.torsion>
0.9693

> <Gold.PLP.Chemscore.Hbond>
1.7188

> <Gold.PLP.Chemscore.CHOScore>
0.9568

> <Gold.PLP.Chemscore.Metal>
0.0000

> <Gold.Chemscore.Hbonds>
donor molecule, donor type, donor heavy atom, donor atom, acceptor molecule, acceptor atom, score
      P1  H  7989  7998       L1    17  0.04
      P1  H  7997  8010       L1    16  0.26
      P1  H  8011  8017       L1    11  0.20

> <Gold.PLP.Chemscore.Internal.Correction>
0.2029

> <Gold.Rescore>
     Score         DG    S(hbond)    S(metal)    S(lipo)     H(rot)  DE(clash)    DE(int)     intcor
      4.12      -7.64       0.85        0.00      77.36       3.80       0.24       3.28       ----

> <Gold.Chemscore.Fitness>
4.1187

> <Gold.Chemscore.DG>
-7.6369

> <Gold.Chemscore.ZeroCoef>
-5.4800

> <Gold.Chemscore.Hbond>
0.8457

> <Gold.Chemscore.Metal>
0.0000

> <Gold.Chemscore.Lipo>
77.3583

> <Gold.Chemscore.Internal_Hbond>
0.0000

> <Gold.Chemscore.DEClash>
0.2404

> <Gold.Chemscore.DEInternal>
3.2778

> <Gold.Chemscore.Rot>
3.7964

> <Gold.Chemscore.Internal.Correction>
   9.000000E+99

> <Gold.Chemscore.Hbonds>
donor molecule, donor type, donor heavy atom, donor atom, acceptor molecule, acceptor atom, score
      P1  H  7997  8010       L1    16  0.02
      P1  H  8011  8017       L1    11  0.20
      P1  H 10752 10763       L1    15  0.02

> <Gold.Chemscore.Hbond.Weighted>
-2.8247

> <Gold.Chemscore.Metal.Weighted>
-0.0000

> <Gold.Chemscore.Lipo.Weighted>
-9.0509

> <Gold.Chemscore.Internal_Hbond.Weighted>
0.0000

> <Gold.Chemscore.DEClash.Weighted>
0.2404

> <Gold.Chemscore.DEInternal.Weighted>
3.2778

> <Gold.Chemscore.Rot.Weighted>
9.7188

> <Gold.Chemscore.Internal.Correction.Weighted>
   9.000000E+99

> <Gold.Protein.RotatedTorsions>
[ 6907 6896 6895 6894 ] final   -0.48 input  -60.11 | X-H torsion
[ 7974 7965 7964 7962 ] final   72.69 input  175.53 | X-H torsion
[ 8008 7997 7996 7995 ] final  124.93 input   59.86 | X-H torsion
[ 10167 10162 10161 10158 ] final  -16.14 input  -65.29 | X-H torsion
[ 10718 10713 10712 10709 ] final   68.99 input   66.30 | X-H torsion
[ 10763 10752 10751 10750 ] final  114.69 input  -60.55 | X-H torsion
[ 11005 11000 10999 10996 ] final  175.85 input  -57.11 | X-H torsion

> <Gold.Protein.ActiveResidues>
 VAL166  LYS551  ARG553  GLY616  TRP617  ASP618  TYR619  PRO620  LYS621  CYS622 
 ASP623  PHE694  ASN695  SER759  ASP760  ASP761  ALA762  ILE779  LEU786  VAL792 
 PHE793  MET794  SER795  GLU796  ALA797  LYS798  CYS799  TRP800  GLU811  SER814 

> <Gold.Protein.RotatedAtoms>
  151.5616  135.1065  159.9973 H   0  0  0  0  0  0  0  0  0  0  0  0  # atno 6907 bound_to 6896
  152.4444  133.7504  159.6701 H   0  0  0  0  0  0  0  0  0  0  0  0  # atno 6908 bound_to 6896
  150.8356  133.7951  159.3105 H   0  0  0  0  0  0  0  0  0  0  0  0  # atno 6909 bound_to 6896
  145.7503  139.2757  143.1435 H   0  0  0  0  0  0  0  0  0  0  0  0  # atno 7974 bound_to 7965
  156.2818  140.2728  156.1868 H   0  0  0  0  0  0  0  0  0  0  0  0  # atno 8008 bound_to 7997
  155.0500  140.0386  157.2558 H   0  0  0  0  0  0  0  0  0  0  0  0  # atno 8009 bound_to 7997
  154.7203  140.2686  155.6553 H   0  0  0  0  0  0  0  0  0  0  0  0  # atno 8010 bound_to 7997
  140.7229  143.5147  150.9707 H   0  0  0  0  0  0  0  0  0  0  0  0  # atno 10167 bound_to 10162
  157.6320  130.9402  150.0452 H   0  0  0  0  0  0  0  0  0  0  0  0  # atno 10718 bound_to 10713
  153.5111  135.3617  155.2587 H   0  0  0  0  0  0  0  0  0  0  0  0  # atno 10763 bound_to 10752
  154.8742  135.4023  154.3368 H   0  0  0  0  0  0  0  0  0  0  0  0  # atno 10764 bound_to 10752
  153.4021  135.7075  153.6485 H   0  0  0  0  0  0  0  0  0  0  0  0  # atno 10765 bound_to 10752
  140.3667  134.7066  157.4366 H   0  0  0  0  0  0  0  0  0  0  0  0  # atno 11005 bound_to 11000
  146.0363  140.8209  142.9851 LP  0  0  0  0  0  0  0  0  0  0  0  0  # atno 17320 bound_to 7965
  144.6851  140.2844  143.7287 LP  0  0  0  0  0  0  0  0  0  0  0  0  # atno 17321 bound_to 7965
  139.8862  143.7010  152.3151 LP  0  0  0  0  0  0  0  0  0  0  0  0  # atno 17342 bound_to 10162
  139.7310  144.7582  151.0802 LP  0  0  0  0  0  0  0  0  0  0  0  0  # atno 17343 bound_to 10162
  156.1531  130.3642  149.9408 LP  0  0  0  0  0  0  0  0  0  0  0  0  # atno 17370 bound_to 10713
  156.7424  130.9084  151.3633 LP  0  0  0  0  0  0  0  0  0  0  0  0  # atno 17371 bound_to 10713
  140.0584  134.6031  155.8778 LP  0  0  0  0  0  0  0  0  0  0  0  0  # atno 17394 bound_to 11000
  141.1967  133.6593  156.5707 LP  0  0  0  0  0  0  0  0  0  0  0  0  # atno 17395 bound_to 11000

$$$$
