AV-unprocessed.smi:1268|AV-procd|sdf|5325|dock8
  -GOLD-   22720 4453D 1   1.00000     0.00000
 Structure written by MMmdl.
 39 40  0  0  0  0  0  0  0  0  3 V2000
  149.0762  136.1045  158.5999 O   0  0  0  0  0  0  0  0  0  0  0  0
  149.3221  136.8408  159.5576 C   0  0  0  0  0  0  0  0  0  0  0  0
  150.4920  137.4892  159.6181 N   0  0  0  0  0  0  0  0  0  0  0  0
  151.5442  137.4251  158.6116 C   0  0  0  0  0  0  0  0  0  0  0  0
  151.8355  138.8228  158.0409 C   0  0  2  0  0  0  0  0  0  0  0  0
  153.0871  138.7753  157.3832 O   0  0  0  0  0  0  0  0  0  0  0  0
  151.9370  139.8794  159.1590 C   0  0  0  0  0  0  0  0  0  0  0  0
  152.1090  141.2562  158.6284 N   0  3  0  0  0  0  0  0  0  0  0  0
  152.6712  142.1851  159.6429 C   0  0  0  0  0  0  0  0  0  0  0  0
  152.9797  143.5603  159.0271 C   0  0  0  0  0  0  0  0  0  0  0  0
  151.7299  144.1621  158.3725 C   0  0  0  0  0  0  0  0  0  0  0  0
  151.1452  143.1744  157.3548 C   0  0  0  0  0  0  0  0  0  0  0  0
  150.8755  141.8067  158.0049 C   0  0  0  0  0  0  0  0  0  0  0  0
  148.5106  137.0901  160.6096 N   0  5  0  0  0  0  0  0  0  0  0  0
  148.0354  136.0736  161.3478 C   0  0  0  0  0  0  0  0  0  0  0  0
  147.8071  134.8533  160.8489 N   0  0  0  0  0  0  0  0  0  0  0  0
  147.3211  133.9489  161.7950 C   0  0  0  0  0  0  0  0  0  0  0  0
  147.1852  134.4903  163.0456 C   0  0  0  0  0  0  0  0  0  0  0  0
  147.6658  136.1628  163.0724 S   0  0  0  0  0  0  0  0  0  0  0  0
  150.6559  138.0763  160.4225 H   0  0  0  0  0  0  0  0  0  0  0  0
  152.4358  137.0301  159.1004 H   0  0  0  0  0  0  0  0  0  0  0  0
  151.2861  136.7268  157.8131 H   0  0  0  0  0  0  0  0  0  0  0  0
  151.0591  139.0930  157.3251 H   0  0  0  0  0  0  0  0  0  0  0  0
  153.5476  138.0020  157.6749 H   0  0  0  0  0  0  0  0  0  0  0  0
  151.0541  139.8491  159.7993 H   0  0  0  0  0  0  0  0  0  0  0  0
  152.7825  139.6207  159.7990 H   0  0  0  0  0  0  0  0  0  0  0  0
  151.9684  142.2904  160.4709 H   0  0  0  0  0  0  0  0  0  0  0  0
  153.5898  141.7673  160.0565 H   0  0  0  0  0  0  0  0  0  0  0  0
  153.3607  144.2354  159.7938 H   0  0  0  0  0  0  0  0  0  0  0  0
  153.7705  143.4590  158.2827 H   0  0  0  0  0  0  0  0  0  0  0  0
  150.9856  144.3890  159.1369 H   0  0  0  0  0  0  0  0  0  0  0  0
  151.9764  145.1059  157.8849 H   0  0  0  0  0  0  0  0  0  0  0  0
  150.2227  143.5763  156.9347 H   0  0  0  0  0  0  0  0  0  0  0  0
  151.8380  143.0532  156.5210 H   0  0  0  0  0  0  0  0  0  0  0  0
  150.4953  141.1246  157.2456 H   0  0  0  0  0  0  0  0  0  0  0  0
  150.0954  141.9008  158.7622 H   0  0  0  0  0  0  0  0  0  0  0  0
  147.0998  132.9369  161.4901 H   0  0  0  0  0  0  0  0  0  0  0  0
  146.8355  134.0110  163.9474 H   0  0  0  0  0  0  0  0  0  0  0  0
  152.8041  141.1865  157.8984 H   0  0  0  0  0  0  0  0  0  0  0  0
  1  2  2  0  0  0  0
  2  3  1  0  0  0  0
  2 14  1  0  0  0  0
  3  4  1  0  0  0  0
  3 20  1  0  0  0  0
  4  5  1  0  0  0  0
  4 21  1  0  0  0  0
  4 22  1  0  0  0  0
  5  6  1  0  0  0  0
  5  7  1  0  0  0  0
  5 23  1  0  0  0  0
  6 24  1  0  0  0  0
  7  8  1  0  0  0  0
  7 25  1  0  0  0  0
  7 26  1  0  0  0  0
  8 13  1  0  0  0  0
  8  9  1  0  0  0  0
  8 39  1  0  0  0  0
  9 10  1  0  0  0  0
  9 27  1  0  0  0  0
  9 28  1  0  0  0  0
 10 11  1  0  0  0  0
 10 29  1  0  0  0  0
 10 30  1  0  0  0  0
 11 12  1  0  0  0  0
 11 31  1  0  0  0  0
 11 32  1  0  0  0  0
 12 13  1  0  0  0  0
 12 33  1  0  0  0  0
 12 34  1  0  0  0  0
 13 35  1  0  0  0  0
 13 36  1  0  0  0  0
 14 15  1  0  0  0  0
 15 19  1  0  0  0  0
 15 16  2  0  0  0  0
 16 17  1  0  0  0  0
 17 18  2  0  0  0  0
 17 37  1  0  0  0  0
 18 19  1  0  0  0  0
 18 38  1  0  0  0  0
M  CHG  1   8   1
M  CHG  1  14  -1
M  END
> <s_m_source_file>
AV-unprocessed.smi

> <i_m_source_file_index>
1268

> <i_lp_mmshare_version>
43012

> <i_f3d_flags>
0

> <s_epik_input>
czFbY0hdW2NIXW5jMVtOSF1DKD1PKVtOSF1bQ0gyXVtDQEhdKFtPSF0pW0NIMl1OMltDSDJdW0NIMl1bQ0gyXVtDSDJdW0NIMl0y

> <s_epik_cmdline>
J2VwaWtfcHl0aG9uJywgJy1waCcsICc3LjAnLCAnLXRuJywgJzgnLCAnLW1hJywgJzIwMCcsICctbWV0YWxfYmluZGluZycsICctaW1hZScsICc8aW5maWxlLm1hZT4nLCAnLW9tYWUnLCAnPG91dGZpbGUubWFlPic=

> <r_lp_tautomer_probability>
0.999

> <r_epik_Ionization_Penalty>
6.36291

> <r_epik_Ionization_Penalty_Charging>
5.4816

> <r_epik_Ionization_Penalty_Neutral>
0.881305

> <r_epik_State_Penalty>
5.4805

> <r_epik_Charging_Adjusted_Penalty>
10.9621

> <i_epik_Tot_Q>
0

> <i_epik_Tot_abs_Q>
2

> <r_epik_Metal_State_Penalty>
1.48871

> <b_epik_Metal_Only>
1

> <s_lp_Force_Field>
OPLS_2005

> <r_lp_Energy>
11.3564

> <b_lp_Chiralities_Consistent>
1

> <s_lp_Variant>
AV-unprocessed.smi:1268-3

> <Gold.Version>
5.8.1

> <Gold.Id.Protein>
6NUR|6NUR_protein|mol2

> <Gold.PLP.Fitness>
48.1281

> <Gold.PLP.PLP>
-40.8407

> <Gold.PLP.part.hbond>
-3.0000

> <Gold.PLP.part.metal>
0.0000

> <Gold.PLP.part.buried>
-5.4205

> <Gold.PLP.part.nonpolar>
-34.5153

> <Gold.PLP.part.repulsive>
0.5156

> <Gold.PLP.ligand.clash>
0.0000

> <Gold.PLP.ligand.torsion>
0.9680

> <Gold.PLP.Chemscore.Hbond>
3.0429

> <Gold.PLP.Chemscore.CHOScore>
0.0000

> <Gold.PLP.Chemscore.Metal>
0.0000

> <Gold.Chemscore.Hbonds>
donor molecule, donor type, donor heavy atom, donor atom, acceptor molecule, acceptor atom, score
      P1  H  6896  6909       L1     1  0.02
      P1  H  6931  6943       L1    14  1.63
      P1  H  6934  6947       L1    14  0.22
      P1  H  7997  8008       L1     6  1.00

> <Gold.PLP.Chemscore.Internal.Correction>
0.0946

> <Gold.Rescore>
     Score         DG    S(hbond)    S(metal)    S(lipo)     H(rot)  DE(clash)    DE(int)     intcor
     12.61     -14.82       1.17        0.00     100.67       2.48       0.03       2.18       ----

> <Gold.Chemscore.Fitness>
12.6145

> <Gold.Chemscore.DG>
-14.8230

> <Gold.Chemscore.ZeroCoef>
-5.4800

> <Gold.Chemscore.Hbond>
1.1743

> <Gold.Chemscore.Metal>
0.0000

> <Gold.Chemscore.Lipo>
100.6705

> <Gold.Chemscore.Internal_Hbond>
0.0000

> <Gold.Chemscore.DEClash>
0.0327

> <Gold.Chemscore.DEInternal>
2.1758

> <Gold.Chemscore.Rot>
2.4834

> <Gold.Chemscore.Internal.Correction>
   9.000000E+99

> <Gold.Chemscore.Hbonds>
donor molecule, donor type, donor heavy atom, donor atom, acceptor molecule, acceptor atom, score
      P1  H  6931  6943       L1    14  0.27
      P1  H  6934  6947       L1    14  0.08
      P1  H  7997  8008       L1     6  0.60

> <Gold.Chemscore.Hbond.Weighted>
-3.9220

> <Gold.Chemscore.Metal.Weighted>
-0.0000

> <Gold.Chemscore.Lipo.Weighted>
-11.7785

> <Gold.Chemscore.Internal_Hbond.Weighted>
0.0000

> <Gold.Chemscore.DEClash.Weighted>
0.0327

> <Gold.Chemscore.DEInternal.Weighted>
2.1758

> <Gold.Chemscore.Rot.Weighted>
6.3575

> <Gold.Chemscore.Internal.Correction.Weighted>
   9.000000E+99

> <Gold.Protein.RotatedTorsions>
[ 6907 6896 6895 6894 ] final   54.95 input  -60.11 | X-H torsion
[ 7974 7965 7964 7962 ] final  -33.93 input  175.53 | X-H torsion
[ 8008 7997 7996 7995 ] final  -68.39 input   59.86 | X-H torsion
[ 10167 10162 10161 10158 ] final   11.68 input  -65.29 | X-H torsion
[ 10718 10713 10712 10709 ] final   -2.22 input   66.30 | X-H torsion
[ 10763 10752 10751 10750 ] final  119.81 input  -60.55 | X-H torsion
[ 11005 11000 10999 10996 ] final -153.94 input  -57.11 | X-H torsion

> <Gold.Protein.ActiveResidues>
 VAL166  LYS551  ARG553  GLY616  TRP617  ASP618  TYR619  PRO620  LYS621  CYS622 
 ASP623  PHE694  ASN695  SER759  ASP760  ASP761  ALA762  ILE779  LEU786  VAL792 
 PHE793  MET794  SER795  GLU796  ALA797  LYS798  CYS799  TRP800  GLU811  SER814 

> <Gold.Protein.RotatedAtoms>
  152.3490  134.7031  160.0241 H   0  0  0  0  0  0  0  0  0  0  0  0  # atno 6907 bound_to 6896
  151.7391  133.3316  159.3369 H   0  0  0  0  0  0  0  0  0  0  0  0  # atno 6908 bound_to 6896
  150.7528  134.6227  159.6189 H   0  0  0  0  0  0  0  0  0  0  0  0  # atno 6909 bound_to 6896
  146.0871  140.5977  142.8882 H   0  0  0  0  0  0  0  0  0  0  0  0  # atno 7974 bound_to 7965
  154.4864  140.0874  156.7497 H   0  0  0  0  0  0  0  0  0  0  0  0  # atno 8008 bound_to 7997
  155.4338  140.3451  155.4264 H   0  0  0  0  0  0  0  0  0  0  0  0  # atno 8009 bound_to 7997
  156.1268  140.1490  156.9112 H   0  0  0  0  0  0  0  0  0  0  0  0  # atno 8010 bound_to 7997
  140.6117  143.8394  150.7072 H   0  0  0  0  0  0  0  0  0  0  0  0  # atno 10167 bound_to 10162
  156.7940  130.5371  149.5731 H   0  0  0  0  0  0  0  0  0  0  0  0  # atno 10718 bound_to 10713
  153.5887  135.3470  155.2903 H   0  0  0  0  0  0  0  0  0  0  0  0  # atno 10763 bound_to 10752
  154.8656  135.4199  154.2540 H   0  0  0  0  0  0  0  0  0  0  0  0  # atno 10764 bound_to 10752
  153.3342  135.7046  153.6992 H   0  0  0  0  0  0  0  0  0  0  0  0  # atno 10765 bound_to 10752
  140.7027  134.3920  157.5208 H   0  0  0  0  0  0  0  0  0  0  0  0  # atno 11005 bound_to 11000
  144.7333  140.4736  143.6922 LP  0  0  0  0  0  0  0  0  0  0  0  0  # atno 17320 bound_to 7965
  145.6110  139.1513  143.3076 LP  0  0  0  0  0  0  0  0  0  0  0  0  # atno 17321 bound_to 7965
  140.1964  143.3994  152.1824 LP  0  0  0  0  0  0  0  0  0  0  0  0  # atno 17342 bound_to 10162
  139.5366  144.7215  151.4872 LP  0  0  0  0  0  0  0  0  0  0  0  0  # atno 17343 bound_to 10162
  156.1141  130.6062  151.0093 LP  0  0  0  0  0  0  0  0  0  0  0  0  # atno 17370 bound_to 10713
  157.6586  131.0885  150.7890 LP  0  0  0  0  0  0  0  0  0  0  0  0  # atno 17371 bound_to 10713
  139.8892  134.8835  156.2431 LP  0  0  0  0  0  0  0  0  0  0  0  0  # atno 17394 bound_to 11000
  141.0151  133.7073  156.1174 LP  0  0  0  0  0  0  0  0  0  0  0  0  # atno 17395 bound_to 11000

$$$$
