#       Name:                AV-unprocessed.smi:3
#       Creating user name   scv26
#       Creation time:       Thu Mar 26 15:14:12 2020


#       File generated by GOLD software.
#

@<TRIPOS>MOLECULE
AV-unprocessed.smi:3
    37    39     1
SMALL
NO_CHARGES


@<TRIPOS>ATOM
      1 ****        -0.7194   2.2534   0.1423 C.3            1 S1                 0.0000
      2 ****        -0.3068   1.1091  -0.6572 N.pl3          1 S1                 0.0000
      3 ****         1.0847   1.0634  -1.1120 C.3            1 S1                 0.0000
      4 ****         2.0467   0.6639   0.0065 C.3            1 S1                 0.0000
      5 ****         2.1531  -0.8036   0.4486 C.3            1 S1                 0.0000
      6 ****         3.6666  -0.6283   0.6021 C.3            1 S1                 0.0000
      7 ****         4.1615  -0.4407   1.9105 O.3            1 S1                 0.0000
      8 ****         3.5532   0.6167  -0.2835 C.3            1 S1                 0.0000
      9 ****        -1.1247  -0.0476  -0.7119 C.ar           1 S1                 0.0000
     10 ****        -0.6655  -1.1053  -1.4316 N.ar           1 S1                 0.0000
     11 ****        -1.3813  -2.2273  -1.5253 C.ar           1 S1                 0.0000
     12 ****        -2.5698  -2.5028  -0.9894 N.ar           1 S1                 0.0000
     13 ****        -3.0439  -1.4467  -0.2724 C.ar           1 S1                 0.0000
     14 ****        -4.2425  -1.3897   0.4061 N.pl3          1 S1                 0.0000
     15 ****        -4.3885  -0.1603   1.0190 C.2            1 S1                 0.0000
     16 ****        -3.2843   0.6060   0.7481 C.2            1 S1                 0.0000
     17 ****        -2.4009  -0.1864  -0.0774 C.ar           1 S1                 0.0000
     18 ****         1.8981   1.2851   0.8920 H              1 S1                 0.0000
     19 ****         4.2281  -1.4281   0.1182 H              1 S1                 0.0000
     20 ****        -4.9311  -2.1261   0.4624 H              1 S1                 0.0000
     21 ****        -1.6504   2.6720  -0.2399 H              1 S1                 0.0000
     22 ****         0.0312   3.0436   0.1098 H              1 S1                 0.0000
     23 ****        -0.8510   1.9677   1.1863 H              1 S1                 0.0000
     24 ****         1.2048   0.4130  -1.9782 H              1 S1                 0.0000
     25 ****         1.3466   2.0569  -1.4770 H              1 S1                 0.0000
     26 ****         1.6178  -1.0299   1.3714 H              1 S1                 0.0000
     27 ****         1.8988  -1.5107  -0.3420 H              1 S1                 0.0000
     28 ****         4.1121  -1.2775   2.3471 H              1 S1                 0.0000
     29 ****         3.7801   0.4061  -1.3300 H              1 S1                 0.0000
     30 ****         4.1043   1.4868   0.0750 H              1 S1                 0.0000
     31 ****        -0.9385  -3.0171  -2.1140 H              1 S1                 0.0000
     32 ****        -5.2693   0.0707   1.6001 H              1 S1                 0.0000
     33 ****        -3.1194   1.6138   1.0954 H              1 S1                 0.0000
     34 ****         3.6039   0.2331   2.3953 LP             1 S1                 0.0000
     35 ****         5.1102  -0.1262   1.8771 LP             1 S1                 0.0000
     36 ****         0.2180  -1.0418  -1.8956 LP             1 S1                 0.0000
     37 ****        -3.0512  -3.3724  -1.0995 LP             1 S1                 0.0000
@<TRIPOS>BOND
    1    1    2 1     
    2    1   21 1     
    3    1   22 1     
    4    1   23 1     
    5    2    3 1     
    6    2    9 1     
    7    3    4 1     
    8    3   24 1     
    9    3   25 1     
   10    4   18 1     
   11    4    8 1     
   12    4    5 1     
   13    5    6 1     
   14    5   26 1     
   15    5   27 1     
   16    6   19 1     
   17    6    7 1     
   18    6    8 1     
   19    7   28 1     
   20    8   29 1     
   21    8   30 1     
   22    9   17 ar    
   23    9   10 ar    
   24   10   11 ar    
   25   11   12 ar    
   26   11   31 1     
   27   12   13 ar    
   28   13   17 ar    
   29   13   14 1     
   30   14   20 1     
   31   14   15 1     
   32   15   16 2     
   33   15   32 1     
   34   16   17 1     
   35   16   33 1     
   36    7   34 1     
   37    7   35 1     
   38   10   36 1     
   39   12   37 1     
@<TRIPOS>SUBSTRUCTURE
      1 S1             1
@<TRIPOS>SET
LONE_PAIRS      STATIC     ATOMS    <user>   **** ""
4 34 35 36 37
DONOR_HYDROGENS      STATIC     ATOMS    <user>   **** ""
2 28 20
ATOM$BLUE        STATIC     ATOMS    COLORGROUP SYSTEM
4 34 35 36 37
ATOM$RED        STATIC     ATOMS    COLORGROUP SYSTEM
2 28 20
