AV-unprocessed.smi:2026|AV-procd|sdf|8205|dock10
  -GOLD-   2272010463D 1   1.00000     0.00000
 Structure written by MMmdl.
 45 47  0  0  0  0  0  0  0  0  2 V2000
  152.8506  143.0175  161.2314 C   0  0  0  0  0  0  0  0  0  0  0  0
  152.2308  142.5371  159.9312 C   0  0  0  0  0  0  0  0  0  0  0  0
  152.5188  141.2307  159.4734 C   0  0  0  0  0  0  0  0  0  0  0  0
  151.9621  140.7464  158.2689 C   0  0  0  0  0  0  0  0  0  0  0  0
  152.1016  139.5207  157.6388 N   0  0  0  0  0  0  0  0  0  0  0  0
  151.3385  139.6845  156.5609 C   0  0  0  0  0  0  0  0  0  0  0  0
  150.7221  140.8731  156.4193 N   0  0  0  0  0  0  0  0  0  0  0  0
  149.8494  141.2992  155.3427 C   0  0  0  0  0  0  0  0  0  0  0  0
  149.2649  140.1003  154.5679 C   0  0  2  0  0  0  0  0  0  0  0  0
  150.2463  139.5880  153.6892 O   0  0  0  0  0  0  0  0  0  0  0  0
  148.0012  140.4400  153.7509 C   0  0  0  0  0  0  0  0  0  0  0  0
  146.9103  140.9447  154.5953 N   0  0  0  0  0  0  0  0  0  0  0  0
  146.1319  140.1936  155.3983 C   0  0  0  0  0  0  0  0  0  0  0  0
  146.2808  138.9772  155.5099 O   0  0  0  0  0  0  0  0  0  0  0  0
  145.2006  140.9533  156.0215 N   0  5  0  0  0  0  0  0  0  0  0  0
  145.3582  142.3300  155.5974 C   0  0  0  0  0  0  0  0  0  0  0  0
  144.0881  142.8091  154.8686 C   0  0  0  0  0  0  0  0  0  0  0  0
  145.6912  143.2237  156.8067 C   0  0  0  0  0  0  0  0  0  0  0  0
  146.5354  142.2277  154.6446 C   0  0  0  0  0  0  0  0  0  0  0  0
  147.0255  143.1788  154.0342 O   0  0  0  0  0  0  0  0  0  0  0  0
  151.1054  141.6131  157.5305 C   0  0  0  0  0  0  0  0  0  0  0  0
  150.8110  142.9136  157.9749 C   0  0  0  0  0  0  0  0  0  0  0  0
  151.3738  143.3814  159.1799 C   0  0  0  0  0  0  0  0  0  0  0  0
  151.0464  144.7876  159.6500 C   0  0  0  0  0  0  0  0  0  0  0  0
  153.4373  142.2312  161.7073 H   0  0  0  0  0  0  0  0  0  0  0  0
  152.0765  143.3266  161.9338 H   0  0  0  0  0  0  0  0  0  0  0  0
  153.5114  143.8649  161.0476 H   0  0  0  0  0  0  0  0  0  0  0  0
  153.1711  140.5875  160.0455 H   0  0  0  0  0  0  0  0  0  0  0  0
  151.2190  138.8955  155.8329 H   0  0  0  0  0  0  0  0  0  0  0  0
  149.0543  141.8948  155.7911 H   0  0  0  0  0  0  0  0  0  0  0  0
  150.3980  141.9651  154.6751 H   0  0  0  0  0  0  0  0  0  0  0  0
  149.0229  139.3028  155.2714 H   0  0  0  0  0  0  0  0  0  0  0  0
  149.8666  139.5182  152.8268 H   0  0  0  0  0  0  0  0  0  0  0  0
  148.2474  141.1542  152.9636 H   0  0  0  0  0  0  0  0  0  0  0  0
  147.6486  139.5462  153.2330 H   0  0  0  0  0  0  0  0  0  0  0  0
  144.1897  143.8422  154.5345 H   0  0  0  0  0  0  0  0  0  0  0  0
  143.2169  142.7624  155.5228 H   0  0  0  0  0  0  0  0  0  0  0  0
  143.8702  142.2000  153.9899 H   0  0  0  0  0  0  0  0  0  0  0  0
  145.8058  144.2664  156.5077 H   0  0  0  0  0  0  0  0  0  0  0  0
  146.6189  142.9181  157.2935 H   0  0  0  0  0  0  0  0  0  0  0  0
  144.8994  143.1835  157.5556 H   0  0  0  0  0  0  0  0  0  0  0  0
  150.1541  143.5430  157.3923 H   0  0  0  0  0  0  0  0  0  0  0  0
  150.4017  145.3040  158.9378 H   0  0  0  0  0  0  0  0  0  0  0  0
  151.9571  145.3755  159.7639 H   0  0  0  0  0  0  0  0  0  0  0  0
  150.5292  144.7582  160.6092 H   0  0  0  0  0  0  0  0  0  0  0  0
  1  2  1  0  0  0  0
  1 25  1  0  0  0  0
  1 26  1  0  0  0  0
  1 27  1  0  0  0  0
  2 23  1  0  0  0  0
  2  3  2  0  0  0  0
  3  4  1  0  0  0  0
  3 28  1  0  0  0  0
  4 21  2  0  0  0  0
  4  5  1  0  0  0  0
  5  6  2  0  0  0  0
  6  7  1  0  0  0  0
  6 29  1  0  0  0  0
  7  8  1  0  0  0  0
  7 21  1  0  0  0  0
  8  9  1  0  0  0  0
  8 30  1  0  0  0  0
  8 31  1  0  0  0  0
  9 10  1  0  0  0  0
  9 11  1  0  0  0  0
  9 32  1  0  0  0  0
 10 33  1  0  0  0  0
 11 12  1  0  0  0  0
 11 34  1  0  0  0  0
 11 35  1  0  0  0  0
 12 19  1  0  0  0  0
 12 13  1  0  0  0  0
 13 14  2  0  0  0  0
 13 15  1  0  0  0  0
 15 16  1  0  0  0  0
 16 17  1  0  0  0  0
 16 18  1  0  0  0  0
 16 19  1  0  0  0  0
 17 36  1  0  0  0  0
 17 37  1  0  0  0  0
 17 38  1  0  0  0  0
 18 39  1  0  0  0  0
 18 40  1  0  0  0  0
 18 41  1  0  0  0  0
 19 20  2  0  0  0  0
 21 22  1  0  0  0  0
 22 23  2  0  0  0  0
 22 42  1  0  0  0  0
 23 24  1  0  0  0  0
 24 43  1  0  0  0  0
 24 44  1  0  0  0  0
 24 45  1  0  0  0  0
M  CHG  1  15  -1
M  END
> <s_m_source_file>
AV-unprocessed.smi

> <i_m_source_file_index>
2026

> <i_lp_mmshare_version>
43012

> <i_f3d_flags>
0

> <s_epik_input>
W0NIM11jKFtjSF0xKWMoW0NIM10pW2NIXWMoYzEyKW4oW2NIXW4yKVtDSDJdW0NASF0oW09IXSlbQ0gyXU4oQzM9TylDKD1PKVtOSF1DMyhbQ0gzXSlbQ0gzXQ==

> <s_epik_cmdline>
J2VwaWtfcHl0aG9uJywgJy1waCcsICc3LjAnLCAnLXRuJywgJzgnLCAnLW1hJywgJzIwMCcsICctbWV0YWxfYmluZGluZycsICctaW1hZScsICc8aW5maWxlLm1hZT4nLCAnLW9tYWUnLCAnPG91dGZpbGUubWFlPic=

> <r_lp_tautomer_probability>
1

> <r_epik_Ionization_Penalty>
5.78785

> <r_epik_Ionization_Penalty_Charging>
5.68049

> <r_epik_Ionization_Penalty_Neutral>
0.107354

> <r_epik_State_Penalty>
5.7743

> <r_epik_Charging_Adjusted_Penalty>
11.4548

> <i_epik_Tot_Q>
-1

> <i_epik_Tot_abs_Q>
1

> <r_epik_Metal_State_Penalty>
1.83778

> <b_epik_Metal_Only>
1

> <s_lp_Force_Field>
OPLS_2005

> <r_lp_Energy>
16.8856

> <b_lp_Chiralities_Consistent>
1

> <s_lp_Variant>
AV-unprocessed.smi:2026-5

> <Gold.Version>
5.8.1

> <Gold.Id.Protein>
6NUR|6NUR_protein|mol2

> <Gold.PLP.Fitness>
46.5704

> <Gold.PLP.PLP>
-41.4446

> <Gold.PLP.part.hbond>
-3.0000

> <Gold.PLP.part.metal>
0.0000

> <Gold.PLP.part.buried>
-2.9795

> <Gold.PLP.part.nonpolar>
-36.8063

> <Gold.PLP.part.repulsive>
2.3146

> <Gold.PLP.ligand.clash>
0.0000

> <Gold.PLP.ligand.torsion>
0.6365

> <Gold.PLP.Chemscore.Hbond>
2.1300

> <Gold.PLP.Chemscore.CHOScore>
0.0000

> <Gold.PLP.Chemscore.Metal>
0.0000

> <Gold.Chemscore.Hbonds>
donor molecule, donor type, donor heavy atom, donor atom, acceptor molecule, acceptor atom, score
      L1  H    10    33       P1  7957  1.00
      P1  H  7989  7998       L1    10  0.90
      P1  H  8022  8030       L1    20  0.22

> <Gold.PLP.Chemscore.Internal.Correction>
0.0088

> <Gold.Rescore>
     Score         DG    S(hbond)    S(metal)    S(lipo)     H(rot)  DE(clash)    DE(int)     intcor
     15.28     -17.85       1.82        0.00     105.72       2.38       1.84       0.74       ----

> <Gold.Chemscore.Fitness>
15.2764

> <Gold.Chemscore.DG>
-17.8545

> <Gold.Chemscore.ZeroCoef>
-5.4800

> <Gold.Chemscore.Hbond>
1.8243

> <Gold.Chemscore.Metal>
0.0000

> <Gold.Chemscore.Lipo>
105.7226

> <Gold.Chemscore.Internal_Hbond>
0.0000

> <Gold.Chemscore.DEClash>
1.8412

> <Gold.Chemscore.DEInternal>
0.7369

> <Gold.Chemscore.Rot>
2.3783

> <Gold.Chemscore.Internal.Correction>
   9.000000E+99

> <Gold.Chemscore.Hbonds>
donor molecule, donor type, donor heavy atom, donor atom, acceptor molecule, acceptor atom, score
      L1  H    10    33       P1  7957  0.97
      P1  H  7989  7998       L1    10  0.26
      P1  H  8022  8030       L1    20  0.22

> <Gold.Chemscore.Hbond.Weighted>
-6.0933

> <Gold.Chemscore.Metal.Weighted>
-0.0000

> <Gold.Chemscore.Lipo.Weighted>
-12.3695

> <Gold.Chemscore.Internal_Hbond.Weighted>
0.0000

> <Gold.Chemscore.DEClash.Weighted>
1.8412

> <Gold.Chemscore.DEInternal.Weighted>
0.7369

> <Gold.Chemscore.Rot.Weighted>
6.0884

> <Gold.Chemscore.Internal.Correction.Weighted>
   9.000000E+99

> <Gold.Protein.RotatedTorsions>
[ 6907 6896 6895 6894 ] final -151.08 input  -60.11 | X-H torsion
[ 7974 7965 7964 7962 ] final  -54.25 input  175.53 | X-H torsion
[ 8008 7997 7996 7995 ] final  104.47 input   59.86 | X-H torsion
[ 10167 10162 10161 10158 ] final   51.37 input  -65.29 | X-H torsion
[ 10718 10713 10712 10709 ] final  -91.26 input   66.30 | X-H torsion
[ 10763 10752 10751 10750 ] final   51.84 input  -60.55 | X-H torsion
[ 11005 11000 10999 10996 ] final   30.93 input  -57.11 | X-H torsion

> <Gold.Protein.ActiveResidues>
 VAL166  LYS551  ARG553  GLY616  TRP617  ASP618  TYR619  PRO620  LYS621  CYS622 
 ASP623  PHE694  ASN695  SER759  ASP760  ASP761  ALA762  ILE779  LEU786  VAL792 
 PHE793  MET794  SER795  GLU796  ALA797  LYS798  CYS799  TRP800  GLU811  SER814 

> <Gold.Protein.RotatedAtoms>
  151.2079  133.4573  159.2597 H   0  0  0  0  0  0  0  0  0  0  0  0  # atno 6907 bound_to 6896
  151.1005  134.9970  159.8457 H   0  0  0  0  0  0  0  0  0  0  0  0  # atno 6908 bound_to 6896
  152.5443  134.2006  159.8763 H   0  0  0  0  0  0  0  0  0  0  0  0  # atno 6909 bound_to 6896
  145.8877  140.8095  142.9807 H   0  0  0  0  0  0  0  0  0  0  0  0  # atno 7974 bound_to 7965
  156.1576  140.3147  155.8752 H   0  0  0  0  0  0  0  0  0  0  0  0  # atno 8008 bound_to 7997
  155.3847  140.0490  157.3059 H   0  0  0  0  0  0  0  0  0  0  0  0  # atno 8009 bound_to 7997
  154.5116  140.2166  155.9157 H   0  0  0  0  0  0  0  0  0  0  0  0  # atno 8010 bound_to 7997
  140.2627  144.3355  150.6313 H   0  0  0  0  0  0  0  0  0  0  0  0  # atno 10167 bound_to 10162
  155.9992  130.4941  150.5447 H   0  0  0  0  0  0  0  0  0  0  0  0  # atno 10718 bound_to 10713
  152.9786  135.5832  154.4481 H   0  0  0  0  0  0  0  0  0  0  0  0  # atno 10763 bound_to 10752
  154.4074  135.2769  155.2060 H   0  0  0  0  0  0  0  0  0  0  0  0  # atno 10764 bound_to 10752
  154.3865  135.6135  153.5874 H   0  0  0  0  0  0  0  0  0  0  0  0  # atno 10765 bound_to 10752
  140.2892  134.2884  155.7780 H   0  0  0  0  0  0  0  0  0  0  0  0  # atno 11005 bound_to 11000
  144.6729  140.1481  143.7432 LP  0  0  0  0  0  0  0  0  0  0  0  0  # atno 17320 bound_to 7965
  145.8947  139.2396  143.1529 LP  0  0  0  0  0  0  0  0  0  0  0  0  # atno 17321 bound_to 7965
  140.5953  143.2167  151.7176 LP  0  0  0  0  0  0  0  0  0  0  0  0  # atno 17342 bound_to 10162
  139.5012  144.3877  152.0312 LP  0  0  0  0  0  0  0  0  0  0  0  0  # atno 17343 bound_to 10162
  157.3379  131.0711  151.1811 LP  0  0  0  0  0  0  0  0  0  0  0  0  # atno 17370 bound_to 10713
  157.2669  130.6686  149.6001 LP  0  0  0  0  0  0  0  0  0  0  0  0  # atno 17371 bound_to 10713
  141.2149  133.7574  156.9598 LP  0  0  0  0  0  0  0  0  0  0  0  0  # atno 17394 bound_to 11000
  140.1211  134.9416  157.2205 LP  0  0  0  0  0  0  0  0  0  0  0  0  # atno 17395 bound_to 11000

$$$$
