AV-unprocessed.smi:72|AV-procd|sdf|665|dock3
  -GOLD-   2262016563D 1   1.00000     0.00000
 Structure written by MMmdl.
 29 30  0  0  0  0  0  0  0  0  1 V2000
  150.0369  134.2439  156.9258 N   0  0  0  0  0  0  0  0  0  0  0  0
  149.8874  135.3979  156.3803 C   0  0  0  0  0  0  0  0  0  0  0  0
  148.7179  136.1708  156.4257 N   0  0  0  0  0  0  0  0  0  0  0  0
  148.7008  137.3131  155.8107 C   0  0  0  0  0  0  0  0  0  0  0  0
  149.8474  137.8099  155.0592 N   0  0  0  0  0  0  0  0  0  0  0  0
  149.8448  139.1497  154.3404 C   0  0  2  0  0  0  0  0  0  0  0  0
  150.7588  140.0187  154.9458 O   0  0  0  0  0  0  0  0  0  0  0  0
  150.0761  140.8856  155.8472 C   0  0  1  0  0  0  0  0  0  0  0  0
  150.9382  142.1070  156.2103 C   0  0  0  0  0  0  0  0  0  0  0  0
  150.3032  142.8611  157.2210 O   0  0  0  0  0  0  0  0  0  0  0  0
  148.7859  141.1844  155.0784 C   0  0  1  0  0  0  0  0  0  0  0  0
  149.0072  142.1992  154.1121 O   0  0  0  0  0  0  0  0  0  0  0  0
  148.4615  139.8304  154.4469 C   0  0  1  0  0  0  0  0  0  0  0  0
  147.7995  139.9571  153.2022 O   0  0  0  0  0  0  0  0  0  0  0  0
  151.0491  137.0590  155.0444 C   0  0  0  0  0  0  0  0  0  0  0  0
  152.0641  137.4504  154.4686 O   0  0  0  0  0  0  0  0  0  0  0  0
  151.0130  135.8792  155.7001 N   0  0  0  0  0  0  0  0  0  0  0  0
  150.1669  138.9298  153.3208 H   0  0  0  0  0  0  0  0  0  0  0  0
  149.8106  140.3356  156.7521 H   0  0  0  0  0  0  0  0  0  0  0  0
  147.9876  141.5175  155.7424 H   0  0  0  0  0  0  0  0  0  0  0  0
  147.8291  139.2625  155.1311 H   0  0  0  0  0  0  0  0  0  0  0  0
  149.1895  133.9619  157.3960 H   0  0  0  0  0  0  0  0  0  0  0  0
  147.8258  137.9628  155.8246 H   0  0  0  0  0  0  0  0  0  0  0  0
  151.9370  141.8096  156.5316 H   0  0  0  0  0  0  0  0  0  0  0  0
  151.0539  142.7566  155.3421 H   0  0  0  0  0  0  0  0  0  0  0  0
  149.6202  143.3795  156.8237 H   0  0  0  0  0  0  0  0  0  0  0  0
  149.0822  143.0259  154.5645 H   0  0  0  0  0  0  0  0  0  0  0  0
  148.4516  139.9578  152.5175 H   0  0  0  0  0  0  0  0  0  0  0  0
  151.8533  135.3197  155.6972 H   0  0  0  0  0  0  0  0  0  0  0  0
  1  2  2  0  0  0  0
  1 22  1  0  0  0  0
  2 17  1  0  0  0  0
  2  3  1  0  0  0  0
  3  4  2  0  0  0  0
  4  5  1  0  0  0  0
  4 23  1  0  0  0  0
  5  6  1  0  0  0  0
  5 15  1  0  0  0  0
  6 18  1  0  0  0  0
  6 13  1  0  0  0  0
  6  7  1  0  0  0  0
  7  8  1  0  0  0  0
  8 19  1  0  0  0  0
  8  9  1  0  0  0  0
  8 11  1  0  0  0  0
  9 10  1  0  0  0  0
  9 24  1  0  0  0  0
  9 25  1  0  0  0  0
 10 26  1  0  0  0  0
 11 20  1  0  0  0  0
 11 12  1  0  0  0  0
 11 13  1  0  0  0  0
 12 27  1  0  0  0  0
 13 21  1  0  0  0  0
 13 14  1  0  0  0  0
 14 28  1  0  0  0  0
 15 16  2  0  0  0  0
 15 17  1  0  0  0  0
 17 29  1  0  0  0  0
M  END
> <s_m_source_file>
AV-unprocessed.smi

> <i_m_source_file_index>
72

> <i_lp_mmshare_version>
43012

> <i_f3d_flags>
0

> <s_epik_input>
W05IMl1jMW5bY0hdbihjKD1PKW4xKVtDQEBIXTJPW0NASF0oW0NIMl1bT0hdKVtDQEBIXShbT0hdKVtDQEhdMltPSF0=

> <s_epik_cmdline>
J2VwaWtfcHl0aG9uJywgJy1waCcsICc3LjAnLCAnLXRuJywgJzgnLCAnLW1hJywgJzIwMCcsICctbWV0YWxfYmluZGluZycsICctaW1hZScsICc8aW5maWxlLm1hZT4nLCAnLW9tYWUnLCAnPG91dGZpbGUubWFlPic=

> <r_lp_tautomer_probability>
7.17554e-07

> <r_epik_Ionization_Penalty>
0.0066451

> <r_epik_Ionization_Penalty_Charging>
0.00663793

> <r_epik_Ionization_Penalty_Neutral>
7.17052e-06

> <r_epik_State_Penalty>
0.419231

> <r_epik_Charging_Adjusted_Penalty>
0.425868

> <i_epik_Tot_Q>
0

> <i_epik_Tot_abs_Q>
0

> <r_epik_Metal_State_Penalty>
1.44144

> <b_epik_Metal_Only>
0

> <s_epik_Chemistry_Notes>
This compound contains an acetal/aminal-like group ( X-CH(R)-Y where X, Y are N, S, or O) that may be acid/base labile, releasing an aldehyde.

> <s_lp_Force_Field>
OPLS_2005

> <r_lp_Energy>
42.7632

> <b_lp_Chiralities_Consistent>
1

> <s_lp_Variant>
AV-unprocessed.smi:72-3

> <Gold.Version>
5.8.1

> <Gold.Id.Protein>
6NUR|6NUR_protein|mol2

> <Gold.PLP.Fitness>
38.8960

> <Gold.PLP.PLP>
-23.4194

> <Gold.PLP.part.hbond>
-6.1211

> <Gold.PLP.part.metal>
0.0000

> <Gold.PLP.part.buried>
-5.7842

> <Gold.PLP.part.nonpolar>
-12.1051

> <Gold.PLP.part.repulsive>
0.3188

> <Gold.PLP.ligand.clash>
0.0000

> <Gold.PLP.ligand.torsion>
0.0735

> <Gold.PLP.Chemscore.Hbond>
5.2000

> <Gold.PLP.Chemscore.CHOScore>
0.0000

> <Gold.PLP.Chemscore.Metal>
0.0000

> <Gold.Chemscore.Hbonds>
donor molecule, donor type, donor heavy atom, donor atom, acceptor molecule, acceptor atom, score
      L1  H    10    26       P1  8028  1.00
      L1  H    12    27       P1  8028  1.00
      L1  H    14    28       P1  7957  1.00
      P1  H  7989  7998       L1     7  1.00
      P1  H  8011  8017       L1    12  0.29
      P1  H 10752 10765       L1    16  0.68

> <Gold.PLP.Chemscore.Internal.Correction>
0.0237

> <Gold.Rescore>
     Score         DG    S(hbond)    S(metal)    S(lipo)     H(rot)  DE(clash)    DE(int)     intcor
     11.75     -12.96       4.41        0.00      26.93       4.06       0.02       1.18       ----

> <Gold.Chemscore.Fitness>
11.7544

> <Gold.Chemscore.DG>
-12.9567

> <Gold.Chemscore.ZeroCoef>
-5.4800

> <Gold.Chemscore.Hbond>
4.4070

> <Gold.Chemscore.Metal>
0.0000

> <Gold.Chemscore.Lipo>
26.9302

> <Gold.Chemscore.Internal_Hbond>
0.0000

> <Gold.Chemscore.DEClash>
0.0221

> <Gold.Chemscore.DEInternal>
1.1802

> <Gold.Chemscore.Rot>
4.0600

> <Gold.Chemscore.Internal.Correction>
   9.000000E+99

> <Gold.Chemscore.Hbonds>
donor molecule, donor type, donor heavy atom, donor atom, acceptor molecule, acceptor atom, score
      L1  H    10    26       P1  8028  0.98
      L1  H    12    27       P1  8028  0.96
      L1  H    14    28       P1  7957  1.00
      P1  H  7989  7998       L1     7  0.45
      P1  H  8011  8017       L1    12  0.18
      P1  H 10752 10765       L1    16  0.10

> <Gold.Chemscore.Hbond.Weighted>
-14.7195

> <Gold.Chemscore.Metal.Weighted>
-0.0000

> <Gold.Chemscore.Lipo.Weighted>
-3.1508

> <Gold.Chemscore.Internal_Hbond.Weighted>
0.0000

> <Gold.Chemscore.DEClash.Weighted>
0.0221

> <Gold.Chemscore.DEInternal.Weighted>
1.1802

> <Gold.Chemscore.Rot.Weighted>
10.3936

> <Gold.Chemscore.Internal.Correction.Weighted>
   9.000000E+99

> <Gold.Protein.RotatedTorsions>
[ 6907 6896 6895 6894 ] final  123.96 input  -60.11 | X-H torsion
[ 7974 7965 7964 7962 ] final  136.50 input  175.53 | X-H torsion
[ 8008 7997 7996 7995 ] final   58.45 input   59.86 | X-H torsion
[ 10167 10162 10161 10158 ] final  155.70 input  -65.29 | X-H torsion
[ 10718 10713 10712 10709 ] final  -80.05 input   66.30 | X-H torsion
[ 10763 10752 10751 10750 ] final  166.37 input  -60.55 | X-H torsion
[ 11005 11000 10999 10996 ] final -151.73 input  -57.11 | X-H torsion

> <Gold.Protein.ActiveResidues>
 VAL166  LYS551  ARG553  GLY616  TRP617  ASP618  TYR619  PRO620  LYS621  CYS622 
 ASP623  PHE694  ASN695  SER759  ASP760  ASP761  ALA762  ILE779  LEU786  VAL792 
 PHE793  MET794  SER795  GLU796  ALA797  LYS798  CYS799  TRP800  GLU811  SER814 

> <Gold.Protein.RotatedAtoms>
  152.4118  133.6975  159.6403 H   0  0  0  0  0  0  0  0  0  0  0  0  # atno 6907 bound_to 6896
  150.7997  133.8611  159.3241 H   0  0  0  0  0  0  0  0  0  0  0  0  # atno 6908 bound_to 6896
  151.6351  135.1020  160.0181 H   0  0  0  0  0  0  0  0  0  0  0  0  # atno 6909 bound_to 6896
  144.9559  139.4765  143.5503 H   0  0  0  0  0  0  0  0  0  0  0  0  # atno 7974 bound_to 7965
  155.5502  140.3486  155.4467 H   0  0  0  0  0  0  0  0  0  0  0  0  # atno 8008 bound_to 7997
  156.0589  140.1335  156.9991 H   0  0  0  0  0  0  0  0  0  0  0  0  # atno 8009 bound_to 7997
  154.4470  140.0989  156.6471 H   0  0  0  0  0  0  0  0  0  0  0  0  # atno 8010 bound_to 7997
  139.4821  144.5075  151.8076 H   0  0  0  0  0  0  0  0  0  0  0  0  # atno 10167 bound_to 10162
  156.0078  130.4563  150.3741 H   0  0  0  0  0  0  0  0  0  0  0  0  # atno 10718 bound_to 10713
  154.3379  135.2754  155.2438 H   0  0  0  0  0  0  0  0  0  0  0  0  # atno 10763 bound_to 10752
  154.4721  135.5880  153.6332 H   0  0  0  0  0  0  0  0  0  0  0  0  # atno 10764 bound_to 10752
  152.9860  135.6090  154.3578 H   0  0  0  0  0  0  0  0  0  0  0  0  # atno 10765 bound_to 10752
  140.7265  134.3669  157.5174 H   0  0  0  0  0  0  0  0  0  0  0  0  # atno 11005 bound_to 11000
  146.3337  139.8676  142.8845 LP  0  0  0  0  0  0  0  0  0  0  0  0  # atno 17320 bound_to 7965
  145.2773  141.0128  143.3737 LP  0  0  0  0  0  0  0  0  0  0  0  0  # atno 17321 bound_to 7965
  140.4574  144.1770  150.5903 LP  0  0  0  0  0  0  0  0  0  0  0  0  # atno 17342 bound_to 10162
  140.4521  143.2482  151.9334 LP  0  0  0  0  0  0  0  0  0  0  0  0  # atno 17343 bound_to 10162
  157.1824  131.0395  151.2741 LP  0  0  0  0  0  0  0  0  0  0  0  0  # atno 17370 bound_to 10713
  157.4134  130.7397  149.6856 LP  0  0  0  0  0  0  0  0  0  0  0  0  # atno 17371 bound_to 10713
  139.8836  134.8990  156.2756 LP  0  0  0  0  0  0  0  0  0  0  0  0  # atno 17394 bound_to 11000
  140.9958  133.7181  156.0884 LP  0  0  0  0  0  0  0  0  0  0  0  0  # atno 17395 bound_to 11000

$$$$
