#       Name:                AV-unprocessed.smi:968
#       Creating user name   scv26
#       Creation time:       Fri Mar 27 02:19:37 2020


#       File generated by GOLD software.
#

@<TRIPOS>MOLECULE
AV-unprocessed.smi:968
    24    24     1
SMALL
NO_CHARGES


@<TRIPOS>ATOM
      1 ****        -2.8835  -2.5143  -0.1419 C.3            1 S1                 0.0000
      2 ****        -1.4642  -2.1997  -0.0835 N.am           1 S1                 0.0000
      3 ****        -0.9594  -0.9633  -0.2000 C.2            1 S1                 0.0000
      4 ****        -1.6617   0.0343  -0.3738 O.2            1 S1                 0.0000
      5 ****         0.5683  -0.8569  -0.1078 C.3            1 S1                 0.0000
      6 ****         1.0476   0.5143  -0.1672 N.pl3          1 S1                 0.0000
      7 ****         1.2493   1.3199  -1.2128 C.2            1 S1                 0.0000
      8 ****         1.7007   2.5229  -0.8836 N.2            1 S1                 0.0000
      9 ****         1.7569   2.3780   0.4731 C.2            1 S1                 0.0000
     10 ****         2.1945   3.4280   1.2973 N.pl3          1 S1                 0.0000
     11 ****         1.3788   1.1953   0.9560 N.2            1 S1                 0.0000
     12 ****        -3.0282  -3.5920  -0.0700 H              1 S1                 0.0000
     13 ****        -3.3211  -2.1740  -1.0814 H              1 S1                 0.0000
     14 ****        -3.4190  -2.0425   0.6829 H              1 S1                 0.0000
     15 ****        -0.8257  -2.9691   0.0575 H              1 S1                 0.0000
     16 ****         0.9109  -1.3154   0.8213 H              1 S1                 0.0000
     17 ****         1.0193  -1.4154  -0.9288 H              1 S1                 0.0000
     18 ****         1.0600   1.0210  -2.2333 H              1 S1                 0.0000
     19 ****         2.4752   4.3099   0.8940 H              1 S1                 0.0000
     20 ****         2.2614   3.2978   2.2963 H              1 S1                 0.0000
     21 ****        -2.6556  -0.0583  -0.4338 LP             1 S1                 0.0000
     22 ****        -1.2378   0.9363  -0.4548 LP             1 S1                 0.0000
     23 ****         1.9321   3.3065  -1.4601 LP             1 S1                 0.0000
     24 ****         1.3474   0.8879   1.9071 LP             1 S1                 0.0000
@<TRIPOS>BOND
    1    1    2 1     
    2    1   12 1     
    3    1   13 1     
    4    1   14 1     
    5    2    3 am    
    6    2   15 1     
    7    3    4 2     
    8    3    5 1     
    9    5    6 1     
   10    5   16 1     
   11    5   17 1     
   12    6   11 1     
   13    6    7 1     
   14    7    8 2     
   15    7   18 1     
   16    8    9 1     
   17    9   10 1     
   18    9   11 2     
   19   10   19 1     
   20   10   20 1     
   21    4   21 1     
   22    4   22 1     
   23    8   23 1     
   24   11   24 1     
@<TRIPOS>SUBSTRUCTURE
      1 S1             1
@<TRIPOS>SET
LONE_PAIRS      STATIC     ATOMS    <user>   **** ""
4 21 22 23 24
DONOR_HYDROGENS      STATIC     ATOMS    <user>   **** ""
3 15 19 20
ATOM$BLUE        STATIC     ATOMS    COLORGROUP SYSTEM
4 21 22 23 24
ATOM$RED        STATIC     ATOMS    COLORGROUP SYSTEM
3 15 19 20
