#       Name:                AV-unprocessed.smi:3118
#       Creating user name   scv26
#       Creation time:       Fri Mar 27 17:27:51 2020


#       File generated by GOLD software.
#

@<TRIPOS>MOLECULE
AV-unprocessed.smi:3118
    35    36     1
SMALL
NO_CHARGES


@<TRIPOS>ATOM
      1 ****        -0.1548  -1.5813  -1.3823 C.3            1 S1                 0.0000
      2 ****         0.3984  -0.8921  -0.1203 C.3            1 S1                 0.0000
      3 ****         1.9337  -0.9799  -0.0082 C.3            1 S1                 0.0000
      4 ****         2.4214  -2.3466  -0.0062 N.pl3          1 S1                 0.0000
      5 ****         2.3138  -3.2715   1.0243 C.2            1 S1                 0.0000
      6 ****         2.9205  -4.4253   0.5820 C.2            1 S1                 0.0000
      7 ****         3.4110  -4.2325  -0.7074 N.2            1 S1                 0.0000
      8 ****         3.0808  -2.9783  -0.9874 C.2            1 S1                 0.0000
      9 ****        -0.0004   0.5126  -0.0934 N.am           1 S1                 0.0000
     10 ****        -1.1948   0.9775   0.3045 C.2            1 S1                 0.0000
     11 ****        -2.1062   0.2486   0.6984 O.2            1 S1                 0.0000
     12 ****        -1.3737   2.5005   0.2488 C.3            1 S1                 0.0000
     13 ****        -2.1186   3.1152   1.4481 C.3            1 S1                 0.0000
     14 ****        -2.9202   3.9669   0.4596 C.3            1 S1                 0.0000
     15 ****        -2.5422   2.9663  -0.6366 C.3            1 S1                 0.0000
     16 ****         0.0767  -2.6465  -1.3897 H              1 S1                 0.0000
     17 ****         0.2644  -1.1432  -2.2886 H              1 S1                 0.0000
     18 ****        -1.2398  -1.4903  -1.4407 H              1 S1                 0.0000
     19 ****        -0.0279  -1.3883   0.7537 H              1 S1                 0.0000
     20 ****         2.4052  -0.4451  -0.8343 H              1 S1                 0.0000
     21 ****         2.2738  -0.4996   0.9102 H              1 S1                 0.0000
     22 ****         1.8260  -3.0388   1.9595 H              1 S1                 0.0000
     23 ****         3.0427  -5.3710   1.0893 H              1 S1                 0.0000
     24 ****         3.3217  -2.5096  -1.9304 H              1 S1                 0.0000
     25 ****         0.6875   1.1855  -0.3993 H              1 S1                 0.0000
     26 ****        -0.4507   3.0390   0.0241 H              1 S1                 0.0000
     27 ****        -2.7461   2.4144   2.0012 H              1 S1                 0.0000
     28 ****        -1.4860   3.6953   2.1206 H              1 S1                 0.0000
     29 ****        -3.9880   4.0276   0.6720 H              1 S1                 0.0000
     30 ****        -2.4811   4.9529   0.3007 H              1 S1                 0.0000
     31 ****        -2.2377   3.4306  -1.5749 H              1 S1                 0.0000
     32 ****        -3.3105   2.2079  -0.7986 H              1 S1                 0.0000
     33 ****         3.8980  -4.8864  -1.2864 LP             1 S1                 0.0000
     34 ****        -1.9747  -0.7421   0.7329 LP             1 S1                 0.0000
     35 ****        -2.9776   0.6475   0.9838 LP             1 S1                 0.0000
@<TRIPOS>BOND
    1    1    2 1     
    2    1   16 1     
    3    1   17 1     
    4    1   18 1     
    5    2    3 1     
    6    2    9 1     
    7    2   19 1     
    8    3    4 1     
    9    3   20 1     
   10    3   21 1     
   11    4    8 1     
   12    4    5 1     
   13    5    6 2     
   14    5   22 1     
   15    6    7 1     
   16    6   23 1     
   17    7    8 2     
   18    8   24 1     
   19    9   10 am    
   20    9   25 1     
   21   10   11 2     
   22   10   12 1     
   23   12   15 1     
   24   12   13 1     
   25   12   26 1     
   26   13   14 1     
   27   13   27 1     
   28   13   28 1     
   29   14   15 1     
   30   14   29 1     
   31   14   30 1     
   32   15   31 1     
   33   15   32 1     
   34    7   33 1     
   35   11   34 1     
   36   11   35 1     
@<TRIPOS>SUBSTRUCTURE
      1 S1             1
@<TRIPOS>SET
LONE_PAIRS      STATIC     ATOMS    <user>   **** ""
3 33 34 35
DONOR_HYDROGENS      STATIC     ATOMS    <user>   **** ""
1 25
ATOM$BLUE        STATIC     ATOMS    COLORGROUP SYSTEM
3 33 34 35
ATOM$RED        STATIC     ATOMS    COLORGROUP SYSTEM
1 25
