AV-unprocessed.smi:2060|AV-procd|sdf|8355|dock2
  -GOLD-   2272011 23D 1   1.00000     0.00000
 Structure written by MMmdl.
 45 46  0  0  0  0  0  0  0  0  1 V2000
  146.6336  141.3423  157.0241 C   0  0  0  0  0  0  0  0  0  0  0  0
  146.5947  141.4213  155.4869 C   0  0  0  0  0  0  0  0  0  0  0  0
  147.2933  140.2465  154.7308 C   0  0  2  0  0  0  0  0  0  0  0  0
  147.1906  140.5772  153.2171 C   0  0  0  0  0  0  0  0  0  0  0  0
  146.4917  138.9314  154.9968 C   0  0  0  0  0  0  0  0  0  0  0  0
  145.1043  138.9775  154.5337 N   0  0  0  0  0  0  0  0  0  0  0  0
  144.1508  138.0813  154.8282 C   0  0  0  0  0  0  0  0  0  0  0  0
  144.3370  137.0979  155.5455 O   0  0  0  0  0  0  0  0  0  0  0  0
  142.9828  138.4049  154.2476 N   0  0  0  0  0  0  0  0  0  0  0  0
  141.7542  137.7011  154.3271 C   0  0  0  0  0  0  0  0  0  0  0  0
  140.5815  138.2102  153.7084 C   0  0  0  0  0  0  0  0  0  0  0  0
  139.6410  137.2642  154.0054 C   0  0  0  0  0  0  0  0  0  0  0  0
  138.1918  137.1390  153.6810 C   0  0  0  0  0  0  0  0  0  0  0  0
  140.1933  136.2621  154.7422 O   0  0  0  0  0  0  0  0  0  0  0  0
  141.5483  136.5485  154.9460 N   0  0  0  0  0  0  0  0  0  0  0  0
  148.7203  140.1229  155.1441 N   0  0  0  0  0  0  0  0  0  0  0  0
  149.4611  141.3870  155.2322 C   0  0  0  0  0  0  0  0  0  0  0  0
  150.8758  141.1871  155.8028 C   0  0  0  0  0  0  0  0  0  0  0  0
  151.5859  140.2438  155.0092 O   0  0  0  0  0  0  0  0  0  0  0  0
  150.9276  138.9844  154.9432 C   0  0  0  0  0  0  0  0  0  0  0  0
  149.5161  139.1690  154.3616 C   0  0  0  0  0  0  0  0  0  0  0  0
  146.1224  142.2000  157.4615 H   0  0  0  0  0  0  0  0  0  0  0  0
  147.6545  141.3461  157.4044 H   0  0  0  0  0  0  0  0  0  0  0  0
  146.1389  140.4459  157.3981 H   0  0  0  0  0  0  0  0  0  0  0  0
  145.5572  141.5133  155.1654 H   0  0  0  0  0  0  0  0  0  0  0  0
  147.0505  142.3700  155.2030 H   0  0  0  0  0  0  0  0  0  0  0  0
  146.1894  140.9051  152.9356 H   0  0  0  0  0  0  0  0  0  0  0  0
  147.4165  139.7113  152.5946 H   0  0  0  0  0  0  0  0  0  0  0  0
  147.8798  141.3719  152.9308 H   0  0  0  0  0  0  0  0  0  0  0  0
  146.9512  138.0933  154.4744 H   0  0  0  0  0  0  0  0  0  0  0  0
  146.5171  138.6671  156.0542 H   0  0  0  0  0  0  0  0  0  0  0  0
  144.8551  139.7550  153.9401 H   0  0  0  0  0  0  0  0  0  0  0  0
  142.9707  139.2445  153.6876 H   0  0  0  0  0  0  0  0  0  0  0  0
  140.4487  139.1186  153.1398 H   0  0  0  0  0  0  0  0  0  0  0  0
  137.7536  138.1163  153.4777 H   0  0  0  0  0  0  0  0  0  0  0  0
  137.6441  136.6906  154.5102 H   0  0  0  0  0  0  0  0  0  0  0  0
  138.0466  136.5129  152.8005 H   0  0  0  0  0  0  0  0  0  0  0  0
  149.5439  141.8475  154.2479 H   0  0  0  0  0  0  0  0  0  0  0  0
  148.9434  142.0989  155.8728 H   0  0  0  0  0  0  0  0  0  0  0  0
  151.4204  142.1313  155.8047 H   0  0  0  0  0  0  0  0  0  0  0  0
  150.8296  140.8418  156.8368 H   0  0  0  0  0  0  0  0  0  0  0  0
  151.5108  138.3105  154.3155 H   0  0  0  0  0  0  0  0  0  0  0  0
  150.8799  138.5363  155.9370 H   0  0  0  0  0  0  0  0  0  0  0  0
  149.0379  138.1920  154.3302 H   0  0  0  0  0  0  0  0  0  0  0  0
  149.6085  139.5091  153.3302 H   0  0  0  0  0  0  0  0  0  0  0  0
  1  2  1  0  0  0  0
  1 22  1  0  0  0  0
  1 23  1  0  0  0  0
  1 24  1  0  0  0  0
  2  3  1  0  0  0  0
  2 25  1  0  0  0  0
  2 26  1  0  0  0  0
  3  4  1  0  0  0  0
  3  5  1  0  0  0  0
  3 16  1  0  0  0  0
  4 27  1  0  0  0  0
  4 28  1  0  0  0  0
  4 29  1  0  0  0  0
  5  6  1  0  0  0  0
  5 30  1  0  0  0  0
  5 31  1  0  0  0  0
  6  7  1  0  0  0  0
  6 32  1  0  0  0  0
  7  8  2  0  0  0  0
  7  9  1  0  0  0  0
  9 10  1  0  0  0  0
  9 33  1  0  0  0  0
 10 15  2  0  0  0  0
 10 11  1  0  0  0  0
 11 12  2  0  0  0  0
 11 34  1  0  0  0  0
 12 13  1  0  0  0  0
 12 14  1  0  0  0  0
 13 35  1  0  0  0  0
 13 36  1  0  0  0  0
 13 37  1  0  0  0  0
 14 15  1  0  0  0  0
 16 21  1  0  0  0  0
 16 17  1  0  0  0  0
 17 18  1  0  0  0  0
 17 38  1  0  0  0  0
 17 39  1  0  0  0  0
 18 19  1  0  0  0  0
 18 40  1  0  0  0  0
 18 41  1  0  0  0  0
 19 20  1  0  0  0  0
 20 21  1  0  0  0  0
 20 42  1  0  0  0  0
 20 43  1  0  0  0  0
 21 44  1  0  0  0  0
 21 45  1  0  0  0  0
M  END
> <s_m_source_file>
AV-unprocessed.smi

> <i_m_source_file_index>
2060

> <i_lp_mmshare_version>
43012

> <i_f3d_flags>
0

> <s_epik_input>
W0NIMl0xW0NIMl1PW0NIMl1bQ0gyXU4xW0NAQF0oW0NIM10pKFtDSDJdW0NIM10pW0NIMl1bTkhdQyg9TylbTkhdYzJbY0hdYyhbQ0gzXSlvbjI=

> <s_epik_cmdline>
J2VwaWtfcHl0aG9uJywgJy1waCcsICc3LjAnLCAnLXRuJywgJzgnLCAnLW1hJywgJzIwMCcsICctbWV0YWxfYmluZGluZycsICctaW1hZScsICc8aW5maWxlLm1hZT4nLCAnLW9tYWUnLCAnPG91dGZpbGUubWFlPic=

> <r_epik_Ionization_Penalty>
0.289127

> <r_epik_Ionization_Penalty_Charging>
0

> <r_epik_Ionization_Penalty_Neutral>
0.289127

> <r_epik_State_Penalty>
0.282056

> <r_epik_Charging_Adjusted_Penalty>
0.282056

> <i_epik_Tot_Q>
0

> <i_epik_Tot_abs_Q>
0

> <r_epik_Metal_State_Penalty>
0.284526

> <b_epik_Metal_Only>
0

> <s_lp_Force_Field>
OPLS_2005

> <r_lp_Energy>
40.1787

> <b_lp_Chiralities_Consistent>
1

> <s_lp_Variant>
AV-unprocessed.smi:2060-2

> <Gold.Version>
5.8.1

> <Gold.Id.Protein>
6NUR|6NUR_protein|mol2

> <Gold.PLP.Fitness>
42.5550

> <Gold.PLP.PLP>
-31.0662

> <Gold.PLP.part.hbond>
-4.5137

> <Gold.PLP.part.metal>
0.0000

> <Gold.PLP.part.buried>
-4.9411

> <Gold.PLP.part.nonpolar>
-22.0813

> <Gold.PLP.part.repulsive>
0.1886

> <Gold.PLP.ligand.clash>
0.0000

> <Gold.PLP.ligand.torsion>
0.2745

> <Gold.PLP.Chemscore.Hbond>
3.9520

> <Gold.PLP.Chemscore.CHOScore>
0.0000

> <Gold.PLP.Chemscore.Metal>
0.0000

> <Gold.Chemscore.Hbonds>
donor molecule, donor type, donor heavy atom, donor atom, acceptor molecule, acceptor atom, score
      L1  H     6    32       P1 10175  0.96
      L1  H     9    33       P1 10175  1.00
      P1  H  7989  7998       L1    19  0.98
      P1  H 11000 11005       L1    14  1.00

> <Gold.PLP.Chemscore.Internal.Correction>
0.1817

> <Gold.Rescore>
     Score         DG    S(hbond)    S(metal)    S(lipo)     H(rot)  DE(clash)    DE(int)     intcor
     16.34     -17.84       2.64        0.00      67.89       1.71       0.01       1.48       ----

> <Gold.Chemscore.Fitness>
16.3441

> <Gold.Chemscore.DG>
-17.8427

> <Gold.Chemscore.ZeroCoef>
-5.4800

> <Gold.Chemscore.Hbond>
2.6372

> <Gold.Chemscore.Metal>
0.0000

> <Gold.Chemscore.Lipo>
67.8902

> <Gold.Chemscore.Internal_Hbond>
0.0000

> <Gold.Chemscore.DEClash>
0.0141

> <Gold.Chemscore.DEInternal>
1.4845

> <Gold.Chemscore.Rot>
1.7143

> <Gold.Chemscore.Internal.Correction>
   9.000000E+99

> <Gold.Chemscore.Hbonds>
donor molecule, donor type, donor heavy atom, donor atom, acceptor molecule, acceptor atom, score
      L1  H     6    32       P1 10175  0.88
      L1  H     9    33       P1 10175  0.99
      P1  H  7989  7998       L1    19  0.36
      P1  H 11000 11005       L1    14  0.24

> <Gold.Chemscore.Hbond.Weighted>
-8.8081

> <Gold.Chemscore.Metal.Weighted>
-0.0000

> <Gold.Chemscore.Lipo.Weighted>
-7.9431

> <Gold.Chemscore.Internal_Hbond.Weighted>
0.0000

> <Gold.Chemscore.DEClash.Weighted>
0.0141

> <Gold.Chemscore.DEInternal.Weighted>
1.4845

> <Gold.Chemscore.Rot.Weighted>
4.3885

> <Gold.Chemscore.Internal.Correction.Weighted>
   9.000000E+99

> <Gold.Protein.RotatedTorsions>
[ 6907 6896 6895 6894 ] final  -22.44 input  -60.11 | X-H torsion
[ 7974 7965 7964 7962 ] final   76.70 input  175.53 | X-H torsion
[ 8008 7997 7996 7995 ] final   -3.59 input   59.86 | X-H torsion
[ 10167 10162 10161 10158 ] final -138.51 input  -65.29 | X-H torsion
[ 10718 10713 10712 10709 ] final  -17.63 input   66.30 | X-H torsion
[ 10763 10752 10751 10750 ] final  147.48 input  -60.55 | X-H torsion
[ 11005 11000 10999 10996 ] final   65.57 input  -57.11 | X-H torsion

> <Gold.Protein.ActiveResidues>
 VAL166  LYS551  ARG553  GLY616  TRP617  ASP618  TYR619  PRO620  LYS621  CYS622 
 ASP623  PHE694  ASN695  SER759  ASP760  ASP761  ALA762  ILE779  LEU786  VAL792 
 PHE793  MET794  SER795  GLU796  ALA797  LYS798  CYS799  TRP800  GLU811  SER814 

> <Gold.Protein.RotatedAtoms>
  151.2186  135.0509  159.8940 H   0  0  0  0  0  0  0  0  0  0  0  0  # atno 6907 bound_to 6896
  152.5418  134.0666  159.8185 H   0  0  0  0  0  0  0  0  0  0  0  0  # atno 6908 bound_to 6896
  151.0829  133.5328  159.2651 H   0  0  0  0  0  0  0  0  0  0  0  0  # atno 6909 bound_to 6896
  145.6995  139.2578  143.1714 H   0  0  0  0  0  0  0  0  0  0  0  0  # atno 7974 bound_to 7965
  154.6232  140.2505  155.7523 H   0  0  0  0  0  0  0  0  0  0  0  0  # atno 8008 bound_to 7997
  156.2439  140.2922  156.0470 H   0  0  0  0  0  0  0  0  0  0  0  0  # atno 8009 bound_to 7997
  155.1863  140.0390  157.2882 H   0  0  0  0  0  0  0  0  0  0  0  0  # atno 8010 bound_to 7997
  139.8471  143.7247  152.2660 H   0  0  0  0  0  0  0  0  0  0  0  0  # atno 10167 bound_to 10162
  156.5708  130.4749  149.6364 H   0  0  0  0  0  0  0  0  0  0  0  0  # atno 10718 bound_to 10713
  154.0391  135.2891  155.3357 H   0  0  0  0  0  0  0  0  0  0  0  0  # atno 10763 bound_to 10752
  154.6940  135.5215  153.8436 H   0  0  0  0  0  0  0  0  0  0  0  0  # atno 10764 bound_to 10752
  153.0607  135.6613  154.0597 H   0  0  0  0  0  0  0  0  0  0  0  0  # atno 10765 bound_to 10752
  139.9886  134.6627  156.0131 H   0  0  0  0  0  0  0  0  0  0  0  0  # atno 11005 bound_to 11000
  146.0811  140.7763  142.9641 LP  0  0  0  0  0  0  0  0  0  0  0  0  # atno 17320 bound_to 7965
  144.6973  140.3490  143.7185 LP  0  0  0  0  0  0  0  0  0  0  0  0  # atno 17321 bound_to 7965
  139.7502  144.7536  151.0518 LP  0  0  0  0  0  0  0  0  0  0  0  0  # atno 17342 bound_to 10162
  140.7792  143.4869  150.9944 LP  0  0  0  0  0  0  0  0  0  0  0  0  # atno 17343 bound_to 10162
  156.2716  130.7020  151.1819 LP  0  0  0  0  0  0  0  0  0  0  0  0  # atno 17370 bound_to 10713
  157.7348  131.0578  150.5502 LP  0  0  0  0  0  0  0  0  0  0  0  0  # atno 17371 bound_to 10713
  141.1546  133.6544  156.4122 LP  0  0  0  0  0  0  0  0  0  0  0  0  # atno 17394 bound_to 11000
  140.4952  134.6537  157.5227 LP  0  0  0  0  0  0  0  0  0  0  0  0  # atno 17395 bound_to 11000

$$$$
