#       Name:                AV-unprocessed.smi:769
#       Creating user name   scv26
#       Creation time:       Fri Mar 27 01:09:17 2020


#       File generated by GOLD software.
#

@<TRIPOS>MOLECULE
AV-unprocessed.smi:769
    55    57     1
SMALL
NO_CHARGES


@<TRIPOS>ATOM
      1 ****        -1.9561   2.2950   1.9990 O.2            1 S1                 0.0000
      2 ****        -1.6014   3.2274   1.2685 C.2            1 S1                 0.0000
      3 ****        -1.2041   3.1560  -0.0308 N.pl3          1 S1                -1.0000
      4 ****        -1.1825   1.9341  -0.8336 C.3            1 S1                 0.0000
      5 ****         0.1820   1.2299  -0.7008 C.3            1 S1                 0.0000
      6 ****         0.2388  -0.0025  -1.5295 N.4            1 S1                 1.0000
      7 ****         1.4966  -0.1213  -2.3146 C.3            1 S1                 0.0000
      8 ****         1.4837  -1.3785  -3.2039 C.3            1 S1                 0.0000
      9 ****         1.2371  -2.5572  -2.3665 N.am           1 S1                 0.0000
     10 ****         2.1565  -3.5378  -2.1899 C.2            1 S1                 0.0000
     11 ****         3.2331  -3.5368  -2.7881 O.2            1 S1                 0.0000
     12 ****         1.8616  -4.6680  -1.1796 C.3            1 S1                 0.0000
     13 ****         2.9903  -5.6923  -0.9439 C.3            1 S1                 0.0000
     14 ****         2.2696  -6.6732  -1.8737 C.3            1 S1                 0.0000
     15 ****         1.0078  -5.8126  -1.7527 C.3            1 S1                 0.0000
     16 ****        -0.0693  -2.4754  -1.7039 C.3            1 S1                 0.0000
     17 ****        -0.0860  -1.2475  -0.7764 C.3            1 S1                 0.0000
     18 ****        -1.5934   4.4908   1.7306 N.am           1 S1                 0.0000
     19 ****        -1.9670   4.9805   3.0112 C.ar           1 S1                 0.0000
     20 ****        -2.4427   6.3080   3.0905 C.ar           1 S1                 0.0000
     21 ****        -2.8078   6.8419   4.3428 C.ar           1 S1                 0.0000
     22 ****        -2.6890   6.0870   5.4562 N.pl3          1 S1                 1.0000
     23 ****        -2.2217   4.8200   5.4326 C.ar           1 S1                 0.0000
     24 ****        -1.8408   4.2325   4.2092 C.ar           1 S1                 0.0000
     25 ****        -1.9747   1.2392  -0.5513 H              1 S1                 0.0000
     26 ****        -1.3579   2.1566  -1.8865 H              1 S1                 0.0000
     27 ****         0.9594   1.9269  -1.0191 H              1 S1                 0.0000
     28 ****         0.4014   0.9924   0.3416 H              1 S1                 0.0000
     29 ****         1.6226   0.7641  -2.9392 H              1 S1                 0.0000
     30 ****         2.3475  -0.1557  -1.6322 H              1 S1                 0.0000
     31 ****         0.6935  -1.3003  -3.9522 H              1 S1                 0.0000
     32 ****         2.4174  -1.4389  -3.7643 H              1 S1                 0.0000
     33 ****         1.4880  -4.2796  -0.2315 H              1 S1                 0.0000
     34 ****         3.9871  -5.4102  -1.2845 H              1 S1                 0.0000
     35 ****         3.0208  -6.0417   0.0891 H              1 S1                 0.0000
     36 ****         2.6818  -6.6742  -2.8839 H              1 S1                 0.0000
     37 ****         2.1697  -7.6838  -1.4769 H              1 S1                 0.0000
     38 ****         0.2933  -6.2036  -1.0269 H              1 S1                 0.0000
     39 ****         0.5256  -5.6037  -2.7089 H              1 S1                 0.0000
     40 ****        -0.8443  -2.3734  -2.4651 H              1 S1                 0.0000
     41 ****        -0.3371  -3.3686  -1.1424 H              1 S1                 0.0000
     42 ****         0.6369  -1.3842   0.0298 H              1 S1                 0.0000
     43 ****        -1.0671  -1.1562  -0.3091 H              1 S1                 0.0000
     44 ****        -1.3769   5.1962   1.0416 H              1 S1                 0.0000
     45 ****        -2.5351   6.9107   2.1985 H              1 S1                 0.0000
     46 ****        -3.1867   7.8433   4.4860 H              1 S1                 0.0000
     47 ****        -2.1608   4.3189   6.3875 H              1 S1                 0.0000
     48 ****        -1.4490   3.2266   4.2114 H              1 S1                 0.0000
     49 ****        -0.4924   0.1078  -2.2180 H              1 S1                 0.0000
     50 ****        -2.9579   6.4924   6.3531 H              1 S1                 0.0000
     51 ****        -1.9713   1.3600   1.6446 LP             1 S1                 0.0000
     52 ****        -2.2277   2.4758   2.9443 LP             1 S1                 0.0000
     53 ****        -0.9043   4.0030  -0.4698 LP             1 S1                 0.0000
     54 ****         3.4499  -2.7979  -3.4260 LP             1 S1                 0.0000
     55 ****         3.8904  -4.2749  -2.6359 LP             1 S1                 0.0000
@<TRIPOS>BOND
    1    1    2 2     
    2    2    3 1     
    3    2   18 am    
    4    3    4 1     
    5    4    5 1     
    6    4   25 1     
    7    4   26 1     
    8    5    6 1     
    9    5   27 1     
   10    5   28 1     
   11    6   17 1     
   12    6    7 1     
   13    6   49 1     
   14    7    8 1     
   15    7   29 1     
   16    7   30 1     
   17    8    9 1     
   18    8   31 1     
   19    8   32 1     
   20    9   10 am    
   21    9   16 1     
   22   10   11 2     
   23   10   12 1     
   24   12   15 1     
   25   12   13 1     
   26   12   33 1     
   27   13   14 1     
   28   13   34 1     
   29   13   35 1     
   30   14   15 1     
   31   14   36 1     
   32   14   37 1     
   33   15   38 1     
   34   15   39 1     
   35   16   17 1     
   36   16   40 1     
   37   16   41 1     
   38   17   42 1     
   39   17   43 1     
   40   18   19 1     
   41   18   44 1     
   42   19   24 ar    
   43   19   20 ar    
   44   20   21 ar    
   45   20   45 1     
   46   21   22 ar    
   47   21   46 1     
   48   22   23 ar    
   49   22   50 1     
   50   23   24 ar    
   51   23   47 1     
   52   24   48 1     
   53    1   51 1     
   54    1   52 1     
   55    3   53 1     
   56   11   54 1     
   57   11   55 1     
@<TRIPOS>SUBSTRUCTURE
      1 S1             1
@<TRIPOS>SET
LONE_PAIRS      STATIC     ATOMS    <user>   **** ""
5 51 52 53 54 55
DONOR_HYDROGENS      STATIC     ATOMS    <user>   **** ""
3 49 44 50
ATOM$BLUE        STATIC     ATOMS    COLORGROUP SYSTEM
5 51 52 53 54 55
ATOM$RED        STATIC     ATOMS    COLORGROUP SYSTEM
3 49 44 50
