AV-unprocessed.smi:1648|AV-procd|sdf|6629|dock10
  -GOLD-   22720 7333D 1   1.00000     0.00000
 Structure written by MMmdl.
 42 42  0  0  0  0  0  0  0  0  2 V2000
  146.3528  134.2476  151.3940 C   0  0  0  0  0  0  0  0  0  0  0  0
  146.6590  134.0749  152.8829 C   0  0  0  0  0  0  0  0  0  0  0  0
  145.8389  133.5156  153.6070 O   0  0  0  0  0  0  0  0  0  0  0  0
  147.8195  134.5422  153.3752 N   0  0  0  0  0  0  0  0  0  0  0  0
  148.2918  134.4742  154.7608 C   0  0  2  0  0  0  0  0  0  0  0  0
  148.4779  135.9105  155.2863 C   0  0  0  0  0  0  0  0  0  0  0  0
  148.6882  136.1185  156.4824 O   0  0  0  0  0  0  0  0  0  0  0  0
  148.3743  136.8936  154.3780 N   0  0  0  0  0  0  0  0  0  0  0  0
  148.4947  138.3198  154.6633 C   0  0  1  0  0  0  0  0  0  0  0  0
  149.9633  138.6516  154.9722 C   0  0  0  0  0  0  0  0  0  0  0  0
  147.9184  139.1432  153.4906 C   0  0  0  0  0  0  0  0  0  0  0  0
  147.6057  140.5266  153.8595 N   0  0  0  0  0  0  0  0  0  0  0  0
  146.4105  141.1821  153.7085 C   0  0  0  0  0  0  0  0  0  0  0  0
  146.5951  142.4486  154.2008 C   0  0  0  0  0  0  0  0  0  0  0  0
  147.8920  142.5108  154.6352 N   0  3  0  0  0  0  0  0  0  0  0  0
  148.5043  141.3403  154.4286 C   0  0  0  0  0  0  0  0  0  0  0  0
  149.6555  133.7219  154.7878 C   0  0  0  0  0  0  0  0  0  0  0  0
  149.5245  132.2794  154.2601 C   0  0  0  0  0  0  0  0  0  0  0  0
  150.3022  133.6880  156.1889 C   0  0  0  0  0  0  0  0  0  0  0  0
  146.2914  135.3044  151.1331 H   0  0  0  0  0  0  0  0  0  0  0  0
  145.3972  133.7856  151.1434 H   0  0  0  0  0  0  0  0  0  0  0  0
  147.1213  133.7773  150.7804 H   0  0  0  0  0  0  0  0  0  0  0  0
  148.4320  135.0132  152.7249 H   0  0  0  0  0  0  0  0  0  0  0  0
  147.5753  133.9347  155.3826 H   0  0  0  0  0  0  0  0  0  0  0  0
  148.1988  136.6332  153.4181 H   0  0  0  0  0  0  0  0  0  0  0  0
  147.9167  138.5416  155.5626 H   0  0  0  0  0  0  0  0  0  0  0  0
  150.0843  139.6930  155.2704 H   0  0  0  0  0  0  0  0  0  0  0  0
  150.6010  138.4762  154.1053 H   0  0  0  0  0  0  0  0  0  0  0  0
  150.3387  138.0368  155.7910 H   0  0  0  0  0  0  0  0  0  0  0  0
  148.6237  139.1699  152.6584 H   0  0  0  0  0  0  0  0  0  0  0  0
  147.0011  138.6902  153.1114 H   0  0  0  0  0  0  0  0  0  0  0  0
  145.5408  140.7122  153.2721 H   0  0  0  0  0  0  0  0  0  0  0  0
  145.9177  143.2871  154.2746 H   0  0  0  0  0  0  0  0  0  0  0  0
  149.5241  141.0999  154.6725 H   0  0  0  0  0  0  0  0  0  0  0  0
  150.3503  134.2405  154.1245 H   0  0  0  0  0  0  0  0  0  0  0  0
  148.8194  131.7026  154.8593 H   0  0  0  0  0  0  0  0  0  0  0  0
  150.4841  131.7622  154.2894 H   0  0  0  0  0  0  0  0  0  0  0  0
  149.1825  132.2507  153.2253 H   0  0  0  0  0  0  0  0  0  0  0  0
  149.6371  133.2256  156.9190 H   0  0  0  0  0  0  0  0  0  0  0  0
  150.5557  134.6840  156.5517 H   0  0  0  0  0  0  0  0  0  0  0  0
  151.2295  133.1145  156.1781 H   0  0  0  0  0  0  0  0  0  0  0  0
  148.3263  143.3234  155.0551 H   0  0  0  0  0  0  0  0  0  0  0  0
  1  2  1  0  0  0  0
  1 20  1  0  0  0  0
  1 21  1  0  0  0  0
  1 22  1  0  0  0  0
  2  3  2  0  0  0  0
  2  4  1  0  0  0  0
  4  5  1  0  0  0  0
  4 23  1  0  0  0  0
  5  6  1  0  0  0  0
  5 17  1  0  0  0  0
  5 24  1  0  0  0  0
  6  7  2  0  0  0  0
  6  8  1  0  0  0  0
  8  9  1  0  0  0  0
  8 25  1  0  0  0  0
  9 10  1  0  0  0  0
  9 11  1  0  0  0  0
  9 26  1  0  0  0  0
 10 27  1  0  0  0  0
 10 28  1  0  0  0  0
 10 29  1  0  0  0  0
 11 12  1  0  0  0  0
 11 30  1  0  0  0  0
 11 31  1  0  0  0  0
 12 16  1  0  0  0  0
 12 13  1  0  0  0  0
 13 14  2  0  0  0  0
 13 32  1  0  0  0  0
 14 15  1  0  0  0  0
 14 33  1  0  0  0  0
 15 16  2  0  0  0  0
 15 42  1  0  0  0  0
 16 34  1  0  0  0  0
 17 18  1  0  0  0  0
 17 19  1  0  0  0  0
 17 35  1  0  0  0  0
 18 36  1  0  0  0  0
 18 37  1  0  0  0  0
 18 38  1  0  0  0  0
 19 39  1  0  0  0  0
 19 40  1  0  0  0  0
 19 41  1  0  0  0  0
M  CHG  1  15   1
M  END
> <s_m_source_file>
AV-unprocessed.smi

> <i_m_source_file_index>
1648

> <i_lp_mmshare_version>
43012

> <i_f3d_flags>
0

> <s_epik_input>
W0NIM11DKD1PKVtOSF1bQ0BASF0oW0NIXShbQ0gzXSlbQ0gzXSlDKD1PKVtOSF1bQ0BIXShbQ0gzXSlbQ0gyXW4xW2NIXVtjSF1uW2NIXTE=

> <s_epik_cmdline>
J2VwaWtfcHl0aG9uJywgJy1waCcsICc3LjAnLCAnLXRuJywgJzgnLCAnLW1hJywgJzIwMCcsICctbWV0YWxfYmluZGluZycsICctaW1hZScsICc8aW5maWxlLm1hZT4nLCAnLW9tYWUnLCAnPG91dGZpbGUubWFlPic=

> <r_lp_tautomer_probability>
1

> <r_epik_Ionization_Penalty>
0.251562

> <r_epik_Ionization_Penalty_Charging>
0

> <r_epik_Ionization_Penalty_Neutral>
0.251562

> <r_epik_State_Penalty>
0.242926

> <r_epik_Charging_Adjusted_Penalty>
0.242926

> <i_epik_Tot_Q>
1

> <i_epik_Tot_abs_Q>
1

> <r_epik_Metal_State_Penalty>
0.53388

> <b_epik_Metal_Only>
0

> <s_lp_Force_Field>
OPLS_2005

> <r_lp_Energy>
11.8238

> <b_lp_Chiralities_Consistent>
1

> <s_lp_Variant>
AV-unprocessed.smi:1648-3

> <Gold.Version>
5.8.1

> <Gold.Id.Protein>
6NUR|6NUR_protein|mol2

> <Gold.PLP.Fitness>
43.5624

> <Gold.PLP.PLP>
-30.3564

> <Gold.PLP.part.hbond>
-2.7689

> <Gold.PLP.part.metal>
0.0000

> <Gold.PLP.part.buried>
-0.7425

> <Gold.PLP.part.nonpolar>
-27.5157

> <Gold.PLP.part.repulsive>
0.7556

> <Gold.PLP.ligand.clash>
0.0000

> <Gold.PLP.ligand.torsion>
0.5571

> <Gold.PLP.Chemscore.Hbond>
3.7520

> <Gold.PLP.Chemscore.CHOScore>
1.0000

> <Gold.PLP.Chemscore.Metal>
0.0000

> <Gold.Chemscore.Hbonds>
donor molecule, donor type, donor heavy atom, donor atom, acceptor molecule, acceptor atom, score
      L1  H     4    23       P1  7948  1.00
      L1  H     8    25       P1  7948  0.88
      L1  H    15    42       P1  8028  2.00
      L1  C    13    32       P1 10175  1.00

> <Gold.PLP.Chemscore.Internal.Correction>
0.0642

> <Gold.Rescore>
     Score         DG    S(hbond)    S(metal)    S(lipo)     H(rot)  DE(clash)    DE(int)     intcor
     12.38     -14.61       2.93        0.00      51.49       2.61       0.02       2.21       ----

> <Gold.Chemscore.Fitness>
12.3813

> <Gold.Chemscore.DG>
-14.6075

> <Gold.Chemscore.ZeroCoef>
-5.4800

> <Gold.Chemscore.Hbond>
2.9323

> <Gold.Chemscore.Metal>
0.0000

> <Gold.Chemscore.Lipo>
51.4880

> <Gold.Chemscore.Internal_Hbond>
0.0000

> <Gold.Chemscore.DEClash>
0.0166

> <Gold.Chemscore.DEInternal>
2.2096

> <Gold.Chemscore.Rot>
2.6135

> <Gold.Chemscore.Internal.Correction>
   9.000000E+99

> <Gold.Chemscore.Hbonds>
donor molecule, donor type, donor heavy atom, donor atom, acceptor molecule, acceptor atom, score
      L1  H     4    23       P1  7948  0.56
      L1  H     8    25       P1  7948  0.87
      L1  H    15    42       P1  8028  0.97

> <Gold.Chemscore.Hbond.Weighted>
-9.7940

> <Gold.Chemscore.Metal.Weighted>
-0.0000

> <Gold.Chemscore.Lipo.Weighted>
-6.0241

> <Gold.Chemscore.Internal_Hbond.Weighted>
0.0000

> <Gold.Chemscore.DEClash.Weighted>
0.0166

> <Gold.Chemscore.DEInternal.Weighted>
2.2096

> <Gold.Chemscore.Rot.Weighted>
6.6906

> <Gold.Chemscore.Internal.Correction.Weighted>
   9.000000E+99

> <Gold.Protein.RotatedTorsions>
[ 6907 6896 6895 6894 ] final   18.06 input  -60.11 | X-H torsion
[ 7974 7965 7964 7962 ] final -160.62 input  175.53 | X-H torsion
[ 8008 7997 7996 7995 ] final -146.16 input   59.86 | X-H torsion
[ 10167 10162 10161 10158 ] final    0.78 input  -65.29 | X-H torsion
[ 10718 10713 10712 10709 ] final  137.76 input   66.30 | X-H torsion
[ 10763 10752 10751 10750 ] final  143.54 input  -60.55 | X-H torsion
[ 11005 11000 10999 10996 ] final  -80.31 input  -57.11 | X-H torsion

> <Gold.Protein.ActiveResidues>
 VAL166  LYS551  ARG553  GLY616  TRP617  ASP618  TYR619  PRO620  LYS621  CYS622 
 ASP623  PHE694  ASN695  SER759  ASP760  ASP761  ALA762  ILE779  LEU786  VAL792 
 PHE793  MET794  SER795  GLU796  ALA797  LYS798  CYS799  TRP800  GLU811  SER814 

> <Gold.Protein.RotatedAtoms>
  151.8594  135.0529  160.0467 H   0  0  0  0  0  0  0  0  0  0  0  0  # atno 6907 bound_to 6896
  152.2675  133.5348  159.5427 H   0  0  0  0  0  0  0  0  0  0  0  0  # atno 6908 bound_to 6896
  150.7139  134.0660  159.3890 H   0  0  0  0  0  0  0  0  0  0  0  0  # atno 6909 bound_to 6896
  144.7420  140.3515  143.6115 H   0  0  0  0  0  0  0  0  0  0  0  0  # atno 7974 bound_to 7965
  155.5548  140.0620  157.2842 H   0  0  0  0  0  0  0  0  0  0  0  0  # atno 8008 bound_to 7997
  154.4409  140.1896  156.0768 H   0  0  0  0  0  0  0  0  0  0  0  0  # atno 8009 bound_to 7997
  156.0490  140.3286  155.7333 H   0  0  0  0  0  0  0  0  0  0  0  0  # atno 8010 bound_to 7997
  140.6713  143.7040  150.7929 H   0  0  0  0  0  0  0  0  0  0  0  0  # atno 10167 bound_to 10162
  157.4326  131.1050  151.0233 H   0  0  0  0  0  0  0  0  0  0  0  0  # atno 10718 bound_to 10713
  153.9741  135.2948  155.3425 H   0  0  0  0  0  0  0  0  0  0  0  0  # atno 10763 bound_to 10752
  154.7306  135.5069  153.8960 H   0  0  0  0  0  0  0  0  0  0  0  0  # atno 10764 bound_to 10752
  153.0886  135.6701  154.0012 H   0  0  0  0  0  0  0  0  0  0  0  0  # atno 10765 bound_to 10752
  141.1668  133.7144  156.8253 H   0  0  0  0  0  0  0  0  0  0  0  0  # atno 11005 bound_to 11000
  145.7271  139.1726  143.2451 LP  0  0  0  0  0  0  0  0  0  0  0  0  # atno 17320 bound_to 7965
  146.1234  140.7280  142.9447 LP  0  0  0  0  0  0  0  0  0  0  0  0  # atno 17321 bound_to 7965
  140.0726  143.5046  152.2572 LP  0  0  0  0  0  0  0  0  0  0  0  0  # atno 17342 bound_to 10162
  139.5983  144.7574  151.3233 LP  0  0  0  0  0  0  0  0  0  0  0  0  # atno 17343 bound_to 10162
  157.1124  130.6027  149.5485 LP  0  0  0  0  0  0  0  0  0  0  0  0  # atno 17370 bound_to 10713
  155.9919  130.4975  150.7317 LP  0  0  0  0  0  0  0  0  0  0  0  0  # atno 17371 bound_to 10713
  140.2090  134.8841  157.3253 LP  0  0  0  0  0  0  0  0  0  0  0  0  # atno 17394 bound_to 11000
  140.2107  134.4142  155.7614 LP  0  0  0  0  0  0  0  0  0  0  0  0  # atno 17395 bound_to 11000

$$$$
