AV-unprocessed.smi:174|AV-procd|sdf|1426|dock4
  -GOLD-   2262019203D 1   1.00000     0.00000
 Structure written by MMmdl.
 51 54  0  0  0  0  0  0  0  0  1 V2000
  143.0856  134.2842  153.5117 N   0  0  0  0  0  0  0  0  0  0  0  0
  142.3591  135.3306  153.9104 C   0  0  0  0  0  0  0  0  0  0  0  0
  141.4218  135.2119  154.6984 O   0  0  0  0  0  0  0  0  0  0  0  0
  142.7397  136.6951  153.3174 C   0  0  0  0  0  0  0  0  0  0  0  0
  144.1469  137.0620  153.5459 N   0  0  0  0  0  0  0  0  0  0  0  0
  144.4763  137.6227  154.8605 C   0  0  0  0  0  0  0  0  0  0  0  0
  145.6228  138.6354  154.7822 C   0  0  0  0  0  0  0  0  0  0  0  0
  146.7735  138.0419  154.1129 N   0  0  0  0  0  0  0  0  0  0  0  0
  148.0153  138.5712  154.2963 C   0  0  0  0  0  0  0  0  0  0  0  0
  149.0627  137.9398  153.7016 N   0  0  0  0  0  0  0  0  0  0  0  0
  150.3091  138.3966  153.8457 C   0  0  0  0  0  0  0  0  0  0  0  0
  150.7326  139.4596  154.5292 N   0  0  0  0  0  0  0  0  0  0  0  0
  149.6916  140.1098  155.1224 C   0  0  0  0  0  0  0  0  0  0  0  0
  148.3153  139.7414  155.0609 C   0  0  0  0  0  0  0  0  0  0  0  0
  147.5611  140.6625  155.7831 N   0  0  0  0  0  0  0  0  0  0  0  0
  148.4358  141.5096  156.2511 C   0  0  0  0  0  0  0  0  0  0  0  0
  149.7399  141.2514  155.9028 N   0  0  0  0  0  0  0  0  0  0  0  0
  150.9086  142.0256  156.2833 C   0  0  0  0  0  0  0  0  0  0  0  0
  151.3474  141.7574  157.7365 C   0  0  1  0  0  0  0  0  0  0  0  0
  152.1002  140.5602  157.7877 O   0  0  0  0  0  0  0  0  0  0  0  0
  152.2020  142.9051  158.3047 C   0  0  2  0  0  0  0  0  0  0  0  0
  152.5982  142.7375  159.7715 C   0  0  0  0  0  0  0  0  0  0  0  0
  152.8822  144.1610  160.2200 C   0  0  0  0  0  0  0  0  0  0  0  0
  152.1564  145.0263  159.1853 C   0  0  0  0  0  0  0  0  0  0  0  0
  151.4582  144.1130  158.3485 O   0  0  0  0  0  0  0  0  0  0  0  0
  146.5586  137.2410  152.8965 C   0  0  0  0  0  0  0  0  0  0  0  0
  145.1018  136.8273  152.6127 C   0  0  0  0  0  0  0  0  0  0  0  0
  144.8524  136.3034  151.5266 O   0  0  0  0  0  0  0  0  0  0  0  0
  142.8813  133.3648  153.8762 H   0  0  0  0  0  0  0  0  0  0  0  0
  143.8400  134.4142  152.8534 H   0  0  0  0  0  0  0  0  0  0  0  0
  142.5217  136.6963  152.2477 H   0  0  0  0  0  0  0  0  0  0  0  0
  142.0765  137.4474  153.7452 H   0  0  0  0  0  0  0  0  0  0  0  0
  143.6081  138.1035  155.3117 H   0  0  0  0  0  0  0  0  0  0  0  0
  144.7531  136.8002  155.5217 H   0  0  0  0  0  0  0  0  0  0  0  0
  145.3044  139.5254  154.2379 H   0  0  0  0  0  0  0  0  0  0  0  0
  145.8826  138.9397  155.7966 H   0  0  0  0  0  0  0  0  0  0  0  0
  151.0764  137.8284  153.3409 H   0  0  0  0  0  0  0  0  0  0  0  0
  148.1523  142.3505  156.8673 H   0  0  0  0  0  0  0  0  0  0  0  0
  151.7209  141.7986  155.5915 H   0  0  0  0  0  0  0  0  0  0  0  0
  150.6737  143.0820  156.1483 H   0  0  0  0  0  0  0  0  0  0  0  0
  150.4624  141.6221  158.3596 H   0  0  0  0  0  0  0  0  0  0  0  0
  151.6991  139.9796  158.4164 H   0  0  0  0  0  0  0  0  0  0  0  0
  153.0926  143.0606  157.6922 H   0  0  0  0  0  0  0  0  0  0  0  0
  151.7616  142.3343  160.3439 H   0  0  0  0  0  0  0  0  0  0  0  0
  153.4510  142.0718  159.9072 H   0  0  0  0  0  0  0  0  0  0  0  0
  152.5195  144.3388  161.2329 H   0  0  0  0  0  0  0  0  0  0  0  0
  153.9525  144.3696  160.2047 H   0  0  0  0  0  0  0  0  0  0  0  0
  151.4656  145.7339  159.6441 H   0  0  0  0  0  0  0  0  0  0  0  0
  152.8729  145.5899  158.5863 H   0  0  0  0  0  0  0  0  0  0  0  0
  146.9300  137.7956  152.0331 H   0  0  0  0  0  0  0  0  0  0  0  0
  147.1432  136.3224  152.9616 H   0  0  0  0  0  0  0  0  0  0  0  0
  1  2  1  0  0  0  0
  1 29  1  0  0  0  0
  1 30  1  0  0  0  0
  2  3  2  0  0  0  0
  2  4  1  0  0  0  0
  4  5  1  0  0  0  0
  4 31  1  0  0  0  0
  4 32  1  0  0  0  0
  5 27  1  0  0  0  0
  5  6  1  0  0  0  0
  6  7  1  0  0  0  0
  6 33  1  0  0  0  0
  6 34  1  0  0  0  0
  7  8  1  0  0  0  0
  7 35  1  0  0  0  0
  7 36  1  0  0  0  0
  8  9  1  0  0  0  0
  8 26  1  0  0  0  0
  9 14  1  0  0  0  0
  9 10  2  0  0  0  0
 10 11  1  0  0  0  0
 11 12  2  0  0  0  0
 11 37  1  0  0  0  0
 12 13  1  0  0  0  0
 13 17  1  0  0  0  0
 13 14  2  0  0  0  0
 14 15  1  0  0  0  0
 15 16  2  0  0  0  0
 16 17  1  0  0  0  0
 16 38  1  0  0  0  0
 17 18  1  0  0  0  0
 18 19  1  0  0  0  0
 18 39  1  0  0  0  0
 18 40  1  0  0  0  0
 19 20  1  0  0  0  0
 19 21  1  0  0  0  0
 19 41  1  0  0  0  0
 20 42  1  0  0  0  0
 21 25  1  0  0  0  0
 21 22  1  0  0  0  0
 21 43  1  0  0  0  0
 22 23  1  0  0  0  0
 22 44  1  0  0  0  0
 22 45  1  0  0  0  0
 23 24  1  0  0  0  0
 23 46  1  0  0  0  0
 23 47  1  0  0  0  0
 24 25  1  0  0  0  0
 24 48  1  0  0  0  0
 24 49  1  0  0  0  0
 26 27  1  0  0  0  0
 26 50  1  0  0  0  0
 26 51  1  0  0  0  0
 27 28  2  0  0  0  0
M  END
> <s_m_source_file>
AV-unprocessed.smi

> <i_m_source_file_index>
174

> <i_lp_mmshare_version>
43012

> <i_f3d_flags>
0

> <s_epik_input>
W05IMl1DKD1PKVtDSDJdTjFbQ0gyXVtDSDJdTihbQ0gyXUMxPU8pYyhuW2NIXW4yKWMoYzIzKW5bY0hdbjNbQ0gyXVtDQEhdKFtPSF0pW0NAQEhdNFtDSDJdW0NIMl1bQ0gyXU80

> <s_epik_cmdline>
J2VwaWtfcHl0aG9uJywgJy1waCcsICc3LjAnLCAnLXRuJywgJzgnLCAnLW1hJywgJzIwMCcsICctbWV0YWxfYmluZGluZycsICctaW1hZScsICc8aW5maWxlLm1hZT4nLCAnLW9tYWUnLCAnPG91dGZpbGUubWFlPic=

> <r_lp_tautomer_probability>
1

> <r_epik_Ionization_Penalty>
0.000250477

> <r_epik_Ionization_Penalty_Charging>
0

> <r_epik_Ionization_Penalty_Neutral>
0.000250477

> <r_epik_State_Penalty>
-0

> <r_epik_Charging_Adjusted_Penalty>
0

> <i_epik_Tot_Q>
0

> <i_epik_Tot_abs_Q>
0

> <r_epik_Metal_State_Penalty>
-0

> <b_epik_Metal_Only>
0

> <s_lp_Force_Field>
OPLS_2005

> <r_lp_Energy>
35.93

> <b_lp_Chiralities_Consistent>
1

> <s_lp_Variant>
AV-unprocessed.smi:174-2

> <Gold.Version>
5.8.1

> <Gold.Id.Protein>
6NUR|6NUR_protein|mol2

> <Gold.PLP.Fitness>
45.4970

> <Gold.PLP.PLP>
-34.5798

> <Gold.PLP.part.hbond>
-3.0000

> <Gold.PLP.part.metal>
0.0000

> <Gold.PLP.part.buried>
-4.9556

> <Gold.PLP.part.nonpolar>
-32.9303

> <Gold.PLP.part.repulsive>
5.2319

> <Gold.PLP.ligand.clash>
0.0000

> <Gold.PLP.ligand.torsion>
0.9202

> <Gold.PLP.Chemscore.Hbond>
2.8406

> <Gold.PLP.Chemscore.CHOScore>
1.3321

> <Gold.PLP.Chemscore.Metal>
0.0000

> <Gold.Chemscore.Hbonds>
donor molecule, donor type, donor heavy atom, donor atom, acceptor molecule, acceptor atom, score
      L1  H     1    29       P1 10957  1.00
      P1  H  7989  7998       L1    12  1.00
      P1  H 11000 11005       L1     3  0.66
      L1  C    11    37       P1  7949  0.81
      L1  C    16    38       P1  8028  0.29

> <Gold.PLP.Chemscore.Internal.Correction>
0.2396

> <Gold.Rescore>
     Score         DG    S(hbond)    S(metal)    S(lipo)     H(rot)  DE(clash)    DE(int)     intcor
      8.47     -14.23       2.52        0.00      78.38       3.46       3.23       2.53       ----

> <Gold.Chemscore.Fitness>
8.4668

> <Gold.Chemscore.DG>
-14.2276

> <Gold.Chemscore.ZeroCoef>
-5.4800

> <Gold.Chemscore.Hbond>
2.5248

> <Gold.Chemscore.Metal>
0.0000

> <Gold.Chemscore.Lipo>
78.3775

> <Gold.Chemscore.Internal_Hbond>
0.0000

> <Gold.Chemscore.DEClash>
3.2349

> <Gold.Chemscore.DEInternal>
2.5259

> <Gold.Chemscore.Rot>
3.4591

> <Gold.Chemscore.Internal.Correction>
   9.000000E+99

> <Gold.Chemscore.Hbonds>
donor molecule, donor type, donor heavy atom, donor atom, acceptor molecule, acceptor atom, score
      L1  H     1    29       P1 10957  1.00
      P1  H  7989  7998       L1    12  0.41
      P1  H 11000 11005       L1     3  0.66

> <Gold.Chemscore.Hbond.Weighted>
-8.4328

> <Gold.Chemscore.Metal.Weighted>
-0.0000

> <Gold.Chemscore.Lipo.Weighted>
-9.1702

> <Gold.Chemscore.Internal_Hbond.Weighted>
0.0000

> <Gold.Chemscore.DEClash.Weighted>
3.2349

> <Gold.Chemscore.DEInternal.Weighted>
2.5259

> <Gold.Chemscore.Rot.Weighted>
8.8553

> <Gold.Chemscore.Internal.Correction.Weighted>
   9.000000E+99

> <Gold.Protein.RotatedTorsions>
[ 6907 6896 6895 6894 ] final  -35.64 input  -60.11 | X-H torsion
[ 7974 7965 7964 7962 ] final   96.36 input  175.53 | X-H torsion
[ 8008 7997 7996 7995 ] final   79.74 input   59.86 | X-H torsion
[ 10167 10162 10161 10158 ] final    7.87 input  -65.29 | X-H torsion
[ 10718 10713 10712 10709 ] final  109.16 input   66.30 | X-H torsion
[ 10763 10752 10751 10750 ] final -118.88 input  -60.55 | X-H torsion
[ 11005 11000 10999 10996 ] final   21.88 input  -57.11 | X-H torsion

> <Gold.Protein.ActiveResidues>
 VAL166  LYS551  ARG553  GLY616  TRP617  ASP618  TYR619  PRO620  LYS621  CYS622 
 ASP623  PHE694  ASN695  SER759  ASP760  ASP761  ALA762  ILE779  LEU786  VAL792 
 PHE793  MET794  SER795  GLU796  ALA797  LYS798  CYS799  TRP800  GLU811  SER814 

> <Gold.Protein.RotatedAtoms>
  151.0373  134.9582  159.8142 H   0  0  0  0  0  0  0  0  0  0  0  0  # atno 6907 bound_to 6896
  152.5357  134.2703  159.8979 H   0  0  0  0  0  0  0  0  0  0  0  0  # atno 6908 bound_to 6896
  151.2714  133.4211  159.2655 H   0  0  0  0  0  0  0  0  0  0  0  0  # atno 6909 bound_to 6896
  145.4399  139.2302  143.3098 H   0  0  0  0  0  0  0  0  0  0  0  0  # atno 7974 bound_to 7965
  155.8739  140.3447  155.5840 H   0  0  0  0  0  0  0  0  0  0  0  0  # atno 8008 bound_to 7997
  155.7797  140.0856  157.2085 H   0  0  0  0  0  0  0  0  0  0  0  0  # atno 8009 bound_to 7997
  154.4019  140.1503  156.3024 H   0  0  0  0  0  0  0  0  0  0  0  0  # atno 8010 bound_to 7997
  140.6347  143.7913  150.7343 H   0  0  0  0  0  0  0  0  0  0  0  0  # atno 10167 bound_to 10162
  157.6554  131.0908  150.6413 H   0  0  0  0  0  0  0  0  0  0  0  0  # atno 10718 bound_to 10713
  154.8601  135.4258  154.2209 H   0  0  0  0  0  0  0  0  0  0  0  0  # atno 10763 bound_to 10752
  153.3214  135.6982  153.7033 H   0  0  0  0  0  0  0  0  0  0  0  0  # atno 10764 bound_to 10752
  153.6086  135.3523  155.2944 H   0  0  0  0  0  0  0  0  0  0  0  0  # atno 10765 bound_to 10752
  140.3867  134.1863  155.7663 H   0  0  0  0  0  0  0  0  0  0  0  0  # atno 11005 bound_to 11000
  146.2562  140.5146  142.8872 LP  0  0  0  0  0  0  0  0  0  0  0  0  # atno 17320 bound_to 7965
  144.8128  140.6416  143.6404 LP  0  0  0  0  0  0  0  0  0  0  0  0  # atno 17321 bound_to 7965
  140.1532  143.4339  152.2117 LP  0  0  0  0  0  0  0  0  0  0  0  0  # atno 17342 bound_to 10162
  139.5558  144.7372  151.4298 LP  0  0  0  0  0  0  0  0  0  0  0  0  # atno 17343 bound_to 10162
  156.6720  130.4542  149.5654 LP  0  0  0  0  0  0  0  0  0  0  0  0  # atno 17370 bound_to 10713
  156.1991  130.6608  151.1147 LP  0  0  0  0  0  0  0  0  0  0  0  0  # atno 17371 bound_to 10713
  141.1905  133.8216  157.0916 LP  0  0  0  0  0  0  0  0  0  0  0  0  # atno 17394 bound_to 11000
  140.0437  134.9841  157.1010 LP  0  0  0  0  0  0  0  0  0  0  0  0  # atno 17395 bound_to 11000

$$$$
