AV-unprocessed.smi:2241|AV-procd|sdf|9058|dock6
  -GOLD-   2272012263D 1   1.00000     0.00000
 Structure written by MMmdl.
 45 47  0  0  0  0  0  0  0  0  1 V2000
  151.8203  145.1687  158.8789 C   0  0  0  0  0  0  0  0  0  0  0  0
  151.8925  143.6629  158.7285 C   0  0  0  0  0  0  0  0  0  0  0  0
  152.7095  142.9026  159.5879 C   0  0  0  0  0  0  0  0  0  0  0  0
  152.7711  141.5048  159.4430 C   0  0  0  0  0  0  0  0  0  0  0  0
  152.0175  140.8625  158.4416 C   0  0  0  0  0  0  0  0  0  0  0  0
  152.1124  139.1446  158.2868 Cl  0  0  0  0  0  0  0  0  0  0  0  0
  151.1913  141.6099  157.5731 C   0  0  0  0  0  0  0  0  0  0  0  0
  150.4814  140.9126  156.6173 O   0  0  0  0  0  0  0  0  0  0  0  0
  149.6888  141.6455  155.6934 C   0  0  0  0  0  0  0  0  0  0  0  0
  149.0890  140.6632  154.6713 C   0  0  2  0  0  0  0  0  0  0  0  0
  149.6313  140.9613  153.4015 O   0  0  0  0  0  0  0  0  0  0  0  0
  147.5504  140.7565  154.5429 C   0  0  0  0  0  0  0  0  0  0  0  0
  146.9424  139.5403  153.9738 N   0  0  0  0  0  0  0  0  0  0  0  0
  147.1692  139.2983  152.6044 C   0  0  0  0  0  0  0  0  0  0  0  0
  146.6727  138.2649  152.0026 N   0  0  0  0  0  0  0  0  0  0  0  0
  145.8908  137.3513  152.7188 C   0  0  0  0  0  0  0  0  0  0  0  0
  145.2992  136.1764  151.9522 C   0  0  0  0  0  0  0  0  0  0  0  0
  145.7490  134.7756  152.4016 C   0  0  0  0  0  0  0  0  0  0  0  0
  145.7707  134.3789  150.9211 C   0  0  0  0  0  0  0  0  0  0  0  0
  145.9491  135.8656  150.5939 C   0  0  0  0  0  0  0  0  0  0  0  0
  145.6526  137.5357  154.0392 C   0  0  0  0  0  0  0  0  0  0  0  0
  146.2100  138.6873  154.7481 C   0  0  0  0  0  0  0  0  0  0  0  0
  146.0284  138.8754  155.9512 O   0  0  0  0  0  0  0  0  0  0  0  0
  151.1360  143.0191  157.7278 C   0  0  0  0  0  0  0  0  0  0  0  0
  152.6713  145.5502  159.4442 H   0  0  0  0  0  0  0  0  0  0  0  0
  150.9064  145.4510  159.4019 H   0  0  0  0  0  0  0  0  0  0  0  0
  151.8209  145.6526  157.9018 H   0  0  0  0  0  0  0  0  0  0  0  0
  153.2904  143.3869  160.3591 H   0  0  0  0  0  0  0  0  0  0  0  0
  153.3985  140.9241  160.1030 H   0  0  0  0  0  0  0  0  0  0  0  0
  148.8903  142.1310  156.2540 H   0  0  0  0  0  0  0  0  0  0  0  0
  150.2664  142.4237  155.1912 H   0  0  0  0  0  0  0  0  0  0  0  0
  149.3746  139.6433  154.9308 H   0  0  0  0  0  0  0  0  0  0  0  0
  149.5182  140.2060  152.8445 H   0  0  0  0  0  0  0  0  0  0  0  0
  147.1185  141.0062  155.5143 H   0  0  0  0  0  0  0  0  0  0  0  0
  147.2904  141.6017  153.9023 H   0  0  0  0  0  0  0  0  0  0  0  0
  147.7819  140.0405  152.0900 H   0  0  0  0  0  0  0  0  0  0  0  0
  144.2128  136.2494  151.8757 H   0  0  0  0  0  0  0  0  0  0  0  0
  146.7444  134.7570  152.8493 H   0  0  0  0  0  0  0  0  0  0  0  0
  145.0226  134.2358  153.0096 H   0  0  0  0  0  0  0  0  0  0  0  0
  146.6070  133.7425  150.6295 H   0  0  0  0  0  0  0  0  0  0  0  0
  144.8159  133.9798  150.5744 H   0  0  0  0  0  0  0  0  0  0  0  0
  145.3863  136.2140  149.7273 H   0  0  0  0  0  0  0  0  0  0  0  0
  147.0003  136.1557  150.5369 H   0  0  0  0  0  0  0  0  0  0  0  0
  145.0424  136.8298  154.5839 H   0  0  0  0  0  0  0  0  0  0  0  0
  150.5181  143.6302  157.0875 H   0  0  0  0  0  0  0  0  0  0  0  0
  1  2  1  0  0  0  0
  1 25  1  0  0  0  0
  1 26  1  0  0  0  0
  1 27  1  0  0  0  0
  2 24  1  0  0  0  0
  2  3  2  0  0  0  0
  3  4  1  0  0  0  0
  3 28  1  0  0  0  0
  4  5  2  0  0  0  0
  4 29  1  0  0  0  0
  5  6  1  0  0  0  0
  5  7  1  0  0  0  0
  7  8  1  0  0  0  0
  7 24  2  0  0  0  0
  8  9  1  0  0  0  0
  9 10  1  0  0  0  0
  9 30  1  0  0  0  0
  9 31  1  0  0  0  0
 10 11  1  0  0  0  0
 10 12  1  0  0  0  0
 10 32  1  0  0  0  0
 11 33  1  0  0  0  0
 12 13  1  0  0  0  0
 12 34  1  0  0  0  0
 12 35  1  0  0  0  0
 13 22  1  0  0  0  0
 13 14  1  0  0  0  0
 14 15  2  0  0  0  0
 14 36  1  0  0  0  0
 15 16  1  0  0  0  0
 16 17  1  0  0  0  0
 16 21  2  0  0  0  0
 17 20  1  0  0  0  0
 17 18  1  0  0  0  0
 17 37  1  0  0  0  0
 18 19  1  0  0  0  0
 18 38  1  0  0  0  0
 18 39  1  0  0  0  0
 19 20  1  0  0  0  0
 19 40  1  0  0  0  0
 19 41  1  0  0  0  0
 20 42  1  0  0  0  0
 20 43  1  0  0  0  0
 21 22  1  0  0  0  0
 21 44  1  0  0  0  0
 22 23  2  0  0  0  0
 24 45  1  0  0  0  0
M  END
> <s_m_source_file>
AV-unprocessed.smi

> <i_m_source_file_index>
2241

> <i_lp_mmshare_version>
43012

> <i_f3d_flags>
0

> <s_epik_input>
W0NIM11jMVtjSF1bY0hdYyhDbCljKFtjSF0xKU9bQ0gyXVtDQEhdKFtPSF0pW0NIMl1uMltjSF1uYyhbY0hdYzI9TylbQ0hdM1tDSDJdW0NIMl1bQ0gyXTM=

> <s_epik_cmdline>
J2VwaWtfcHl0aG9uJywgJy1waCcsICc3LjAnLCAnLXRuJywgJzgnLCAnLW1hJywgJzIwMCcsICctbWV0YWxfYmluZGluZycsICctaW1hZScsICc8aW5maWxlLm1hZT4nLCAnLW9tYWUnLCAnPG91dGZpbGUubWFlPic=

> <r_lp_tautomer_probability>
1

> <r_epik_Ionization_Penalty>
1.78212e-05

> <r_epik_Ionization_Penalty_Charging>
5.61663e-08

> <r_epik_Ionization_Penalty_Neutral>
1.7765e-05

> <r_epik_State_Penalty>
-0

> <r_epik_Charging_Adjusted_Penalty>
5.61663e-08

> <i_epik_Tot_Q>
0

> <i_epik_Tot_abs_Q>
0

> <r_epik_Metal_State_Penalty>
-0

> <b_epik_Metal_Only>
0

> <s_lp_Force_Field>
OPLS_2005

> <r_lp_Energy>
31.1581

> <b_lp_Chiralities_Consistent>
1

> <s_lp_Variant>
AV-unprocessed.smi:2241-1

> <Gold.Version>
5.8.1

> <Gold.Id.Protein>
6NUR|6NUR_protein|mol2

> <Gold.PLP.Fitness>
52.8578

> <Gold.PLP.PLP>
-46.7382

> <Gold.PLP.part.hbond>
-2.4790

> <Gold.PLP.part.metal>
0.0000

> <Gold.PLP.part.buried>
-4.8863

> <Gold.PLP.part.nonpolar>
-39.9323

> <Gold.PLP.part.repulsive>
0.3969

> <Gold.PLP.ligand.clash>
0.0000

> <Gold.PLP.ligand.torsion>
1.3129

> <Gold.PLP.Chemscore.Hbond>
1.7840

> <Gold.PLP.Chemscore.CHOScore>
1.0000

> <Gold.PLP.Chemscore.Metal>
0.0000

> <Gold.Chemscore.Hbonds>
donor molecule, donor type, donor heavy atom, donor atom, acceptor molecule, acceptor atom, score
      L1  H    11    33       P1  7957  0.61
      P1  H  7989  7998       L1    11  0.19
      P1  H  8011  8017       L1    11  1.00
      L1  C    14    36       P1  7957  0.99

> <Gold.PLP.Chemscore.Internal.Correction>
0.3934

> <Gold.Rescore>
     Score         DG    S(hbond)    S(metal)    S(lipo)     H(rot)  DE(clash)    DE(int)     intcor
     16.88     -18.29       1.42        0.00     121.15       2.38       0.02       1.39       ----

> <Gold.Chemscore.Fitness>
16.8826

> <Gold.Chemscore.DG>
-18.2895

> <Gold.Chemscore.ZeroCoef>
-5.4800

> <Gold.Chemscore.Hbond>
1.4154

> <Gold.Chemscore.Metal>
0.0000

> <Gold.Chemscore.Lipo>
121.1546

> <Gold.Chemscore.Internal_Hbond>
0.0000

> <Gold.Chemscore.DEClash>
0.0180

> <Gold.Chemscore.DEInternal>
1.3890

> <Gold.Chemscore.Rot>
2.3801

> <Gold.Chemscore.Internal.Correction>
   9.000000E+99

> <Gold.Chemscore.Hbonds>
donor molecule, donor type, donor heavy atom, donor atom, acceptor molecule, acceptor atom, score
      L1  H    11    33       P1  7957  0.62
      P1  H  7989  7998       L1    11  0.02
      P1  H  8011  8017       L1    11  0.59

> <Gold.Chemscore.Hbond.Weighted>
-4.7275

> <Gold.Chemscore.Metal.Weighted>
-0.0000

> <Gold.Chemscore.Lipo.Weighted>
-14.1751

> <Gold.Chemscore.Internal_Hbond.Weighted>
0.0000

> <Gold.Chemscore.DEClash.Weighted>
0.0180

> <Gold.Chemscore.DEInternal.Weighted>
1.3890

> <Gold.Chemscore.Rot.Weighted>
6.0931

> <Gold.Chemscore.Internal.Correction.Weighted>
   9.000000E+99

> <Gold.Protein.RotatedTorsions>
[ 6907 6896 6895 6894 ] final   91.22 input  -60.11 | X-H torsion
[ 7974 7965 7964 7962 ] final  -70.71 input  175.53 | X-H torsion
[ 8008 7997 7996 7995 ] final   71.69 input   59.86 | X-H torsion
[ 10167 10162 10161 10158 ] final   28.52 input  -65.29 | X-H torsion
[ 10718 10713 10712 10709 ] final   76.69 input   66.30 | X-H torsion
[ 10763 10752 10751 10750 ] final  -42.62 input  -60.55 | X-H torsion
[ 11005 11000 10999 10996 ] final  -22.43 input  -57.11 | X-H torsion

> <Gold.Protein.ActiveResidues>
 VAL166  LYS551  ARG553  GLY616  TRP617  ASP618  TYR619  PRO620  LYS621  CYS622 
 ASP623  PHE694  ASN695  SER759  ASP760  ASP761  ALA762  ILE779  LEU786  VAL792 
 PHE793  MET794  SER795  GLU796  ALA797  LYS798  CYS799  TRP800  GLU811  SER814 

> <Gold.Protein.RotatedAtoms>
  152.5449  134.1690  159.8588 H   0  0  0  0  0  0  0  0  0  0  0  0  # atno 6907 bound_to 6896
  151.1702  133.4782  159.2601 H   0  0  0  0  0  0  0  0  0  0  0  0  # atno 6908 bound_to 6896
  151.1283  135.0128  159.8626 H   0  0  0  0  0  0  0  0  0  0  0  0  # atno 6909 bound_to 6896
  145.6874  140.9165  143.0800 H   0  0  0  0  0  0  0  0  0  0  0  0  # atno 7974 bound_to 7965
  155.7577  140.3487  155.5182 H   0  0  0  0  0  0  0  0  0  0  0  0  # atno 8008 bound_to 7997
  155.8944  140.1023  157.1417 H   0  0  0  0  0  0  0  0  0  0  0  0  # atno 8009 bound_to 7997
  154.4037  140.1298  156.4343 H   0  0  0  0  0  0  0  0  0  0  0  0  # atno 8010 bound_to 7997
  140.4846  144.0563  150.6276 H   0  0  0  0  0  0  0  0  0  0  0  0  # atno 10167 bound_to 10162
  157.6683  130.9786  150.1533 H   0  0  0  0  0  0  0  0  0  0  0  0  # atno 10718 bound_to 10713
  153.9820  135.6716  153.4750 H   0  0  0  0  0  0  0  0  0  0  0  0  # atno 10763 bound_to 10752
  153.0744  135.4956  154.8370 H   0  0  0  0  0  0  0  0  0  0  0  0  # atno 10764 bound_to 10752
  154.7159  135.3107  154.9086 H   0  0  0  0  0  0  0  0  0  0  0  0  # atno 10765 bound_to 10752
  140.8656  133.7757  156.0126 H   0  0  0  0  0  0  0  0  0  0  0  0  # atno 11005 bound_to 11000
  144.7007  139.8777  143.7445 LP  0  0  0  0  0  0  0  0  0  0  0  0  # atno 17320 bound_to 7965
  146.0911  139.3901  143.0405 LP  0  0  0  0  0  0  0  0  0  0  0  0  # atno 17321 bound_to 7965
  140.3815  143.2800  152.0165 LP  0  0  0  0  0  0  0  0  0  0  0  0  # atno 17342 bound_to 10162
  139.4839  144.6151  151.7361 LP  0  0  0  0  0  0  0  0  0  0  0  0  # atno 17343 bound_to 10162
  156.2327  130.3683  149.8427 LP  0  0  0  0  0  0  0  0  0  0  0  0  # atno 17370 bound_to 10713
  156.6249  130.8642  151.3483 LP  0  0  0  0  0  0  0  0  0  0  0  0  # atno 17371 bound_to 10713
  140.8632  134.2815  157.5225 LP  0  0  0  0  0  0  0  0  0  0  0  0  # atno 17394 bound_to 11000
  139.8709  134.9529  156.4129 LP  0  0  0  0  0  0  0  0  0  0  0  0  # atno 17395 bound_to 11000

$$$$
