AV-unprocessed.smi:1252|AV-procd|sdf|5265|dock9
  -GOLD-   22720 4383D 1   1.00000     0.00000
 Structure written by MMmdl.
 43 44  0  0  0  0  0  0  0  0  1 V2000
  145.0569  136.2211  150.4291 C   0  0  0  0  0  0  0  0  0  0  0  0
  145.8142  135.3278  151.4333 C   0  0  1  0  0  0  0  0  0  0  0  0
  145.6474  135.7846  152.8931 C   0  0  0  0  0  0  0  0  0  0  0  0
  144.5615  135.6960  153.4671 O   0  0  0  0  0  0  0  0  0  0  0  0
  146.7459  136.2764  153.4839 N   0  0  0  0  0  0  0  0  0  0  0  0
  146.8351  136.7121  154.8729 C   0  0  0  0  0  0  0  0  0  0  0  0
  148.2584  136.4802  155.4560 C   0  0  0  0  0  0  0  0  0  0  0  0
  148.1578  136.6378  156.9924 C   0  0  0  0  0  0  0  0  0  0  0  0
  148.6083  134.9976  155.1657 C   0  0  0  0  0  0  0  0  0  0  0  0
  149.2590  137.3964  154.8392 N   0  0  0  0  0  0  0  0  0  0  0  0
  148.8475  138.8038  154.7730 C   0  0  0  0  0  0  0  0  0  0  0  0
  149.8671  139.6687  154.0132 C   0  0  0  0  0  0  0  0  0  0  0  0
  151.1444  139.5529  154.6280 O   0  0  0  0  0  0  0  0  0  0  0  0
  151.6099  138.2092  154.6616 C   0  0  0  0  0  0  0  0  0  0  0  0
  150.6038  137.3286  155.4223 C   0  0  0  0  0  0  0  0  0  0  0  0
  145.4497  133.9216  151.2978 N   0  0  0  0  0  0  0  0  0  0  0  0
  145.4044  133.1489  150.2101 C   0  0  0  0  0  0  0  0  0  0  0  0
  145.0862  131.8863  150.4585 N   0  0  0  0  0  0  0  0  0  0  0  0
  144.9470  131.9496  151.8160 C   0  0  0  0  0  0  0  0  0  0  0  0
  145.1639  133.1420  152.3705 N   0  0  0  0  0  0  0  0  0  0  0  0
  145.4073  137.2526  150.4776 H   0  0  0  0  0  0  0  0  0  0  0  0
  143.9824  136.2276  150.6172 H   0  0  0  0  0  0  0  0  0  0  0  0
  145.2106  135.8737  149.4071 H   0  0  0  0  0  0  0  0  0  0  0  0
  146.8771  135.4053  151.1986 H   0  0  0  0  0  0  0  0  0  0  0  0
  147.5965  136.3269  152.9422 H   0  0  0  0  0  0  0  0  0  0  0  0
  146.5399  137.7597  154.9361 H   0  0  0  0  0  0  0  0  0  0  0  0
  146.0972  136.1689  155.4666 H   0  0  0  0  0  0  0  0  0  0  0  0
  147.4272  135.9435  157.4090 H   0  0  0  0  0  0  0  0  0  0  0  0
  147.8390  137.6385  157.2830 H   0  0  0  0  0  0  0  0  0  0  0  0
  149.1046  136.4329  157.4911 H   0  0  0  0  0  0  0  0  0  0  0  0
  147.7983  134.3295  155.4609 H   0  0  0  0  0  0  0  0  0  0  0  0
  149.4888  134.6655  155.7158 H   0  0  0  0  0  0  0  0  0  0  0  0
  148.7985  134.8267  154.1052 H   0  0  0  0  0  0  0  0  0  0  0  0
  147.8876  138.9065  154.2710 H   0  0  0  0  0  0  0  0  0  0  0  0
  148.7248  139.2087  155.7777 H   0  0  0  0  0  0  0  0  0  0  0  0
  149.9280  139.3640  152.9670 H   0  0  0  0  0  0  0  0  0  0  0  0
  149.5599  140.7144  154.0249 H   0  0  0  0  0  0  0  0  0  0  0  0
  151.7534  137.8409  153.6447 H   0  0  0  0  0  0  0  0  0  0  0  0
  152.5831  138.1820  155.1518 H   0  0  0  0  0  0  0  0  0  0  0  0
  150.5796  137.6440  156.4653 H   0  0  0  0  0  0  0  0  0  0  0  0
  150.9835  136.3086  155.4078 H   0  0  0  0  0  0  0  0  0  0  0  0
  145.6179  133.5158  149.2167 H   0  0  0  0  0  0  0  0  0  0  0  0
  144.6850  131.0895  152.4144 H   0  0  0  0  0  0  0  0  0  0  0  0
  1  2  1  0  0  0  0
  1 21  1  0  0  0  0
  1 22  1  0  0  0  0
  1 23  1  0  0  0  0
  2  3  1  0  0  0  0
  2 16  1  0  0  0  0
  2 24  1  0  0  0  0
  3  4  2  0  0  0  0
  3  5  1  0  0  0  0
  5  6  1  0  0  0  0
  5 25  1  0  0  0  0
  6  7  1  0  0  0  0
  6 26  1  0  0  0  0
  6 27  1  0  0  0  0
  7  8  1  0  0  0  0
  7  9  1  0  0  0  0
  7 10  1  0  0  0  0
  8 28  1  0  0  0  0
  8 29  1  0  0  0  0
  8 30  1  0  0  0  0
  9 31  1  0  0  0  0
  9 32  1  0  0  0  0
  9 33  1  0  0  0  0
 10 15  1  0  0  0  0
 10 11  1  0  0  0  0
 11 12  1  0  0  0  0
 11 34  1  0  0  0  0
 11 35  1  0  0  0  0
 12 13  1  0  0  0  0
 12 36  1  0  0  0  0
 12 37  1  0  0  0  0
 13 14  1  0  0  0  0
 14 15  1  0  0  0  0
 14 38  1  0  0  0  0
 14 39  1  0  0  0  0
 15 40  1  0  0  0  0
 15 41  1  0  0  0  0
 16 20  1  0  0  0  0
 16 17  1  0  0  0  0
 17 18  2  0  0  0  0
 17 42  1  0  0  0  0
 18 19  1  0  0  0  0
 19 20  2  0  0  0  0
 19 43  1  0  0  0  0
M  END
> <s_m_source_file>
AV-unprocessed.smi

> <i_m_source_file_index>
1252

> <i_lp_mmshare_version>
43012

> <i_f3d_flags>
0

> <s_epik_input>
bjFbY0hdbltjSF1uMVtDQEhdKFtDSDNdKUMoPU8pW05IXVtDSDJdQyhbQ0gzXSkoW0NIM10pTjJbQ0gyXVtDSDJdT1tDSDJdW0NIMl0y

> <s_epik_cmdline>
J2VwaWtfcHl0aG9uJywgJy1waCcsICc3LjAnLCAnLXRuJywgJzgnLCAnLW1hJywgJzIwMCcsICctbWV0YWxfYmluZGluZycsICctaW1hZScsICc8aW5maWxlLm1hZT4nLCAnLW9tYWUnLCAnPG91dGZpbGUubWFlPic=

> <r_lp_tautomer_probability>
1

> <r_epik_Ionization_Penalty>
0.211373

> <r_epik_Ionization_Penalty_Charging>
0

> <r_epik_Ionization_Penalty_Neutral>
0.211373

> <r_epik_State_Penalty>
0.201459

> <r_epik_Charging_Adjusted_Penalty>
0.201459

> <i_epik_Tot_Q>
0

> <i_epik_Tot_abs_Q>
0

> <r_epik_Metal_State_Penalty>
0.201458

> <b_epik_Metal_Only>
0

> <s_lp_Force_Field>
OPLS_2005

> <r_lp_Energy>
47.0271

> <b_lp_Chiralities_Consistent>
1

> <s_lp_Variant>
AV-unprocessed.smi:1252-2

> <Gold.Version>
5.8.1

> <Gold.Id.Protein>
6NUR|6NUR_protein|mol2

> <Gold.PLP.Fitness>
35.7632

> <Gold.PLP.PLP>
-27.9952

> <Gold.PLP.part.hbond>
-2.0000

> <Gold.PLP.part.metal>
0.0000

> <Gold.PLP.part.buried>
-5.4994

> <Gold.PLP.part.nonpolar>
-21.3572

> <Gold.PLP.part.repulsive>
0.5798

> <Gold.PLP.ligand.clash>
0.0000

> <Gold.PLP.ligand.torsion>
0.6673

> <Gold.PLP.Chemscore.Hbond>
2.0000

> <Gold.PLP.Chemscore.CHOScore>
0.9793

> <Gold.PLP.Chemscore.Metal>
0.0000

> <Gold.Chemscore.Hbonds>
donor molecule, donor type, donor heavy atom, donor atom, acceptor molecule, acceptor atom, score
      L1  H     5    25       P1  7948  1.00
      P1  H  7989  7998       L1    13  0.25
      L1  C    17    42       P1  7921  0.97

> <Gold.PLP.Chemscore.Internal.Correction>
0.1646

> <Gold.Rescore>
     Score         DG    S(hbond)    S(metal)    S(lipo)     H(rot)  DE(clash)    DE(int)     intcor
      7.50      -9.30       1.39        0.00      47.92       2.52       0.30       1.50       ----

> <Gold.Chemscore.Fitness>
7.4969

> <Gold.Chemscore.DG>
-9.3038

> <Gold.Chemscore.ZeroCoef>
-5.4800

> <Gold.Chemscore.Hbond>
1.3940

> <Gold.Chemscore.Metal>
0.0000

> <Gold.Chemscore.Lipo>
47.9232

> <Gold.Chemscore.Internal_Hbond>
0.0000

> <Gold.Chemscore.DEClash>
0.3044

> <Gold.Chemscore.DEInternal>
1.5025

> <Gold.Chemscore.Rot>
2.5153

> <Gold.Chemscore.Internal.Correction>
   9.000000E+99

> <Gold.Chemscore.Hbonds>
donor molecule, donor type, donor heavy atom, donor atom, acceptor molecule, acceptor atom, score
      L1  H     5    25       P1  7948  1.00

> <Gold.Chemscore.Hbond.Weighted>
-4.6559

> <Gold.Chemscore.Metal.Weighted>
-0.0000

> <Gold.Chemscore.Lipo.Weighted>
-5.6070

> <Gold.Chemscore.Internal_Hbond.Weighted>
0.0000

> <Gold.Chemscore.DEClash.Weighted>
0.3044

> <Gold.Chemscore.DEInternal.Weighted>
1.5025

> <Gold.Chemscore.Rot.Weighted>
6.4392

> <Gold.Chemscore.Internal.Correction.Weighted>
   9.000000E+99

> <Gold.Protein.RotatedTorsions>
[ 6907 6896 6895 6894 ] final  110.31 input  -60.11 | X-H torsion
[ 7974 7965 7964 7962 ] final  118.39 input  175.53 | X-H torsion
[ 8008 7997 7996 7995 ] final  -36.04 input   59.86 | X-H torsion
[ 10167 10162 10161 10158 ] final  -97.57 input  -65.29 | X-H torsion
[ 10718 10713 10712 10709 ] final  -27.22 input   66.30 | X-H torsion
[ 10763 10752 10751 10750 ] final  112.38 input  -60.55 | X-H torsion
[ 11005 11000 10999 10996 ] final  -57.12 input  -57.11 | X-H torsion

> <Gold.Protein.ActiveResidues>
 VAL166  LYS551  ARG553  GLY616  TRP617  ASP618  TYR619  PRO620  LYS621  CYS622 
 ASP623  PHE694  ASN695  SER759  ASP760  ASP761  ALA762  ILE779  LEU786  VAL792 
 PHE793  MET794  SER795  GLU796  ALA797  LYS798  CYS799  TRP800  GLU811  SER814 

> <Gold.Protein.RotatedAtoms>
  152.5026  133.8819  159.7350 H   0  0  0  0  0  0  0  0  0  0  0  0  # atno 6907 bound_to 6896
  150.9279  133.6793  159.2824 H   0  0  0  0  0  0  0  0  0  0  0  0  # atno 6908 bound_to 6896
  151.4147  135.0994  159.9648 H   0  0  0  0  0  0  0  0  0  0  0  0  # atno 6909 bound_to 6896
  145.1557  139.3184  143.4543 H   0  0  0  0  0  0  0  0  0  0  0  0  # atno 7974 bound_to 7965
  154.4082  140.1641  156.2310 H   0  0  0  0  0  0  0  0  0  0  0  0  # atno 8008 bound_to 7997
  155.9283  140.3416  155.6205 H   0  0  0  0  0  0  0  0  0  0  0  0  # atno 8009 bound_to 7997
  155.7138  140.0760  157.2350 H   0  0  0  0  0  0  0  0  0  0  0  0  # atno 8010 bound_to 7997
  140.2820  143.3276  152.0432 H   0  0  0  0  0  0  0  0  0  0  0  0  # atno 10167 bound_to 10162
  156.4410  130.4464  149.7053 H   0  0  0  0  0  0  0  0  0  0  0  0  # atno 10718 bound_to 10713
  153.4769  135.3688  155.2421 H   0  0  0  0  0  0  0  0  0  0  0  0  # atno 10763 bound_to 10752
  154.8756  135.3945  154.3745 H   0  0  0  0  0  0  0  0  0  0  0  0  # atno 10764 bound_to 10752
  153.4343  135.7083  153.6275 H   0  0  0  0  0  0  0  0  0  0  0  0  # atno 10765 bound_to 10752
  141.1150  133.6610  156.4721 H   0  0  0  0  0  0  0  0  0  0  0  0  # atno 11005 bound_to 11000
  146.3489  140.1649  142.8590 LP  0  0  0  0  0  0  0  0  0  0  0  0  # atno 17320 bound_to 7965
  145.0383  140.8925  143.5068 LP  0  0  0  0  0  0  0  0  0  0  0  0  # atno 17321 bound_to 7965
  139.4960  144.6585  151.6518 LP  0  0  0  0  0  0  0  0  0  0  0  0  # atno 17342 bound_to 10162
  140.5804  143.9956  150.6265 LP  0  0  0  0  0  0  0  0  0  0  0  0  # atno 17343 bound_to 10162
  156.3918  130.7631  151.2632 LP  0  0  0  0  0  0  0  0  0  0  0  0  # atno 17370 bound_to 10713
  157.7506  131.0266  150.3968 LP  0  0  0  0  0  0  0  0  0  0  0  0  # atno 17371 bound_to 10713
  140.4670  134.6789  157.5111 LP  0  0  0  0  0  0  0  0  0  0  0  0  # atno 17394 bound_to 11000
  140.0067  134.6753  155.9444 LP  0  0  0  0  0  0  0  0  0  0  0  0  # atno 17395 bound_to 11000

$$$$
