AV-unprocessed.smi:630|AV-procd|sdf|3118|dock6
  -GOLD-   22720 0 43D 1   1.00000     0.00000
 Structure written by MMmdl.
 37 38  0  0  0  0  0  0  0  0  1 V2000
  150.2614  135.9074  154.4001 N   0  0  0  0  0  0  0  0  0  0  0  0
  150.2212  136.7555  155.4311 C   0  0  0  0  0  0  0  0  0  0  0  0
  150.8920  136.5764  156.4467 O   0  0  0  0  0  0  0  0  0  0  0  0
  149.2810  137.9708  155.3076 C   0  0  1  0  0  0  0  0  0  0  0  0
  149.7860  138.9430  154.2119 C   0  0  0  0  0  0  0  0  0  0  0  0
  149.2752  140.3817  154.4056 C   0  0  0  0  0  0  0  0  0  0  0  0
  147.9009  140.6965  153.7876 C   0  0  0  0  0  0  0  0  0  0  0  0
  146.8417  139.5806  153.8272 C   0  0  0  0  0  0  0  0  0  0  0  0
  146.8104  138.7302  155.1129 C   0  0  0  0  0  0  0  0  0  0  0  0
  147.7999  137.5395  155.1322 C   0  0  1  0  0  0  0  0  0  0  0  0
  147.6141  136.6716  153.9647 N   0  0  0  0  0  0  0  0  0  0  0  0
  146.5134  135.9590  153.6851 C   0  0  0  0  0  0  0  0  0  0  0  0
  145.5015  135.9662  154.3868 O   0  0  0  0  0  0  0  0  0  0  0  0
  146.6713  135.2512  152.5533 N   0  0  0  0  0  0  0  0  0  0  0  0
  145.7462  134.3750  151.9285 C   0  0  0  0  0  0  0  0  0  0  0  0
  144.4167  134.5177  151.9812 N   0  0  0  0  0  0  0  0  0  0  0  0
  143.7535  133.5083  151.2786 C   0  0  0  0  0  0  0  0  0  0  0  0
  144.5996  132.6004  150.6919 C   0  0  0  0  0  0  0  0  0  0  0  0
  146.2731  132.9782  151.0009 S   0  0  0  0  0  0  0  0  0  0  0  0
  150.8683  135.1015  154.4392 H   0  0  0  0  0  0  0  0  0  0  0  0
  149.6908  136.0757  153.5842 H   0  0  0  0  0  0  0  0  0  0  0  0
  149.3500  138.4970  156.2616 H   0  0  0  0  0  0  0  0  0  0  0  0
  150.8760  138.9821  154.2527 H   0  0  0  0  0  0  0  0  0  0  0  0
  149.5446  138.5800  153.2120 H   0  0  0  0  0  0  0  0  0  0  0  0
  149.2597  140.6239  155.4688 H   0  0  0  0  0  0  0  0  0  0  0  0
  149.9987  141.0729  153.9714 H   0  0  0  0  0  0  0  0  0  0  0  0
  147.5032  141.5813  154.2860 H   0  0  0  0  0  0  0  0  0  0  0  0
  148.0395  140.9897  152.7464 H   0  0  0  0  0  0  0  0  0  0  0  0
  145.8659  140.0504  153.6998 H   0  0  0  0  0  0  0  0  0  0  0  0
  146.9563  138.9435  152.9507 H   0  0  0  0  0  0  0  0  0  0  0  0
  146.9584  139.3640  155.9880 H   0  0  0  0  0  0  0  0  0  0  0  0
  145.8026  138.3270  155.2202 H   0  0  0  0  0  0  0  0  0  0  0  0
  147.5530  136.9474  156.0161 H   0  0  0  0  0  0  0  0  0  0  0  0
  148.3977  136.5961  153.3326 H   0  0  0  0  0  0  0  0  0  0  0  0
  147.5598  135.3479  152.0847 H   0  0  0  0  0  0  0  0  0  0  0  0
  142.6741  133.5128  151.2469 H   0  0  0  0  0  0  0  0  0  0  0  0
  144.3401  131.7358  150.0992 H   0  0  0  0  0  0  0  0  0  0  0  0
  1  2  1  0  0  0  0
  1 20  1  0  0  0  0
  1 21  1  0  0  0  0
  2  3  2  0  0  0  0
  2  4  1  0  0  0  0
  4 10  1  0  0  0  0
  4  5  1  0  0  0  0
  4 22  1  0  0  0  0
  5  6  1  0  0  0  0
  5 23  1  0  0  0  0
  5 24  1  0  0  0  0
  6  7  1  0  0  0  0
  6 25  1  0  0  0  0
  6 26  1  0  0  0  0
  7  8  1  0  0  0  0
  7 27  1  0  0  0  0
  7 28  1  0  0  0  0
  8  9  1  0  0  0  0
  8 29  1  0  0  0  0
  8 30  1  0  0  0  0
  9 10  1  0  0  0  0
  9 31  1  0  0  0  0
  9 32  1  0  0  0  0
 10 11  1  0  0  0  0
 10 33  1  0  0  0  0
 11 12  1  0  0  0  0
 11 34  1  0  0  0  0
 12 13  2  0  0  0  0
 12 14  1  0  0  0  0
 14 15  1  0  0  0  0
 14 35  1  0  0  0  0
 15 19  1  0  0  0  0
 15 16  2  0  0  0  0
 16 17  1  0  0  0  0
 17 18  2  0  0  0  0
 17 36  1  0  0  0  0
 18 19  1  0  0  0  0
 18 37  1  0  0  0  0
M  END
> <s_m_source_file>
AV-unprocessed.smi

> <i_m_source_file_index>
630

> <i_lp_mmshare_version>
43012

> <i_f3d_flags>
0

> <s_epik_input>
W05IMl1DKD1PKVtDQEBIXTFbQ0gyXVtDSDJdW0NIMl1bQ0gyXVtDSDJdW0NASF0xW05IXUMoPU8pW05IXWMybltjSF1bY0hdczI=

> <s_epik_cmdline>
J2VwaWtfcHl0aG9uJywgJy1waCcsICc3LjAnLCAnLXRuJywgJzgnLCAnLW1hJywgJzIwMCcsICctbWV0YWxfYmluZGluZycsICctaW1hZScsICc8aW5maWxlLm1hZT4nLCAnLW9tYWUnLCAnPG91dGZpbGUubWFlPic=

> <r_lp_tautomer_probability>
0.999

> <r_epik_Ionization_Penalty>
0.000342689

> <r_epik_Ionization_Penalty_Charging>
0

> <r_epik_Ionization_Penalty_Neutral>
0.000342689

> <r_epik_State_Penalty>
0.000177984

> <r_epik_Charging_Adjusted_Penalty>
0.000177984

> <i_epik_Tot_Q>
0

> <i_epik_Tot_abs_Q>
0

> <r_epik_Metal_State_Penalty>
0.00743087

> <b_epik_Metal_Only>
0

> <s_lp_Force_Field>
OPLS_2005

> <r_lp_Energy>
14.0273

> <b_lp_Chiralities_Consistent>
1

> <s_lp_Variant>
AV-unprocessed.smi:630-2

> <Gold.Version>
5.8.1

> <Gold.Id.Protein>
6NUR|6NUR_protein|mol2

> <Gold.PLP.Fitness>
36.4481

> <Gold.PLP.PLP>
-25.0184

> <Gold.PLP.part.hbond>
-3.9798

> <Gold.PLP.part.metal>
0.0000

> <Gold.PLP.part.buried>
-1.7350

> <Gold.PLP.part.nonpolar>
-19.4202

> <Gold.PLP.part.repulsive>
0.2266

> <Gold.PLP.ligand.clash>
0.0000

> <Gold.PLP.ligand.torsion>
0.3243

> <Gold.PLP.Chemscore.Hbond>
2.9920

> <Gold.PLP.Chemscore.CHOScore>
1.0000

> <Gold.PLP.Chemscore.Metal>
0.0000

> <Gold.Chemscore.Hbonds>
donor molecule, donor type, donor heavy atom, donor atom, acceptor molecule, acceptor atom, score
      L1  H     1    21       P1  7948  1.00
      L1  H    11    34       P1  7948  0.99
      L1  H    14    35       P1  7948  1.00
      L1  C    17    36       P1 10186  0.98

> <Gold.PLP.Chemscore.Internal.Correction>
0.1023

> <Gold.Rescore>
     Score         DG    S(hbond)    S(metal)    S(lipo)     H(rot)  DE(clash)    DE(int)     intcor
     14.65     -16.82       2.67        0.00      53.78       1.52       0.03       2.13       ----

> <Gold.Chemscore.Fitness>
14.6495

> <Gold.Chemscore.DG>
-16.8165

> <Gold.Chemscore.ZeroCoef>
-5.4800

> <Gold.Chemscore.Hbond>
2.6739

> <Gold.Chemscore.Metal>
0.0000

> <Gold.Chemscore.Lipo>
53.7849

> <Gold.Chemscore.Internal_Hbond>
0.0000

> <Gold.Chemscore.DEClash>
0.0348

> <Gold.Chemscore.DEInternal>
2.1323

> <Gold.Chemscore.Rot>
1.5184

> <Gold.Chemscore.Internal.Correction>
   9.000000E+99

> <Gold.Chemscore.Hbonds>
donor molecule, donor type, donor heavy atom, donor atom, acceptor molecule, acceptor atom, score
      L1  H     1    21       P1  7948  0.26
      L1  H    11    34       P1  7948  0.92
      L1  H    14    35       P1  7948  0.93

> <Gold.Chemscore.Hbond.Weighted>
-8.9308

> <Gold.Chemscore.Metal.Weighted>
-0.0000

> <Gold.Chemscore.Lipo.Weighted>
-6.2928

> <Gold.Chemscore.Internal_Hbond.Weighted>
0.0000

> <Gold.Chemscore.DEClash.Weighted>
0.0348

> <Gold.Chemscore.DEInternal.Weighted>
2.1323

> <Gold.Chemscore.Rot.Weighted>
3.8872

> <Gold.Chemscore.Internal.Correction.Weighted>
   9.000000E+99

> <Gold.Protein.RotatedTorsions>
[ 6907 6896 6895 6894 ] final -110.92 input  -60.11 | X-H torsion
[ 7974 7965 7964 7962 ] final   34.95 input  175.53 | X-H torsion
[ 8008 7997 7996 7995 ] final  -13.52 input   59.86 | X-H torsion
[ 10167 10162 10161 10158 ] final   54.03 input  -65.29 | X-H torsion
[ 10718 10713 10712 10709 ] final   58.39 input   66.30 | X-H torsion
[ 10763 10752 10751 10750 ] final   74.84 input  -60.55 | X-H torsion
[ 11005 11000 10999 10996 ] final  -70.60 input  -57.11 | X-H torsion

> <Gold.Protein.ActiveResidues>
 VAL166  LYS551  ARG553  GLY616  TRP617  ASP618  TYR619  PRO620  LYS621  CYS622 
 ASP623  PHE694  ASN695  SER759  ASP760  ASP761  ALA762  ILE779  LEU786  VAL792 
 PHE793  MET794  SER795  GLU796  ALA797  LYS798  CYS799  TRP800  GLU811  SER814 

> <Gold.Protein.RotatedAtoms>
  150.7656  133.9311  159.3427 H   0  0  0  0  0  0  0  0  0  0  0  0  # atno 6907 bound_to 6896
  151.7210  135.0892  160.0293 H   0  0  0  0  0  0  0  0  0  0  0  0  # atno 6908 bound_to 6896
  152.3650  133.6307  159.6079 H   0  0  0  0  0  0  0  0  0  0  0  0  # atno 6909 bound_to 6896
  146.1317  139.6204  142.9222 H   0  0  0  0  0  0  0  0  0  0  0  0  # atno 7974 bound_to 7965
  154.5285  140.2247  155.8846 H   0  0  0  0  0  0  0  0  0  0  0  0  # atno 8008 bound_to 7997
  156.1739  140.3115  155.8988 H   0  0  0  0  0  0  0  0  0  0  0  0  # atno 8009 bound_to 7997
  155.3500  140.0455  157.3036 H   0  0  0  0  0  0  0  0  0  0  0  0  # atno 8010 bound_to 7997
  140.2345  144.3651  150.6402 H   0  0  0  0  0  0  0  0  0  0  0  0  # atno 10167 bound_to 10162
  157.5592  130.8823  149.9084 H   0  0  0  0  0  0  0  0  0  0  0  0  # atno 10718 bound_to 10713
  153.0614  135.5011  154.8102 H   0  0  0  0  0  0  0  0  0  0  0  0  # atno 10763 bound_to 10752
  154.6888  135.2981  154.9511 H   0  0  0  0  0  0  0  0  0  0  0  0  # atno 10764 bound_to 10752
  154.0273  135.6734  153.4830 H   0  0  0  0  0  0  0  0  0  0  0  0  # atno 10765 bound_to 10752
  141.1577  133.6794  156.6778 H   0  0  0  0  0  0  0  0  0  0  0  0  # atno 11005 bound_to 11000
  145.5245  141.0430  143.2417 LP  0  0  0  0  0  0  0  0  0  0  0  0  # atno 17320 bound_to 7965
  144.7698  139.6762  143.7200 LP  0  0  0  0  0  0  0  0  0  0  0  0  # atno 17321 bound_to 7965
  140.6160  143.2172  151.6790 LP  0  0  0  0  0  0  0  0  0  0  0  0  # atno 17342 bound_to 10162
  139.5098  144.3563  152.0604 LP  0  0  0  0  0  0  0  0  0  0  0  0  # atno 17343 bound_to 10162
  156.0647  130.3694  150.0905 LP  0  0  0  0  0  0  0  0  0  0  0  0  # atno 17370 bound_to 10713
  156.9071  130.9639  151.3568 LP  0  0  0  0  0  0  0  0  0  0  0  0  # atno 17371 bound_to 10713
  140.3126  134.8074  157.4188 LP  0  0  0  0  0  0  0  0  0  0  0  0  # atno 17394 bound_to 11000
  140.1166  134.5275  155.8220 LP  0  0  0  0  0  0  0  0  0  0  0  0  # atno 17395 bound_to 11000

$$$$
