AV-unprocessed.smi:2508|AV-procd|sdf|9865|dock4
  -GOLD-   2272013493D 1   1.00000     0.00000
 Structure written by MMmdl.
 46 47  0  0  0  0  0  0  0  0  1 V2000
  145.0539  130.7572  151.3862 C   0  0  0  0  0  0  0  0  0  0  0  0
  145.0480  132.2042  151.1543 N   0  0  0  0  0  0  0  0  0  0  0  0
  145.8822  133.0023  151.9616 C   0  0  0  0  0  0  0  0  0  0  0  0
  145.9463  134.3456  151.8266 C   0  0  0  0  0  0  0  0  0  0  0  0
  146.7530  135.2065  152.5865 N   0  0  0  0  0  0  0  0  0  0  0  0
  146.5854  135.6557  153.8487 C   0  0  0  0  0  0  0  0  0  0  0  0
  145.6349  135.3890  154.5804 O   0  0  0  0  0  0  0  0  0  0  0  0
  147.5724  136.4649  154.2710 N   0  0  0  0  0  0  0  0  0  0  0  0
  147.6963  137.1171  155.5761 C   0  0  0  0  0  0  0  0  0  0  0  0
  148.3347  138.5322  155.4793 C   0  0  0  0  0  0  0  0  0  0  0  0
  147.9055  139.2050  154.1553 C   0  0  0  0  0  0  0  0  0  0  0  0
  147.8277  139.4142  156.6435 C   0  0  0  0  0  0  0  0  0  0  0  0
  149.8959  138.4872  155.5323 C   0  0  0  0  0  0  0  0  0  0  0  0
  150.6331  139.8350  155.5418 C   0  0  0  0  0  0  0  0  0  0  0  0
  152.0971  139.4829  155.2586 C   0  0  0  0  0  0  0  0  0  0  0  0
  152.0810  138.1415  154.5103 C   0  0  0  0  0  0  0  0  0  0  0  0
  150.6107  137.7185  154.4099 C   0  0  0  0  0  0  0  0  0  0  0  0
  145.1150  134.9395  150.8011 C   0  0  0  0  0  0  0  0  0  0  0  0
  144.3145  134.1834  150.0248 C   0  0  0  0  0  0  0  0  0  0  0  0
  144.2489  132.7287  150.1807 C   0  0  0  0  0  0  0  0  0  0  0  0
  143.5215  132.0249  149.4796 O   0  0  0  0  0  0  0  0  0  0  0  0
  145.7418  130.4565  152.1770 H   0  0  0  0  0  0  0  0  0  0  0  0
  145.3497  130.2252  150.4808 H   0  0  0  0  0  0  0  0  0  0  0  0
  144.0593  130.4123  151.6730 H   0  0  0  0  0  0  0  0  0  0  0  0
  146.4533  132.4355  152.6785 H   0  0  0  0  0  0  0  0  0  0  0  0
  147.5796  135.5367  152.1099 H   0  0  0  0  0  0  0  0  0  0  0  0
  148.3114  136.6592  153.6110 H   0  0  0  0  0  0  0  0  0  0  0  0
  146.7020  137.1751  156.0186 H   0  0  0  0  0  0  0  0  0  0  0  0
  148.2951  136.4708  156.2172 H   0  0  0  0  0  0  0  0  0  0  0  0
  148.3837  140.1770  154.0295 H   0  0  0  0  0  0  0  0  0  0  0  0
  146.8289  139.3726  154.1134 H   0  0  0  0  0  0  0  0  0  0  0  0
  148.1690  138.5949  153.2910 H   0  0  0  0  0  0  0  0  0  0  0  0
  148.3056  140.3943  156.6361 H   0  0  0  0  0  0  0  0  0  0  0  0
  148.0314  138.9568  157.6120 H   0  0  0  0  0  0  0  0  0  0  0  0
  146.7521  139.5840  156.5887 H   0  0  0  0  0  0  0  0  0  0  0  0
  150.1698  137.9861  156.4631 H   0  0  0  0  0  0  0  0  0  0  0  0
  150.2721  140.4854  154.7462 H   0  0  0  0  0  0  0  0  0  0  0  0
  150.5194  140.3715  156.4843 H   0  0  0  0  0  0  0  0  0  0  0  0
  152.5924  140.2662  154.6842 H   0  0  0  0  0  0  0  0  0  0  0  0
  152.6428  139.3723  156.1964 H   0  0  0  0  0  0  0  0  0  0  0  0
  152.5373  138.2212  153.5230 H   0  0  0  0  0  0  0  0  0  0  0  0
  152.6495  137.3991  155.0720 H   0  0  0  0  0  0  0  0  0  0  0  0
  150.4933  136.6383  154.4995 H   0  0  0  0  0  0  0  0  0  0  0  0
  150.2311  138.0095  153.4315 H   0  0  0  0  0  0  0  0  0  0  0  0
  145.1327  136.0094  150.6517 H   0  0  0  0  0  0  0  0  0  0  0  0
  143.7066  134.6590  149.2694 H   0  0  0  0  0  0  0  0  0  0  0  0
  1  2  1  0  0  0  0
  1 22  1  0  0  0  0
  1 23  1  0  0  0  0
  1 24  1  0  0  0  0
  2 20  1  0  0  0  0
  2  3  1  0  0  0  0
  3  4  2  0  0  0  0
  3 25  1  0  0  0  0
  4  5  1  0  0  0  0
  4 18  1  0  0  0  0
  5  6  1  0  0  0  0
  5 26  1  0  0  0  0
  6  7  2  0  0  0  0
  6  8  1  0  0  0  0
  8  9  1  0  0  0  0
  8 27  1  0  0  0  0
  9 10  1  0  0  0  0
  9 28  1  0  0  0  0
  9 29  1  0  0  0  0
 10 11  1  0  0  0  0
 10 12  1  0  0  0  0
 10 13  1  0  0  0  0
 11 30  1  0  0  0  0
 11 31  1  0  0  0  0
 11 32  1  0  0  0  0
 12 33  1  0  0  0  0
 12 34  1  0  0  0  0
 12 35  1  0  0  0  0
 13 17  1  0  0  0  0
 13 14  1  0  0  0  0
 13 36  1  0  0  0  0
 14 15  1  0  0  0  0
 14 37  1  0  0  0  0
 14 38  1  0  0  0  0
 15 16  1  0  0  0  0
 15 39  1  0  0  0  0
 15 40  1  0  0  0  0
 16 17  1  0  0  0  0
 16 41  1  0  0  0  0
 16 42  1  0  0  0  0
 17 43  1  0  0  0  0
 17 44  1  0  0  0  0
 18 19  2  0  0  0  0
 18 45  1  0  0  0  0
 19 20  1  0  0  0  0
 19 46  1  0  0  0  0
 20 21  2  0  0  0  0
M  END
> <s_m_source_file>
AV-unprocessed.smi

> <i_m_source_file_index>
2508

> <i_lp_mmshare_version>
43012

> <i_f3d_flags>
0

> <s_epik_input>
Tz1jMVtjSF1bY0hdYyhbY0hdbjFbQ0gzXSlbTkhdQyg9TylbTkhdW0NIMl1DKFtDSDNdKShbQ0gzXSlbQ0hdMltDSDJdW0NIMl1bQ0gyXVtDSDJdMg==

> <s_epik_cmdline>
J2VwaWtfcHl0aG9uJywgJy1waCcsICc3LjAnLCAnLXRuJywgJzgnLCAnLW1hJywgJzIwMCcsICctbWV0YWxfYmluZGluZycsICctaW1hZScsICc8aW5maWxlLm1hZT4nLCAnLW9tYWUnLCAnPG91dGZpbGUubWFlPic=

> <r_lp_tautomer_probability>
1

> <r_epik_Ionization_Penalty>
2.69566e-05

> <r_epik_Ionization_Penalty_Charging>
5.95678e-06

> <r_epik_Ionization_Penalty_Neutral>
2.09998e-05

> <r_epik_State_Penalty>
-0

> <r_epik_Charging_Adjusted_Penalty>
5.95678e-06

> <i_epik_Tot_Q>
0

> <i_epik_Tot_abs_Q>
0

> <r_epik_Metal_State_Penalty>
-0

> <b_epik_Metal_Only>
0

> <s_lp_Force_Field>
OPLS_2005

> <r_lp_Energy>
55.0143

> <b_lp_Chiralities_Consistent>
1

> <s_lp_Variant>
AV-unprocessed.smi:2508-1

> <Gold.Version>
5.8.1

> <Gold.Id.Protein>
6NUR|6NUR_protein|mol2

> <Gold.PLP.Fitness>
39.6315

> <Gold.PLP.PLP>
-33.7532

> <Gold.PLP.part.hbond>
-2.9332

> <Gold.PLP.part.metal>
0.0000

> <Gold.PLP.part.buried>
-3.7903

> <Gold.PLP.part.nonpolar>
-28.5265

> <Gold.PLP.part.repulsive>
0.2886

> <Gold.PLP.ligand.clash>
0.0000

> <Gold.PLP.ligand.torsion>
1.3755

> <Gold.PLP.Chemscore.Hbond>
2.8720

> <Gold.PLP.Chemscore.CHOScore>
0.0000

> <Gold.PLP.Chemscore.Metal>
0.0000

> <Gold.Chemscore.Hbonds>
donor molecule, donor type, donor heavy atom, donor atom, acceptor molecule, acceptor atom, score
      L1  H     5    26       P1  7948  0.99
      L1  H     8    27       P1  7948  0.88
      P1  H 10785 10796       L1    21  0.95

> <Gold.PLP.Chemscore.Internal.Correction>
0.0133

> <Gold.Rescore>
     Score         DG    S(hbond)    S(metal)    S(lipo)     H(rot)  DE(clash)    DE(int)     intcor
     18.67     -20.42       2.87        0.00      75.81       1.37       0.37       1.38       ----

> <Gold.Chemscore.Fitness>
18.6673

> <Gold.Chemscore.DG>
-20.4222

> <Gold.Chemscore.ZeroCoef>
-5.4800

> <Gold.Chemscore.Hbond>
2.8714

> <Gold.Chemscore.Metal>
0.0000

> <Gold.Chemscore.Lipo>
75.8102

> <Gold.Chemscore.Internal_Hbond>
0.0000

> <Gold.Chemscore.DEClash>
0.3728

> <Gold.Chemscore.DEInternal>
1.3821

> <Gold.Chemscore.Rot>
1.3742

> <Gold.Chemscore.Internal.Correction>
   9.000000E+99

> <Gold.Chemscore.Hbonds>
donor molecule, donor type, donor heavy atom, donor atom, acceptor molecule, acceptor atom, score
      L1  H     5    26       P1  7948  0.93
      L1  H     8    27       P1  7948  0.86
      P1  H 10785 10796       L1    21  0.86

> <Gold.Chemscore.Hbond.Weighted>
-9.5903

> <Gold.Chemscore.Metal.Weighted>
-0.0000

> <Gold.Chemscore.Lipo.Weighted>
-8.8698

> <Gold.Chemscore.Internal_Hbond.Weighted>
0.0000

> <Gold.Chemscore.DEClash.Weighted>
0.3728

> <Gold.Chemscore.DEInternal.Weighted>
1.3821

> <Gold.Chemscore.Rot.Weighted>
3.5179

> <Gold.Chemscore.Internal.Correction.Weighted>
   9.000000E+99

> <Gold.Protein.RotatedTorsions>
[ 6907 6896 6895 6894 ] final -112.04 input  -60.11 | X-H torsion
[ 7974 7965 7964 7962 ] final   86.01 input  175.53 | X-H torsion
[ 8008 7997 7996 7995 ] final  -52.05 input   59.86 | X-H torsion
[ 10167 10162 10161 10158 ] final  173.68 input  -65.29 | X-H torsion
[ 10718 10713 10712 10709 ] final  177.82 input   66.30 | X-H torsion
[ 10763 10752 10751 10750 ] final   77.92 input  -60.55 | X-H torsion
[ 11005 11000 10999 10996 ] final -144.26 input  -57.11 | X-H torsion

> <Gold.Protein.ActiveResidues>
 VAL166  LYS551  ARG553  GLY616  TRP617  ASP618  TYR619  PRO620  LYS621  CYS622 
 ASP623  PHE694  ASN695  SER759  ASP760  ASP761  ALA762  ILE779  LEU786  VAL792 
 PHE793  MET794  SER795  GLU796  ALA797  LYS798  CYS799  TRP800  GLU811  SER814 

> <Gold.Protein.RotatedAtoms>
  150.7731  133.9147  159.3379 H   0  0  0  0  0  0  0  0  0  0  0  0  # atno 6907 bound_to 6896
  151.7029  135.0925  160.0263 H   0  0  0  0  0  0  0  0  0  0  0  0  # atno 6908 bound_to 6896
  152.3756  133.6439  159.6157 H   0  0  0  0  0  0  0  0  0  0  0  0  # atno 6909 bound_to 6896
  145.5779  139.2321  143.2369 H   0  0  0  0  0  0  0  0  0  0  0  0  # atno 7974 bound_to 7965
  154.4097  140.1233  156.4929 H   0  0  0  0  0  0  0  0  0  0  0  0  # atno 8008 bound_to 7997
  155.6972  140.3495  155.4898 H   0  0  0  0  0  0  0  0  0  0  0  0  # atno 8009 bound_to 7997
  155.9417  140.1088  157.1040 H   0  0  0  0  0  0  0  0  0  0  0  0  # atno 8010 bound_to 7997
  139.5116  144.3233  152.0181 H   0  0  0  0  0  0  0  0  0  0  0  0  # atno 10167 bound_to 10162
  156.8997  130.9875  151.3037 H   0  0  0  0  0  0  0  0  0  0  0  0  # atno 10718 bound_to 10713
  153.0835  135.4896  154.8551 H   0  0  0  0  0  0  0  0  0  0  0  0  # atno 10763 bound_to 10752
  154.7181  135.3033  154.9093 H   0  0  0  0  0  0  0  0  0  0  0  0  # atno 10764 bound_to 10752
  153.9766  135.6795  153.4801 H   0  0  0  0  0  0  0  0  0  0  0  0  # atno 10765 bound_to 10752
  140.8042  134.2820  157.4966 H   0  0  0  0  0  0  0  0  0  0  0  0  # atno 11005 bound_to 11000
  146.1737  140.6605  142.9221 LP  0  0  0  0  0  0  0  0  0  0  0  0  # atno 17320 bound_to 7965
  144.7407  140.4935  143.6871 LP  0  0  0  0  0  0  0  0  0  0  0  0  # atno 17321 bound_to 7965
  140.2675  144.4000  150.6163 LP  0  0  0  0  0  0  0  0  0  0  0  0  # atno 17342 bound_to 10162
  140.6113  143.2169  151.6881 LP  0  0  0  0  0  0  0  0  0  0  0  0  # atno 17343 bound_to 10162
  157.6033  130.8529  149.8836 LP  0  0  0  0  0  0  0  0  0  0  0  0  # atno 17370 bound_to 10713
  156.0588  130.3703  150.1030 LP  0  0  0  0  0  0  0  0  0  0  0  0  # atno 17371 bound_to 10713
  139.8719  134.9447  156.3888 LP  0  0  0  0  0  0  0  0  0  0  0  0  # atno 17394 bound_to 11000
  140.9263  133.7610  155.9969 LP  0  0  0  0  0  0  0  0  0  0  0  0  # atno 17395 bound_to 11000

$$$$
