AV-unprocessed.smi:278|AV-procd|sdf|2089|dock4
  -GOLD-   2262021363D 1   1.00000     0.00000
 Structure written by MMmdl.
 50 54  0  0  0  0  0  0  0  0  1 V2000
  151.7882  140.1610  155.1673 O   0  0  0  0  0  0  0  0  0  0  0  0
  151.6560  139.9956  156.6233 S   0  0  0  0  0  0  0  0  0  0  0  0
  152.6519  139.2369  157.3947 O   0  0  0  0  0  0  0  0  0  0  0  0
  151.3959  141.6318  157.3863 C   0  0  0  0  0  0  0  0  0  0  0  0
  149.9276  141.9624  157.0926 C   0  0  0  0  0  0  0  0  0  0  0  0
  149.0830  140.6630  157.1364 C   0  0  1  0  0  0  0  0  0  0  0  0
  148.0864  140.5175  155.9805 C   0  0  0  0  0  0  0  0  0  0  0  0
  147.9993  139.0884  155.7250 N   0  0  0  0  0  0  0  0  0  0  0  0
  147.4126  138.7501  154.5570 C   0  0  0  0  0  0  0  0  0  0  0  0
  147.6848  139.5350  153.4862 N   0  0  0  0  0  0  0  0  0  0  0  0
  147.1401  139.2566  152.2977 C   0  0  0  0  0  0  0  0  0  0  0  0
  146.3140  138.2606  151.9694 N   0  0  0  0  0  0  0  0  0  0  0  0
  146.0386  137.4701  153.0464 C   0  0  0  0  0  0  0  0  0  0  0  0
  146.5407  137.6396  154.3672 C   0  0  0  0  0  0  0  0  0  0  0  0
  146.0422  136.6396  155.1945 N   0  0  0  0  0  0  0  0  0  0  0  0
  145.2869  135.9220  154.4082 C   0  0  0  0  0  0  0  0  0  0  0  0
  145.2275  136.3512  153.1016 N   0  0  0  0  0  0  0  0  0  0  0  0
  144.4735  135.7477  152.0170 C   0  0  0  0  0  0  0  0  0  0  0  0
  145.3703  135.3378  150.8323 C   0  0  2  0  0  0  0  0  0  0  0  0
  144.9855  136.0691  149.6834 O   0  0  0  0  0  0  0  0  0  0  0  0
  145.2737  133.8327  150.5211 C   0  0  1  0  0  0  0  0  0  0  0  0
  145.3795  132.9244  151.7446 C   0  0  0  0  0  0  0  0  0  0  0  0
  144.7597  131.6370  151.2413 C   0  0  0  0  0  0  0  0  0  0  0  0
  143.7391  132.1170  150.2062 C   0  0  0  0  0  0  0  0  0  0  0  0
  143.9852  133.5077  150.0178 O   0  0  0  0  0  0  0  0  0  0  0  0
  149.3286  138.5343  155.9377 C   0  0  0  0  0  0  0  0  0  0  0  0
  149.9662  139.4093  157.0246 C   0  0  1  0  0  0  0  0  0  0  0  0
  148.5427  140.6090  158.0825 H   0  0  0  0  0  0  0  0  0  0  0  0
  150.0020  138.8907  157.9832 H   0  0  0  0  0  0  0  0  0  0  0  0
  151.5661  141.5373  158.4591 H   0  0  0  0  0  0  0  0  0  0  0  0
  152.0961  142.3596  156.9764 H   0  0  0  0  0  0  0  0  0  0  0  0
  149.5421  142.7145  157.7813 H   0  0  0  0  0  0  0  0  0  0  0  0
  149.8773  142.4029  156.0962 H   0  0  0  0  0  0  0  0  0  0  0  0
  147.1108  140.9291  156.2412 H   0  0  0  0  0  0  0  0  0  0  0  0
  148.4413  141.0385  155.0911 H   0  0  0  0  0  0  0  0  0  0  0  0
  147.4042  139.9283  151.4942 H   0  0  0  0  0  0  0  0  0  0  0  0
  144.7473  135.0561  154.7633 H   0  0  0  0  0  0  0  0  0  0  0  0
  143.9511  134.8772  152.4156 H   0  0  0  0  0  0  0  0  0  0  0  0
  143.7047  136.4497  151.6910 H   0  0  0  0  0  0  0  0  0  0  0  0
  146.4066  135.5910  151.0600 H   0  0  0  0  0  0  0  0  0  0  0  0
  144.7547  136.9459  149.9496 H   0  0  0  0  0  0  0  0  0  0  0  0
  146.0206  133.5438  149.7791 H   0  0  0  0  0  0  0  0  0  0  0  0
  146.4046  132.7936  152.0927 H   0  0  0  0  0  0  0  0  0  0  0  0
  144.7874  133.3250  152.5687 H   0  0  0  0  0  0  0  0  0  0  0  0
  145.5188  131.0216  150.7570 H   0  0  0  0  0  0  0  0  0  0  0  0
  144.3074  131.0489  152.0402 H   0  0  0  0  0  0  0  0  0  0  0  0
  143.8555  131.5818  149.2634 H   0  0  0  0  0  0  0  0  0  0  0  0
  142.7154  131.9745  150.5527 H   0  0  0  0  0  0  0  0  0  0  0  0
  149.2552  137.4975  156.2667 H   0  0  0  0  0  0  0  0  0  0  0  0
  149.9129  138.5427  155.0184 H   0  0  0  0  0  0  0  0  0  0  0  0
  1  2  2  0  0  0  0
  2 27  1  0  0  0  0
  2  3  2  0  0  0  0
  2  4  1  0  0  0  0
  4  5  1  0  0  0  0
  4 30  1  0  0  0  0
  4 31  1  0  0  0  0
  5  6  1  0  0  0  0
  5 32  1  0  0  0  0
  5 33  1  0  0  0  0
  6 28  1  0  0  0  0
  6 27  1  0  0  0  0
  6  7  1  0  0  0  0
  7  8  1  0  0  0  0
  7 34  1  0  0  0  0
  7 35  1  0  0  0  0
  8  9  1  0  0  0  0
  8 26  1  0  0  0  0
  9 14  1  0  0  0  0
  9 10  2  0  0  0  0
 10 11  1  0  0  0  0
 11 12  2  0  0  0  0
 11 36  1  0  0  0  0
 12 13  1  0  0  0  0
 13 17  1  0  0  0  0
 13 14  2  0  0  0  0
 14 15  1  0  0  0  0
 15 16  2  0  0  0  0
 16 17  1  0  0  0  0
 16 37  1  0  0  0  0
 17 18  1  0  0  0  0
 18 19  1  0  0  0  0
 18 38  1  0  0  0  0
 18 39  1  0  0  0  0
 19 20  1  0  0  0  0
 19 21  1  0  0  0  0
 19 40  1  0  0  0  0
 20 41  1  0  0  0  0
 21 25  1  0  0  0  0
 21 22  1  0  0  0  0
 21 42  1  0  0  0  0
 22 23  1  0  0  0  0
 22 43  1  0  0  0  0
 22 44  1  0  0  0  0
 23 24  1  0  0  0  0
 23 45  1  0  0  0  0
 23 46  1  0  0  0  0
 24 25  1  0  0  0  0
 24 47  1  0  0  0  0
 24 48  1  0  0  0  0
 26 27  1  0  0  0  0
 26 49  1  0  0  0  0
 26 50  1  0  0  0  0
 27 29  1  0  0  0  0
M  END
> <s_m_source_file>
AV-unprocessed.smi

> <i_m_source_file_index>
278

> <i_lp_mmshare_version>
43012

> <i_f3d_flags>
0

> <s_epik_input>
W0NIMl0xW0NIMl1TKD1PKSg9TylbQ0BASF0oW0NAQEhdMTIpW0NIMl1OKFtDSDJdMiljKG5bY0hdbjMpYyhjMzQpbltjSF1uNFtDSDJdW0NASF0oW09IXSlbQ0BASF01W0NIMl1bQ0gyXVtDSDJdTzU=

> <s_epik_cmdline>
J2VwaWtfcHl0aG9uJywgJy1waCcsICc3LjAnLCAnLXRuJywgJzgnLCAnLW1hJywgJzIwMCcsICctbWV0YWxfYmluZGluZycsICctaW1hZScsICc8aW5maWxlLm1hZT4nLCAnLW9tYWUnLCAnPG91dGZpbGUubWFlPic=

> <r_lp_tautomer_probability>
1

> <r_epik_Ionization_Penalty>
0.000636766

> <r_epik_Ionization_Penalty_Charging>
0

> <r_epik_Ionization_Penalty_Neutral>
0.000636766

> <r_epik_State_Penalty>
0.000329976

> <r_epik_Charging_Adjusted_Penalty>
0.000329976

> <i_epik_Tot_Q>
0

> <i_epik_Tot_abs_Q>
0

> <r_epik_Metal_State_Penalty>
-0

> <b_epik_Metal_Only>
0

> <s_lp_Force_Field>
OPLS_2005

> <r_lp_Energy>
53.1939

> <b_lp_Chiralities_Consistent>
1

> <s_lp_Variant>
AV-unprocessed.smi:278-3

> <Gold.Version>
5.8.1

> <Gold.Id.Protein>
6NUR|6NUR_protein|mol2

> <Gold.PLP.Fitness>
40.8395

> <Gold.PLP.PLP>
-33.2268

> <Gold.PLP.part.hbond>
-4.0000

> <Gold.PLP.part.metal>
0.0000

> <Gold.PLP.part.buried>
-5.8335

> <Gold.PLP.part.nonpolar>
-24.5719

> <Gold.PLP.part.repulsive>
1.1952

> <Gold.PLP.ligand.clash>
0.0000

> <Gold.PLP.ligand.torsion>
1.5306

> <Gold.PLP.Chemscore.Hbond>
2.8800

> <Gold.PLP.Chemscore.CHOScore>
0.6573

> <Gold.PLP.Chemscore.Metal>
0.0000

> <Gold.Chemscore.Hbonds>
donor molecule, donor type, donor heavy atom, donor atom, acceptor molecule, acceptor atom, score
      L1  H    20    41       P1 10171  1.00
      P1  H  7989  7998       L1     1  0.88
      P1  H  7997  8010       L1     3  0.94
      L1  C    11    36       P1  7957  0.68

> <Gold.PLP.Chemscore.Internal.Correction>
0.0620

> <Gold.Rescore>
     Score         DG    S(hbond)    S(metal)    S(lipo)     H(rot)  DE(clash)    DE(int)     intcor
     14.17     -15.83       2.72        0.00      64.81       2.46       0.02       1.64       ----

> <Gold.Chemscore.Fitness>
14.1684

> <Gold.Chemscore.DG>
-15.8297

> <Gold.Chemscore.ZeroCoef>
-5.4800

> <Gold.Chemscore.Hbond>
2.7168

> <Gold.Chemscore.Metal>
0.0000

> <Gold.Chemscore.Lipo>
64.8076

> <Gold.Chemscore.Internal_Hbond>
0.0000

> <Gold.Chemscore.DEClash>
0.0210

> <Gold.Chemscore.DEInternal>
1.6403

> <Gold.Chemscore.Rot>
2.4636

> <Gold.Chemscore.Internal.Correction>
   9.000000E+99

> <Gold.Chemscore.Hbonds>
donor molecule, donor type, donor heavy atom, donor atom, acceptor molecule, acceptor atom, score
      L1  H    20    41       P1 10171  0.98
      P1  H  7989  7998       L1     1  0.87
      P1  H  7997  8010       L1     3  0.27

> <Gold.Chemscore.Hbond.Weighted>
-9.0741

> <Gold.Chemscore.Metal.Weighted>
-0.0000

> <Gold.Chemscore.Lipo.Weighted>
-7.5825

> <Gold.Chemscore.Internal_Hbond.Weighted>
0.0000

> <Gold.Chemscore.DEClash.Weighted>
0.0210

> <Gold.Chemscore.DEInternal.Weighted>
1.6403

> <Gold.Chemscore.Rot.Weighted>
6.3068

> <Gold.Chemscore.Internal.Correction.Weighted>
   9.000000E+99

> <Gold.Protein.RotatedTorsions>
[ 6907 6896 6895 6894 ] final -146.94 input  -60.11 | X-H torsion
[ 7974 7965 7964 7962 ] final   42.26 input  175.53 | X-H torsion
[ 8008 7997 7996 7995 ] final   55.58 input   59.86 | X-H torsion
[ 10167 10162 10161 10158 ] final  -70.41 input  -65.29 | X-H torsion
[ 10718 10713 10712 10709 ] final   25.19 input   66.30 | X-H torsion
[ 10763 10752 10751 10750 ] final  135.14 input  -60.55 | X-H torsion
[ 11005 11000 10999 10996 ] final -105.24 input  -57.11 | X-H torsion

> <Gold.Protein.ActiveResidues>
 VAL166  LYS551  ARG553  GLY616  TRP617  ASP618  TYR619  PRO620  LYS621  CYS622 
 ASP623  PHE694  ASN695  SER759  ASP760  ASP761  ALA762  ILE779  LEU786  VAL792 
 PHE793  MET794  SER795  GLU796  ALA797  LYS798  CYS799  TRP800  GLU811  SER814 

> <Gold.Protein.RotatedAtoms>
  151.1487  133.4922  159.2595 H   0  0  0  0  0  0  0  0  0  0  0  0  # atno 6907 bound_to 6896
  151.1577  135.0258  159.8706 H   0  0  0  0  0  0  0  0  0  0  0  0  # atno 6908 bound_to 6896
  152.5463  134.1365  159.8514 H   0  0  0  0  0  0  0  0  0  0  0  0  # atno 6909 bound_to 6896
  146.0755  139.5321  142.9570 H   0  0  0  0  0  0  0  0  0  0  0  0  # atno 7974 bound_to 7965
  155.5034  140.3475  155.4375 H   0  0  0  0  0  0  0  0  0  0  0  0  # atno 8008 bound_to 7997
  156.0898  140.1408  156.9634 H   0  0  0  0  0  0  0  0  0  0  0  0  # atno 8009 bound_to 7997
  154.4628  140.0928  156.6917 H   0  0  0  0  0  0  0  0  0  0  0  0  # atno 8010 bound_to 7997
  140.5355  143.2318  151.7185 H   0  0  0  0  0  0  0  0  0  0  0  0  # atno 10167 bound_to 10162
  157.1901  130.6842  149.6146 H   0  0  0  0  0  0  0  0  0  0  0  0  # atno 10718 bound_to 10713
  153.8351  135.3098  155.3422 H   0  0  0  0  0  0  0  0  0  0  0  0  # atno 10763 bound_to 10752
  154.7956  135.4757  154.0157 H   0  0  0  0  0  0  0  0  0  0  0  0  # atno 10764 bound_to 10752
  153.1610  135.6861  153.8834 H   0  0  0  0  0  0  0  0  0  0  0  0  # atno 10765 bound_to 10752
  141.1063  133.8791  157.1709 H   0  0  0  0  0  0  0  0  0  0  0  0  # atno 11005 bound_to 11000
  145.6313  141.0303  143.1861 LP  0  0  0  0  0  0  0  0  0  0  0  0  # atno 17320 bound_to 7965
  144.7259  139.7878  143.7365 LP  0  0  0  0  0  0  0  0  0  0  0  0  # atno 17321 bound_to 7965
  139.4969  144.4050  152.0142 LP  0  0  0  0  0  0  0  0  0  0  0  0  # atno 17342 bound_to 10162
  140.3155  144.3489  150.6023 LP  0  0  0  0  0  0  0  0  0  0  0  0  # atno 17343 bound_to 10162
  155.9713  130.4617  150.6121 LP  0  0  0  0  0  0  0  0  0  0  0  0  # atno 17370 bound_to 10713
  157.3869  131.0789  151.1428 LP  0  0  0  0  0  0  0  0  0  0  0  0  # atno 17371 bound_to 10713
  139.9935  135.0056  157.0028 LP  0  0  0  0  0  0  0  0  0  0  0  0  # atno 17394 bound_to 11000
  140.4894  134.1209  155.7230 LP  0  0  0  0  0  0  0  0  0  0  0  0  # atno 17395 bound_to 11000

$$$$
