AV-unprocessed.smi:852|AV-procd|sdf|3951|dock4
  -GOLD-   22720 1423D 1   1.00000     0.00000
 Structure written by MMmdl.
 30 31  0  0  0  0  0  0  0  0  1 V2000
  152.5292  144.5260  158.1925 C   0  0  0  0  0  0  0  0  0  0  0  0
  151.2395  143.9333  158.7950 C   0  0  1  0  0  0  0  0  0  0  0  0
  150.4549  145.0183  159.4217 C   0  0  0  0  0  0  0  0  0  0  0  0
  149.8410  145.8682  159.9124 N   0  0  0  0  0  0  0  0  0  0  0  0
  150.4655  143.2837  157.7343 N   0  0  0  0  0  0  0  0  0  0  0  0
  150.6219  142.0370  157.2565 C   0  0  0  0  0  0  0  0  0  0  0  0
  151.4654  141.2453  157.6748 O   0  0  0  0  0  0  0  0  0  0  0  0
  149.6726  141.6149  156.1348 C   0  0  0  0  0  0  0  0  0  0  0  0
  150.0839  140.3501  155.5537 N   0  0  0  0  0  0  0  0  0  0  0  0
  150.0985  139.9426  154.2798 C   0  0  0  0  0  0  0  0  0  0  0  0
  150.5416  138.7022  154.1150 N   0  0  0  0  0  0  0  0  0  0  0  0
  150.7965  138.3934  155.4198 C   0  0  0  0  0  0  0  0  0  0  0  0
  151.3214  137.0939  155.8043 C   0  0  0  0  0  0  0  0  0  0  0  0
  151.7395  136.0591  156.1101 N   0  0  0  0  0  0  0  0  0  0  0  0
  150.5447  139.3358  156.3259 N   0  0  0  0  0  0  0  0  0  0  0  0
  151.6313  142.9082  159.8575 C   0  0  0  0  0  0  0  0  0  0  0  0
  152.6376  143.2014  160.9481 C   0  0  0  0  0  0  0  0  0  0  0  0
  152.9727  142.2084  159.8568 C   0  0  0  0  0  0  0  0  0  0  0  0
  153.1525  144.9734  158.9675 H   0  0  0  0  0  0  0  0  0  0  0  0
  152.3177  145.3080  157.4630 H   0  0  0  0  0  0  0  0  0  0  0  0
  153.1246  143.7601  157.6934 H   0  0  0  0  0  0  0  0  0  0  0  0
  149.7414  143.8474  157.3134 H   0  0  0  0  0  0  0  0  0  0  0  0
  148.6531  141.5136  156.5100 H   0  0  0  0  0  0  0  0  0  0  0  0
  149.6544  142.3828  155.3596 H   0  0  0  0  0  0  0  0  0  0  0  0
  149.7774  140.5656  153.4579 H   0  0  0  0  0  0  0  0  0  0  0  0
  150.7932  142.2844  160.1642 H   0  0  0  0  0  0  0  0  0  0  0  0
  153.1537  144.1591  160.9330 H   0  0  0  0  0  0  0  0  0  0  0  0
  152.4289  142.8051  161.9397 H   0  0  0  0  0  0  0  0  0  0  0  0
  152.9871  141.1542  160.1254 H   0  0  0  0  0  0  0  0  0  0  0  0
  153.7112  142.5068  159.1157 H   0  0  0  0  0  0  0  0  0  0  0  0
  1  2  1  0  0  0  0
  1 19  1  0  0  0  0
  1 20  1  0  0  0  0
  1 21  1  0  0  0  0
  2  3  1  0  0  0  0
  2  5  1  0  0  0  0
  2 16  1  0  0  0  0
  3  4  3  0  0  0  0
  5  6  1  0  0  0  0
  5 22  1  0  0  0  0
  6  7  2  0  0  0  0
  6  8  1  0  0  0  0
  8  9  1  0  0  0  0
  8 23  1  0  0  0  0
  8 24  1  0  0  0  0
  9 15  1  0  0  0  0
  9 10  1  0  0  0  0
 10 11  2  0  0  0  0
 10 25  1  0  0  0  0
 11 12  1  0  0  0  0
 12 13  1  0  0  0  0
 12 15  2  0  0  0  0
 13 14  3  0  0  0  0
 16 18  1  0  0  0  0
 16 17  1  0  0  0  0
 16 26  1  0  0  0  0
 17 18  1  0  0  0  0
 17 27  1  0  0  0  0
 17 28  1  0  0  0  0
 18 29  1  0  0  0  0
 18 30  1  0  0  0  0
M  END
> <s_m_source_file>
AV-unprocessed.smi

> <i_m_source_file_index>
852

> <i_lp_mmshare_version>
43012

> <i_f3d_flags>
0

> <s_epik_input>
W0NIMl0xW0NIMl1bQ0hdMVtDQF0oW0NIM10pKEMjTilbTkhdQyg9TylbQ0gyXW4yW2NIXW5jKG4yKUMjTg==

> <s_epik_cmdline>
J2VwaWtfcHl0aG9uJywgJy1waCcsICc3LjAnLCAnLXRuJywgJzgnLCAnLW1hJywgJzIwMCcsICctbWV0YWxfYmluZGluZycsICctaW1hZScsICc8aW5maWxlLm1hZT4nLCAnLW9tYWUnLCAnPG91dGZpbGUubWFlPic=

> <r_lp_tautomer_probability>
1

> <r_epik_Ionization_Penalty>
2.64294e-06

> <r_epik_Ionization_Penalty_Charging>
0

> <r_epik_Ionization_Penalty_Neutral>
2.64294e-06

> <r_epik_State_Penalty>
-0

> <r_epik_Charging_Adjusted_Penalty>
0

> <i_epik_Tot_Q>
0

> <i_epik_Tot_abs_Q>
0

> <r_epik_Metal_State_Penalty>
-0

> <b_epik_Metal_Only>
0

> <s_lp_Force_Field>
OPLS_2005

> <r_lp_Energy>
16.8811

> <b_lp_Chiralities_Consistent>
1

> <s_lp_Variant>
AV-unprocessed.smi:852-1

> <Gold.Version>
5.8.1

> <Gold.Id.Protein>
6NUR|6NUR_protein|mol2

> <Gold.PLP.Fitness>
40.5431

> <Gold.PLP.PLP>
-33.5933

> <Gold.PLP.part.hbond>
-3.4395

> <Gold.PLP.part.metal>
0.0000

> <Gold.PLP.part.buried>
-0.6390

> <Gold.PLP.part.nonpolar>
-30.7924

> <Gold.PLP.part.repulsive>
0.5314

> <Gold.PLP.ligand.clash>
0.0347

> <Gold.PLP.ligand.torsion>
1.7248

> <Gold.PLP.Chemscore.Hbond>
1.9913

> <Gold.PLP.Chemscore.CHOScore>
0.9802

> <Gold.PLP.Chemscore.Metal>
0.0000

> <Gold.Chemscore.Hbonds>
donor molecule, donor type, donor heavy atom, donor atom, acceptor molecule, acceptor atom, score
      L1  H     5    22       P1  8028  0.98
      P1  H 10752 10763       L1    14  1.00
      L1  C    10    25       P1  7957  0.99

> <Gold.PLP.Chemscore.Internal.Correction>
1.5197

> <Gold.Rescore>
     Score         DG    S(hbond)    S(metal)    S(lipo)     H(rot)  DE(clash)    DE(int)     intcor
      4.29      -9.98       0.98        0.00      64.14       2.46       1.37       4.33       ----

> <Gold.Chemscore.Fitness>
4.2864

> <Gold.Chemscore.DG>
-9.9828

> <Gold.Chemscore.ZeroCoef>
-5.4800

> <Gold.Chemscore.Hbond>
0.9846

> <Gold.Chemscore.Metal>
0.0000

> <Gold.Chemscore.Lipo>
64.1401

> <Gold.Chemscore.Internal_Hbond>
0.0000

> <Gold.Chemscore.DEClash>
1.3680

> <Gold.Chemscore.DEInternal>
4.3284

> <Gold.Chemscore.Rot>
2.4571

> <Gold.Chemscore.Internal.Correction>
   9.000000E+99

> <Gold.Chemscore.Hbonds>
donor molecule, donor type, donor heavy atom, donor atom, acceptor molecule, acceptor atom, score
      L1  H     5    22       P1  8028  0.62
      P1  H 10752 10763       L1    14  0.78

> <Gold.Chemscore.Hbond.Weighted>
-3.2885

> <Gold.Chemscore.Metal.Weighted>
-0.0000

> <Gold.Chemscore.Lipo.Weighted>
-7.5044

> <Gold.Chemscore.Internal_Hbond.Weighted>
0.0000

> <Gold.Chemscore.DEClash.Weighted>
1.3680

> <Gold.Chemscore.DEInternal.Weighted>
4.3284

> <Gold.Chemscore.Rot.Weighted>
6.2901

> <Gold.Chemscore.Internal.Correction.Weighted>
   9.000000E+99

> <Gold.Protein.RotatedTorsions>
[ 6907 6896 6895 6894 ] final   12.41 input  -60.11 | X-H torsion
[ 7974 7965 7964 7962 ] final -103.21 input  175.53 | X-H torsion
[ 8008 7997 7996 7995 ] final   39.05 input   59.86 | X-H torsion
[ 10167 10162 10161 10158 ] final  120.08 input  -65.29 | X-H torsion
[ 10718 10713 10712 10709 ] final -164.48 input   66.30 | X-H torsion
[ 10763 10752 10751 10750 ] final   81.59 input  -60.55 | X-H torsion
[ 11005 11000 10999 10996 ] final   65.42 input  -57.11 | X-H torsion

> <Gold.Protein.ActiveResidues>
 VAL166  LYS551  ARG553  GLY616  TRP617  ASP618  TYR619  PRO620  LYS621  CYS622 
 ASP623  PHE694  ASN695  SER759  ASP760  ASP761  ALA762  ILE779  LEU786  VAL792 
 PHE793  MET794  SER795  GLU796  ALA797  LYS798  CYS799  TRP800  GLU811  SER814 

> <Gold.Protein.RotatedAtoms>
  151.7699  135.0789  160.0358 H   0  0  0  0  0  0  0  0  0  0  0  0  # atno 6907 bound_to 6896
  152.3295  133.5938  159.5808 H   0  0  0  0  0  0  0  0  0  0  0  0  # atno 6908 bound_to 6896
  150.7415  133.9805  159.3616 H   0  0  0  0  0  0  0  0  0  0  0  0  # atno 6909 bound_to 6896
  145.2588  140.9262  143.3053 H   0  0  0  0  0  0  0  0  0  0  0  0  # atno 7974 bound_to 7965
  155.2303  140.3338  155.4304 H   0  0  0  0  0  0  0  0  0  0  0  0  # atno 8008 bound_to 7997
  156.2298  140.1845  156.7319 H   0  0  0  0  0  0  0  0  0  0  0  0  # atno 8009 bound_to 7997
  154.5958  140.0631  156.9287 H   0  0  0  0  0  0  0  0  0  0  0  0  # atno 8010 bound_to 7997
  139.6004  144.7055  151.3075 H   0  0  0  0  0  0  0  0  0  0  0  0  # atno 10167 bound_to 10162
  156.6397  130.8963  151.2993 H   0  0  0  0  0  0  0  0  0  0  0  0  # atno 10718 bound_to 10713
  153.1130  135.4760  154.9067 H   0  0  0  0  0  0  0  0  0  0  0  0  # atno 10763 bound_to 10752
  154.7500  135.3103  154.8578 H   0  0  0  0  0  0  0  0  0  0  0  0  # atno 10764 bound_to 10752
  153.9162  135.6860  153.4803 H   0  0  0  0  0  0  0  0  0  0  0  0  # atno 10765 bound_to 10752
  139.9895  134.6613  156.0115 H   0  0  0  0  0  0  0  0  0  0  0  0  # atno 11005 bound_to 11000
  144.9437  139.4160  143.6436 LP  0  0  0  0  0  0  0  0  0  0  0  0  # atno 17320 bound_to 7965
  146.3281  139.8409  142.8890 LP  0  0  0  0  0  0  0  0  0  0  0  0  # atno 17321 bound_to 7965
  140.7245  143.7042  150.7821 LP  0  0  0  0  0  0  0  0  0  0  0  0  # atno 17342 bound_to 10162
  140.0617  143.5148  152.2624 LP  0  0  0  0  0  0  0  0  0  0  0  0  # atno 17343 bound_to 10162
  157.7175  130.9515  150.1309 LP  0  0  0  0  0  0  0  0  0  0  0  0  # atno 17370 bound_to 10713
  156.2169  130.3671  149.8603 LP  0  0  0  0  0  0  0  0  0  0  0  0  # atno 17371 bound_to 10713
  141.1554  133.6543  156.4144 LP  0  0  0  0  0  0  0  0  0  0  0  0  # atno 17394 bound_to 11000
  140.4935  134.6552  157.5220 LP  0  0  0  0  0  0  0  0  0  0  0  0  # atno 17395 bound_to 11000

$$$$
