AV-unprocessed.smi:3061|AV-procd|sdf|11679|dock7
  -GOLD-   2272017 83D 1   1.00000     0.00000
 Structure written by MMmdl.
 35 36  0  0  0  0  0  0  0  0  1 V2000
  148.4164  134.7268  156.1352 C   0  0  0  0  0  0  0  0  0  0  0  0
  148.9402  134.5781  154.6986 C   0  0  2  0  0  0  0  0  0  0  0  0
  149.9166  133.3928  154.5726 C   0  0  0  0  0  0  0  0  0  0  0  0
  149.2511  132.1717  154.1551 N   0  0  0  0  0  0  0  0  0  0  0  0
  149.7005  130.9176  154.0866 C   0  0  0  0  0  0  0  0  0  0  0  0
  148.8018  130.0506  153.6415 N   0  0  0  0  0  0  0  0  0  0  0  0
  147.7469  130.8967  153.4448 C   0  0  0  0  0  0  0  0  0  0  0  0
  147.9641  132.1792  153.7364 N   0  0  0  0  0  0  0  0  0  0  0  0
  149.5990  135.8136  154.2796 N   0  0  0  0  0  0  0  0  0  0  0  0
  150.7205  136.3197  154.8142 C   0  0  0  0  0  0  0  0  0  0  0  0
  151.3452  135.7709  155.7225 O   0  0  0  0  0  0  0  0  0  0  0  0
  151.2087  137.6566  154.2354 C   0  0  2  0  0  0  0  0  0  0  0  0
  152.4131  138.2098  155.0243 C   0  0  0  0  0  0  0  0  0  0  0  0
  151.8788  139.4739  155.6767 C   0  0  0  0  0  0  0  0  0  0  0  0
  152.5411  140.1533  156.4597 O   0  0  0  0  0  0  0  0  0  0  0  0
  150.6246  139.7195  155.2878 N   0  0  0  0  0  0  0  0  0  0  0  0
  149.8057  140.8453  155.7158 C   0  0  0  0  0  0  0  0  0  0  0  0
  150.1304  138.7599  154.3152 C   0  0  0  0  0  0  0  0  0  0  0  0
  147.9085  133.8192  156.4622 H   0  0  0  0  0  0  0  0  0  0  0  0
  147.7018  135.5473  156.2123 H   0  0  0  0  0  0  0  0  0  0  0  0
  149.2281  134.9247  156.8360 H   0  0  0  0  0  0  0  0  0  0  0  0
  148.0865  134.3827  154.0466 H   0  0  0  0  0  0  0  0  0  0  0  0
  150.7093  133.6207  153.8587 H   0  0  0  0  0  0  0  0  0  0  0  0
  150.4050  133.2027  155.5296 H   0  0  0  0  0  0  0  0  0  0  0  0
  150.7061  130.6348  154.3614 H   0  0  0  0  0  0  0  0  0  0  0  0
  146.7907  130.5573  153.0749 H   0  0  0  0  0  0  0  0  0  0  0  0
  149.1585  136.3317  153.5333 H   0  0  0  0  0  0  0  0  0  0  0  0
  151.4937  137.5086  153.1921 H   0  0  0  0  0  0  0  0  0  0  0  0
  152.7943  137.5239  155.7828 H   0  0  0  0  0  0  0  0  0  0  0  0
  153.2368  138.4645  154.3569 H   0  0  0  0  0  0  0  0  0  0  0  0
  150.2299  141.7834  155.3565 H   0  0  0  0  0  0  0  0  0  0  0  0
  149.7484  140.8879  156.8043 H   0  0  0  0  0  0  0  0  0  0  0  0
  148.7900  140.7617  155.3279 H   0  0  0  0  0  0  0  0  0  0  0  0
  150.0084  139.2531  153.3499 H   0  0  0  0  0  0  0  0  0  0  0  0
  149.1517  138.3812  154.6162 H   0  0  0  0  0  0  0  0  0  0  0  0
  1  2  1  0  0  0  0
  1 19  1  0  0  0  0
  1 20  1  0  0  0  0
  1 21  1  0  0  0  0
  2  3  1  0  0  0  0
  2  9  1  0  0  0  0
  2 22  1  0  0  0  0
  3  4  1  0  0  0  0
  3 23  1  0  0  0  0
  3 24  1  0  0  0  0
  4  8  1  0  0  0  0
  4  5  1  0  0  0  0
  5  6  2  0  0  0  0
  5 25  1  0  0  0  0
  6  7  1  0  0  0  0
  7  8  2  0  0  0  0
  7 26  1  0  0  0  0
  9 10  1  0  0  0  0
  9 27  1  0  0  0  0
 10 11  2  0  0  0  0
 10 12  1  0  0  0  0
 12 18  1  0  0  0  0
 12 13  1  0  0  0  0
 12 28  1  0  0  0  0
 13 14  1  0  0  0  0
 13 29  1  0  0  0  0
 13 30  1  0  0  0  0
 14 15  2  0  0  0  0
 14 16  1  0  0  0  0
 16 17  1  0  0  0  0
 16 18  1  0  0  0  0
 17 31  1  0  0  0  0
 17 32  1  0  0  0  0
 17 33  1  0  0  0  0
 18 34  1  0  0  0  0
 18 35  1  0  0  0  0
M  END
> <s_m_source_file>
AV-unprocessed.smi

> <i_m_source_file_index>
3061

> <i_lp_mmshare_version>
43012

> <i_f3d_flags>
0

> <s_epik_input>
bjFbY0hdbltjSF1uMVtDSDJdW0NAQEhdKFtDSDNdKVtOSF1DKD1PKVtDQEBIXTJbQ0gyXUMoPU8pTihbQ0gzXSlbQ0gyXTI=

> <s_epik_cmdline>
J2VwaWtfcHl0aG9uJywgJy1waCcsICc3LjAnLCAnLXRuJywgJzgnLCAnLW1hJywgJzIwMCcsICctbWV0YWxfYmluZGluZycsICctaW1hZScsICc8aW5maWxlLm1hZT4nLCAnLW9tYWUnLCAnPG91dGZpbGUubWFlPic=

> <r_lp_tautomer_probability>
1

> <r_epik_Ionization_Penalty>
4.97611e-05

> <r_epik_Ionization_Penalty_Charging>
0

> <r_epik_Ionization_Penalty_Neutral>
4.97611e-05

> <r_epik_State_Penalty>
-0

> <r_epik_Charging_Adjusted_Penalty>
0

> <i_epik_Tot_Q>
0

> <i_epik_Tot_abs_Q>
0

> <r_epik_Metal_State_Penalty>
-0

> <b_epik_Metal_Only>
0

> <s_lp_Force_Field>
OPLS_2005

> <r_lp_Energy>
14.0738

> <b_lp_Chiralities_Consistent>
1

> <s_lp_Variant>
AV-unprocessed.smi:3061-1

> <Gold.Version>
5.8.1

> <Gold.Id.Protein>
6NUR|6NUR_protein|mol2

> <Gold.PLP.Fitness>
37.6624

> <Gold.PLP.PLP>
-30.5091

> <Gold.PLP.part.hbond>
-3.3672

> <Gold.PLP.part.metal>
0.0000

> <Gold.PLP.part.buried>
-0.3264

> <Gold.PLP.part.nonpolar>
-27.0101

> <Gold.PLP.part.repulsive>
0.2836

> <Gold.PLP.ligand.clash>
0.0000

> <Gold.PLP.ligand.torsion>
0.6095

> <Gold.PLP.Chemscore.Hbond>
2.7840

> <Gold.PLP.Chemscore.CHOScore>
0.0000

> <Gold.PLP.Chemscore.Metal>
0.0000

> <Gold.Chemscore.Hbonds>
donor molecule, donor type, donor heavy atom, donor atom, acceptor molecule, acceptor atom, score
      L1  H     9    27       P1  7948  0.75
      P1  H  7997  8010       L1    15  1.00
      P1  H 10752 10763       L1    11  1.00

> <Gold.PLP.Chemscore.Internal.Correction>
0.0204

> <Gold.Rescore>
     Score         DG    S(hbond)    S(metal)    S(lipo)     H(rot)  DE(clash)    DE(int)     intcor
     10.94     -12.49       2.46        0.00      42.63       2.42       0.43       1.12       ----

> <Gold.Chemscore.Fitness>
10.9362

> <Gold.Chemscore.DG>
-12.4872

> <Gold.Chemscore.ZeroCoef>
-5.4800

> <Gold.Chemscore.Hbond>
2.4592

> <Gold.Chemscore.Metal>
0.0000

> <Gold.Chemscore.Lipo>
42.6316

> <Gold.Chemscore.Internal_Hbond>
0.0000

> <Gold.Chemscore.DEClash>
0.4315

> <Gold.Chemscore.DEInternal>
1.1195

> <Gold.Chemscore.Rot>
2.4197

> <Gold.Chemscore.Internal.Correction>
   9.000000E+99

> <Gold.Chemscore.Hbonds>
donor molecule, donor type, donor heavy atom, donor atom, acceptor molecule, acceptor atom, score
      L1  H     9    27       P1  7948  0.72
      P1  H  7997  8010       L1    15  0.90
      P1  H 10752 10763       L1    11  0.26

> <Gold.Chemscore.Hbond.Weighted>
-8.2138

> <Gold.Chemscore.Metal.Weighted>
-0.0000

> <Gold.Chemscore.Lipo.Weighted>
-4.9879

> <Gold.Chemscore.Internal_Hbond.Weighted>
0.0000

> <Gold.Chemscore.DEClash.Weighted>
0.4315

> <Gold.Chemscore.DEInternal.Weighted>
1.1195

> <Gold.Chemscore.Rot.Weighted>
6.1945

> <Gold.Chemscore.Internal.Correction.Weighted>
   9.000000E+99

> <Gold.Protein.RotatedTorsions>
[ 6907 6896 6895 6894 ] final  166.00 input  -60.11 | X-H torsion
[ 7974 7965 7964 7962 ] final  152.45 input  175.53 | X-H torsion
[ 8008 7997 7996 7995 ] final   86.51 input   59.86 | X-H torsion
[ 10167 10162 10161 10158 ] final  -63.98 input  -65.29 | X-H torsion
[ 10718 10713 10712 10709 ] final  -81.29 input   66.30 | X-H torsion
[ 10763 10752 10751 10750 ] final   76.37 input  -60.55 | X-H torsion
[ 11005 11000 10999 10996 ] final  178.64 input  -57.11 | X-H torsion

> <Gold.Protein.ActiveResidues>
 VAL166  LYS551  ARG553  GLY616  TRP617  ASP618  TYR619  PRO620  LYS621  CYS622 
 ASP623  PHE694  ASN695  SER759  ASP760  ASP761  ALA762  ILE779  LEU786  VAL792 
 PHE793  MET794  SER795  GLU796  ALA797  LYS798  CYS799  TRP800  GLU811  SER814 

> <Gold.Protein.RotatedAtoms>
  151.8858  133.3505  159.3781 H   0  0  0  0  0  0  0  0  0  0  0  0  # atno 6907 bound_to 6896
  150.7116  134.4973  159.5554 H   0  0  0  0  0  0  0  0  0  0  0  0  # atno 6908 bound_to 6896
  152.2534  134.8110  160.0493 H   0  0  0  0  0  0  0  0  0  0  0  0  # atno 6909 bound_to 6896
  144.8221  139.6671  143.6096 H   0  0  0  0  0  0  0  0  0  0  0  0  # atno 7974 bound_to 7965
  155.9637  140.3391  155.6513 H   0  0  0  0  0  0  0  0  0  0  0  0  # atno 8008 bound_to 7997
  155.6765  140.0733  157.2519 H   0  0  0  0  0  0  0  0  0  0  0  0  # atno 8009 bound_to 7997
  154.4149  140.1682  156.1923 H   0  0  0  0  0  0  0  0  0  0  0  0  # atno 8010 bound_to 7997
  140.5833  143.2330  151.6297 H   0  0  0  0  0  0  0  0  0  0  0  0  # atno 10167 bound_to 10162
  156.0053  130.4599  150.3930 H   0  0  0  0  0  0  0  0  0  0  0  0  # atno 10718 bound_to 10713
  153.0721  135.4954  154.8326 H   0  0  0  0  0  0  0  0  0  0  0  0  # atno 10763 bound_to 10752
  154.7036  135.3006  154.9306 H   0  0  0  0  0  0  0  0  0  0  0  0  # atno 10764 bound_to 10752
  154.0022  135.6765  153.4813 H   0  0  0  0  0  0  0  0  0  0  0  0  # atno 10765 bound_to 10752
  140.3973  134.6808  157.4542 H   0  0  0  0  0  0  0  0  0  0  0  0  # atno 11005 bound_to 11000
  146.2527  139.6234  142.9416 LP  0  0  0  0  0  0  0  0  0  0  0  0  # atno 17320 bound_to 7965
  145.5081  141.0436  143.2503 LP  0  0  0  0  0  0  0  0  0  0  0  0  # atno 17321 bound_to 7965
  139.5182  144.3291  152.0843 LP  0  0  0  0  0  0  0  0  0  0  0  0  # atno 17342 bound_to 10162
  140.2444  144.4235  150.6247 LP  0  0  0  0  0  0  0  0  0  0  0  0  # atno 17343 bound_to 10162
  157.2004  131.0436  151.2653 LP  0  0  0  0  0  0  0  0  0  0  0  0  # atno 17370 bound_to 10713
  157.3981  130.7318  149.6746 LP  0  0  0  0  0  0  0  0  0  0  0  0  # atno 17371 bound_to 10713
  140.0362  134.6334  155.9040 LP  0  0  0  0  0  0  0  0  0  0  0  0  # atno 17394 bound_to 11000
  141.1869  133.6558  156.5260 LP  0  0  0  0  0  0  0  0  0  0  0  0  # atno 17395 bound_to 11000

$$$$
