AV-unprocessed.smi:148|AV-procd|sdf|1217|dock10
  -GOLD-   2262018403D 1   1.00000     0.00000
 Structure written by MMmdl.
 63 67  0  0  0  0  0  0  0  0  1 V2000
  146.6933  136.4628  153.1857 O   0  0  0  0  0  0  0  0  0  0  0  0
  146.5010  136.7180  154.5613 C   0  0  0  0  0  0  0  0  0  0  0  0
  147.7586  137.3376  155.2174 C   0  0  1  0  0  0  0  0  0  0  0  0
  147.5066  137.6206  156.7229 C   0  0  0  0  0  0  0  0  0  0  0  0
  148.6585  138.1613  157.4329 N   0  0  0  0  0  0  0  0  0  0  0  0
  149.3394  137.5623  158.4707 C   0  0  0  0  0  0  0  0  0  0  0  0
  150.3472  138.2410  158.9464 N   0  0  0  0  0  0  0  0  0  0  0  0
  150.3492  139.4065  158.1930 C   0  0  0  0  0  0  0  0  0  0  0  0
  151.1592  140.5717  158.1864 C   0  0  0  0  0  0  0  0  0  0  0  0
  152.2103  140.7149  159.0274 N   0  0  0  0  0  0  0  0  0  0  0  0
  153.0996  139.5613  158.8904 C   0  0  0  0  0  0  0  0  0  0  0  0
  154.1841  139.5553  159.9735 C   0  0  0  0  0  0  0  0  0  0  0  0
  154.9638  140.8722  159.9419 C   0  0  0  0  0  0  0  0  0  0  0  0
  153.9999  142.0530  160.1144 C   0  0  0  0  0  0  0  0  0  0  0  0
  152.8606  142.0392  159.0601 C   0  0  2  0  0  0  0  0  0  0  0  0
  151.8355  143.2017  159.2540 C   0  0  1  0  0  0  0  0  0  0  0  0
  151.8672  143.9096  160.6226 C   0  0  0  0  0  0  0  0  0  0  0  0
  151.3732  145.3454  160.3793 C   0  0  0  0  0  0  0  0  0  0  0  0
  151.0539  145.4443  158.8839 C   0  0  0  0  0  0  0  0  0  0  0  0
  151.9037  144.3509  158.2374 C   0  0  2  0  0  0  0  0  0  0  0  0
  151.3921  143.9796  156.9742 O   0  0  0  0  0  0  0  0  0  0  0  0
  150.8678  141.5454  157.2836 N   0  0  0  0  0  0  0  0  0  0  0  0
  149.8333  141.3931  156.4516 C   0  0  0  0  0  0  0  0  0  0  0  0
  148.9877  140.3651  156.3507 N   0  0  0  0  0  0  0  0  0  0  0  0
  149.2892  139.3803  157.2447 C   0  0  0  0  0  0  0  0  0  0  0  0
  149.0371  136.4832  154.9925 C   0  0  2  0  0  0  0  0  0  0  0  0
  149.1067  135.2219  155.8388 C   0  0  0  0  0  0  0  0  0  0  0  0
  150.5809  134.8434  155.7444 C   0  0  0  0  0  0  0  0  0  0  0  0
  151.2847  136.0704  155.5878 O   0  0  0  0  0  0  0  0  0  0  0  0
  150.3601  137.1368  155.4045 C   0  0  0  0  0  0  0  0  0  0  0  0
  147.6101  136.5724  152.9839 H   0  0  0  0  0  0  0  0  0  0  0  0
  145.6586  137.4060  154.6342 H   0  0  0  0  0  0  0  0  0  0  0  0
  146.2073  135.7971  155.0662 H   0  0  0  0  0  0  0  0  0  0  0  0
  147.9221  138.3101  154.7501 H   0  0  0  0  0  0  0  0  0  0  0  0
  146.6650  138.3003  156.8559 H   0  0  0  0  0  0  0  0  0  0  0  0
  147.2141  136.6959  157.2218 H   0  0  0  0  0  0  0  0  0  0  0  0
  149.0679  136.5936  158.8642 H   0  0  0  0  0  0  0  0  0  0  0  0
  152.5243  138.6358  158.9515 H   0  0  0  0  0  0  0  0  0  0  0  0
  153.5655  139.5805  157.9039 H   0  0  0  0  0  0  0  0  0  0  0  0
  153.7267  139.4174  160.9542 H   0  0  0  0  0  0  0  0  0  0  0  0
  154.8597  138.7136  159.8210 H   0  0  0  0  0  0  0  0  0  0  0  0
  155.7172  140.8831  160.7300 H   0  0  0  0  0  0  0  0  0  0  0  0
  155.4980  140.9646  158.9955 H   0  0  0  0  0  0  0  0  0  0  0  0
  153.5905  142.0208  161.1233 H   0  0  0  0  0  0  0  0  0  0  0  0
  154.5781  142.9731  160.0445 H   0  0  0  0  0  0  0  0  0  0  0  0
  153.3331  142.1819  158.0870 H   0  0  0  0  0  0  0  0  0  0  0  0
  150.8296  142.7913  159.1526 H   0  0  0  0  0  0  0  0  0  0  0  0
  151.2379  143.3892  161.3452 H   0  0  0  0  0  0  0  0  0  0  0  0
  152.8711  143.9397  161.0430 H   0  0  0  0  0  0  0  0  0  0  0  0
  150.5023  145.5863  160.9897 H   0  0  0  0  0  0  0  0  0  0  0  0
  152.1604  146.0537  160.6407 H   0  0  0  0  0  0  0  0  0  0  0  0
  149.9943  145.2350  158.7283 H   0  0  0  0  0  0  0  0  0  0  0  0
  151.2588  146.4339  158.4743 H   0  0  0  0  0  0  0  0  0  0  0  0
  152.9197  144.7260  158.1226 H   0  0  0  0  0  0  0  0  0  0  0  0
  150.5496  144.3915  156.8583 H   0  0  0  0  0  0  0  0  0  0  0  0
  149.6582  142.2109  155.7682 H   0  0  0  0  0  0  0  0  0  0  0  0
  149.1145  136.2076  153.9400 H   0  0  0  0  0  0  0  0  0  0  0  0
  148.8471  135.4460  156.8746 H   0  0  0  0  0  0  0  0  0  0  0  0
  148.4531  134.4212  155.4966 H   0  0  0  0  0  0  0  0  0  0  0  0
  150.9257  134.2939  156.6205 H   0  0  0  0  0  0  0  0  0  0  0  0
  150.7602  134.2256  154.8636 H   0  0  0  0  0  0  0  0  0  0  0  0
  150.7280  137.8461  154.6629 H   0  0  0  0  0  0  0  0  0  0  0  0
  150.2533  137.6616  156.3551 H   0  0  0  0  0  0  0  0  0  0  0  0
  1  2  1  0  0  0  0
  1 31  1  0  0  0  0
  2  3  1  0  0  0  0
  2 32  1  0  0  0  0
  2 33  1  0  0  0  0
  3  4  1  0  0  0  0
  3 26  1  0  0  0  0
  3 34  1  0  0  0  0
  4  5  1  0  0  0  0
  4 35  1  0  0  0  0
  4 36  1  0  0  0  0
  5 25  1  0  0  0  0
  5  6  1  0  0  0  0
  6  7  2  0  0  0  0
  6 37  1  0  0  0  0
  7  8  1  0  0  0  0
  8 25  2  0  0  0  0
  8  9  1  0  0  0  0
  9 10  1  0  0  0  0
  9 22  2  0  0  0  0
 10 15  1  0  0  0  0
 10 11  1  0  0  0  0
 11 12  1  0  0  0  0
 11 38  1  0  0  0  0
 11 39  1  0  0  0  0
 12 13  1  0  0  0  0
 12 40  1  0  0  0  0
 12 41  1  0  0  0  0
 13 14  1  0  0  0  0
 13 42  1  0  0  0  0
 13 43  1  0  0  0  0
 14 15  1  0  0  0  0
 14 44  1  0  0  0  0
 14 45  1  0  0  0  0
 15 16  1  0  0  0  0
 15 46  1  0  0  0  0
 16 20  1  0  0  0  0
 16 17  1  0  0  0  0
 16 47  1  0  0  0  0
 17 18  1  0  0  0  0
 17 48  1  0  0  0  0
 17 49  1  0  0  0  0
 18 19  1  0  0  0  0
 18 50  1  0  0  0  0
 18 51  1  0  0  0  0
 19 20  1  0  0  0  0
 19 52  1  0  0  0  0
 19 53  1  0  0  0  0
 20 21  1  0  0  0  0
 20 54  1  0  0  0  0
 21 55  1  0  0  0  0
 22 23  1  0  0  0  0
 23 24  2  0  0  0  0
 23 56  1  0  0  0  0
 24 25  1  0  0  0  0
 26 30  1  0  0  0  0
 26 27  1  0  0  0  0
 26 57  1  0  0  0  0
 27 28  1  0  0  0  0
 27 58  1  0  0  0  0
 27 59  1  0  0  0  0
 28 29  1  0  0  0  0
 28 60  1  0  0  0  0
 28 61  1  0  0  0  0
 29 30  1  0  0  0  0
 30 62  1  0  0  0  0
 30 63  1  0  0  0  0
M  END
> <s_m_source_file>
AV-unprocessed.smi

> <i_m_source_file_index>
148

> <i_lp_mmshare_version>
43012

> <i_f3d_flags>
0

> <s_epik_input>
W0NIMl0xT1tDSDJdW0NIMl1bQ0BIXTFbQ0BIXShbQ0gyXVtPSF0pW0NIMl1uKFtjSF1uMiljKGMyMyluW2NIXW5jM040W0NIMl1bQ0gyXVtDSDJdW0NIMl1bQ0BIXTRbQ0BASF01W0NIMl1bQ0gyXVtDSDJdW0NASF01W09IXQ==

> <s_epik_cmdline>
J2VwaWtfcHl0aG9uJywgJy1waCcsICc3LjAnLCAnLXRuJywgJzgnLCAnLW1hJywgJzIwMCcsICctbWV0YWxfYmluZGluZycsICctaW1hZScsICc8aW5maWxlLm1hZT4nLCAnLW9tYWUnLCAnPG91dGZpbGUubWFlPic=

> <r_lp_tautomer_probability>
1

> <r_epik_Ionization_Penalty>
0.00556303

> <r_epik_Ionization_Penalty_Charging>
0

> <r_epik_Ionization_Penalty_Neutral>
0.00556303

> <r_epik_State_Penalty>
0.00401767

> <r_epik_Charging_Adjusted_Penalty>
0.00401767

> <i_epik_Tot_Q>
0

> <i_epik_Tot_abs_Q>
0

> <r_epik_Metal_State_Penalty>
-0

> <b_epik_Metal_Only>
0

> <s_lp_Force_Field>
OPLS_2005

> <r_lp_Energy>
67.8341

> <b_lp_Chiralities_Consistent>
1

> <s_lp_Variant>
AV-unprocessed.smi:148-16

> <Gold.Version>
5.8.1

> <Gold.Id.Protein>
6NUR|6NUR_protein|mol2

> <Gold.PLP.Fitness>
53.6271

> <Gold.PLP.PLP>
-45.4955

> <Gold.PLP.part.hbond>
-3.1458

> <Gold.PLP.part.metal>
0.0000

> <Gold.PLP.part.buried>
-5.8758

> <Gold.PLP.part.nonpolar>
-36.8629

> <Gold.PLP.part.repulsive>
0.1546

> <Gold.PLP.ligand.clash>
0.0017

> <Gold.PLP.ligand.torsion>
1.6099

> <Gold.PLP.Chemscore.Hbond>
2.9112

> <Gold.PLP.Chemscore.CHOScore>
0.7563

> <Gold.PLP.Chemscore.Metal>
0.0000

> <Gold.Chemscore.Hbonds>
donor molecule, donor type, donor heavy atom, donor atom, acceptor molecule, acceptor atom, score
      L1  H     1    31       P1  7948  0.94
      L1  H    21    55       P1  8028  0.95
      P1  H 10752 10765       L1    29  1.00
      L1  C    23    56       P1  8028  0.76

> <Gold.PLP.Chemscore.Internal.Correction>
0.3506

> <Gold.Rescore>
     Score         DG    S(hbond)    S(metal)    S(lipo)     H(rot)  DE(clash)    DE(int)     intcor
     15.06     -20.99       2.89        0.00     122.58       3.32       0.17       5.76       ----

> <Gold.Chemscore.Fitness>
15.0578

> <Gold.Chemscore.DG>
-20.9876

> <Gold.Chemscore.ZeroCoef>
-5.4800

> <Gold.Chemscore.Hbond>
2.8938

> <Gold.Chemscore.Metal>
0.0000

> <Gold.Chemscore.Lipo>
122.5841

> <Gold.Chemscore.Internal_Hbond>
0.0000

> <Gold.Chemscore.DEClash>
0.1705

> <Gold.Chemscore.DEInternal>
5.7593

> <Gold.Chemscore.Rot>
3.3203

> <Gold.Chemscore.Internal.Correction>
   9.000000E+99

> <Gold.Chemscore.Hbonds>
donor molecule, donor type, donor heavy atom, donor atom, acceptor molecule, acceptor atom, score
      L1  H     1    31       P1  7948  0.91
      L1  H    21    55       P1  8028  0.82
      P1  H 10752 10765       L1    29  0.44

> <Gold.Chemscore.Hbond.Weighted>
-9.6653

> <Gold.Chemscore.Metal.Weighted>
-0.0000

> <Gold.Chemscore.Lipo.Weighted>
-14.3423

> <Gold.Chemscore.Internal_Hbond.Weighted>
0.0000

> <Gold.Chemscore.DEClash.Weighted>
0.1705

> <Gold.Chemscore.DEInternal.Weighted>
5.7593

> <Gold.Chemscore.Rot.Weighted>
8.5000

> <Gold.Chemscore.Internal.Correction.Weighted>
   9.000000E+99

> <Gold.Protein.RotatedTorsions>
[ 6907 6896 6895 6894 ] final   -9.87 input  -60.11 | X-H torsion
[ 7974 7965 7964 7962 ] final  122.54 input  175.53 | X-H torsion
[ 8008 7997 7996 7995 ] final  -41.99 input   59.86 | X-H torsion
[ 10167 10162 10161 10158 ] final   90.99 input  -65.29 | X-H torsion
[ 10718 10713 10712 10709 ] final   39.05 input   66.30 | X-H torsion
[ 10763 10752 10751 10750 ] final -165.29 input  -60.55 | X-H torsion
[ 11005 11000 10999 10996 ] final  -62.73 input  -57.11 | X-H torsion

> <Gold.Protein.ActiveResidues>
 VAL166  LYS551  ARG553  GLY616  TRP617  ASP618  TYR619  PRO620  LYS621  CYS622 
 ASP623  PHE694  ASN695  SER759  ASP760  ASP761  ALA762  ILE779  LEU786  VAL792 
 PHE793  MET794  SER795  GLU796  ALA797  LYS798  CYS799  TRP800  GLU811  SER814 

> <Gold.Protein.RotatedAtoms>
  151.4109  135.0985  159.9584 H   0  0  0  0  0  0  0  0  0  0  0  0  # atno 6907 bound_to 6896
  152.5020  133.8798  159.7351 H   0  0  0  0  0  0  0  0  0  0  0  0  # atno 6908 bound_to 6896
  150.9293  133.6729  159.2842 H   0  0  0  0  0  0  0  0  0  0  0  0  # atno 6909 bound_to 6896
  145.1064  139.3483  143.4785 H   0  0  0  0  0  0  0  0  0  0  0  0  # atno 7974 bound_to 7965
  154.4001  140.1485  156.3282 H   0  0  0  0  0  0  0  0  0  0  0  0  # atno 8008 bound_to 7997
  155.8468  140.3459  155.5646 H   0  0  0  0  0  0  0  0  0  0  0  0  # atno 8009 bound_to 7997
  155.8028  140.0872  157.1938 H   0  0  0  0  0  0  0  0  0  0  0  0  # atno 8010 bound_to 7997
  139.8419  144.6637  150.9273 H   0  0  0  0  0  0  0  0  0  0  0  0  # atno 10167 bound_to 10162
  157.3660  130.7675  149.7083 H   0  0  0  0  0  0  0  0  0  0  0  0  # atno 10718 bound_to 10713
  154.6946  135.2977  154.9430 H   0  0  0  0  0  0  0  0  0  0  0  0  # atno 10763 bound_to 10752
  154.0383  135.6661  153.4791 H   0  0  0  0  0  0  0  0  0  0  0  0  # atno 10764 bound_to 10752
  153.0636  135.5101  154.8056 H   0  0  0  0  0  0  0  0  0  0  0  0  # atno 10765 bound_to 10752
  141.1369  133.6643  156.5572 H   0  0  0  0  0  0  0  0  0  0  0  0  # atno 11005 bound_to 11000
  146.3528  140.0964  142.8610 LP  0  0  0  0  0  0  0  0  0  0  0  0  # atno 17320 bound_to 7965
  145.0897  140.9276  143.4776 LP  0  0  0  0  0  0  0  0  0  0  0  0  # atno 17321 bound_to 7965
  140.7797  143.3905  151.1319 LP  0  0  0  0  0  0  0  0  0  0  0  0  # atno 17342 bound_to 10162
  139.7550  143.8721  152.3086 LP  0  0  0  0  0  0  0  0  0  0  0  0  # atno 17343 bound_to 10162
  155.9746  130.4100  150.3910 LP  0  0  0  0  0  0  0  0  0  0  0  0  # atno 17370 bound_to 10713
  157.1994  131.0434  151.2658 LP  0  0  0  0  0  0  0  0  0  0  0  0  # atno 17371 bound_to 10713
  140.4017  134.7351  157.4783 LP  0  0  0  0  0  0  0  0  0  0  0  0  # atno 17394 bound_to 11000
  140.0491  134.6156  155.8884 LP  0  0  0  0  0  0  0  0  0  0  0  0  # atno 17395 bound_to 11000

$$$$
