AV-unprocessed.smi:3249|AV-procd|sdf|12421|dock7
  -GOLD-   2272018303D 1   1.00000     0.00000
 Structure written by MMmdl.
 44 45  0  0  0  0  0  0  0  0  2 V2000
  146.8605  142.6389  154.1611 C   0  0  0  0  0  0  0  0  0  0  0  0
  147.8711  141.5351  154.2849 C   0  0  0  0  0  0  0  0  0  0  0  0
  147.7571  140.1890  153.8356 C   0  0  0  0  0  0  0  0  0  0  0  0
  148.8325  139.4660  154.1013 N   0  0  0  0  0  0  0  0  0  0  0  0
  149.6692  140.3181  154.7316 N   0  0  0  0  0  0  0  0  0  0  0  0
  150.9802  139.8543  155.1676 C   0  0  2  0  0  0  0  0  0  0  0  0
  151.2605  138.4586  154.5809 C   0  0  0  0  0  0  0  0  0  0  0  0
  151.1242  139.9060  156.7119 C   0  0  2  0  0  0  0  0  0  0  0  0
  149.9186  139.3001  157.4531 C   0  0  0  0  0  0  0  0  0  0  0  0
  151.3085  141.3024  157.1664 N   0  3  0  0  0  0  0  0  0  0  0  0
  151.0828  141.5224  158.6097 C   0  0  0  0  0  0  0  0  0  0  0  0
  151.9025  142.7154  159.1190 C   0  0  1  0  0  0  0  0  0  0  0  0
  151.5804  144.0057  158.3404 C   0  0  0  0  0  0  0  0  0  0  0  0
  152.3358  145.1987  158.9365 C   0  0  0  0  0  0  0  0  0  0  0  0
  152.0571  145.2872  160.4407 C   0  0  0  0  0  0  0  0  0  0  0  0
  152.3443  143.9378  161.1178 C   0  0  0  0  0  0  0  0  0  0  0  0
  151.5792  142.9103  160.4946 O   0  0  0  0  0  0  0  0  0  0  0  0
  149.1130  141.5761  154.8518 C   0  0  0  0  0  0  0  0  0  0  0  0
  145.9503  142.3025  153.6640 H   0  0  0  0  0  0  0  0  0  0  0  0
  147.2506  143.4776  153.5843 H   0  0  0  0  0  0  0  0  0  0  0  0
  146.5680  143.0271  155.1368 H   0  0  0  0  0  0  0  0  0  0  0  0
  146.9287  139.7191  153.3261 H   0  0  0  0  0  0  0  0  0  0  0  0
  151.7203  140.5356  154.7425 H   0  0  0  0  0  0  0  0  0  0  0  0
  152.2888  138.1467  154.7649 H   0  0  0  0  0  0  0  0  0  0  0  0
  151.1127  138.4525  153.5004 H   0  0  0  0  0  0  0  0  0  0  0  0
  150.6020  137.7031  155.0103 H   0  0  0  0  0  0  0  0  0  0  0  0
  151.9990  139.3191  156.9981 H   0  0  0  0  0  0  0  0  0  0  0  0
  149.8012  138.2379  157.2378 H   0  0  0  0  0  0  0  0  0  0  0  0
  148.9903  139.8002  157.1744 H   0  0  0  0  0  0  0  0  0  0  0  0
  150.0356  139.3940  158.5332 H   0  0  0  0  0  0  0  0  0  0  0  0
  152.2506  141.5884  156.9396 H   0  0  0  0  0  0  0  0  0  0  0  0
  150.0191  141.7049  158.7687 H   0  0  0  0  0  0  0  0  0  0  0  0
  151.3426  140.6245  159.1718 H   0  0  0  0  0  0  0  0  0  0  0  0
  152.9660  142.4888  159.0216 H   0  0  0  0  0  0  0  0  0  0  0  0
  151.8416  143.8889  157.2881 H   0  0  0  0  0  0  0  0  0  0  0  0
  150.5077  144.2000  158.3762 H   0  0  0  0  0  0  0  0  0  0  0  0
  153.4066  145.0778  158.7671 H   0  0  0  0  0  0  0  0  0  0  0  0
  152.0411  146.1234  158.4396 H   0  0  0  0  0  0  0  0  0  0  0  0
  152.6629  146.0737  160.8917 H   0  0  0  0  0  0  0  0  0  0  0  0
  151.0143  145.5615  160.6049 H   0  0  0  0  0  0  0  0  0  0  0  0
  153.4069  143.6953  161.0697 H   0  0  0  0  0  0  0  0  0  0  0  0
  152.0763  143.9846  162.1735 H   0  0  0  0  0  0  0  0  0  0  0  0
  149.6408  142.3900  155.3267 H   0  0  0  0  0  0  0  0  0  0  0  0
  150.6659  141.8910  156.6555 H   0  0  0  0  0  0  0  0  0  0  0  0
  1  2  1  0  0  0  0
  1 19  1  0  0  0  0
  1 20  1  0  0  0  0
  1 21  1  0  0  0  0
  2 18  2  0  0  0  0
  2  3  1  0  0  0  0
  3  4  2  0  0  0  0
  3 22  1  0  0  0  0
  4  5  1  0  0  0  0
  5  6  1  0  0  0  0
  5 18  1  0  0  0  0
  6  7  1  0  0  0  0
  6  8  1  0  0  0  0
  6 23  1  0  0  0  0
  7 24  1  0  0  0  0
  7 25  1  0  0  0  0
  7 26  1  0  0  0  0
  8  9  1  0  0  0  0
  8 10  1  0  0  0  0
  8 27  1  0  0  0  0
  9 28  1  0  0  0  0
  9 29  1  0  0  0  0
  9 30  1  0  0  0  0
 10 11  1  0  0  0  0
 10 31  1  0  0  0  0
 10 44  1  0  0  0  0
 11 12  1  0  0  0  0
 11 32  1  0  0  0  0
 11 33  1  0  0  0  0
 12 17  1  0  0  0  0
 12 13  1  0  0  0  0
 12 34  1  0  0  0  0
 13 14  1  0  0  0  0
 13 35  1  0  0  0  0
 13 36  1  0  0  0  0
 14 15  1  0  0  0  0
 14 37  1  0  0  0  0
 14 38  1  0  0  0  0
 15 16  1  0  0  0  0
 15 39  1  0  0  0  0
 15 40  1  0  0  0  0
 16 17  1  0  0  0  0
 16 41  1  0  0  0  0
 16 42  1  0  0  0  0
 18 43  1  0  0  0  0
M  CHG  1  10   1
M  END
> <s_m_source_file>
AV-unprocessed.smi

> <i_m_source_file_index>
3249

> <i_lp_mmshare_version>
43012

> <i_f3d_flags>
0

> <s_epik_input>
W0NIM11jMVtjSF1ubihbY0hdMSlbQ0BIXShbQ0gzXSlbQ0BIXShbQ0gzXSlbTkhdW0NIMl1bQ0BASF0yW0NIMl1bQ0gyXVtDSDJdW0NIMl1PMg==

> <s_epik_cmdline>
J2VwaWtfcHl0aG9uJywgJy1waCcsICc3LjAnLCAnLXRuJywgJzgnLCAnLW1hJywgJzIwMCcsICctbWV0YWxfYmluZGluZycsICctaW1hZScsICc8aW5maWxlLm1hZT4nLCAnLW9tYWUnLCAnPG91dGZpbGUubWFlPic=

> <r_lp_tautomer_probability>
1

> <r_epik_Ionization_Penalty>
0.00659207

> <r_epik_Ionization_Penalty_Charging>
0.00656881

> <r_epik_Ionization_Penalty_Neutral>
2.32662e-05

> <r_epik_State_Penalty>
0.0048654

> <r_epik_Charging_Adjusted_Penalty>
0.0114342

> <i_epik_Tot_Q>
1

> <i_epik_Tot_abs_Q>
1

> <r_epik_Metal_State_Penalty>
-0

> <b_epik_Metal_Only>
0

> <s_lp_Force_Field>
OPLS_2005

> <r_lp_Energy>
18.8744

> <b_lp_Chiralities_Consistent>
1

> <s_lp_Variant>
AV-unprocessed.smi:3249-5

> <Gold.Version>
5.8.1

> <Gold.Id.Protein>
6NUR|6NUR_protein|mol2

> <Gold.PLP.Fitness>
46.3257

> <Gold.PLP.PLP>
-44.6089

> <Gold.PLP.part.hbond>
-1.0000

> <Gold.PLP.part.metal>
0.0000

> <Gold.PLP.part.buried>
-4.4819

> <Gold.PLP.part.nonpolar>
-39.4929

> <Gold.PLP.part.repulsive>
0.5330

> <Gold.PLP.ligand.clash>
0.0000

> <Gold.PLP.ligand.torsion>
0.7083

> <Gold.PLP.Chemscore.Hbond>
0.0000

> <Gold.PLP.Chemscore.CHOScore>
1.0000

> <Gold.PLP.Chemscore.Metal>
0.0000

> <Gold.Chemscore.Hbonds>
donor molecule, donor type, donor heavy atom, donor atom, acceptor molecule, acceptor atom, score
      L1  C    18    43       P1  8028  0.96

> <Gold.PLP.Chemscore.Internal.Correction>
0.1333

> <Gold.Rescore>
     Score         DG    S(hbond)    S(metal)    S(lipo)     H(rot)  DE(clash)    DE(int)     intcor
     14.50     -15.29       0.00        0.00     117.42       1.53       0.13       0.67       ----

> <Gold.Chemscore.Fitness>
14.4957

> <Gold.Chemscore.DG>
-15.2927

> <Gold.Chemscore.ZeroCoef>
-5.4800

> <Gold.Chemscore.Hbond>
0.0000

> <Gold.Chemscore.Metal>
0.0000

> <Gold.Chemscore.Lipo>
117.4177

> <Gold.Chemscore.Internal_Hbond>
0.0000

> <Gold.Chemscore.DEClash>
0.1266

> <Gold.Chemscore.DEInternal>
0.6705

> <Gold.Chemscore.Rot>
1.5333

> <Gold.Chemscore.Internal.Correction>
   9.000000E+99

> <Gold.Chemscore.Hbond.Weighted>
-0.0000

> <Gold.Chemscore.Metal.Weighted>
-0.0000

> <Gold.Chemscore.Lipo.Weighted>
-13.7379

> <Gold.Chemscore.Internal_Hbond.Weighted>
0.0000

> <Gold.Chemscore.DEClash.Weighted>
0.1266

> <Gold.Chemscore.DEInternal.Weighted>
0.6705

> <Gold.Chemscore.Rot.Weighted>
3.9252

> <Gold.Chemscore.Internal.Correction.Weighted>
   9.000000E+99

> <Gold.Protein.RotatedTorsions>
[ 6907 6896 6895 6894 ] final  -69.63 input  -60.11 | X-H torsion
[ 7974 7965 7964 7962 ] final   87.41 input  175.53 | X-H torsion
[ 8008 7997 7996 7995 ] final  -35.47 input   59.86 | X-H torsion
[ 10167 10162 10161 10158 ] final  150.59 input  -65.29 | X-H torsion
[ 10718 10713 10712 10709 ] final  -86.01 input   66.30 | X-H torsion
[ 10763 10752 10751 10750 ] final  161.28 input  -60.55 | X-H torsion
[ 11005 11000 10999 10996 ] final -175.36 input  -57.11 | X-H torsion

> <Gold.Protein.ActiveResidues>
 VAL166  LYS551  ARG553  GLY616  TRP617  ASP618  TYR619  PRO620  LYS621  CYS622 
 ASP623  PHE694  ASN695  SER759  ASP760  ASP761  ALA762  ILE779  LEU786  VAL792 
 PHE793  MET794  SER795  GLU796  ALA797  LYS798  CYS799  TRP800  GLU811  SER814 

> <Gold.Protein.RotatedAtoms>
  150.7296  134.5569  159.5822 H   0  0  0  0  0  0  0  0  0  0  0  0  # atno 6907 bound_to 6896
  152.3043  134.7571  160.0360 H   0  0  0  0  0  0  0  0  0  0  0  0  # atno 6908 bound_to 6896
  151.8141  133.3350  159.3601 H   0  0  0  0  0  0  0  0  0  0  0  0  # atno 6909 bound_to 6896
  145.5593  139.2302  143.2468 H   0  0  0  0  0  0  0  0  0  0  0  0  # atno 7974 bound_to 7965
  154.4095  140.1656  156.2217 H   0  0  0  0  0  0  0  0  0  0  0  0  # atno 8008 bound_to 7997
  155.9358  140.3411  155.6263 H   0  0  0  0  0  0  0  0  0  0  0  0  # atno 8009 bound_to 7997
  155.7051  140.0750  157.2385 H   0  0  0  0  0  0  0  0  0  0  0  0  # atno 8010 bound_to 7997
  139.4848  144.5510  151.7401 H   0  0  0  0  0  0  0  0  0  0  0  0  # atno 10167 bound_to 10162
  155.9992  130.4750  150.4649 H   0  0  0  0  0  0  0  0  0  0  0  0  # atno 10718 bound_to 10713
  154.2605  135.2768  155.2780 H   0  0  0  0  0  0  0  0  0  0  0  0  # atno 10763 bound_to 10752
  154.5388  135.5708  153.6825 H   0  0  0  0  0  0  0  0  0  0  0  0  # atno 10764 bound_to 10752
  152.9963  135.6246  154.2755 H   0  0  0  0  0  0  0  0  0  0  0  0  # atno 10765 bound_to 10752
  140.4642  134.6226  157.4855 H   0  0  0  0  0  0  0  0  0  0  0  0  # atno 11005 bound_to 11000
  146.1862  140.6417  142.9166 LP  0  0  0  0  0  0  0  0  0  0  0  0  # atno 17320 bound_to 7965
  144.7491  140.5144  143.6815 LP  0  0  0  0  0  0  0  0  0  0  0  0  # atno 17321 bound_to 7965
  140.5063  144.1092  150.5983 LP  0  0  0  0  0  0  0  0  0  0  0  0  # atno 17342 bound_to 10162
  140.4003  143.2707  151.9956 LP  0  0  0  0  0  0  0  0  0  0  0  0  # atno 17343 bound_to 10162
  157.2670  131.0579  151.2284 LP  0  0  0  0  0  0  0  0  0  0  0  0  # atno 17370 bound_to 10713
  157.3378  130.7018  149.6363 LP  0  0  0  0  0  0  0  0  0  0  0  0  # atno 17371 bound_to 10713
  139.9926  134.6962  155.9664 LP  0  0  0  0  0  0  0  0  0  0  0  0  # atno 17394 bound_to 11000
  141.1607  133.6539  156.4309 LP  0  0  0  0  0  0  0  0  0  0  0  0  # atno 17395 bound_to 11000

$$$$
