AV-unprocessed.smi:2717|AV-procd|sdf|10484|dock6
  -GOLD-   2272014523D 1   1.00000     0.00000
 Structure written by MMmdl.
 43 44  0  0  0  0  0  0  0  0  1 V2000
  151.2351  144.4282  158.3121 C   0  0  0  0  0  0  0  0  0  0  0  0
  152.3119  143.3392  158.2621 C   0  0  0  0  0  0  0  0  0  0  0  0
  152.8526  143.0057  159.6122 C   0  0  0  0  0  0  0  0  0  0  0  0
  153.8414  142.1308  159.8128 N   0  0  0  0  0  0  0  0  0  0  0  0
  154.1463  141.9619  161.1669 C   0  0  0  0  0  0  0  0  0  0  0  0
  155.2421  141.0239  161.5742 C   0  0  0  0  0  0  0  0  0  0  0  0
  155.2267  139.7223  160.7558 C   0  0  0  0  0  0  0  0  0  0  0  0
  153.8653  139.2785  160.4785 N   0  0  0  0  0  0  0  0  0  0  0  0
  153.4149  138.8902  159.2773 C   0  0  0  0  0  0  0  0  0  0  0  0
  154.1055  138.8594  158.2584 O   0  0  0  0  0  0  0  0  0  0  0  0
  152.1206  138.5431  159.3189 N   0  0  0  0  0  0  0  0  0  0  0  0
  151.3380  138.0719  158.1798 C   0  0  2  0  0  0  0  0  0  0  0  0
  151.7097  136.6166  157.8245 C   0  0  0  0  0  0  0  0  0  0  0  0
  150.9504  136.1306  156.5791 C   0  0  0  0  0  0  0  0  0  0  0  0
  151.1896  137.0667  155.3822 C   0  0  1  0  0  0  0  0  0  0  0  0
  150.4220  136.6306  154.2801 O   0  0  0  0  0  0  0  0  0  0  0  0
  150.8079  138.5155  155.7309 C   0  0  0  0  0  0  0  0  0  0  0  0
  151.5676  139.0043  156.9748 C   0  0  0  0  0  0  0  0  0  0  0  0
  153.3601  142.7222  161.9969 C   0  0  0  0  0  0  0  0  0  0  0  0
  152.2044  143.6739  161.1056 S   0  0  0  0  0  0  0  0  0  0  0  0
  150.8574  144.6468  157.3132 H   0  0  0  0  0  0  0  0  0  0  0  0
  151.6315  145.3543  158.7292 H   0  0  0  0  0  0  0  0  0  0  0  0
  150.3902  144.1180  158.9276 H   0  0  0  0  0  0  0  0  0  0  0  0
  151.9039  142.4332  157.8124 H   0  0  0  0  0  0  0  0  0  0  0  0
  153.1361  143.6603  157.6248 H   0  0  0  0  0  0  0  0  0  0  0  0
  156.2104  141.5127  161.4597 H   0  0  0  0  0  0  0  0  0  0  0  0
  155.1498  140.7913  162.6360 H   0  0  0  0  0  0  0  0  0  0  0  0
  155.7772  139.8491  159.8219 H   0  0  0  0  0  0  0  0  0  0  0  0
  155.7337  138.9311  161.3090 H   0  0  0  0  0  0  0  0  0  0  0  0
  153.2213  139.2695  161.2558 H   0  0  0  0  0  0  0  0  0  0  0  0
  151.6409  138.6043  160.2049 H   0  0  0  0  0  0  0  0  0  0  0  0
  150.2785  138.1109  158.4402 H   0  0  0  0  0  0  0  0  0  0  0  0
  152.7833  136.5420  157.6455 H   0  0  0  0  0  0  0  0  0  0  0  0
  151.4908  135.9550  158.6634 H   0  0  0  0  0  0  0  0  0  0  0  0
  151.2616  135.1153  156.3309 H   0  0  0  0  0  0  0  0  0  0  0  0
  149.8838  136.0819  156.8044 H   0  0  0  0  0  0  0  0  0  0  0  0
  152.2414  137.0285  155.0960 H   0  0  0  0  0  0  0  0  0  0  0  0
  150.7982  135.8291  153.9496 H   0  0  0  0  0  0  0  0  0  0  0  0
  151.0203  139.1731  154.8872 H   0  0  0  0  0  0  0  0  0  0  0  0
  149.7344  138.5827  155.9141 H   0  0  0  0  0  0  0  0  0  0  0  0
  151.2514  140.0187  157.2213 H   0  0  0  0  0  0  0  0  0  0  0  0
  152.6330  139.0592  156.7463 H   0  0  0  0  0  0  0  0  0  0  0  0
  153.3885  142.7779  163.0748 H   0  0  0  0  0  0  0  0  0  0  0  0
  1  2  1  0  0  0  0
  1 21  1  0  0  0  0
  1 22  1  0  0  0  0
  1 23  1  0  0  0  0
  2  3  1  0  0  0  0
  2 24  1  0  0  0  0
  2 25  1  0  0  0  0
  3 20  1  0  0  0  0
  3  4  2  0  0  0  0
  4  5  1  0  0  0  0
  5  6  1  0  0  0  0
  5 19  2  0  0  0  0
  6  7  1  0  0  0  0
  6 26  1  0  0  0  0
  6 27  1  0  0  0  0
  7  8  1  0  0  0  0
  7 28  1  0  0  0  0
  7 29  1  0  0  0  0
  8  9  1  0  0  0  0
  8 30  1  0  0  0  0
  9 10  2  0  0  0  0
  9 11  1  0  0  0  0
 11 12  1  0  0  0  0
 11 31  1  0  0  0  0
 12 18  1  0  0  0  0
 12 13  1  0  0  0  0
 12 32  1  0  0  0  0
 13 14  1  0  0  0  0
 13 33  1  0  0  0  0
 13 34  1  0  0  0  0
 14 15  1  0  0  0  0
 14 35  1  0  0  0  0
 14 36  1  0  0  0  0
 15 16  1  0  0  0  0
 15 17  1  0  0  0  0
 15 37  1  0  0  0  0
 16 38  1  0  0  0  0
 17 18  1  0  0  0  0
 17 39  1  0  0  0  0
 17 40  1  0  0  0  0
 18 41  1  0  0  0  0
 18 42  1  0  0  0  0
 19 20  1  0  0  0  0
 19 43  1  0  0  0  0
M  END
> <s_m_source_file>
AV-unprocessed.smi

> <i_m_source_file_index>
2717

> <i_lp_mmshare_version>
43012

> <i_f3d_flags>
0

> <s_epik_input>
W0NIM11bQ0gyXWMxbmMoW2NIXXMxKVtDSDJdW0NIMl1bTkhdQyg9TylbTkhdW0NAQEhdMltDSDJdW0NIMl1bQ0BASF0oW09IXSlbQ0gyXVtDSDJdMg==

> <s_epik_cmdline>
J2VwaWtfcHl0aG9uJywgJy1waCcsICc3LjAnLCAnLXRuJywgJzgnLCAnLW1hJywgJzIwMCcsICctbWV0YWxfYmluZGluZycsICctaW1hZScsICc8aW5maWxlLm1hZT4nLCAnLW9tYWUnLCAnPG91dGZpbGUubWFlPic=

> <r_epik_Ionization_Penalty>
0.00202099

> <r_epik_Ionization_Penalty_Charging>
0

> <r_epik_Ionization_Penalty_Neutral>
0.00202099

> <r_epik_State_Penalty>
0.00133629

> <r_epik_Charging_Adjusted_Penalty>
0.00133629

> <i_epik_Tot_Q>
0

> <i_epik_Tot_abs_Q>
0

> <r_epik_Metal_State_Penalty>
-0

> <b_epik_Metal_Only>
0

> <s_lp_Force_Field>
OPLS_2005

> <r_lp_Energy>
-3.71108

> <b_lp_Chiralities_Consistent>
1

> <s_lp_Variant>
AV-unprocessed.smi:2717-1

> <Gold.Version>
5.8.1

> <Gold.Id.Protein>
6NUR|6NUR_protein|mol2

> <Gold.PLP.Fitness>
47.6822

> <Gold.PLP.PLP>
-42.8937

> <Gold.PLP.part.hbond>
-3.6083

> <Gold.PLP.part.metal>
0.0000

> <Gold.PLP.part.buried>
-2.0655

> <Gold.PLP.part.nonpolar>
-37.5565

> <Gold.PLP.part.repulsive>
0.1663

> <Gold.PLP.ligand.clash>
0.0000

> <Gold.PLP.ligand.torsion>
0.6286

> <Gold.PLP.Chemscore.Hbond>
2.0000

> <Gold.PLP.Chemscore.CHOScore>
0.0000

> <Gold.PLP.Chemscore.Metal>
0.0000

> <Gold.Chemscore.Hbonds>
donor molecule, donor type, donor heavy atom, donor atom, acceptor molecule, acceptor atom, score
      P1  H  7997  8009       L1    10  1.00

> <Gold.PLP.Chemscore.Internal.Correction>
0.0458

> <Gold.Rescore>
     Score         DG    S(hbond)    S(metal)    S(lipo)     H(rot)  DE(clash)    DE(int)     intcor
     16.82     -19.30       1.60        0.00     120.68       2.21       0.86       1.62       ----

> <Gold.Chemscore.Fitness>
16.8190

> <Gold.Chemscore.DG>
-19.3038

> <Gold.Chemscore.ZeroCoef>
-5.4800

> <Gold.Chemscore.Hbond>
1.6041

> <Gold.Chemscore.Metal>
0.0000

> <Gold.Chemscore.Lipo>
120.6817

> <Gold.Chemscore.Internal_Hbond>
0.0000

> <Gold.Chemscore.DEClash>
0.8645

> <Gold.Chemscore.DEInternal>
1.6203

> <Gold.Chemscore.Rot>
2.2084

> <Gold.Chemscore.Internal.Correction>
   9.000000E+99

> <Gold.Chemscore.Hbonds>
donor molecule, donor type, donor heavy atom, donor atom, acceptor molecule, acceptor atom, score
      P1  H  7997  8009       L1    10  1.00

> <Gold.Chemscore.Hbond.Weighted>
-5.3576

> <Gold.Chemscore.Metal.Weighted>
-0.0000

> <Gold.Chemscore.Lipo.Weighted>
-14.1198

> <Gold.Chemscore.Internal_Hbond.Weighted>
0.0000

> <Gold.Chemscore.DEClash.Weighted>
0.8645

> <Gold.Chemscore.DEInternal.Weighted>
1.6203

> <Gold.Chemscore.Rot.Weighted>
5.6535

> <Gold.Chemscore.Internal.Correction.Weighted>
   9.000000E+99

> <Gold.Protein.RotatedTorsions>
[ 6907 6896 6895 6894 ] final  -52.41 input  -60.11 | X-H torsion
[ 7974 7965 7964 7962 ] final  -91.69 input  175.53 | X-H torsion
[ 8008 7997 7996 7995 ] final  135.27 input   59.86 | X-H torsion
[ 10167 10162 10161 10158 ] final -145.10 input  -65.29 | X-H torsion
[ 10718 10713 10712 10709 ] final  -33.11 input   66.30 | X-H torsion
[ 10763 10752 10751 10750 ] final  106.89 input  -60.55 | X-H torsion
[ 11005 11000 10999 10996 ] final    1.09 input  -57.11 | X-H torsion

> <Gold.Protein.ActiveResidues>
 VAL166  LYS551  ARG553  GLY616  TRP617  ASP618  TYR619  PRO620  LYS621  CYS622 
 ASP623  PHE694  ASN695  SER759  ASP760  ASP761  ALA762  ILE779  LEU786  VAL792 
 PHE793  MET794  SER795  GLU796  ALA797  LYS798  CYS799  TRP800  GLU811  SER814 

> <Gold.Protein.RotatedAtoms>
  150.8521  134.7848  159.7016 H   0  0  0  0  0  0  0  0  0  0  0  0  # atno 6907 bound_to 6896
  152.4583  134.5239  159.9801 H   0  0  0  0  0  0  0  0  0  0  0  0  # atno 6908 bound_to 6896
  151.5359  133.3403  159.2962 H   0  0  0  0  0  0  0  0  0  0  0  0  # atno 6909 bound_to 6896
  145.4097  140.9544  143.2241 H   0  0  0  0  0  0  0  0  0  0  0  0  # atno 7974 bound_to 7965
  156.3002  140.2475  156.3554 H   0  0  0  0  0  0  0  0  0  0  0  0  # atno 8008 bound_to 7997
  154.8927  140.0409  157.1867 H   0  0  0  0  0  0  0  0  0  0  0  0  # atno 8009 bound_to 7997
  154.8581  140.2916  155.5560 H   0  0  0  0  0  0  0  0  0  0  0  0  # atno 8010 bound_to 7997
  139.7837  143.8065  152.2642 H   0  0  0  0  0  0  0  0  0  0  0  0  # atno 10167 bound_to 10162
  156.3666  130.4332  149.7579 H   0  0  0  0  0  0  0  0  0  0  0  0  # atno 10718 bound_to 10713
  153.3992  135.3862  155.1976 H   0  0  0  0  0  0  0  0  0  0  0  0  # atno 10763 bound_to 10752
  154.8727  135.3767  154.4640 H   0  0  0  0  0  0  0  0  0  0  0  0  # atno 10764 bound_to 10752
  153.5135  135.7087  153.5830 H   0  0  0  0  0  0  0  0  0  0  0  0  # atno 10765 bound_to 10752
  140.6193  133.9676  155.8216 H   0  0  0  0  0  0  0  0  0  0  0  0  # atno 11005 bound_to 11000
  144.8317  139.5617  143.6940 LP  0  0  0  0  0  0  0  0  0  0  0  0  # atno 17320 bound_to 7965
  146.2711  139.6637  142.9295 LP  0  0  0  0  0  0  0  0  0  0  0  0  # atno 17321 bound_to 7965
  139.8135  144.7326  150.9666 LP  0  0  0  0  0  0  0  0  0  0  0  0  # atno 17342 bound_to 10162
  140.7819  143.4228  151.0815 LP  0  0  0  0  0  0  0  0  0  0  0  0  # atno 17343 bound_to 10162
  156.4723  130.8002  151.3019 LP  0  0  0  0  0  0  0  0  0  0  0  0  # atno 17370 bound_to 10713
  157.7479  131.0032  150.3029 LP  0  0  0  0  0  0  0  0  0  0  0  0  # atno 17371 bound_to 10713
  141.0754  134.0143  157.3466 LP  0  0  0  0  0  0  0  0  0  0  0  0  # atno 17394 bound_to 11000
  139.9160  135.0196  156.7882 LP  0  0  0  0  0  0  0  0  0  0  0  0  # atno 17395 bound_to 11000

$$$$
