AV-unprocessed.smi:903|AV-procd|sdf|4096|dock6
  -GOLD-   22720 1583D 1   1.00000     0.00000
 Structure written by MMmdl.
 28 29  0  0  0  0  0  0  0  0  2 V2000
  154.3019  138.6248  154.7455 O   0  0  0  0  0  0  0  0  0  0  0  0
  153.0752  138.4468  154.9068 C   0  0  0  0  0  0  0  0  0  0  0  0
  152.4735  137.5262  154.3071 O   0  5  0  0  0  0  0  0  0  0  0  0
  152.2812  139.3421  155.8349 C   0  0  0  0  0  0  0  0  0  0  0  0
  152.9465  139.7524  156.9440 N   0  0  0  0  0  0  0  0  0  0  0  0
  152.3340  140.5568  157.8436 C   0  0  0  0  0  0  0  0  0  0  0  0
  153.0327  140.9613  158.9625 O   0  0  0  0  0  0  0  0  0  0  0  0
  152.3055  141.5389  160.0428 C   0  0  0  0  0  0  0  0  0  0  0  0
  152.4825  143.0614  159.9998 C   0  0  1  0  0  0  0  0  0  0  0  0
  152.4713  143.6380  158.5860 C   0  0  0  0  0  0  0  0  0  0  0  0
  152.0823  145.0750  158.8480 C   0  0  0  0  0  0  0  0  0  0  0  0
  151.0708  144.9289  159.9823 C   0  0  0  0  0  0  0  0  0  0  0  0
  151.3941  143.7114  160.6507 O   0  0  0  0  0  0  0  0  0  0  0  0
  151.0093  140.9959  157.6796 C   0  0  0  0  0  0  0  0  0  0  0  0
  150.3047  140.5816  156.5368 C   0  0  0  0  0  0  0  0  0  0  0  0
  150.9331  139.7447  155.5928 C   0  0  0  0  0  0  0  0  0  0  0  0
  149.9997  139.2763  154.2107 Cl  0  0  0  0  0  0  0  0  0  0  0  0
  151.2471  141.2951  159.9359 H   0  0  0  0  0  0  0  0  0  0  0  0
  152.6456  141.1475  161.0033 H   0  0  0  0  0  0  0  0  0  0  0  0
  153.4101  143.3519  160.4959 H   0  0  0  0  0  0  0  0  0  0  0  0
  153.4310  143.5396  158.0784 H   0  0  0  0  0  0  0  0  0  0  0  0
  151.7092  143.1495  157.9769 H   0  0  0  0  0  0  0  0  0  0  0  0
  152.9509  145.6394  159.1902 H   0  0  0  0  0  0  0  0  0  0  0  0
  151.6719  145.5768  157.9715 H   0  0  0  0  0  0  0  0  0  0  0  0
  151.0979  145.7760  160.6679 H   0  0  0  0  0  0  0  0  0  0  0  0
  150.0582  144.8468  159.5861 H   0  0  0  0  0  0  0  0  0  0  0  0
  150.5440  141.6375  158.4131 H   0  0  0  0  0  0  0  0  0  0  0  0
  149.2856  140.9057  156.3849 H   0  0  0  0  0  0  0  0  0  0  0  0
  1  2  2  0  0  0  0
  2  3  1  0  0  0  0
  2  4  1  0  0  0  0
  4 16  1  0  0  0  0
  4  5  2  0  0  0  0
  5  6  1  0  0  0  0
  6  7  1  0  0  0  0
  6 14  2  0  0  0  0
  7  8  1  0  0  0  0
  8  9  1  0  0  0  0
  8 18  1  0  0  0  0
  8 19  1  0  0  0  0
  9 13  1  0  0  0  0
  9 10  1  0  0  0  0
  9 20  1  0  0  0  0
 10 11  1  0  0  0  0
 10 21  1  0  0  0  0
 10 22  1  0  0  0  0
 11 12  1  0  0  0  0
 11 23  1  0  0  0  0
 11 24  1  0  0  0  0
 12 13  1  0  0  0  0
 12 25  1  0  0  0  0
 12 26  1  0  0  0  0
 14 15  1  0  0  0  0
 14 27  1  0  0  0  0
 15 16  2  0  0  0  0
 15 28  1  0  0  0  0
 16 17  1  0  0  0  0
M  CHG  1   3  -1
M  END
> <s_m_source_file>
AV-unprocessed.smi

> <i_m_source_file_index>
903

> <i_lp_mmshare_version>
43012

> <i_f3d_flags>
0

> <s_epik_input>
Tz1DKFtPSF0pYzFuYyhbY0hdW2NIXWMxQ2wpT1tDSDJdW0NAQEhdMltDSDJdW0NIMl1bQ0gyXU8y

> <s_epik_cmdline>
J2VwaWtfcHl0aG9uJywgJy1waCcsICc3LjAnLCAnLXRuJywgJzgnLCAnLW1hJywgJzIwMCcsICctbWV0YWxfYmluZGluZycsICctaW1hZScsICc8aW5maWxlLm1hZT4nLCAnLW9tYWUnLCAnPG91dGZpbGUubWFlPic=

> <r_lp_tautomer_probability>
1

> <r_epik_Ionization_Penalty>
1.22588e-05

> <r_epik_Ionization_Penalty_Charging>
1.01343e-05

> <r_epik_Ionization_Penalty_Neutral>
2.12445e-06

> <r_epik_State_Penalty>
-0

> <r_epik_Charging_Adjusted_Penalty>
1.01343e-05

> <i_epik_Tot_Q>
-1

> <i_epik_Tot_abs_Q>
1

> <r_epik_Metal_State_Penalty>
-0

> <b_epik_Metal_Only>
0

> <s_lp_Force_Field>
OPLS_2005

> <r_lp_Energy>
26.0246

> <b_lp_Chiralities_Consistent>
1

> <s_lp_Variant>
AV-unprocessed.smi:903-2

> <Gold.Version>
5.8.1

> <Gold.Id.Protein>
6NUR|6NUR_protein|mol2

> <Gold.PLP.Fitness>
48.3990

> <Gold.PLP.PLP>
-40.6644

> <Gold.PLP.part.hbond>
-3.0000

> <Gold.PLP.part.metal>
0.0000

> <Gold.PLP.part.buried>
-5.4102

> <Gold.PLP.part.nonpolar>
-33.1666

> <Gold.PLP.part.repulsive>
0.2495

> <Gold.PLP.ligand.clash>
0.0165

> <Gold.PLP.ligand.torsion>
1.2169

> <Gold.PLP.Chemscore.Hbond>
3.3920

> <Gold.PLP.Chemscore.CHOScore>
0.0000

> <Gold.PLP.Chemscore.Metal>
0.0000

> <Gold.Chemscore.Hbonds>
donor molecule, donor type, donor heavy atom, donor atom, acceptor molecule, acceptor atom, score
      P1  H  7997  8009       L1     5  0.51
      P1  H  7997  8010       L1     1  1.22
      P1  H 10752 10765       L1     3  1.31

> <Gold.PLP.Chemscore.Internal.Correction>
0.0089

> <Gold.Rescore>
     Score         DG    S(hbond)    S(metal)    S(lipo)     H(rot)  DE(clash)    DE(int)     intcor
     16.10     -18.16       1.75        0.00      91.34       1.51       0.02       2.04       ----

> <Gold.Chemscore.Fitness>
16.1008

> <Gold.Chemscore.DG>
-18.1606

> <Gold.Chemscore.ZeroCoef>
-5.4800

> <Gold.Chemscore.Hbond>
1.7538

> <Gold.Chemscore.Metal>
0.0000

> <Gold.Chemscore.Lipo>
91.3414

> <Gold.Chemscore.Internal_Hbond>
0.0000

> <Gold.Chemscore.DEClash>
0.0202

> <Gold.Chemscore.DEInternal>
2.0396

> <Gold.Chemscore.Rot>
1.5094

> <Gold.Chemscore.Internal.Correction>
   9.000000E+99

> <Gold.Chemscore.Hbonds>
donor molecule, donor type, donor heavy atom, donor atom, acceptor molecule, acceptor atom, score
      P1  H  7997  8009       L1     5  0.31
      P1  H  7997  8010       L1     1  0.54
      P1  H 10752 10765       L1     3  0.66

> <Gold.Chemscore.Hbond.Weighted>
-5.8577

> <Gold.Chemscore.Metal.Weighted>
-0.0000

> <Gold.Chemscore.Lipo.Weighted>
-10.6869

> <Gold.Chemscore.Internal_Hbond.Weighted>
0.0000

> <Gold.Chemscore.DEClash.Weighted>
0.0202

> <Gold.Chemscore.DEInternal.Weighted>
2.0396

> <Gold.Chemscore.Rot.Weighted>
3.8641

> <Gold.Chemscore.Internal.Correction.Weighted>
   9.000000E+99

> <Gold.Protein.RotatedTorsions>
[ 6907 6896 6895 6894 ] final   83.54 input  -60.11 | X-H torsion
[ 7974 7965 7964 7962 ] final  176.75 input  175.53 | X-H torsion
[ 8008 7997 7996 7995 ] final  145.34 input   59.86 | X-H torsion
[ 10167 10162 10161 10158 ] final   30.80 input  -65.29 | X-H torsion
[ 10718 10713 10712 10709 ] final  -72.48 input   66.30 | X-H torsion
[ 10763 10752 10751 10750 ] final  154.45 input  -60.55 | X-H torsion
[ 11005 11000 10999 10996 ] final   42.28 input  -57.11 | X-H torsion

> <Gold.Protein.ActiveResidues>
 VAL166  LYS551  ARG553  GLY616  TRP617  ASP618  TYR619  PRO620  LYS621  CYS622 
 ASP623  PHE694  ASN695  SER759  ASP760  ASP761  ALA762  ILE779  LEU786  VAL792 
 PHE793  MET794  SER795  GLU796  ALA797  LYS798  CYS799  TRP800  GLU811  SER814 

> <Gold.Protein.RotatedAtoms>
  152.5330  134.2879  159.9031 H   0  0  0  0  0  0  0  0  0  0  0  0  # atno 6907 bound_to 6896
  151.2832  133.4193  159.2636 H   0  0  0  0  0  0  0  0  0  0  0  0  # atno 6908 bound_to 6896
  151.0265  134.9524  159.8145 H   0  0  0  0  0  0  0  0  0  0  0  0  # atno 6909 bound_to 6896
  144.7179  140.0143  143.6440 H   0  0  0  0  0  0  0  0  0  0  0  0  # atno 7974 bound_to 7965
  156.2885  140.2211  156.5200 H   0  0  0  0  0  0  0  0  0  0  0  0  # atno 8008 bound_to 7997
  154.7536  140.0478  157.0936 H   0  0  0  0  0  0  0  0  0  0  0  0  # atno 8009 bound_to 7997
  155.0078  140.3109  155.4845 H   0  0  0  0  0  0  0  0  0  0  0  0  # atno 8010 bound_to 7997
  140.4646  144.0855  150.6221 H   0  0  0  0  0  0  0  0  0  0  0  0  # atno 10167 bound_to 10162
  156.0318  130.4373  150.2599 H   0  0  0  0  0  0  0  0  0  0  0  0  # atno 10718 bound_to 10713
  154.1525  135.2814  155.3131 H   0  0  0  0  0  0  0  0  0  0  0  0  # atno 10763 bound_to 10752
  154.6207  135.5468  153.7575 H   0  0  0  0  0  0  0  0  0  0  0  0  # atno 10764 bound_to 10752
  153.0216  135.6438  154.1669 H   0  0  0  0  0  0  0  0  0  0  0  0  # atno 10765 bound_to 10752
  140.1754  134.4170  155.8231 H   0  0  0  0  0  0  0  0  0  0  0  0  # atno 11005 bound_to 11000
  146.0233  139.3270  143.0800 LP  0  0  0  0  0  0  0  0  0  0  0  0  # atno 17320 bound_to 7965
  145.8542  140.9512  143.0734 LP  0  0  0  0  0  0  0  0  0  0  0  0  # atno 17321 bound_to 7965
  140.4052  143.2684  151.9899 LP  0  0  0  0  0  0  0  0  0  0  0  0  # atno 17342 bound_to 10162
  139.4810  144.5963  151.7684 LP  0  0  0  0  0  0  0  0  0  0  0  0  # atno 17343 bound_to 10162
  157.0701  131.0114  151.3193 LP  0  0  0  0  0  0  0  0  0  0  0  0  # atno 17370 bound_to 10713
  157.5006  130.7877  149.7600 LP  0  0  0  0  0  0  0  0  0  0  0  0  # atno 17371 bound_to 10713
  141.2220  133.6975  156.7838 LP  0  0  0  0  0  0  0  0  0  0  0  0  # atno 17394 bound_to 11000
  140.2328  134.8672  157.3494 LP  0  0  0  0  0  0  0  0  0  0  0  0  # atno 17395 bound_to 11000

$$$$
