AV-unprocessed.smi:592|AV-procd|sdf|3011|dock6
  -GOLD-   2262023513D 1   1.00000     0.00000
 Structure written by MMmdl.
 28 29  0  0  0  0  0  0  0  0  2 V2000
  150.0344  139.7740  157.3941 O   0  0  0  0  0  0  0  0  0  0  0  0
  149.6384  140.8374  157.8691 C   0  0  0  0  0  0  0  0  0  0  0  0
  150.0816  141.3150  159.2622 C   0  0  0  0  0  0  0  0  0  0  0  0
  150.7753  142.6149  159.2382 N   0  0  0  0  0  0  0  0  0  0  0  0
  151.1988  143.0917  157.9813 C   0  0  0  0  0  0  0  0  0  0  0  0
  151.8376  144.2644  157.8446 C   0  0  0  0  0  0  0  0  0  0  0  0
  152.0892  145.0471  159.0314 C   0  0  0  0  0  0  0  0  0  0  0  0
  151.6935  144.5984  160.2392 C   0  0  0  0  0  0  0  0  0  0  0  0
  150.9986  143.3151  160.3936 C   0  0  0  0  0  0  0  0  0  0  0  0
  150.6403  142.8931  161.4935 O   0  0  0  0  0  0  0  0  0  0  0  0
  148.7260  141.6283  157.0789 N   0  0  0  0  0  0  0  0  0  0  0  0
  148.1950  141.4287  155.8463 C   0  0  0  0  0  0  0  0  0  0  0  0
  148.2619  142.3256  154.8518 N   0  3  0  0  0  0  0  0  0  0  0  0
  147.6367  142.0048  153.5595 C   0  0  0  0  0  0  0  0  0  0  0  0
  147.0107  140.6028  153.6354 C   0  0  0  0  0  0  0  0  0  0  0  0
  147.3001  139.9748  155.3012 S   0  0  0  0  0  0  0  0  0  0  0  0
  149.2037  141.3891  159.9038 H   0  0  0  0  0  0  0  0  0  0  0  0
  150.7376  140.5674  159.7090 H   0  0  0  0  0  0  0  0  0  0  0  0
  150.9782  142.4457  157.1439 H   0  0  0  0  0  0  0  0  0  0  0  0
  152.1577  144.6116  156.8733 H   0  0  0  0  0  0  0  0  0  0  0  0
  152.5979  145.9964  158.9506 H   0  0  0  0  0  0  0  0  0  0  0  0
  151.8917  145.1973  161.1159 H   0  0  0  0  0  0  0  0  0  0  0  0
  148.3753  142.4886  157.4746 H   0  0  0  0  0  0  0  0  0  0  0  0
  146.8775  142.7535  153.3323 H   0  0  0  0  0  0  0  0  0  0  0  0
  148.3886  142.0511  152.7714 H   0  0  0  0  0  0  0  0  0  0  0  0
  145.9392  140.6389  153.4377 H   0  0  0  0  0  0  0  0  0  0  0  0
  147.4637  139.9298  152.9069 H   0  0  0  0  0  0  0  0  0  0  0  0
  148.7247  143.2155  154.9721 H   0  0  0  0  0  0  0  0  0  0  0  0
  1  2  2  0  0  0  0
  2  3  1  0  0  0  0
  2 11  1  0  0  0  0
  3  4  1  0  0  0  0
  3 17  1  0  0  0  0
  3 18  1  0  0  0  0
  4  9  1  0  0  0  0
  4  5  1  0  0  0  0
  5  6  2  0  0  0  0
  5 19  1  0  0  0  0
  6  7  1  0  0  0  0
  6 20  1  0  0  0  0
  7  8  2  0  0  0  0
  7 21  1  0  0  0  0
  8  9  1  0  0  0  0
  8 22  1  0  0  0  0
  9 10  2  0  0  0  0
 11 12  1  0  0  0  0
 11 23  1  0  0  0  0
 12 16  1  0  0  0  0
 12 13  2  0  0  0  0
 13 14  1  0  0  0  0
 13 28  1  0  0  0  0
 14 15  1  0  0  0  0
 14 24  1  0  0  0  0
 14 25  1  0  0  0  0
 15 16  1  0  0  0  0
 15 26  1  0  0  0  0
 15 27  1  0  0  0  0
M  CHG  1  13   1
M  END
> <s_m_source_file>
AV-unprocessed.smi

> <i_m_source_file_index>
592

> <i_lp_mmshare_version>
43012

> <i_f3d_flags>
0

> <s_epik_input>
UzFbQ0gyXVtDSDJdTj1DMVtOSF1DKD1PKVtDSDJdbjJbY0hdW2NIXVtjSF1bY0hdYzI9Tw==

> <s_epik_cmdline>
J2VwaWtfcHl0aG9uJywgJy1waCcsICc3LjAnLCAnLXRuJywgJzgnLCAnLW1hJywgJzIwMCcsICctbWV0YWxfYmluZGluZycsICctaW1hZScsICc8aW5maWxlLm1hZT4nLCAnLW9tYWUnLCAnPG91dGZpbGUubWFlPic=

> <r_lp_tautomer_probability>
1

> <r_epik_Ionization_Penalty>
1.98499

> <r_epik_Ionization_Penalty_Charging>
1.98499

> <r_epik_Ionization_Penalty_Neutral>
2.63117e-16

> <r_epik_State_Penalty>
1.64719

> <r_epik_Charging_Adjusted_Penalty>
3.63218

> <i_epik_Tot_Q>
1

> <i_epik_Tot_abs_Q>
1

> <r_epik_Metal_State_Penalty>
5.35038

> <b_epik_Metal_Only>
0

> <s_epik_Chemistry_Notes>
This compound has an imine and may undergo hydrolysis.

> <s_lp_Force_Field>
OPLS_2005

> <r_lp_Energy>
33.1972

> <b_lp_Chiralities_Consistent>
1

> <s_lp_Variant>
AV-unprocessed.smi:592-2

> <Gold.Version>
5.8.1

> <Gold.Id.Protein>
6NUR|6NUR_protein|mol2

> <Gold.PLP.Fitness>
45.2637

> <Gold.PLP.PLP>
-38.1732

> <Gold.PLP.part.hbond>
-2.0000

> <Gold.PLP.part.metal>
0.0000

> <Gold.PLP.part.buried>
-6.6561

> <Gold.PLP.part.nonpolar>
-29.5531

> <Gold.PLP.part.repulsive>
0.2227

> <Gold.PLP.ligand.clash>
0.2188

> <Gold.PLP.ligand.torsion>
0.6429

> <Gold.PLP.Chemscore.Hbond>
2.8640

> <Gold.PLP.Chemscore.CHOScore>
0.0000

> <Gold.PLP.Chemscore.Metal>
0.0000

> <Gold.Chemscore.Hbonds>
donor molecule, donor type, donor heavy atom, donor atom, acceptor molecule, acceptor atom, score
      L1  H    13    28       P1  8028  2.00
      P1  H  6933  6945       L1    10  0.12

> <Gold.PLP.Chemscore.Internal.Correction>
0.0030

> <Gold.Rescore>
     Score         DG    S(hbond)    S(metal)    S(lipo)     H(rot)  DE(clash)    DE(int)     intcor
     15.66     -16.64       1.86        0.00      71.71       1.35       0.02       0.96       ----

> <Gold.Chemscore.Fitness>
15.6580

> <Gold.Chemscore.DG>
-16.6409

> <Gold.Chemscore.ZeroCoef>
-5.4800

> <Gold.Chemscore.Hbond>
1.8642

> <Gold.Chemscore.Metal>
0.0000

> <Gold.Chemscore.Lipo>
71.7055

> <Gold.Chemscore.Internal_Hbond>
0.0000

> <Gold.Chemscore.DEClash>
0.0234

> <Gold.Chemscore.DEInternal>
0.9595

> <Gold.Chemscore.Rot>
1.3497

> <Gold.Chemscore.Internal.Correction>
   9.000000E+99

> <Gold.Chemscore.Hbonds>
donor molecule, donor type, donor heavy atom, donor atom, acceptor molecule, acceptor atom, score
      L1  H    13    28       P1  8028  0.97
      P1  H  6933  6945       L1    10  0.12

> <Gold.Chemscore.Hbond.Weighted>
-6.2265

> <Gold.Chemscore.Metal.Weighted>
-0.0000

> <Gold.Chemscore.Lipo.Weighted>
-8.3895

> <Gold.Chemscore.Internal_Hbond.Weighted>
0.0000

> <Gold.Chemscore.DEClash.Weighted>
0.0234

> <Gold.Chemscore.DEInternal.Weighted>
0.9595

> <Gold.Chemscore.Rot.Weighted>
3.4552

> <Gold.Chemscore.Internal.Correction.Weighted>
   9.000000E+99

> <Gold.Protein.RotatedTorsions>
[ 6907 6896 6895 6894 ] final  -94.11 input  -60.11 | X-H torsion
[ 7974 7965 7964 7962 ] final  106.52 input  175.53 | X-H torsion
[ 8008 7997 7996 7995 ] final  100.07 input   59.86 | X-H torsion
[ 10167 10162 10161 10158 ] final    7.82 input  -65.29 | X-H torsion
[ 10718 10713 10712 10709 ] final -150.54 input   66.30 | X-H torsion
[ 10763 10752 10751 10750 ] final  109.41 input  -60.55 | X-H torsion
[ 11005 11000 10999 10996 ] final   10.46 input  -57.11 | X-H torsion

> <Gold.Protein.ActiveResidues>
 VAL166  LYS551  ARG553  GLY616  TRP617  ASP618  TYR619  PRO620  LYS621  CYS622 
 ASP623  PHE694  ASN695  SER759  ASP760  ASP761  ALA762  ILE779  LEU786  VAL792 
 PHE793  MET794  SER795  GLU796  ALA797  LYS798  CYS799  TRP800  GLU811  SER814 

> <Gold.Protein.RotatedAtoms>
  150.6935  134.1863  159.4267 H   0  0  0  0  0  0  0  0  0  0  0  0  # atno 6907 bound_to 6896
  151.9835  135.0014  160.0568 H   0  0  0  0  0  0  0  0  0  0  0  0  # atno 6908 bound_to 6896
  152.1733  133.4623  159.4957 H   0  0  0  0  0  0  0  0  0  0  0  0  # atno 6909 bound_to 6896
  145.3056  139.2556  143.3790 H   0  0  0  0  0  0  0  0  0  0  0  0  # atno 7974 bound_to 7965
  156.1167  140.3219  155.8150 H   0  0  0  0  0  0  0  0  0  0  0  0  # atno 8008 bound_to 7997
  155.4577  140.0537  157.3011 H   0  0  0  0  0  0  0  0  0  0  0  0  # atno 8009 bound_to 7997
  154.4798  140.2048  155.9805 H   0  0  0  0  0  0  0  0  0  0  0  0  # atno 8010 bound_to 7997
  140.6350  143.7907  150.7346 H   0  0  0  0  0  0  0  0  0  0  0  0  # atno 10167 bound_to 10162
  156.4475  130.8152  151.2382 H   0  0  0  0  0  0  0  0  0  0  0  0  # atno 10718 bound_to 10713
  153.4344  135.3781  155.2190 H   0  0  0  0  0  0  0  0  0  0  0  0  # atno 10763 bound_to 10752
  154.8751  135.3848  154.4229 H   0  0  0  0  0  0  0  0  0  0  0  0  # atno 10764 bound_to 10752
  153.4766  135.7088  153.6025 H   0  0  0  0  0  0  0  0  0  0  0  0  # atno 10765 bound_to 10752
  140.5142  134.0622  155.7826 H   0  0  0  0  0  0  0  0  0  0  0  0  # atno 11005 bound_to 11000
  146.3136  140.3580  142.8662 LP  0  0  0  0  0  0  0  0  0  0  0  0  # atno 17320 bound_to 7965
  144.9058  140.7697  143.5838 LP  0  0  0  0  0  0  0  0  0  0  0  0  # atno 17321 bound_to 7965
  140.1527  143.4344  152.2120 LP  0  0  0  0  0  0  0  0  0  0  0  0  # atno 17342 bound_to 10162
  139.5561  144.7373  151.4291 LP  0  0  0  0  0  0  0  0  0  0  0  0  # atno 17343 bound_to 10162
  157.7504  131.0148  150.3480 LP  0  0  0  0  0  0  0  0  0  0  0  0  # atno 17370 bound_to 10713
  156.3851  130.3887  149.7072 LP  0  0  0  0  0  0  0  0  0  0  0  0  # atno 17371 bound_to 10713
  141.1369  133.9206  157.2413 LP  0  0  0  0  0  0  0  0  0  0  0  0  # atno 17394 bound_to 11000
  139.9642  135.0146  156.9342 LP  0  0  0  0  0  0  0  0  0  0  0  0  # atno 17395 bound_to 11000

$$$$
