AV-unprocessed.smi:2735|AV-procd|sdf|10542|dock3
  -GOLD-   2272014593D 1   1.00000     0.00000
 Structure written by MMmdl.
 42 42  0  0  0  0  0  0  0  0  2 V2000
  154.3492  140.4115  160.7729 C   0  0  0  0  0  0  0  0  0  0  0  0
  153.4382  141.3694  160.0634 C   0  0  0  0  0  0  0  0  0  0  0  0
  153.3415  142.7782  160.2288 C   0  0  0  0  0  0  0  0  0  0  0  0
  152.3555  143.1536  159.3607 C   0  0  0  0  0  0  0  0  0  0  0  0
  151.7812  144.5075  159.0976 C   0  0  0  0  0  0  0  0  0  0  0  0
  151.9227  142.0058  158.7149 N   0  0  0  0  0  0  0  0  0  0  0  0
  150.8396  141.8499  157.7416 C   0  0  1  0  0  0  0  0  0  0  0  0
  150.9563  142.8587  156.5798 C   0  0  0  0  0  0  0  0  0  0  0  0
  150.7612  140.3884  157.2659 C   0  0  0  0  0  0  0  0  0  0  0  0
  150.4154  139.4878  158.0314 O   0  0  0  0  0  0  0  0  0  0  0  0
  151.0785  140.1777  155.9791 N   0  0  0  0  0  0  0  0  0  0  0  0
  151.0052  138.9048  155.2680 C   0  0  1  0  0  0  0  0  0  0  0  0
  150.0264  139.0604  154.0783 C   0  0  0  0  0  0  0  0  0  0  0  0
  148.6784  139.7419  154.4166 C   0  0  0  0  0  0  0  0  0  0  0  0
  147.5112  139.1975  153.5770 C   0  0  0  0  0  0  0  0  0  0  0  0
  148.7894  141.2659  154.2609 C   0  0  0  0  0  0  0  0  0  0  0  0
  152.3923  138.5418  154.7141 C   0  0  0  0  0  0  0  0  0  0  0  0
  152.4606  137.5358  153.9746 O   0  0  0  0  0  0  0  0  0  0  0  0
  153.3583  139.2738  155.0290 O   0  5  0  0  0  0  0  0  0  0  0  0
  152.5872  140.9136  159.1606 N   0  0  0  0  0  0  0  0  0  0  0  0
  150.6644  138.1103  155.9339 H   0  0  0  0  0  0  0  0  0  0  0  0
  154.6557  140.8073  161.7410 H   0  0  0  0  0  0  0  0  0  0  0  0
  155.2505  140.2244  160.1894 H   0  0  0  0  0  0  0  0  0  0  0  0
  153.8598  139.4530  160.9498 H   0  0  0  0  0  0  0  0  0  0  0  0
  153.9035  143.4165  160.8943 H   0  0  0  0  0  0  0  0  0  0  0  0
  152.2614  145.2615  159.7215 H   0  0  0  0  0  0  0  0  0  0  0  0
  150.7131  144.5276  159.3147 H   0  0  0  0  0  0  0  0  0  0  0  0
  151.9238  144.7952  158.0559 H   0  0  0  0  0  0  0  0  0  0  0  0
  149.8996  142.0625  158.2512 H   0  0  0  0  0  0  0  0  0  0  0  0
  150.0967  142.7903  155.9122 H   0  0  0  0  0  0  0  0  0  0  0  0
  151.8534  142.6926  155.9816 H   0  0  0  0  0  0  0  0  0  0  0  0
  150.9948  143.8812  156.9566 H   0  0  0  0  0  0  0  0  0  0  0  0
  151.3713  140.9741  155.4333 H   0  0  0  0  0  0  0  0  0  0  0  0
  150.5086  139.6368  153.2863 H   0  0  0  0  0  0  0  0  0  0  0  0
  149.8277  138.0768  153.6495 H   0  0  0  0  0  0  0  0  0  0  0  0
  148.4448  139.5524  155.4649 H   0  0  0  0  0  0  0  0  0  0  0  0
  147.7033  139.3112  152.5098 H   0  0  0  0  0  0  0  0  0  0  0  0
  146.5848  139.7247  153.8071 H   0  0  0  0  0  0  0  0  0  0  0  0
  147.3336  138.1408  153.7764 H   0  0  0  0  0  0  0  0  0  0  0  0
  149.0128  141.5441  153.2305 H   0  0  0  0  0  0  0  0  0  0  0  0
  149.5803  141.6693  154.8938 H   0  0  0  0  0  0  0  0  0  0  0  0
  147.8597  141.7595  154.5451 H   0  0  0  0  0  0  0  0  0  0  0  0
  1  2  1  0  0  0  0
  1 22  1  0  0  0  0
  1 23  1  0  0  0  0
  1 24  1  0  0  0  0
  2 20  2  0  0  0  0
  2  3  1  0  0  0  0
  3  4  2  0  0  0  0
  3 25  1  0  0  0  0
  4  5  1  0  0  0  0
  4  6  1  0  0  0  0
  5 26  1  0  0  0  0
  5 27  1  0  0  0  0
  5 28  1  0  0  0  0
  6  7  1  0  0  0  0
  6 20  1  0  0  0  0
  7  8  1  0  0  0  0
  7  9  1  0  0  0  0
  7 29  1  0  0  0  0
  8 30  1  0  0  0  0
  8 31  1  0  0  0  0
  8 32  1  0  0  0  0
  9 10  2  0  0  0  0
  9 11  1  0  0  0  0
 11 12  1  0  0  0  0
 11 33  1  0  0  0  0
 12 21  1  0  0  0  0
 12 13  1  0  0  0  0
 12 17  1  0  0  0  0
 13 14  1  0  0  0  0
 13 34  1  0  0  0  0
 13 35  1  0  0  0  0
 14 15  1  0  0  0  0
 14 16  1  0  0  0  0
 14 36  1  0  0  0  0
 15 37  1  0  0  0  0
 15 38  1  0  0  0  0
 15 39  1  0  0  0  0
 16 40  1  0  0  0  0
 16 41  1  0  0  0  0
 16 42  1  0  0  0  0
 17 18  2  0  0  0  0
 17 19  1  0  0  0  0
M  CHG  1  19  -1
M  END
> <s_m_source_file>
AV-unprocessed.smi

> <i_m_source_file_index>
2735

> <i_lp_mmshare_version>
43012

> <i_f3d_flags>
0

> <s_epik_input>
W0NIM11jMVtjSF1jKFtDSDNdKW4objEpW0NASF0oW0NIM10pQyg9TylbTkhdW0NASF0oQyg9TylbT0hdKVtDSDJdW0NIXShbQ0gzXSlbQ0gzXQ==

> <s_epik_cmdline>
J2VwaWtfcHl0aG9uJywgJy1waCcsICc3LjAnLCAnLXRuJywgJzgnLCAnLW1hJywgJzIwMCcsICctbWV0YWxfYmluZGluZycsICctaW1hZScsICc8aW5maWxlLm1hZT4nLCAnLW9tYWUnLCAnPG91dGZpbGUubWFlPic=

> <r_lp_tautomer_probability>
1

> <r_epik_Ionization_Penalty>
0.0012303

> <r_epik_Ionization_Penalty_Charging>
0.000186407

> <r_epik_Ionization_Penalty_Neutral>
0.0010439

> <r_epik_State_Penalty>
-0

> <r_epik_Charging_Adjusted_Penalty>
0.000186407

> <i_epik_Tot_Q>
-1

> <i_epik_Tot_abs_Q>
1

> <r_epik_Metal_State_Penalty>
-0

> <b_epik_Metal_Only>
0

> <s_lp_Force_Field>
OPLS_2005

> <r_lp_Energy>
6.48876

> <b_lp_Chiralities_Consistent>
1

> <s_lp_Variant>
AV-unprocessed.smi:2735-2

> <Gold.Version>
5.8.1

> <Gold.Id.Protein>
6NUR|6NUR_protein|mol2

> <Gold.PLP.Fitness>
52.5973

> <Gold.PLP.PLP>
-43.6619

> <Gold.PLP.part.hbond>
-2.0000

> <Gold.PLP.part.metal>
0.0000

> <Gold.PLP.part.buried>
-3.7901

> <Gold.PLP.part.nonpolar>
-38.1567

> <Gold.PLP.part.repulsive>
0.2578

> <Gold.PLP.ligand.clash>
0.0000

> <Gold.PLP.ligand.torsion>
0.8817

> <Gold.PLP.Chemscore.Hbond>
3.4720

> <Gold.PLP.Chemscore.CHOScore>
0.0000

> <Gold.PLP.Chemscore.Metal>
0.0000

> <Gold.Chemscore.Hbonds>
donor molecule, donor type, donor heavy atom, donor atom, acceptor molecule, acceptor atom, score
      P1  H  7997  8009       L1    19  2.00
      P1  H 10752 10763       L1    18  1.44

> <Gold.PLP.Chemscore.Internal.Correction>
0.2829

> <Gold.Rescore>
     Score         DG    S(hbond)    S(metal)    S(lipo)     H(rot)  DE(clash)    DE(int)     intcor
     15.46     -18.10       1.81        0.00     105.18       2.24       0.54       2.11       ----

> <Gold.Chemscore.Fitness>
15.4565

> <Gold.Chemscore.DG>
-18.1019

> <Gold.Chemscore.ZeroCoef>
-5.4800

> <Gold.Chemscore.Hbond>
1.8105

> <Gold.Chemscore.Metal>
0.0000

> <Gold.Chemscore.Lipo>
105.1799

> <Gold.Chemscore.Internal_Hbond>
0.0000

> <Gold.Chemscore.DEClash>
0.5391

> <Gold.Chemscore.DEInternal>
2.1063

> <Gold.Chemscore.Rot>
2.2388

> <Gold.Chemscore.Internal.Correction>
   9.000000E+99

> <Gold.Chemscore.Hbonds>
donor molecule, donor type, donor heavy atom, donor atom, acceptor molecule, acceptor atom, score
      P1  H  7997  8009       L1    19  1.00
      P1  H 10752 10763       L1    18  0.72

> <Gold.Chemscore.Hbond.Weighted>
-6.0472

> <Gold.Chemscore.Metal.Weighted>
-0.0000

> <Gold.Chemscore.Lipo.Weighted>
-12.3061

> <Gold.Chemscore.Internal_Hbond.Weighted>
0.0000

> <Gold.Chemscore.DEClash.Weighted>
0.5391

> <Gold.Chemscore.DEInternal.Weighted>
2.1063

> <Gold.Chemscore.Rot.Weighted>
5.7314

> <Gold.Chemscore.Internal.Correction.Weighted>
   9.000000E+99

> <Gold.Protein.RotatedTorsions>
[ 6907 6896 6895 6894 ] final   97.89 input  -60.11 | X-H torsion
[ 7974 7965 7964 7962 ] final -115.71 input  175.53 | X-H torsion
[ 8008 7997 7996 7995 ] final -127.73 input   59.86 | X-H torsion
[ 10167 10162 10161 10158 ] final   -9.63 input  -65.29 | X-H torsion
[ 10718 10713 10712 10709 ] final    9.37 input   66.30 | X-H torsion
[ 10763 10752 10751 10750 ] final   30.09 input  -60.55 | X-H torsion
[ 11005 11000 10999 10996 ] final  157.39 input  -57.11 | X-H torsion

> <Gold.Protein.ActiveResidues>
 VAL166  LYS551  ARG553  GLY616  TRP617  ASP618  TYR619  PRO620  LYS621  CYS622 
 ASP623  PHE694  ASN695  SER759  ASP760  ASP761  ALA762  ILE779  LEU786  VAL792 
 PHE793  MET794  SER795  GLU796  ALA797  LYS798  CYS799  TRP800  GLU811  SER814 

> <Gold.Protein.RotatedAtoms>
  152.5417  134.0664  159.8174 H   0  0  0  0  0  0  0  0  0  0  0  0  # atno 6907 bound_to 6896
  151.0784  133.5402  159.2629 H   0  0  0  0  0  0  0  0  0  0  0  0  # atno 6908 bound_to 6896
  151.2238  135.0537  159.9014 H   0  0  0  0  0  0  0  0  0  0  0  0  # atno 6909 bound_to 6896
  145.1052  140.8577  143.3902 H   0  0  0  0  0  0  0  0  0  0  0  0  # atno 7974 bound_to 7965
  155.2509  140.0432  157.2986 H   0  0  0  0  0  0  0  0  0  0  0  0  # atno 8008 bound_to 7997
  154.5769  140.2390  155.8079 H   0  0  0  0  0  0  0  0  0  0  0  0  # atno 8009 bound_to 7997
  156.2165  140.2983  155.9859 H   0  0  0  0  0  0  0  0  0  0  0  0  # atno 8010 bound_to 7997
  140.7092  143.5837  150.8965 H   0  0  0  0  0  0  0  0  0  0  0  0  # atno 10167 bound_to 10162
  156.9653  130.5948  149.5665 H   0  0  0  0  0  0  0  0  0  0  0  0  # atno 10718 bound_to 10713
  153.0392  135.6473  154.0990 H   0  0  0  0  0  0  0  0  0  0  0  0  # atno 10763 bound_to 10752
  154.0700  135.2881  155.3311 H   0  0  0  0  0  0  0  0  0  0  0  0  # atno 10764 bound_to 10752
  154.6601  135.5395  153.8071 H   0  0  0  0  0  0  0  0  0  0  0  0  # atno 10765 bound_to 10752
  140.1765  134.8506  157.2752 H   0  0  0  0  0  0  0  0  0  0  0  0  # atno 11005 bound_to 11000
  145.0910  139.2890  143.5735 LP  0  0  0  0  0  0  0  0  0  0  0  0  # atno 17320 bound_to 7965
  146.3528  140.0446  142.8640 LP  0  0  0  0  0  0  0  0  0  0  0  0  # atno 17321 bound_to 7965
  139.9563  143.6215  152.3015 LP  0  0  0  0  0  0  0  0  0  0  0  0  # atno 17342 bound_to 10162
  139.6751  144.7659  151.1710 LP  0  0  0  0  0  0  0  0  0  0  0  0  # atno 17343 bound_to 10162
  156.0305  130.5396  150.8521 LP  0  0  0  0  0  0  0  0  0  0  0  0  # atno 17370 bound_to 10713
  157.5630  131.0946  150.9532 LP  0  0  0  0  0  0  0  0  0  0  0  0  # atno 17371 bound_to 10713
  140.2316  134.3902  155.7519 LP  0  0  0  0  0  0  0  0  0  0  0  0  # atno 17394 bound_to 11000
  141.2220  133.7218  156.8650 LP  0  0  0  0  0  0  0  0  0  0  0  0  # atno 17395 bound_to 11000

$$$$
