AV-unprocessed.smi:1225|AV-procd|sdf|5138|dock3
  -GOLD-   22720 4203D 1   1.00000     0.00000
 Structure written by MMmdl.
 49 51  0  0  0  0  0  0  0  0  2 V2000
  144.7105  144.6334  155.4517 C   0  0  0  0  0  0  0  0  0  0  0  0
  145.7000  143.5594  155.1537 C   0  0  0  0  0  0  0  0  0  0  0  0
  146.3179  142.8411  156.0941 N   0  0  0  0  0  0  0  0  0  0  0  0
  147.1952  141.8980  155.5537 C   0  0  0  0  0  0  0  0  0  0  0  0
  147.2369  141.8998  154.1812 C   0  0  0  0  0  0  0  0  0  0  0  0
  148.0660  141.0250  153.2950 C   0  0  0  0  0  0  0  0  0  0  0  0
  147.9227  139.5951  153.5731 N   0  0  0  0  0  0  0  0  0  0  0  0
  146.5302  139.2524  153.8623 C   0  0  0  0  0  0  0  0  0  0  0  0
  148.8152  139.1951  154.6637 C   0  0  0  0  0  0  0  0  0  0  0  0
  150.3098  139.1032  154.2976 C   0  0  2  0  0  0  0  0  0  0  0  0
  150.5604  137.8027  153.8044 O   0  0  0  0  0  0  0  0  0  0  0  0
  151.2285  139.3678  155.5080 C   0  0  0  0  0  0  0  0  0  0  0  0
  151.0478  140.7084  156.0794 N   0  0  0  0  0  0  0  0  0  0  0  0
  150.3753  141.7866  155.5930 C   0  0  0  0  0  0  0  0  0  0  0  0
  150.5083  142.7949  156.4993 N   0  3  0  0  0  0  0  0  0  0  0  0
  151.2805  142.3541  157.5767 C   0  0  0  0  0  0  0  0  0  0  0  0
  151.6891  143.0074  158.7333 C   0  0  0  0  0  0  0  0  0  0  0  0
  152.4788  142.2708  159.6454 C   0  0  0  0  0  0  0  0  0  0  0  0
  152.9420  142.9555  160.9201 C   0  0  0  0  0  0  0  0  0  0  0  0
  152.8332  140.9220  159.3815 C   0  0  0  0  0  0  0  0  0  0  0  0
  153.6822  140.1392  160.3688 C   0  0  0  0  0  0  0  0  0  0  0  0
  152.4082  140.2757  158.1988 C   0  0  0  0  0  0  0  0  0  0  0  0
  151.6307  141.0163  157.3123 C   0  0  0  0  0  0  0  0  0  0  0  0
  146.1693  143.1117  153.5185 S   0  0  0  0  0  0  0  0  0  0  0  0
  144.6521  144.8160  156.5252 H   0  0  0  0  0  0  0  0  0  0  0  0
  143.7241  144.3397  155.0925 H   0  0  0  0  0  0  0  0  0  0  0  0
  145.0035  145.5586  154.9554 H   0  0  0  0  0  0  0  0  0  0  0  0
  147.7524  141.2591  156.2228 H   0  0  0  0  0  0  0  0  0  0  0  0
  147.7733  141.2249  152.2636 H   0  0  0  0  0  0  0  0  0  0  0  0
  149.1159  141.3128  153.3691 H   0  0  0  0  0  0  0  0  0  0  0  0
  146.4018  138.1790  153.9911 H   0  0  0  0  0  0  0  0  0  0  0  0
  145.8729  139.5472  153.0443 H   0  0  0  0  0  0  0  0  0  0  0  0
  146.1827  139.7489  154.7691 H   0  0  0  0  0  0  0  0  0  0  0  0
  148.7214  139.9094  155.4831 H   0  0  0  0  0  0  0  0  0  0  0  0
  148.4809  138.2376  155.0672 H   0  0  0  0  0  0  0  0  0  0  0  0
  150.5457  139.7935  153.4888 H   0  0  0  0  0  0  0  0  0  0  0  0
  149.8695  137.5730  153.2022 H   0  0  0  0  0  0  0  0  0  0  0  0
  151.0595  138.6352  156.2983 H   0  0  0  0  0  0  0  0  0  0  0  0
  152.2759  139.2719  155.2183 H   0  0  0  0  0  0  0  0  0  0  0  0
  149.8332  141.8328  154.6591 H   0  0  0  0  0  0  0  0  0  0  0  0
  151.4156  144.0343  158.9271 H   0  0  0  0  0  0  0  0  0  0  0  0
  152.5394  142.4456  161.7955 H   0  0  0  0  0  0  0  0  0  0  0  0
  152.6120  143.9941  160.9576 H   0  0  0  0  0  0  0  0  0  0  0  0
  154.0303  142.9501  160.9854 H   0  0  0  0  0  0  0  0  0  0  0  0
  153.8414  139.1140  160.0329 H   0  0  0  0  0  0  0  0  0  0  0  0
  153.1969  140.0975  161.3441 H   0  0  0  0  0  0  0  0  0  0  0  0
  154.6599  140.6070  160.4872 H   0  0  0  0  0  0  0  0  0  0  0  0
  152.6778  139.2496  157.9958 H   0  0  0  0  0  0  0  0  0  0  0  0
  150.1026  143.7152  156.3873 H   0  0  0  0  0  0  0  0  0  0  0  0
  1  2  1  0  0  0  0
  1 25  1  0  0  0  0
  1 26  1  0  0  0  0
  1 27  1  0  0  0  0
  2 24  1  0  0  0  0
  2  3  2  0  0  0  0
  3  4  1  0  0  0  0
  4  5  2  0  0  0  0
  4 28  1  0  0  0  0
  5  6  1  0  0  0  0
  5 24  1  0  0  0  0
  6  7  1  0  0  0  0
  6 29  1  0  0  0  0
  6 30  1  0  0  0  0
  7  8  1  0  0  0  0
  7  9  1  0  0  0  0
  8 31  1  0  0  0  0
  8 32  1  0  0  0  0
  8 33  1  0  0  0  0
  9 10  1  0  0  0  0
  9 34  1  0  0  0  0
  9 35  1  0  0  0  0
 10 11  1  0  0  0  0
 10 12  1  0  0  0  0
 10 36  1  0  0  0  0
 11 37  1  0  0  0  0
 12 13  1  0  0  0  0
 12 38  1  0  0  0  0
 12 39  1  0  0  0  0
 13 23  1  0  0  0  0
 13 14  1  0  0  0  0
 14 15  2  0  0  0  0
 14 40  1  0  0  0  0
 15 16  1  0  0  0  0
 15 49  1  0  0  0  0
 16 23  2  0  0  0  0
 16 17  1  0  0  0  0
 17 18  2  0  0  0  0
 17 41  1  0  0  0  0
 18 19  1  0  0  0  0
 18 20  1  0  0  0  0
 19 42  1  0  0  0  0
 19 43  1  0  0  0  0
 19 44  1  0  0  0  0
 20 21  1  0  0  0  0
 20 22  2  0  0  0  0
 21 45  1  0  0  0  0
 21 46  1  0  0  0  0
 21 47  1  0  0  0  0
 22 23  1  0  0  0  0
 22 48  1  0  0  0  0
M  CHG  1  15   1
M  END
> <s_m_source_file>
AV-unprocessed.smi

> <i_m_source_file_index>
1225

> <i_lp_mmshare_version>
43012

> <i_f3d_flags>
0

> <s_epik_input>
W0NIM11jMW5bY0hdYyhzMSlbQ0gyXU4oW0NIM10pW0NIMl1bQ0BIXShbT0hdKVtDSDJdbihbY0hdbjIpYyhjMjMpW2NIXWMoW0NIM10pYyhbY0hdMylbQ0gzXQ==

> <s_epik_cmdline>
J2VwaWtfcHl0aG9uJywgJy1waCcsICc3LjAnLCAnLXRuJywgJzgnLCAnLW1hJywgJzIwMCcsICctbWV0YWxfYmluZGluZycsICctaW1hZScsICc8aW5maWxlLm1hZT4nLCAnLW9tYWUnLCAnPG91dGZpbGUubWFlPic=

> <r_epik_Ionization_Penalty>
1.25968

> <r_epik_Ionization_Penalty_Charging>
1.21782

> <r_epik_Ionization_Penalty_Neutral>
0.0418565

> <r_epik_State_Penalty>
1.29962

> <r_epik_Charging_Adjusted_Penalty>
2.51745

> <i_epik_Tot_Q>
1

> <i_epik_Tot_abs_Q>
1

> <r_epik_Metal_State_Penalty>
1.36802

> <b_epik_Metal_Only>
0

> <s_lp_Force_Field>
OPLS_2005

> <r_lp_Energy>
21.2232

> <b_lp_Chiralities_Consistent>
1

> <s_lp_Variant>
AV-unprocessed.smi:1225-3

> <Gold.Version>
5.8.1

> <Gold.Id.Protein>
6NUR|6NUR_protein|mol2

> <Gold.PLP.Fitness>
57.0971

> <Gold.PLP.PLP>
-49.5308

> <Gold.PLP.part.hbond>
-3.0000

> <Gold.PLP.part.metal>
0.0000

> <Gold.PLP.part.buried>
-6.7686

> <Gold.PLP.part.nonpolar>
-41.5536

> <Gold.PLP.part.repulsive>
0.3863

> <Gold.PLP.ligand.clash>
0.0000

> <Gold.PLP.ligand.torsion>
0.8600

> <Gold.PLP.Chemscore.Hbond>
2.9425

> <Gold.PLP.Chemscore.CHOScore>
0.0000

> <Gold.PLP.Chemscore.Metal>
0.0000

> <Gold.Chemscore.Hbonds>
donor molecule, donor type, donor heavy atom, donor atom, acceptor molecule, acceptor atom, score
      L1  H    11    37       P1  7948  0.93
      L1  H    15    49       P1  8028  1.98

> <Gold.PLP.Chemscore.Internal.Correction>
0.4588

> <Gold.Rescore>
     Score         DG    S(hbond)    S(metal)    S(lipo)     H(rot)  DE(clash)    DE(int)     intcor
     18.30     -19.27       1.74        0.00     120.07       2.36       0.05       0.93       ----

> <Gold.Chemscore.Fitness>
18.2973

> <Gold.Chemscore.DG>
-19.2733

> <Gold.Chemscore.ZeroCoef>
-5.4800

> <Gold.Chemscore.Hbond>
1.7364

> <Gold.Chemscore.Metal>
0.0000

> <Gold.Chemscore.Lipo>
120.0669

> <Gold.Chemscore.Internal_Hbond>
0.0000

> <Gold.Chemscore.DEClash>
0.0504

> <Gold.Chemscore.DEInternal>
0.9257

> <Gold.Chemscore.Rot>
2.3649

> <Gold.Chemscore.Internal.Correction>
   9.000000E+99

> <Gold.Chemscore.Hbonds>
donor molecule, donor type, donor heavy atom, donor atom, acceptor molecule, acceptor atom, score
      L1  H    11    37       P1  7948  0.42
      L1  H    15    49       P1  8028  0.94

> <Gold.Chemscore.Hbond.Weighted>
-5.7995

> <Gold.Chemscore.Metal.Weighted>
-0.0000

> <Gold.Chemscore.Lipo.Weighted>
-14.0478

> <Gold.Chemscore.Internal_Hbond.Weighted>
0.0000

> <Gold.Chemscore.DEClash.Weighted>
0.0504

> <Gold.Chemscore.DEInternal.Weighted>
0.9257

> <Gold.Chemscore.Rot.Weighted>
6.0540

> <Gold.Chemscore.Internal.Correction.Weighted>
   9.000000E+99

> <Gold.Protein.RotatedTorsions>
[ 6907 6896 6895 6894 ] final  177.48 input  -60.11 | X-H torsion
[ 7974 7965 7964 7962 ] final -146.31 input  175.53 | X-H torsion
[ 8008 7997 7996 7995 ] final   92.04 input   59.86 | X-H torsion
[ 10167 10162 10161 10158 ] final  171.92 input  -65.29 | X-H torsion
[ 10718 10713 10712 10709 ] final  -43.94 input   66.30 | X-H torsion
[ 10763 10752 10751 10750 ] final -112.57 input  -60.55 | X-H torsion
[ 11005 11000 10999 10996 ] final -156.46 input  -57.11 | X-H torsion

> <Gold.Protein.ActiveResidues>
 VAL166  LYS551  ARG553  GLY616  TRP617  ASP618  TYR619  PRO620  LYS621  CYS622 
 ASP623  PHE694  ASN695  SER759  ASP760  ASP761  ALA762  ILE779  LEU786  VAL792 
 PHE793  MET794  SER795  GLU796  ALA797  LYS798  CYS799  TRP800  GLU811  SER814 

> <Gold.Protein.RotatedAtoms>
  151.7034  133.3311  159.3272 H   0  0  0  0  0  0  0  0  0  0  0  0  # atno 6907 bound_to 6896
  150.7726  134.6596  159.6341 H   0  0  0  0  0  0  0  0  0  0  0  0  # atno 6908 bound_to 6896
  152.3756  134.6672  160.0213 H   0  0  0  0  0  0  0  0  0  0  0  0  # atno 6909 bound_to 6896
  144.8168  140.5472  143.5605 H   0  0  0  0  0  0  0  0  0  0  0  0  # atno 7974 bound_to 7965
  156.0308  140.3330  155.7138 H   0  0  0  0  0  0  0  0  0  0  0  0  # atno 8008 bound_to 7997
  155.5887  140.0644  157.2782 H   0  0  0  0  0  0  0  0  0  0  0  0  # atno 8009 bound_to 7997
  154.4352  140.1831  156.1040 H   0  0  0  0  0  0  0  0  0  0  0  0  # atno 8010 bound_to 7997
  139.5061  144.3431  151.9998 H   0  0  0  0  0  0  0  0  0  0  0  0  # atno 10167 bound_to 10162
  156.2437  130.4182  149.8730 H   0  0  0  0  0  0  0  0  0  0  0  0  # atno 10718 bound_to 10713
  154.8356  135.4486  154.1214 H   0  0  0  0  0  0  0  0  0  0  0  0  # atno 10763 bound_to 10752
  153.2449  135.6920  153.7749 H   0  0  0  0  0  0  0  0  0  0  0  0  # atno 10764 bound_to 10752
  153.7083  135.3361  155.3216 H   0  0  0  0  0  0  0  0  0  0  0  0  # atno 10765 bound_to 10752
  140.6753  134.4203  157.5229 H   0  0  0  0  0  0  0  0  0  0  0  0  # atno 11005 bound_to 11000
  145.5196  139.1477  143.3560 LP  0  0  0  0  0  0  0  0  0  0  0  0  # atno 17320 bound_to 7965
  146.2472  140.5337  142.8909 LP  0  0  0  0  0  0  0  0  0  0  0  0  # atno 17321 bound_to 7965
  140.2869  144.3797  150.6101 LP  0  0  0  0  0  0  0  0  0  0  0  0  # atno 17342 bound_to 10162
  140.5976  143.2167  151.7134 LP  0  0  0  0  0  0  0  0  0  0  0  0  # atno 17343 bound_to 10162
  156.6303  130.8663  151.3494 LP  0  0  0  0  0  0  0  0  0  0  0  0  # atno 17370 bound_to 10713
  157.7186  130.9529  150.1350 LP  0  0  0  0  0  0  0  0  0  0  0  0  # atno 17371 bound_to 10713
  139.8968  134.8650  156.2069 LP  0  0  0  0  0  0  0  0  0  0  0  0  # atno 17394 bound_to 11000
  141.0360  133.6963  156.1513 LP  0  0  0  0  0  0  0  0  0  0  0  0  # atno 17395 bound_to 11000

$$$$
