#       Name:                AV-unprocessed.smi:193
#       Creating user name   scv26
#       Creation time:       Thu Mar 26 19:33:09 2020


#       File generated by GOLD software.
#

@<TRIPOS>MOLECULE
AV-unprocessed.smi:193
    70    74     1
SMALL
NO_CHARGES


@<TRIPOS>ATOM
      1 ****        -3.5321  -4.2160   0.3438 C.3            1 S1                 0.0000
      2 ****        -3.2958  -2.8397  -0.2967 C.3            1 S1                 0.0000
      3 ****        -1.8791  -2.3250   0.0234 C.3            1 S1                 0.0000
      4 ****        -1.3667  -1.4541  -1.0328 N.3            1 S1                 0.0000
      5 ****        -0.0184  -1.4330  -1.0800 C.ar           1 S1                 0.0000
      6 ****         0.5792  -2.0015  -2.1551 N.ar           1 S1                 0.0000
      7 ****         1.9131  -2.0103  -2.2470 C.ar           1 S1                 0.0000
      8 ****         2.8126  -1.5138  -1.3940 N.ar           1 S1                 0.0000
      9 ****         2.2099  -0.9401  -0.3128 C.ar           1 S1                 0.0000
     10 ****         0.8097  -0.8574  -0.0768 C.ar           1 S1                 0.0000
     11 ****         0.5656  -0.2067   1.1264 N.2            1 S1                 0.0000
     12 ****         1.7570   0.0824   1.5756 C.2            1 S1                 0.0000
     13 ****         2.8015  -0.3163   0.7716 N.pl3          1 S1                 0.0000
     14 ****         4.2209  -0.1207   1.0264 C.3            1 S1                 0.0000
     15 ****         4.7557   1.2594   0.5698 C.3            1 S1                 0.0000
     16 ****         4.1056   2.2505   1.3470 O.3            1 S1                 0.0000
     17 ****         6.2736   1.3614   0.8229 C.3            1 S1                 0.0000
     18 ****         6.8763   2.6476   0.2295 C.3            1 S1                 0.0000
     19 ****         6.5767   2.7304  -1.1583 O.3            1 S1                 0.0000
     20 ****         5.1806   2.8166  -1.4152 C.3            1 S1                 0.0000
     21 ****         4.4709   1.5434  -0.9214 C.3            1 S1                 0.0000
     22 ****        -1.9452  -0.1265  -1.2165 C.3            1 S1                 0.0000
     23 ****        -3.4690  -0.1397  -1.4108 C.3            1 S1                 0.0000
     24 ****        -4.1524  -0.4263  -0.1266 N.4            1 S1                 1.0000
     25 ****        -5.3673   0.4009   0.0629 C.3            1 S1                 0.0000
     26 ****        -5.7225   0.6496   1.5117 C.3            1 S1                 0.0000
     27 ****        -5.1265   1.7662   0.6821 C.3            1 S1                 0.0000
     28 ****        -3.7445   2.3042   1.0058 C.3            1 S1                 0.0000
     29 ****        -4.4210  -1.8664   0.1276 C.3            1 S1                 0.0000
     30 ****        -3.4599  -4.1669   1.4307 H              1 S1                 0.0000
     31 ****        -2.7986  -4.9438  -0.0050 H              1 S1                 0.0000
     32 ****        -4.5200  -4.6032   0.0919 H              1 S1                 0.0000
     33 ****        -3.3600  -2.9951  -1.3749 H              1 S1                 0.0000
     34 ****        -1.8637  -1.8094   0.9846 H              1 S1                 0.0000
     35 ****        -1.2047  -3.1780   0.1213 H              1 S1                 0.0000
     36 ****         2.3182  -2.4833  -3.1296 H              1 S1                 0.0000
     37 ****         1.9094   0.6035   2.5098 H              1 S1                 0.0000
     38 ****         4.3986  -0.2630   2.0934 H              1 S1                 0.0000
     39 ****         4.7675  -0.9181   0.5211 H              1 S1                 0.0000
     40 ****         4.4344   3.0976   1.0873 H              1 S1                 0.0000
     41 ****         6.4894   1.3053   1.8908 H              1 S1                 0.0000
     42 ****         6.7735   0.5061   0.3663 H              1 S1                 0.0000
     43 ****         6.5049   3.5331   0.7475 H              1 S1                 0.0000
     44 ****         7.9593   2.6425   0.3536 H              1 S1                 0.0000
     45 ****         4.7663   3.7070  -0.9399 H              1 S1                 0.0000
     46 ****         5.0284   2.9338  -2.4882 H              1 S1                 0.0000
     47 ****         4.8182   0.7002  -1.5197 H              1 S1                 0.0000
     48 ****         3.3992   1.6285  -1.1046 H              1 S1                 0.0000
     49 ****        -1.6836   0.5139  -0.3735 H              1 S1                 0.0000
     50 ****        -1.4885   0.3249  -2.0989 H              1 S1                 0.0000
     51 ****        -3.7576   0.8559  -1.7511 H              1 S1                 0.0000
     52 ****        -3.7821  -0.8247  -2.1997 H              1 S1                 0.0000
     53 ****        -6.1575   0.2590  -0.6724 H              1 S1                 0.0000
     54 ****        -6.7780   0.7288   1.7643 H              1 S1                 0.0000
     55 ****        -5.0956   0.2041   2.2823 H              1 S1                 0.0000
     56 ****        -5.8203   2.5429   0.3658 H              1 S1                 0.0000
     57 ****        -3.1078   1.5320   1.4386 H              1 S1                 0.0000
     58 ****        -3.8235   3.1203   1.7243 H              1 S1                 0.0000
     59 ****        -3.2686   2.6856   0.1022 H              1 S1                 0.0000
     60 ****        -5.3415  -2.1545  -0.3826 H              1 S1                 0.0000
     61 ****        -4.6160  -1.9772   1.1950 H              1 S1                 0.0000
     62 ****        -3.5054  -0.1292   0.5898 H              1 S1                 0.0000
     63 ****        -1.7282  -1.9256  -1.8372 LP             1 S1                 0.0000
     64 ****         0.0241  -2.4133  -2.8778 LP             1 S1                 0.0000
     65 ****         3.8023  -1.5570  -1.5304 LP             1 S1                 0.0000
     66 ****        -0.3178  -0.0062   1.5500 LP             1 S1                 0.0000
     67 ****         4.2957   2.0975   2.3167 LP             1 S1                 0.0000
     68 ****         3.1188   2.2089   1.1902 LP             1 S1                 0.0000
     69 ****         6.9355   1.9148  -1.6121 LP             1 S1                 0.0000
     70 ****         7.0216   3.5436  -1.5336 LP             1 S1                 0.0000
@<TRIPOS>BOND
    1    1    2 1     
    2    1   30 1     
    3    1   31 1     
    4    1   32 1     
    5    2   29 1     
    6    2    3 1     
    7    2   33 1     
    8    3    4 1     
    9    3   34 1     
   10    3   35 1     
   11    4    5 1     
   12    4   22 1     
   13    5   10 ar    
   14    5    6 ar    
   15    6    7 ar    
   16    7    8 ar    
   17    7   36 1     
   18    8    9 ar    
   19    9   13 1     
   20    9   10 ar    
   21   10   11 1     
   22   11   12 2     
   23   12   13 1     
   24   12   37 1     
   25   13   14 1     
   26   14   15 1     
   27   14   38 1     
   28   14   39 1     
   29   15   21 1     
   30   15   16 1     
   31   15   17 1     
   32   16   40 1     
   33   17   18 1     
   34   17   41 1     
   35   17   42 1     
   36   18   19 1     
   37   18   43 1     
   38   18   44 1     
   39   19   20 1     
   40   20   21 1     
   41   20   45 1     
   42   20   46 1     
   43   21   47 1     
   44   21   48 1     
   45   22   23 1     
   46   22   49 1     
   47   22   50 1     
   48   23   24 1     
   49   23   51 1     
   50   23   52 1     
   51   24   25 1     
   52   24   29 1     
   53   24   62 1     
   54   25   27 1     
   55   25   26 1     
   56   25   53 1     
   57   26   27 1     
   58   26   54 1     
   59   26   55 1     
   60   27   28 1     
   61   27   56 1     
   62   28   57 1     
   63   28   58 1     
   64   28   59 1     
   65   29   60 1     
   66   29   61 1     
   67    4   63 1     
   68    6   64 1     
   69    8   65 1     
   70   11   66 1     
   71   16   67 1     
   72   16   68 1     
   73   19   69 1     
   74   19   70 1     
@<TRIPOS>SUBSTRUCTURE
      1 S1             1
@<TRIPOS>SET
LONE_PAIRS      STATIC     ATOMS    <user>   **** ""
8 63 64 65 66 67 68 69 70
DONOR_HYDROGENS      STATIC     ATOMS    <user>   **** ""
2 40 62
ATOM$BLUE        STATIC     ATOMS    COLORGROUP SYSTEM
8 63 64 65 66 67 68 69 70
ATOM$RED        STATIC     ATOMS    COLORGROUP SYSTEM
2 40 62
