AV-unprocessed.smi:3303|AV-procd|sdf|12672|dock2
  -GOLD-   2272019 03D 1   1.00000     0.00000
 Structure written by MMmdl.
 45 46  0  0  0  0  0  0  0  0  3 V2000
  152.5206  138.5428  154.8582 C   0  0  0  0  0  0  0  0  0  0  0  0
  151.0972  138.0369  154.5629 C   0  0  1  0  0  0  0  0  0  0  0  0
  151.0290  136.5074  154.7502 C   0  0  0  0  0  0  0  0  0  0  0  0
  149.6760  135.9630  154.4638 N   0  3  1  0  0  0  0  0  0  0  0  0
  149.6822  134.4804  154.5095 C   0  0  0  0  0  0  0  0  0  0  0  0
  148.6288  136.5940  155.3216 C   0  0  2  0  0  0  0  0  0  0  0  0
  147.2137  136.0629  155.0201 C   0  0  0  0  0  0  0  0  0  0  0  0
  148.6534  138.1267  155.1479 C   0  0  0  0  0  0  0  0  0  0  0  0
  150.0361  138.7277  155.4454 C   0  0  2  0  0  0  0  0  0  0  0  0
  150.0049  140.1872  155.1952 N   0  3  0  0  0  0  0  0  0  0  0  0
  150.9947  140.9684  155.9633 C   0  0  0  0  0  0  0  0  0  0  0  0
  150.3021  141.8803  156.9848 C   0  0  0  0  0  0  0  0  0  0  0  0
  151.2799  142.4661  157.9848 C   0  0  0  0  0  0  0  0  0  0  0  0
  151.5520  143.8506  158.0013 C   0  0  0  0  0  0  0  0  0  0  0  0
  152.4762  144.3404  158.9445 C   0  0  0  0  0  0  0  0  0  0  0  0
  153.0883  143.4318  159.8291 C   0  0  0  0  0  0  0  0  0  0  0  0
  152.7492  142.0677  159.7305 C   0  0  0  0  0  0  0  0  0  0  0  0
  151.8666  141.5870  158.8276 N   0  0  0  0  0  0  0  0  0  0  0  0
  152.7941  138.3754  155.9005 H   0  0  0  0  0  0  0  0  0  0  0  0
  152.6197  139.6095  154.6562 H   0  0  0  0  0  0  0  0  0  0  0  0
  153.2555  138.0295  154.2371 H   0  0  0  0  0  0  0  0  0  0  0  0
  150.8756  138.2570  153.5170 H   0  0  0  0  0  0  0  0  0  0  0  0
  151.7529  136.0337  154.0853 H   0  0  0  0  0  0  0  0  0  0  0  0
  151.3169  136.2385  155.7681 H   0  0  0  0  0  0  0  0  0  0  0  0
  149.7962  134.1200  155.5326 H   0  0  0  0  0  0  0  0  0  0  0  0
  150.5037  134.0777  153.9158 H   0  0  0  0  0  0  0  0  0  0  0  0
  148.7658  134.0625  154.0940 H   0  0  0  0  0  0  0  0  0  0  0  0
  148.8603  136.3616  156.3628 H   0  0  0  0  0  0  0  0  0  0  0  0
  146.4629  136.6110  155.5899 H   0  0  0  0  0  0  0  0  0  0  0  0
  147.1028  135.0137  155.2935 H   0  0  0  0  0  0  0  0  0  0  0  0
  146.9644  136.1665  153.9636 H   0  0  0  0  0  0  0  0  0  0  0  0
  148.3544  138.3805  154.1292 H   0  0  0  0  0  0  0  0  0  0  0  0
  147.9123  138.5822  155.8065 H   0  0  0  0  0  0  0  0  0  0  0  0
  150.2731  138.5388  156.4944 H   0  0  0  0  0  0  0  0  0  0  0  0
  150.1718  140.3447  154.2113 H   0  0  0  0  0  0  0  0  0  0  0  0
  151.6749  140.2823  156.4699 H   0  0  0  0  0  0  0  0  0  0  0  0
  151.5918  141.5698  155.2764 H   0  0  0  0  0  0  0  0  0  0  0  0
  149.7864  142.6930  156.4714 H   0  0  0  0  0  0  0  0  0  0  0  0
  149.5352  141.3237  157.5261 H   0  0  0  0  0  0  0  0  0  0  0  0
  151.0674  144.5236  157.3092 H   0  0  0  0  0  0  0  0  0  0  0  0
  152.7122  145.3935  158.9877 H   0  0  0  0  0  0  0  0  0  0  0  0
  153.8014  143.7720  160.5653 H   0  0  0  0  0  0  0  0  0  0  0  0
  153.1999  141.3433  160.3925 H   0  0  0  0  0  0  0  0  0  0  0  0
  149.0832  140.5335  155.4218 H   0  0  0  0  0  0  0  0  0  0  0  0
  149.4617  136.2146  153.5091 H   0  0  0  0  0  0  0  0  0  0  0  0
  1  2  1  0  0  0  0
  1 19  1  0  0  0  0
  1 20  1  0  0  0  0
  1 21  1  0  0  0  0
  2  9  1  0  0  0  0
  2  3  1  0  0  0  0
  2 22  1  0  0  0  0
  3  4  1  0  0  0  0
  3 23  1  0  0  0  0
  3 24  1  0  0  0  0
  4  5  1  0  0  0  0
  4  6  1  0  0  0  0
  4 45  1  0  0  0  0
  5 25  1  0  0  0  0
  5 26  1  0  0  0  0
  5 27  1  0  0  0  0
  6  7  1  0  0  0  0
  6  8  1  0  0  0  0
  6 28  1  0  0  0  0
  7 29  1  0  0  0  0
  7 30  1  0  0  0  0
  7 31  1  0  0  0  0
  8  9  1  0  0  0  0
  8 32  1  0  0  0  0
  8 33  1  0  0  0  0
  9 10  1  0  0  0  0
  9 34  1  0  0  0  0
 10 11  1  0  0  0  0
 10 35  1  0  0  0  0
 10 44  1  0  0  0  0
 11 12  1  0  0  0  0
 11 36  1  0  0  0  0
 11 37  1  0  0  0  0
 12 13  1  0  0  0  0
 12 38  1  0  0  0  0
 12 39  1  0  0  0  0
 13 18  1  0  0  0  0
 13 14  2  0  0  0  0
 14 15  1  0  0  0  0
 14 40  1  0  0  0  0
 15 16  2  0  0  0  0
 15 41  1  0  0  0  0
 16 17  1  0  0  0  0
 16 42  1  0  0  0  0
 17 18  2  0  0  0  0
 17 43  1  0  0  0  0
M  CHG  1   4   1
M  CHG  1  10   1
M  END
> <s_m_source_file>
AV-unprocessed.smi

> <i_m_source_file_index>
3303

> <i_lp_mmshare_version>
43012

> <i_f3d_flags>
0

> <s_epik_input>
W0NIM11bQ0BASF0xW0NIMl1OKFtDSDNdKVtDQEBIXShbQ0gzXSlbQ0gyXVtDQEhdMVtOSF1bQ0gyXVtDSDJdYzJbY0hdW2NIXVtjSF1bY0hdbjI=

> <s_epik_cmdline>
J2VwaWtfcHl0aG9uJywgJy1waCcsICc3LjAnLCAnLXRuJywgJzgnLCAnLW1hJywgJzIwMCcsICctbWV0YWxfYmluZGluZycsICctaW1hZScsICc8aW5maWxlLm1hZT4nLCAnLW9tYWUnLCAnPG91dGZpbGUubWFlPic=

> <r_epik_Ionization_Penalty>
0.0769462

> <r_epik_Ionization_Penalty_Charging>
0.0759813

> <r_epik_Ionization_Penalty_Neutral>
0.000964829

> <r_epik_State_Penalty>
0.0654373

> <r_epik_Charging_Adjusted_Penalty>
0.141419

> <i_epik_Tot_Q>
2

> <i_epik_Tot_abs_Q>
2

> <r_epik_Metal_State_Penalty>
0.0656439

> <b_epik_Metal_Only>
0

> <s_lp_Force_Field>
OPLS_2005

> <r_lp_Energy>
29.1913

> <b_lp_Chiralities_Consistent>
1

> <s_lp_Variant>
AV-unprocessed.smi:3303-16

> <Gold.Version>
5.8.1

> <Gold.Id.Protein>
6NUR|6NUR_protein|mol2

> <Gold.PLP.Fitness>
42.5122

> <Gold.PLP.PLP>
-37.9478

> <Gold.PLP.part.hbond>
-1.0000

> <Gold.PLP.part.metal>
0.0000

> <Gold.PLP.part.buried>
-1.9480

> <Gold.PLP.part.nonpolar>
-34.5271

> <Gold.PLP.part.repulsive>
0.1678

> <Gold.PLP.ligand.clash>
0.0000

> <Gold.PLP.ligand.torsion>
0.7308

> <Gold.PLP.Chemscore.Hbond>
2.0000

> <Gold.PLP.Chemscore.CHOScore>
0.0000

> <Gold.PLP.Chemscore.Metal>
0.0000

> <Gold.Chemscore.Hbonds>
donor molecule, donor type, donor heavy atom, donor atom, acceptor molecule, acceptor atom, score
      L1  H     4    45       P1  7948  2.00

> <Gold.PLP.Chemscore.Internal.Correction>
0.0261

> <Gold.Rescore>
     Score         DG    S(hbond)    S(metal)    S(lipo)     H(rot)  DE(clash)    DE(int)     intcor
     17.62     -18.40       0.95        0.00     113.31       1.37       0.08       0.69       ----

> <Gold.Chemscore.Fitness>
17.6244

> <Gold.Chemscore.DG>
-18.3975

> <Gold.Chemscore.ZeroCoef>
-5.4800

> <Gold.Chemscore.Hbond>
0.9516

> <Gold.Chemscore.Metal>
0.0000

> <Gold.Chemscore.Lipo>
113.3125

> <Gold.Chemscore.Internal_Hbond>
0.0000

> <Gold.Chemscore.DEClash>
0.0833

> <Gold.Chemscore.DEInternal>
0.6898

> <Gold.Chemscore.Rot>
1.3744

> <Gold.Chemscore.Internal.Correction>
   9.000000E+99

> <Gold.Chemscore.Hbonds>
donor molecule, donor type, donor heavy atom, donor atom, acceptor molecule, acceptor atom, score
      L1  H     4    45       P1  7948  0.60

> <Gold.Chemscore.Hbond.Weighted>
-3.1784

> <Gold.Chemscore.Metal.Weighted>
-0.0000

> <Gold.Chemscore.Lipo.Weighted>
-13.2576

> <Gold.Chemscore.Internal_Hbond.Weighted>
0.0000

> <Gold.Chemscore.DEClash.Weighted>
0.0833

> <Gold.Chemscore.DEInternal.Weighted>
0.6898

> <Gold.Chemscore.Rot.Weighted>
3.5185

> <Gold.Chemscore.Internal.Correction.Weighted>
   9.000000E+99

> <Gold.Protein.RotatedTorsions>
[ 6907 6896 6895 6894 ] final   98.66 input  -60.11 | X-H torsion
[ 7974 7965 7964 7962 ] final  114.25 input  175.53 | X-H torsion
[ 8008 7997 7996 7995 ] final  146.48 input   59.86 | X-H torsion
[ 10167 10162 10161 10158 ] final   93.85 input  -65.29 | X-H torsion
[ 10718 10713 10712 10709 ] final  -45.12 input   66.30 | X-H torsion
[ 10763 10752 10751 10750 ] final  134.13 input  -60.55 | X-H torsion
[ 11005 11000 10999 10996 ] final  -34.48 input  -57.11 | X-H torsion

> <Gold.Protein.ActiveResidues>
 VAL166  LYS551  ARG553  GLY616  TRP617  ASP618  TYR619  PRO620  LYS621  CYS622 
 ASP623  PHE694  ASN695  SER759  ASP760  ASP761  ALA762  ILE779  LEU786  VAL792 
 PHE793  MET794  SER795  GLU796  ALA797  LYS798  CYS799  TRP800  GLU811  SER814 

> <Gold.Protein.RotatedAtoms>
  152.5405  134.0546  159.8124 H   0  0  0  0  0  0  0  0  0  0  0  0  # atno 6907 bound_to 6896
  151.0683  133.5480  159.2636 H   0  0  0  0  0  0  0  0  0  0  0  0  # atno 6908 bound_to 6896
  151.2352  135.0577  159.9057 H   0  0  0  0  0  0  0  0  0  0  0  0  # atno 6909 bound_to 6896
  145.2068  139.2925  143.4289 H   0  0  0  0  0  0  0  0  0  0  0  0  # atno 7974 bound_to 7965
  156.2854  140.2181  156.5383 H   0  0  0  0  0  0  0  0  0  0  0  0  # atno 8008 bound_to 7997
  154.7391  140.0489  157.0817 H   0  0  0  0  0  0  0  0  0  0  0  0  # atno 8009 bound_to 7997
  155.0254  140.3129  155.4781 H   0  0  0  0  0  0  0  0  0  0  0  0  # atno 8010 bound_to 7997
  139.8140  144.6761  150.9603 H   0  0  0  0  0  0  0  0  0  0  0  0  # atno 10167 bound_to 10162
  156.2316  130.4173  149.8868 H   0  0  0  0  0  0  0  0  0  0  0  0  # atno 10718 bound_to 10713
  153.8185  135.3119  155.3408 H   0  0  0  0  0  0  0  0  0  0  0  0  # atno 10763 bound_to 10752
  154.8022  135.4719  154.0307 H   0  0  0  0  0  0  0  0  0  0  0  0  # atno 10764 bound_to 10752
  153.1708  135.6877  153.8700 H   0  0  0  0  0  0  0  0  0  0  0  0  # atno 10765 bound_to 10752
  140.9720  133.7104  156.1539 H   0  0  0  0  0  0  0  0  0  0  0  0  # atno 11005 bound_to 11000
  146.3406  140.2331  142.8594 LP  0  0  0  0  0  0  0  0  0  0  0  0  # atno 17320 bound_to 7965
  144.9894  140.8533  143.5348 LP  0  0  0  0  0  0  0  0  0  0  0  0  # atno 17321 bound_to 7965
  140.7816  143.4156  151.0922 LP  0  0  0  0  0  0  0  0  0  0  0  0  # atno 17342 bound_to 10162
  139.7821  143.8340  152.3139 LP  0  0  0  0  0  0  0  0  0  0  0  0  # atno 17343 bound_to 10162
  156.6481  130.8732  151.3526 LP  0  0  0  0  0  0  0  0  0  0  0  0  # atno 17370 bound_to 10713
  157.7135  130.9469  150.1173 LP  0  0  0  0  0  0  0  0  0  0  0  0  # atno 17371 bound_to 10713
  140.7315  134.4249  157.5565 LP  0  0  0  0  0  0  0  0  0  0  0  0  # atno 17394 bound_to 11000
  139.8916  134.8776  156.2313 LP  0  0  0  0  0  0  0  0  0  0  0  0  # atno 17395 bound_to 11000

$$$$
