AV-unprocessed.smi:2748|AV-procd|sdf|10582|dock1
  -GOLD-   2272015 33D 1   1.00000     0.00000
 Structure written by MMmdl.
 30 32  0  0  0  0  0  0  0  0  1 V2000
  146.8534  139.6579  152.3355 O   0  0  0  0  0  0  0  0  0  0  0  0
  147.7708  139.8980  153.1182 C   0  0  0  0  0  0  0  0  0  0  0  0
  148.7650  138.9402  153.3395 N   0  0  0  0  0  0  0  0  0  0  0  0
  149.8565  139.0856  154.1963 C   0  0  0  0  0  0  0  0  0  0  0  0
  150.6666  138.1669  154.3203 O   0  0  0  0  0  0  0  0  0  0  0  0
  149.9622  140.3132  154.8895 N   0  0  0  0  0  0  0  0  0  0  0  0
  151.0699  140.4837  155.7969 C   0  0  0  0  0  0  0  0  0  0  0  0
  150.6252  140.8415  157.2284 C   0  0  1  0  0  0  0  0  0  0  0  0
  151.6450  140.3774  158.3025 C   0  0  0  0  0  0  0  0  0  0  0  0
  152.0174  141.6664  158.9467 C   0  0  0  0  0  0  0  0  0  0  0  0
  152.9191  141.8864  160.0019 C   0  0  0  0  0  0  0  0  0  0  0  0
  153.1104  143.2158  160.4392 C   0  0  0  0  0  0  0  0  0  0  0  0
  152.4088  144.2808  159.8241 C   0  0  0  0  0  0  0  0  0  0  0  0
  151.5080  144.0300  158.7644 C   0  0  0  0  0  0  0  0  0  0  0  0
  151.3284  142.7016  158.3403 C   0  0  0  0  0  0  0  0  0  0  0  0
  150.5018  142.2730  157.3409 O   0  0  0  0  0  0  0  0  0  0  0  0
  148.9933  141.2882  154.7089 C   0  0  0  0  0  0  0  0  0  0  0  0
  147.9345  141.1373  153.8771 C   0  0  0  0  0  0  0  0  0  0  0  0
  146.7664  142.3983  153.7061 Cl  0  0  0  0  0  0  0  0  0  0  0  0
  148.6836  138.0668  152.8397 H   0  0  0  0  0  0  0  0  0  0  0  0
  151.6664  139.5696  155.7607 H   0  0  0  0  0  0  0  0  0  0  0  0
  151.6960  141.2712  155.3737 H   0  0  0  0  0  0  0  0  0  0  0  0
  149.6519  140.3998  157.4466 H   0  0  0  0  0  0  0  0  0  0  0  0
  151.1927  139.7018  159.0291 H   0  0  0  0  0  0  0  0  0  0  0  0
  152.5258  139.8991  157.8729 H   0  0  0  0  0  0  0  0  0  0  0  0
  153.4493  141.0661  160.4629 H   0  0  0  0  0  0  0  0  0  0  0  0
  153.7965  143.4212  161.2477 H   0  0  0  0  0  0  0  0  0  0  0  0
  152.5630  145.2930  160.1680 H   0  0  0  0  0  0  0  0  0  0  0  0
  150.9702  144.8388  158.2924 H   0  0  0  0  0  0  0  0  0  0  0  0
  149.0809  142.2140  155.2597 H   0  0  0  0  0  0  0  0  0  0  0  0
  1  2  2  0  0  0  0
  2 18  1  0  0  0  0
  2  3  1  0  0  0  0
  3 20  1  0  0  0  0
  3  4  1  0  0  0  0
  4  5  2  0  0  0  0
  4  6  1  0  0  0  0
  6  7  1  0  0  0  0
  6 17  1  0  0  0  0
  7  8  1  0  0  0  0
  7 21  1  0  0  0  0
  7 22  1  0  0  0  0
  8 16  1  0  0  0  0
  8  9  1  0  0  0  0
  8 23  1  0  0  0  0
  9 10  1  0  0  0  0
  9 24  1  0  0  0  0
  9 25  1  0  0  0  0
 10 15  2  0  0  0  0
 10 11  1  0  0  0  0
 11 12  2  0  0  0  0
 11 26  1  0  0  0  0
 12 13  1  0  0  0  0
 12 27  1  0  0  0  0
 13 14  2  0  0  0  0
 13 28  1  0  0  0  0
 14 15  1  0  0  0  0
 14 29  1  0  0  0  0
 15 16  1  0  0  0  0
 17 18  2  0  0  0  0
 17 30  1  0  0  0  0
 18 19  1  0  0  0  0
M  END
> <s_m_source_file>
AV-unprocessed.smi

> <i_m_source_file_index>
2748

> <i_lp_mmshare_version>
43012

> <i_f3d_flags>
0

> <s_epik_input>
Tz1jMVtuSF1jKD1PKW4oW2NIXWMxQ2wpW0NIMl1bQ0BIXShbQ0gyXTIpT2MoYzIzKVtjSF1bY0hdW2NIXVtjSF0z

> <s_epik_cmdline>
J2VwaWtfcHl0aG9uJywgJy1waCcsICc3LjAnLCAnLXRuJywgJzgnLCAnLW1hJywgJzIwMCcsICctbWV0YWxfYmluZGluZycsICctaW1hZScsICc8aW5maWxlLm1hZT4nLCAnLW9tYWUnLCAnPG91dGZpbGUubWFlPic=

> <r_lp_tautomer_probability>
0.999537

> <r_epik_Ionization_Penalty>
0.0203523

> <r_epik_Ionization_Penalty_Charging>
0.0203523

> <r_epik_Ionization_Penalty_Neutral>
0

> <r_epik_State_Penalty>
0.0163078

> <r_epik_Charging_Adjusted_Penalty>
0.0366602

> <i_epik_Tot_Q>
0

> <i_epik_Tot_abs_Q>
0

> <r_epik_Metal_State_Penalty>
1.99317

> <b_epik_Metal_Only>
0

> <s_lp_Force_Field>
OPLS_2005

> <r_lp_Energy>
20.6728

> <b_lp_Chiralities_Consistent>
1

> <s_lp_Variant>
AV-unprocessed.smi:2748-2

> <Gold.Version>
5.8.1

> <Gold.Id.Protein>
6NUR|6NUR_protein|mol2

> <Gold.PLP.Fitness>
48.0413

> <Gold.PLP.PLP>
-42.8745

> <Gold.PLP.part.hbond>
-1.9485

> <Gold.PLP.part.metal>
0.0000

> <Gold.PLP.part.buried>
-2.7064

> <Gold.PLP.part.nonpolar>
-38.7516

> <Gold.PLP.part.repulsive>
0.9829

> <Gold.PLP.ligand.clash>
0.0000

> <Gold.PLP.ligand.torsion>
0.3558

> <Gold.PLP.Chemscore.Hbond>
0.9588

> <Gold.PLP.Chemscore.CHOScore>
1.0000

> <Gold.PLP.Chemscore.Metal>
0.0000

> <Gold.Chemscore.Hbonds>
donor molecule, donor type, donor heavy atom, donor atom, acceptor molecule, acceptor atom, score
      L1  H     3    20       P1  7948  0.89
      L1  C    17    30       P1  8028  0.98

> <Gold.PLP.Chemscore.Internal.Correction>
0.0021

> <Gold.Rescore>
     Score         DG    S(hbond)    S(metal)    S(lipo)     H(rot)  DE(clash)    DE(int)     intcor
     17.14     -17.87       0.98        0.00     106.67       1.31       0.35       0.38       ----

> <Gold.Chemscore.Fitness>
17.1416

> <Gold.Chemscore.DG>
-17.8711

> <Gold.Chemscore.ZeroCoef>
-5.4800

> <Gold.Chemscore.Hbond>
0.9796

> <Gold.Chemscore.Metal>
0.0000

> <Gold.Chemscore.Lipo>
106.6681

> <Gold.Chemscore.Internal_Hbond>
0.0000

> <Gold.Chemscore.DEClash>
0.3490

> <Gold.Chemscore.DEInternal>
0.3805

> <Gold.Chemscore.Rot>
1.3129

> <Gold.Chemscore.Internal.Correction>
   9.000000E+99

> <Gold.Chemscore.Hbonds>
donor molecule, donor type, donor heavy atom, donor atom, acceptor molecule, acceptor atom, score
      L1  H     3    20       P1  7948  0.87

> <Gold.Chemscore.Hbond.Weighted>
-3.2719

> <Gold.Chemscore.Metal.Weighted>
-0.0000

> <Gold.Chemscore.Lipo.Weighted>
-12.4802

> <Gold.Chemscore.Internal_Hbond.Weighted>
0.0000

> <Gold.Chemscore.DEClash.Weighted>
0.3490

> <Gold.Chemscore.DEInternal.Weighted>
0.3805

> <Gold.Chemscore.Rot.Weighted>
3.3610

> <Gold.Chemscore.Internal.Correction.Weighted>
   9.000000E+99

> <Gold.Protein.RotatedTorsions>
[ 6907 6896 6895 6894 ] final  -98.42 input  -60.11 | X-H torsion
[ 7974 7965 7964 7962 ] final -165.29 input  175.53 | X-H torsion
[ 8008 7997 7996 7995 ] final   73.02 input   59.86 | X-H torsion
[ 10167 10162 10161 10158 ] final  -63.61 input  -65.29 | X-H torsion
[ 10718 10713 10712 10709 ] final   23.44 input   66.30 | X-H torsion
[ 10763 10752 10751 10750 ] final  179.14 input  -60.55 | X-H torsion
[ 11005 11000 10999 10996 ] final   73.96 input  -57.11 | X-H torsion

> <Gold.Protein.ActiveResidues>
 VAL166  LYS551  ARG553  GLY616  TRP617  ASP618  TYR619  PRO620  LYS621  CYS622 
 ASP623  PHE694  ASN695  SER759  ASP760  ASP761  ALA762  ILE779  LEU786  VAL792 
 PHE793  MET794  SER795  GLU796  ALA797  LYS798  CYS799  TRP800  GLU811  SER814 

> <Gold.Protein.RotatedAtoms>
  150.7046  134.1197  159.4030 H   0  0  0  0  0  0  0  0  0  0  0  0  # atno 6907 bound_to 6896
  151.9184  135.0307  160.0529 H   0  0  0  0  0  0  0  0  0  0  0  0  # atno 6908 bound_to 6896
  152.2277  133.4998  159.5235 H   0  0  0  0  0  0  0  0  0  0  0  0  # atno 6909 bound_to 6896
  144.7274  140.2835  143.6232 H   0  0  0  0  0  0  0  0  0  0  0  0  # atno 7974 bound_to 7965
  155.7775  140.3483  155.5279 H   0  0  0  0  0  0  0  0  0  0  0  0  # atno 8008 bound_to 7997
  155.8761  140.0994  157.1538 H   0  0  0  0  0  0  0  0  0  0  0  0  # atno 8009 bound_to 7997
  154.4021  140.1331  156.4126 H   0  0  0  0  0  0  0  0  0  0  0  0  # atno 8010 bound_to 7997
  140.5858  143.2333  151.6245 H   0  0  0  0  0  0  0  0  0  0  0  0  # atno 10167 bound_to 10162
  157.1661  130.6738  149.6061 H   0  0  0  0  0  0  0  0  0  0  0  0  # atno 10718 bound_to 10713
  154.5169  135.2791  155.1296 H   0  0  0  0  0  0  0  0  0  0  0  0  # atno 10763 bound_to 10752
  154.2869  135.6274  153.5373 H   0  0  0  0  0  0  0  0  0  0  0  0  # atno 10764 bound_to 10752
  152.9929  135.5664  154.5648 H   0  0  0  0  0  0  0  0  0  0  0  0  # atno 10765 bound_to 10752
  139.9414  134.7392  156.1090 H   0  0  0  0  0  0  0  0  0  0  0  0  # atno 11005 bound_to 11000
  145.7926  139.1933  143.2094 LP  0  0  0  0  0  0  0  0  0  0  0  0  # atno 17320 bound_to 7965
  146.0743  140.7834  142.9672 LP  0  0  0  0  0  0  0  0  0  0  0  0  # atno 17321 bound_to 7965
  139.5197  144.3245  152.0881 LP  0  0  0  0  0  0  0  0  0  0  0  0  # atno 17342 bound_to 10162
  140.2402  144.4277  150.6263 LP  0  0  0  0  0  0  0  0  0  0  0  0  # atno 17343 bound_to 10162
  155.9746  130.4695  150.6397 LP  0  0  0  0  0  0  0  0  0  0  0  0  # atno 17370 bound_to 10713
  157.4087  131.0820  151.1241 LP  0  0  0  0  0  0  0  0  0  0  0  0  # atno 17371 bound_to 10713
  141.1049  133.6663  156.2841 LP  0  0  0  0  0  0  0  0  0  0  0  0  # atno 17394 bound_to 11000
  140.5943  134.5619  157.5505 LP  0  0  0  0  0  0  0  0  0  0  0  0  # atno 17395 bound_to 11000

$$$$
