AV-unprocessed.smi:2010|AV-procd|sdf|8151|dock6
  -GOLD-   2272010393D 1   1.00000     0.00000
 Structure written by MMmdl.
 40 41  0  0  0  0  0  0  0  0  2 V2000
  151.8728  145.1156  159.1071 C   0  0  0  0  0  0  0  0  0  0  0  0
  151.9407  143.5922  159.2846 C   0  0  0  0  0  0  0  0  0  0  0  0
  153.3376  143.1329  159.7244 C   0  0  0  0  0  0  0  0  0  0  0  0
  153.3984  141.6063  159.8925 C   0  0  0  0  0  0  0  0  0  0  0  0
  152.9719  140.9089  158.6605 N   0  0  0  0  0  0  0  0  0  0  0  0
  153.4253  139.2362  158.4816 S   0  0  0  0  0  0  0  0  0  0  0  0
  154.8748  139.2033  158.7309 O   0  0  0  0  0  0  0  0  0  0  0  0
  152.5661  138.4567  159.3899 O   0  0  0  0  0  0  0  0  0  0  0  0
  153.0600  139.0515  156.9024 N   0  5  0  0  0  0  0  0  0  0  0  0
  152.0137  138.1349  156.4474 C   0  0  2  0  0  0  0  0  0  0  0  0
  152.4547  136.6935  156.7475 C   0  0  0  0  0  0  0  0  0  0  0  0
  151.6654  138.3830  154.9532 C   0  0  0  0  0  0  0  0  0  0  0  0
  150.5366  139.2773  154.7060 N   0  0  0  0  0  0  0  0  0  0  0  0
  149.3074  138.9786  154.1491 C   0  0  0  0  0  0  0  0  0  0  0  0
  148.5660  140.1250  154.1474 C   0  0  0  0  0  0  0  0  0  0  0  0
  149.4283  141.0844  154.7467 C   0  0  0  0  0  0  0  0  0  0  0  0
  150.5980  140.5733  155.0916 N   0  0  0  0  0  0  0  0  0  0  0  0
  151.6437  141.3246  158.1707 C   0  0  0  0  0  0  0  0  0  0  0  0
  151.5666  142.8505  157.9936 C   0  0  0  0  0  0  0  0  0  0  0  0
  152.5716  145.4575  158.3431 H   0  0  0  0  0  0  0  0  0  0  0  0
  152.1180  145.6296  160.0369 H   0  0  0  0  0  0  0  0  0  0  0  0
  150.8725  145.4315  158.8095 H   0  0  0  0  0  0  0  0  0  0  0  0
  151.2263  143.3134  160.0605 H   0  0  0  0  0  0  0  0  0  0  0  0
  154.0811  143.4476  158.9908 H   0  0  0  0  0  0  0  0  0  0  0  0
  153.6113  143.6129  160.6643 H   0  0  0  0  0  0  0  0  0  0  0  0
  154.4110  141.3085  160.1610 H   0  0  0  0  0  0  0  0  0  0  0  0
  152.7557  141.2909  160.7151 H   0  0  0  0  0  0  0  0  0  0  0  0
  151.0914  138.2948  157.0060 H   0  0  0  0  0  0  0  0  0  0  0  0
  151.7100  135.9775  156.3994 H   0  0  0  0  0  0  0  0  0  0  0  0
  152.5811  136.5390  157.8195 H   0  0  0  0  0  0  0  0  0  0  0  0
  153.4031  136.4502  156.2672 H   0  0  0  0  0  0  0  0  0  0  0  0
  152.5341  138.8248  154.4641 H   0  0  0  0  0  0  0  0  0  0  0  0
  151.4926  137.4406  154.4335 H   0  0  0  0  0  0  0  0  0  0  0  0
  149.0696  137.9850  153.7990 H   0  0  0  0  0  0  0  0  0  0  0  0
  147.5603  140.2573  153.7772 H   0  0  0  0  0  0  0  0  0  0  0  0
  149.2386  142.1287  154.9456 H   0  0  0  0  0  0  0  0  0  0  0  0
  151.4349  140.8489  157.2131 H   0  0  0  0  0  0  0  0  0  0  0  0
  150.8828  140.9786  158.8712 H   0  0  0  0  0  0  0  0  0  0  0  0
  150.5604  143.1299  157.6799 H   0  0  0  0  0  0  0  0  0  0  0  0
  152.2364  143.1532  157.1872 H   0  0  0  0  0  0  0  0  0  0  0  0
  1  2  1  0  0  0  0
  1 20  1  0  0  0  0
  1 21  1  0  0  0  0
  1 22  1  0  0  0  0
  2 19  1  0  0  0  0
  2  3  1  0  0  0  0
  2 23  1  0  0  0  0
  3  4  1  0  0  0  0
  3 24  1  0  0  0  0
  3 25  1  0  0  0  0
  4  5  1  0  0  0  0
  4 26  1  0  0  0  0
  4 27  1  0  0  0  0
  5  6  1  0  0  0  0
  5 18  1  0  0  0  0
  6  7  2  0  0  0  0
  6  8  2  0  0  0  0
  6  9  1  0  0  0  0
  9 10  1  0  0  0  0
 10 11  1  0  0  0  0
 10 12  1  0  0  0  0
 10 28  1  0  0  0  0
 11 29  1  0  0  0  0
 11 30  1  0  0  0  0
 11 31  1  0  0  0  0
 12 13  1  0  0  0  0
 12 32  1  0  0  0  0
 12 33  1  0  0  0  0
 13 17  1  0  0  0  0
 13 14  1  0  0  0  0
 14 15  2  0  0  0  0
 14 34  1  0  0  0  0
 15 16  1  0  0  0  0
 15 35  1  0  0  0  0
 16 17  2  0  0  0  0
 16 36  1  0  0  0  0
 18 19  1  0  0  0  0
 18 37  1  0  0  0  0
 18 38  1  0  0  0  0
 19 39  1  0  0  0  0
 19 40  1  0  0  0  0
M  CHG  1   9  -1
M  END
> <s_m_source_file>
AV-unprocessed.smi

> <i_m_source_file_index>
2010

> <i_lp_mmshare_version>
43012

> <i_f3d_flags>
0

> <s_epik_input>
W0NIM11bQ0hdMVtDSDJdW0NIMl1OKFtDSDJdW0NIMl0xKVMoPU8pKD1PKVtOSF1bQ0BIXShbQ0gzXSlbQ0gyXW4yW2NIXVtjSF1bY0hdbjI=

> <s_epik_cmdline>
J2VwaWtfcHl0aG9uJywgJy1waCcsICc3LjAnLCAnLXRuJywgJzgnLCAnLW1hJywgJzIwMCcsICctbWV0YWxfYmluZGluZycsICctaW1hZScsICc8aW5maWxlLm1hZT4nLCAnLW9tYWUnLCAnPG91dGZpbGUubWFlPic=

> <r_lp_tautomer_probability>
1

> <r_epik_Ionization_Penalty>
1.75622

> <r_epik_Ionization_Penalty_Charging>
1.7562

> <r_epik_Ionization_Penalty_Neutral>
2.39925e-05

> <r_epik_State_Penalty>
1.86645

> <r_epik_Charging_Adjusted_Penalty>
3.62264

> <i_epik_Tot_Q>
-1

> <i_epik_Tot_abs_Q>
1

> <r_epik_Metal_State_Penalty>
0.460135

> <b_epik_Metal_Only>
0

> <s_lp_Force_Field>
OPLS_2005

> <r_lp_Energy>
7.98706

> <b_lp_Chiralities_Consistent>
1

> <s_lp_Variant>
AV-unprocessed.smi:2010-3

> <Gold.Version>
5.8.1

> <Gold.Id.Protein>
6NUR|6NUR_protein|mol2

> <Gold.PLP.Fitness>
50.4291

> <Gold.PLP.PLP>
-39.2765

> <Gold.PLP.part.hbond>
-3.1075

> <Gold.PLP.part.metal>
0.0000

> <Gold.PLP.part.buried>
-0.0328

> <Gold.PLP.part.nonpolar>
-34.4295

> <Gold.PLP.part.repulsive>
0.0687

> <Gold.PLP.ligand.clash>
0.0000

> <Gold.PLP.ligand.torsion>
1.4655

> <Gold.PLP.Chemscore.Hbond>
2.6818

> <Gold.PLP.Chemscore.CHOScore>
1.4390

> <Gold.PLP.Chemscore.Metal>
0.0000

> <Gold.Chemscore.Hbonds>
donor molecule, donor type, donor heavy atom, donor atom, acceptor molecule, acceptor atom, score
      P1  H  7989  7998       L1    17  0.34
      P1  H  7997  8009       L1     7  0.64
      P1  H  7997  8010       L1     9  1.47
      L1  C    14    34       P1  7948  0.84
      L1  C    16    36       P1  8028  0.57

> <Gold.PLP.Chemscore.Internal.Correction>
1.7213

> <Gold.Rescore>
     Score         DG    S(hbond)    S(metal)    S(lipo)     H(rot)  DE(clash)    DE(int)     intcor
     14.04     -15.62       0.58        0.00     103.69       1.54       0.08       1.51       ----

> <Gold.Chemscore.Fitness>
14.0354

> <Gold.Chemscore.DG>
-15.6195

> <Gold.Chemscore.ZeroCoef>
-5.4800

> <Gold.Chemscore.Hbond>
0.5822

> <Gold.Chemscore.Metal>
0.0000

> <Gold.Chemscore.Lipo>
103.6883

> <Gold.Chemscore.Internal_Hbond>
0.0000

> <Gold.Chemscore.DEClash>
0.0774

> <Gold.Chemscore.DEInternal>
1.5067

> <Gold.Chemscore.Rot>
1.5377

> <Gold.Chemscore.Internal.Correction>
   9.000000E+99

> <Gold.Chemscore.Hbonds>
donor molecule, donor type, donor heavy atom, donor atom, acceptor molecule, acceptor atom, score
      P1  H  7997  8009       L1     7  0.39
      P1  H  7997  8010       L1     9  0.12

> <Gold.Chemscore.Hbond.Weighted>
-1.9445

> <Gold.Chemscore.Metal.Weighted>
-0.0000

> <Gold.Chemscore.Lipo.Weighted>
-12.1315

> <Gold.Chemscore.Internal_Hbond.Weighted>
0.0000

> <Gold.Chemscore.DEClash.Weighted>
0.0774

> <Gold.Chemscore.DEInternal.Weighted>
1.5067

> <Gold.Chemscore.Rot.Weighted>
3.9365

> <Gold.Chemscore.Internal.Correction.Weighted>
   9.000000E+99

> <Gold.Protein.RotatedTorsions>
[ 6907 6896 6895 6894 ] final  -13.88 input  -60.11 | X-H torsion
[ 7974 7965 7964 7962 ] final  114.71 input  175.53 | X-H torsion
[ 8008 7997 7996 7995 ] final   84.44 input   59.86 | X-H torsion
[ 10167 10162 10161 10158 ] final   39.87 input  -65.29 | X-H torsion
[ 10718 10713 10712 10709 ] final  -85.24 input   66.30 | X-H torsion
[ 10763 10752 10751 10750 ] final    3.07 input  -60.55 | X-H torsion
[ 11005 11000 10999 10996 ] final   63.61 input  -57.11 | X-H torsion

> <Gold.Protein.ActiveResidues>
 VAL166  LYS551  ARG553  GLY616  TRP617  ASP618  TYR619  PRO620  LYS621  CYS622 
 ASP623  PHE694  ASN695  SER759  ASP760  ASP761  ALA762  ILE779  LEU786  VAL792 
 PHE793  MET794  SER795  GLU796  ALA797  LYS798  CYS799  TRP800  GLU811  SER814 

> <Gold.Protein.RotatedAtoms>
  151.3481  135.0878  159.9393 H   0  0  0  0  0  0  0  0  0  0  0  0  # atno 6907 bound_to 6896
  152.5194  133.9380  159.7623 H   0  0  0  0  0  0  0  0  0  0  0  0  # atno 6908 bound_to 6896
  150.9750  133.6251  159.2761 H   0  0  0  0  0  0  0  0  0  0  0  0  # atno 6909 bound_to 6896
  145.2011  139.2952  143.4318 H   0  0  0  0  0  0  0  0  0  0  0  0  # atno 7974 bound_to 7965
  155.9370  140.3411  155.6296 H   0  0  0  0  0  0  0  0  0  0  0  0  # atno 8008 bound_to 7997
  155.7087  140.0769  157.2399 H   0  0  0  0  0  0  0  0  0  0  0  0  # atno 8009 bound_to 7997
  154.4095  140.1627  156.2259 H   0  0  0  0  0  0  0  0  0  0  0  0  # atno 8010 bound_to 7997
  140.3798  144.1995  150.6131 H   0  0  0  0  0  0  0  0  0  0  0  0  # atno 10167 bound_to 10162
  155.9998  130.4724  150.4533 H   0  0  0  0  0  0  0  0  0  0  0  0  # atno 10718 bound_to 10713
  153.2878  135.6946  153.7322 H   0  0  0  0  0  0  0  0  0  0  0  0  # atno 10763 bound_to 10752
  153.6284  135.3414  155.3034 H   0  0  0  0  0  0  0  0  0  0  0  0  # atno 10764 bound_to 10752
  154.8515  135.4403  154.1952 H   0  0  0  0  0  0  0  0  0  0  0  0  # atno 10765 bound_to 10752
  140.0013  134.6438  155.9926 H   0  0  0  0  0  0  0  0  0  0  0  0  # atno 11005 bound_to 11000
  146.3417  140.2256  142.8592 LP  0  0  0  0  0  0  0  0  0  0  0  0  # atno 17320 bound_to 7965
  144.9947  140.8578  143.5318 LP  0  0  0  0  0  0  0  0  0  0  0  0  # atno 17321 bound_to 7965
  140.4949  143.2335  151.8764 LP  0  0  0  0  0  0  0  0  0  0  0  0  # atno 17342 bound_to 10162
  139.4796  144.5124  151.8914 LP  0  0  0  0  0  0  0  0  0  0  0  0  # atno 17343 bound_to 10162
  157.2564  131.0557  151.2348 LP  0  0  0  0  0  0  0  0  0  0  0  0  # atno 17370 bound_to 10713
  157.3478  130.7066  149.6421 LP  0  0  0  0  0  0  0  0  0  0  0  0  # atno 17371 bound_to 10713
  141.1644  133.6537  156.4428 LP  0  0  0  0  0  0  0  0  0  0  0  0  # atno 17394 bound_to 11000
  140.4722  134.6742  157.5134 LP  0  0  0  0  0  0  0  0  0  0  0  0  # atno 17395 bound_to 11000

$$$$
