#       Name:                AV-unprocessed.smi:1966
#       Creating user name   scv26
#       Creation time:       Fri Mar 27 10:11:50 2020


#       File generated by GOLD software.
#

@<TRIPOS>MOLECULE
AV-unprocessed.smi:1966
    61    62     1
SMALL
NO_CHARGES


@<TRIPOS>ATOM
      1 ****        -5.3230  -2.8041  -3.3142 C.3            1 S1                 0.0000
      2 ****        -4.7703  -1.8344  -2.2756 C.2            1 S1                 0.0000
      3 ****        -4.5144  -0.6721  -2.5888 O.2            1 S1                 0.0000
      4 ****        -4.5904  -2.3276  -1.0400 N.am           1 S1                 0.0000
      5 ****        -4.0572  -1.5834   0.1033 C.3            1 S1                 0.0000
      6 ****        -2.5193  -1.5536  -0.0006 C.2            1 S1                 0.0000
      7 ****        -1.8954  -2.6045  -0.1524 O.2            1 S1                 0.0000
      8 ****        -1.9538  -0.3382   0.1221 N.am           1 S1                 0.0000
      9 ****        -0.5808   0.0233   0.0508 C.ar           1 S1                 0.0000
     10 ****         0.4338  -0.7815  -0.5181 C.ar           1 S1                 0.0000
     11 ****         1.7552  -0.2960  -0.5450 C.ar           1 S1                 0.0000
     12 ****         2.0349   0.9852  -0.0145 C.ar           1 S1                 0.0000
     13 ****         3.3530   1.4909  -0.0387 N.3            1 S1                 0.0000
     14 ****         3.6411   2.6924   0.7397 C.3            1 S1                 0.0000
     15 ****         5.1609   2.8981   0.8683 C.3            1 S1                 0.0000
     16 ****         5.5019   4.2202   1.5633 C.3            1 S1                 0.0000
     17 ****         5.7527   2.9170  -0.4300 O.3            1 S1                 0.0000
     18 ****         5.5197   1.7427  -1.2106 C.3            1 S1                 0.0000
     19 ****         6.3049   0.5283  -0.6834 C.3            1 S1                 0.0000
     20 ****         4.0062   1.4827  -1.3451 C.3            1 S1                 0.0000
     21 ****         1.0591   1.7555   0.5258 N.ar           1 S1                 0.0000
     22 ****        -0.2059   1.2867   0.5498 C.ar           1 S1                 0.0000
     23 ****        -4.4970  -2.2971   1.4161 C.3            1 S1                 0.0000
     24 ****        -6.0315  -2.3961   1.5274 C.3            1 S1                 0.0000
     25 ****        -3.9422  -1.6230   2.6884 C.3            1 S1                 0.0000
     26 ****        -4.6530  -3.6561  -3.4333 H              1 S1                 0.0000
     27 ****        -5.4297  -2.3158  -4.2834 H              1 S1                 0.0000
     28 ****        -6.3019  -3.1735  -3.0079 H              1 S1                 0.0000
     29 ****        -4.8245  -3.2963  -0.8785 H              1 S1                 0.0000
     30 ****        -4.4530  -0.5654   0.0945 H              1 S1                 0.0000
     31 ****        -2.5882   0.4215   0.3226 H              1 S1                 0.0000
     32 ****         0.2305  -1.7513  -0.9438 H              1 S1                 0.0000
     33 ****         2.5363  -0.9137  -0.9625 H              1 S1                 0.0000
     34 ****         3.1829   3.5539   0.2516 H              1 S1                 0.0000
     35 ****         3.2038   2.6102   1.7356 H              1 S1                 0.0000
     36 ****         5.5910   2.0878   1.4570 H              1 S1                 0.0000
     37 ****         5.0821   4.2548   2.5689 H              1 S1                 0.0000
     38 ****         5.1093   5.0716   1.0064 H              1 S1                 0.0000
     39 ****         6.5814   4.3471   1.6489 H              1 S1                 0.0000
     40 ****         5.9079   1.9593  -2.2062 H              1 S1                 0.0000
     41 ****         6.2236  -0.3120  -1.3732 H              1 S1                 0.0000
     42 ****         5.9382   0.1868   0.2844 H              1 S1                 0.0000
     43 ****         7.3635   0.7656  -0.5765 H              1 S1                 0.0000
     44 ****         3.8475   0.5460  -1.8776 H              1 S1                 0.0000
     45 ****         3.5545   2.2666  -1.9544 H              1 S1                 0.0000
     46 ****        -0.9434   1.9451   0.9856 H              1 S1                 0.0000
     47 ****        -4.1127  -3.3186   1.4001 H              1 S1                 0.0000
     48 ****        -6.4920  -1.4078   1.5178 H              1 S1                 0.0000
     49 ****        -6.3269  -2.8895   2.4537 H              1 S1                 0.0000
     50 ****        -6.4651  -2.9728   0.7102 H              1 S1                 0.0000
     51 ****        -4.2433  -0.5764   2.7435 H              1 S1                 0.0000
     52 ****        -2.8538  -1.6606   2.7334 H              1 S1                 0.0000
     53 ****        -4.3095  -2.1202   3.5867 H              1 S1                 0.0000
     54 ****        -4.6688  -0.3614  -3.5267 LP             1 S1                 0.0000
     55 ****        -4.1519  -0.0383  -1.9055 LP             1 S1                 0.0000
     56 ****        -2.3863  -3.4739  -0.2080 LP             1 S1                 0.0000
     57 ****        -0.8978  -2.5884  -0.2202 LP             1 S1                 0.0000
     58 ****         3.8029   0.7765   0.4971 LP             1 S1                 0.0000
     59 ****         6.7406   3.0270  -0.3203 LP             1 S1                 0.0000
     60 ****         5.3835   3.7010  -0.9291 LP             1 S1                 0.0000
     61 ****         1.2735   2.6574   0.9008 LP             1 S1                 0.0000
@<TRIPOS>BOND
    1    1    2 1     
    2    1   26 1     
    3    1   27 1     
    4    1   28 1     
    5    2    3 2     
    6    2    4 am    
    7    4    5 1     
    8    4   29 1     
    9    5    6 1     
   10    5   23 1     
   11    5   30 1     
   12    6    7 2     
   13    6    8 am    
   14    8    9 1     
   15    8   31 1     
   16    9   22 ar    
   17    9   10 ar    
   18   10   11 ar    
   19   10   32 1     
   20   11   12 ar    
   21   11   33 1     
   22   12   13 1     
   23   12   21 ar    
   24   13   20 1     
   25   13   14 1     
   26   14   15 1     
   27   14   34 1     
   28   14   35 1     
   29   15   16 1     
   30   15   17 1     
   31   15   36 1     
   32   16   37 1     
   33   16   38 1     
   34   16   39 1     
   35   17   18 1     
   36   18   19 1     
   37   18   20 1     
   38   18   40 1     
   39   19   41 1     
   40   19   42 1     
   41   19   43 1     
   42   20   44 1     
   43   20   45 1     
   44   21   22 ar    
   45   22   46 1     
   46   23   24 1     
   47   23   25 1     
   48   23   47 1     
   49   24   48 1     
   50   24   49 1     
   51   24   50 1     
   52   25   51 1     
   53   25   52 1     
   54   25   53 1     
   55    3   54 1     
   56    3   55 1     
   57    7   56 1     
   58    7   57 1     
   59   13   58 1     
   60   17   59 1     
   61   17   60 1     
   62   21   61 1     
@<TRIPOS>SUBSTRUCTURE
      1 S1             1
@<TRIPOS>SET
LONE_PAIRS      STATIC     ATOMS    <user>   **** ""
8 54 55 56 57 58 59 60 61
DONOR_HYDROGENS      STATIC     ATOMS    <user>   **** ""
2 29 31
ATOM$BLUE        STATIC     ATOMS    COLORGROUP SYSTEM
8 54 55 56 57 58 59 60 61
ATOM$RED        STATIC     ATOMS    COLORGROUP SYSTEM
2 29 31
