AV-unprocessed.smi:354|AV-procd|sdf|2403|dock8
  -GOLD-   2262022333D 1   1.00000     0.00000
 Structure written by MMmdl.
 36 38  0  0  0  0  0  0  0  0  1 V2000
  153.3071  139.3487  154.6875 O   0  0  0  0  0  0  0  0  0  0  0  0
  152.3633  139.4834  155.7278 C   0  0  0  0  0  0  0  0  0  0  0  0
  151.0100  139.9081  155.2424 C   0  0  0  0  0  0  0  0  0  0  0  0
  150.2420  139.0946  154.5161 N   0  0  0  0  0  0  0  0  0  0  0  0
  149.1042  139.8499  154.3123 C   0  0  0  0  0  0  0  0  0  0  0  0
  147.9116  139.5449  153.6179 C   0  0  0  0  0  0  0  0  0  0  0  0
  146.8641  140.4867  153.5501 C   0  0  0  0  0  0  0  0  0  0  0  0
  146.9929  141.7436  154.1758 C   0  0  0  0  0  0  0  0  0  0  0  0
  148.1731  142.0680  154.8715 C   0  0  0  0  0  0  0  0  0  0  0  0
  149.2178  141.1256  154.9332 C   0  0  0  0  0  0  0  0  0  0  0  0
  150.4808  141.1286  155.5177 N   0  0  0  0  0  0  0  0  0  0  0  0
  151.0646  142.2287  156.2759 C   0  0  0  0  0  0  0  0  0  0  0  0
  151.6236  141.7845  157.6434 C   0  0  2  0  0  0  0  0  0  0  0  0
  150.8144  140.7610  158.1897 O   0  0  0  0  0  0  0  0  0  0  0  0
  151.7753  142.9718  158.5844 C   0  0  0  0  0  0  0  0  0  0  0  0
  151.2093  144.2234  158.2526 C   0  0  0  0  0  0  0  0  0  0  0  0
  151.3597  145.3248  159.1172 C   0  0  0  0  0  0  0  0  0  0  0  0
  152.0797  145.1839  160.3185 C   0  0  0  0  0  0  0  0  0  0  0  0
  152.6517  143.9418  160.6528 C   0  0  0  0  0  0  0  0  0  0  0  0
  152.5034  142.8388  159.7888 C   0  0  0  0  0  0  0  0  0  0  0  0
  153.0685  141.6534  160.1221 F   0  0  0  0  0  0  0  0  0  0  0  0
  152.9045  138.8738  153.9769 H   0  0  0  0  0  0  0  0  0  0  0  0
  152.2770  138.5236  156.2384 H   0  0  0  0  0  0  0  0  0  0  0  0
  152.7296  140.1944  156.4682 H   0  0  0  0  0  0  0  0  0  0  0  0
  147.8016  138.5834  153.1384 H   0  0  0  0  0  0  0  0  0  0  0  0
  145.9567  140.2430  153.0174 H   0  0  0  0  0  0  0  0  0  0  0  0
  146.1851  142.4585  154.1214 H   0  0  0  0  0  0  0  0  0  0  0  0
  148.2736  143.0298  155.3520 H   0  0  0  0  0  0  0  0  0  0  0  0
  151.8648  142.6580  155.6719 H   0  0  0  0  0  0  0  0  0  0  0  0
  150.3295  143.0212  156.4100 H   0  0  0  0  0  0  0  0  0  0  0  0
  152.6067  141.3371  157.4974 H   0  0  0  0  0  0  0  0  0  0  0  0
  150.0672  140.6358  157.6251 H   0  0  0  0  0  0  0  0  0  0  0  0
  150.6595  144.3446  157.3307 H   0  0  0  0  0  0  0  0  0  0  0  0
  150.9240  146.2784  158.8576 H   0  0  0  0  0  0  0  0  0  0  0  0
  152.1960  146.0285  160.9816 H   0  0  0  0  0  0  0  0  0  0  0  0
  153.2077  143.8351  161.5725 H   0  0  0  0  0  0  0  0  0  0  0  0
  1  2  1  0  0  0  0
  1 22  1  0  0  0  0
  2  3  1  0  0  0  0
  2 23  1  0  0  0  0
  2 24  1  0  0  0  0
  3 11  1  0  0  0  0
  3  4  2  0  0  0  0
  4  5  1  0  0  0  0
  5 10  2  0  0  0  0
  5  6  1  0  0  0  0
  6  7  2  0  0  0  0
  6 25  1  0  0  0  0
  7  8  1  0  0  0  0
  7 26  1  0  0  0  0
  8  9  2  0  0  0  0
  8 27  1  0  0  0  0
  9 10  1  0  0  0  0
  9 28  1  0  0  0  0
 10 11  1  0  0  0  0
 11 12  1  0  0  0  0
 12 13  1  0  0  0  0
 12 29  1  0  0  0  0
 12 30  1  0  0  0  0
 13 14  1  0  0  0  0
 13 15  1  0  0  0  0
 13 31  1  0  0  0  0
 14 32  1  0  0  0  0
 15 20  1  0  0  0  0
 15 16  2  0  0  0  0
 16 17  1  0  0  0  0
 16 33  1  0  0  0  0
 17 18  2  0  0  0  0
 17 34  1  0  0  0  0
 18 19  1  0  0  0  0
 18 35  1  0  0  0  0
 19 20  2  0  0  0  0
 19 36  1  0  0  0  0
 20 21  1  0  0  0  0
M  END
> <s_m_source_file>
AV-unprocessed.smi

> <i_m_source_file_index>
354

> <i_lp_mmshare_version>
43012

> <i_f3d_flags>
0

> <s_epik_input>
W2NIXTFbY0hdW2NIXVtjSF1jKGMxMiluKGMobjIpW0NIMl1bT0hdKVtDSDJdW0NASF0oW09IXSljM1tjSF1bY0hdW2NIXVtjSF1jM0Y=

> <s_epik_cmdline>
J2VwaWtfcHl0aG9uJywgJy1waCcsICc3LjAnLCAnLXRuJywgJzgnLCAnLW1hJywgJzIwMCcsICctbWV0YWxfYmluZGluZycsICctaW1hZScsICc8aW5maWxlLm1hZT4nLCAnLW9tYWUnLCAnPG91dGZpbGUubWFlPic=

> <r_epik_Ionization_Penalty>
0.0634722

> <r_epik_Ionization_Penalty_Charging>
0

> <r_epik_Ionization_Penalty_Neutral>
0.0634722

> <r_epik_State_Penalty>
0.0551572

> <r_epik_Charging_Adjusted_Penalty>
0.0551572

> <i_epik_Tot_Q>
0

> <i_epik_Tot_abs_Q>
0

> <r_epik_Metal_State_Penalty>
5.78034e-05

> <b_epik_Metal_Only>
0

> <s_lp_Force_Field>
OPLS_2005

> <r_lp_Energy>
13.1732

> <b_lp_Chiralities_Consistent>
1

> <s_lp_Variant>
AV-unprocessed.smi:354-1

> <Gold.Version>
5.8.1

> <Gold.Id.Protein>
6NUR|6NUR_protein|mol2

> <Gold.PLP.Fitness>
53.0378

> <Gold.PLP.PLP>
-51.1358

> <Gold.PLP.part.hbond>
-1.1895

> <Gold.PLP.part.metal>
0.0000

> <Gold.PLP.part.buried>
-2.1687

> <Gold.PLP.part.nonpolar>
-47.9479

> <Gold.PLP.part.repulsive>
0.1467

> <Gold.PLP.ligand.clash>
0.0000

> <Gold.PLP.ligand.torsion>
0.5723

> <Gold.PLP.Chemscore.Hbond>
1.0000

> <Gold.PLP.Chemscore.CHOScore>
0.0000

> <Gold.PLP.Chemscore.Metal>
0.0000

> <Gold.Chemscore.Hbonds>
donor molecule, donor type, donor heavy atom, donor atom, acceptor molecule, acceptor atom, score
      P1  H  7997  8010       L1     1  0.75

> <Gold.PLP.Chemscore.Internal.Correction>
0.0467

> <Gold.Rescore>
     Score         DG    S(hbond)    S(metal)    S(lipo)     H(rot)  DE(clash)    DE(int)     intcor
     15.60     -16.47       0.84        0.00     130.11       2.75       0.24       0.64       ----

> <Gold.Chemscore.Fitness>
15.5998

> <Gold.Chemscore.DG>
-16.4731

> <Gold.Chemscore.ZeroCoef>
-5.4800

> <Gold.Chemscore.Hbond>
0.8415

> <Gold.Chemscore.Metal>
0.0000

> <Gold.Chemscore.Lipo>
130.1055

> <Gold.Chemscore.Internal_Hbond>
0.0000

> <Gold.Chemscore.DEClash>
0.2375

> <Gold.Chemscore.DEInternal>
0.6357

> <Gold.Chemscore.Rot>
2.7500

> <Gold.Chemscore.Internal.Correction>
   9.000000E+99

> <Gold.Chemscore.Hbonds>
donor molecule, donor type, donor heavy atom, donor atom, acceptor molecule, acceptor atom, score
      P1  H  7997  8010       L1     1  0.09

> <Gold.Chemscore.Hbond.Weighted>
-2.8107

> <Gold.Chemscore.Metal.Weighted>
-0.0000

> <Gold.Chemscore.Lipo.Weighted>
-15.2223

> <Gold.Chemscore.Internal_Hbond.Weighted>
0.0000

> <Gold.Chemscore.DEClash.Weighted>
0.2375

> <Gold.Chemscore.DEInternal.Weighted>
0.6357

> <Gold.Chemscore.Rot.Weighted>
7.0399

> <Gold.Chemscore.Internal.Correction.Weighted>
   9.000000E+99

> <Gold.Protein.RotatedTorsions>
[ 6907 6896 6895 6894 ] final  102.99 input  -60.11 | X-H torsion
[ 7974 7965 7964 7962 ] final -101.66 input  175.53 | X-H torsion
[ 8008 7997 7996 7995 ] final  126.02 input   59.86 | X-H torsion
[ 10167 10162 10161 10158 ] final  -42.60 input  -65.29 | X-H torsion
[ 10718 10713 10712 10709 ] final -162.20 input   66.30 | X-H torsion
[ 10763 10752 10751 10750 ] final  112.89 input  -60.55 | X-H torsion
[ 11005 11000 10999 10996 ] final -167.27 input  -57.11 | X-H torsion

> <Gold.Protein.ActiveResidues>
 VAL166  LYS551  ARG553  GLY616  TRP617  ASP618  TYR619  PRO620  LYS621  CYS622 
 ASP623  PHE694  ASN695  SER759  ASP760  ASP761  ALA762  ILE779  LEU786  VAL792 
 PHE793  MET794  SER795  GLU796  ALA797  LYS798  CYS799  TRP800  GLU811  SER814 

> <Gold.Protein.RotatedAtoms>
  152.5308  133.9892  159.7842 H   0  0  0  0  0  0  0  0  0  0  0  0  # atno 6907 bound_to 6896
  151.0132  133.5938  159.2687 H   0  0  0  0  0  0  0  0  0  0  0  0  # atno 6908 bound_to 6896
  151.3005  135.0774  159.9290 H   0  0  0  0  0  0  0  0  0  0  0  0  # atno 6909 bound_to 6896
  145.2787  140.9320  143.2944 H   0  0  0  0  0  0  0  0  0  0  0  0  # atno 7974 bound_to 7965
  156.2851  140.2702  156.2043 H   0  0  0  0  0  0  0  0  0  0  0  0  # atno 8008 bound_to 7997
  155.0329  140.0386  157.2498 H   0  0  0  0  0  0  0  0  0  0  0  0  # atno 8009 bound_to 7997
  154.7339  140.2712  155.6437 H   0  0  0  0  0  0  0  0  0  0  0  0  # atno 8010 bound_to 7997
  140.6963  143.3029  151.3232 H   0  0  0  0  0  0  0  0  0  0  0  0  # atno 10167 bound_to 10162
  156.6071  130.8835  151.2928 H   0  0  0  0  0  0  0  0  0  0  0  0  # atno 10718 bound_to 10713
  153.4844  135.3672  155.2459 H   0  0  0  0  0  0  0  0  0  0  0  0  # atno 10763 bound_to 10752
  154.8754  135.3962  154.3662 H   0  0  0  0  0  0  0  0  0  0  0  0  # atno 10764 bound_to 10752
  153.4271  135.7081  153.6320 H   0  0  0  0  0  0  0  0  0  0  0  0  # atno 10765 bound_to 10752
  140.5551  134.5389  157.5131 H   0  0  0  0  0  0  0  0  0  0  0  0  # atno 11005 bound_to 11000
  144.9271  139.4342  143.6513 LP  0  0  0  0  0  0  0  0  0  0  0  0  # atno 17320 bound_to 7965
  146.3223  139.8163  142.8935 LP  0  0  0  0  0  0  0  0  0  0  0  0  # atno 17321 bound_to 7965
  139.6423  144.0515  152.2564 LP  0  0  0  0  0  0  0  0  0  0  0  0  # atno 17342 bound_to 10162
  140.0025  144.6283  150.7717 LP  0  0  0  0  0  0  0  0  0  0  0  0  # atno 17343 bound_to 10162
  157.7264  130.9629  150.1655 LP  0  0  0  0  0  0  0  0  0  0  0  0  # atno 17370 bound_to 10713
  156.2420  130.3692  149.8326 LP  0  0  0  0  0  0  0  0  0  0  0  0  # atno 17371 bound_to 10713
  139.9436  134.7743  156.0618 LP  0  0  0  0  0  0  0  0  0  0  0  0  # atno 17394 bound_to 11000
  141.1148  133.6631  156.3068 LP  0  0  0  0  0  0  0  0  0  0  0  0  # atno 17395 bound_to 11000

$$$$
