AV-unprocessed.smi:2045|AV-procd|sdf|8308|dock10
  -GOLD-   2272010573D 1   1.00000     0.00000
 Structure written by MMmdl.
 39 40  0  0  0  0  0  0  0  0  2 V2000
  153.6027  137.6422  157.1249 C   0  0  0  0  0  0  0  0  0  0  0  0
  152.5944  138.1087  156.1316 C   0  0  0  0  0  0  0  0  0  0  0  0
  151.5957  137.4716  155.4503 C   0  0  0  0  0  0  0  0  0  0  0  0
  151.0239  138.5135  154.6730 C   0  0  0  0  0  0  0  0  0  0  0  0
  149.9301  138.2597  153.8064 N   0  0  0  0  0  0  0  0  0  0  0  0
  148.7819  138.9521  153.7149 C   0  0  0  0  0  0  0  0  0  0  0  0
  148.4975  139.9484  154.3804 O   0  0  0  0  0  0  0  0  0  0  0  0
  147.9596  138.4204  152.7985 N   0  0  0  0  0  0  0  0  0  0  0  0
  146.6383  138.9414  152.4667 C   0  0  0  0  0  0  0  0  0  0  0  0
  145.9682  138.1172  151.3496 C   0  0  0  0  0  0  0  0  0  0  0  0
  146.1457  136.6556  151.5397 N   0  3  0  0  0  0  0  0  0  0  0  0
  145.8427  136.2314  152.9320 C   0  0  0  0  0  0  0  0  0  0  0  0
  146.1606  134.7414  153.1441 C   0  0  0  0  0  0  0  0  0  0  0  0
  145.4057  133.8687  152.1334 C   0  0  0  0  0  0  0  0  0  0  0  0
  145.7062  134.3432  150.7062 C   0  0  0  0  0  0  0  0  0  0  0  0
  145.3947  135.8408  150.5462 C   0  0  0  0  0  0  0  0  0  0  0  0
  151.6187  139.6811  154.8631 N   0  0  0  0  0  0  0  0  0  0  0  0
  152.6290  139.4274  155.7983 O   0  0  0  0  0  0  0  0  0  0  0  0
  153.3549  136.6467  157.4937 H   0  0  0  0  0  0  0  0  0  0  0  0
  153.6460  138.3173  157.9796 H   0  0  0  0  0  0  0  0  0  0  0  0
  154.5951  137.5995  156.6759 H   0  0  0  0  0  0  0  0  0  0  0  0
  151.3217  136.4283  155.5025 H   0  0  0  0  0  0  0  0  0  0  0  0
  150.0325  137.4633  153.1949 H   0  0  0  0  0  0  0  0  0  0  0  0
  148.2713  137.6045  152.2916 H   0  0  0  0  0  0  0  0  0  0  0  0
  146.0294  138.9635  153.3709 H   0  0  0  0  0  0  0  0  0  0  0  0
  146.7534  139.9771  152.1459 H   0  0  0  0  0  0  0  0  0  0  0  0
  144.9032  138.3547  151.3517 H   0  0  0  0  0  0  0  0  0  0  0  0
  146.3435  138.4035  150.3660 H   0  0  0  0  0  0  0  0  0  0  0  0
  146.4298  136.8232  153.6353 H   0  0  0  0  0  0  0  0  0  0  0  0
  144.7920  136.4275  153.1524 H   0  0  0  0  0  0  0  0  0  0  0  0
  147.2340  134.5768  153.0417 H   0  0  0  0  0  0  0  0  0  0  0  0
  145.8977  134.4455  154.1602 H   0  0  0  0  0  0  0  0  0  0  0  0
  145.6886  132.8224  152.2519 H   0  0  0  0  0  0  0  0  0  0  0  0
  144.3332  133.9267  152.3238 H   0  0  0  0  0  0  0  0  0  0  0  0
  146.7555  134.1594  150.4708 H   0  0  0  0  0  0  0  0  0  0  0  0
  145.1229  133.7624  149.9911 H   0  0  0  0  0  0  0  0  0  0  0  0
  144.3241  136.0145  150.6672 H   0  0  0  0  0  0  0  0  0  0  0  0
  145.6482  136.1452  149.5314 H   0  0  0  0  0  0  0  0  0  0  0  0
  147.1272  136.4659  151.3963 H   0  0  0  0  0  0  0  0  0  0  0  0
  1  2  1  0  0  0  0
  1 19  1  0  0  0  0
  1 20  1  0  0  0  0
  1 21  1  0  0  0  0
  2 18  1  0  0  0  0
  2  3  2  0  0  0  0
  3  4  1  0  0  0  0
  3 22  1  0  0  0  0
  4  5  1  0  0  0  0
  4 17  2  0  0  0  0
  5  6  1  0  0  0  0
  5 23  1  0  0  0  0
  6  7  2  0  0  0  0
  6  8  1  0  0  0  0
  8  9  1  0  0  0  0
  8 24  1  0  0  0  0
  9 10  1  0  0  0  0
  9 25  1  0  0  0  0
  9 26  1  0  0  0  0
 10 11  1  0  0  0  0
 10 27  1  0  0  0  0
 10 28  1  0  0  0  0
 11 16  1  0  0  0  0
 11 12  1  0  0  0  0
 11 39  1  0  0  0  0
 12 13  1  0  0  0  0
 12 29  1  0  0  0  0
 12 30  1  0  0  0  0
 13 14  1  0  0  0  0
 13 31  1  0  0  0  0
 13 32  1  0  0  0  0
 14 15  1  0  0  0  0
 14 33  1  0  0  0  0
 14 34  1  0  0  0  0
 15 16  1  0  0  0  0
 15 35  1  0  0  0  0
 15 36  1  0  0  0  0
 16 37  1  0  0  0  0
 16 38  1  0  0  0  0
 17 18  1  0  0  0  0
M  CHG  1  11   1
M  END
> <s_m_source_file>
AV-unprocessed.smi

> <i_m_source_file_index>
2045

> <i_lp_mmshare_version>
43012

> <i_f3d_flags>
0

> <s_epik_input>
W0NIM11jMVtjSF1jKG5vMSlbTkhdQyg9TylbTkhdW0NIMl1bQ0gyXU4yW0NIMl1bQ0gyXVtDSDJdW0NIMl1bQ0gyXTI=

> <s_epik_cmdline>
J2VwaWtfcHl0aG9uJywgJy1waCcsICc3LjAnLCAnLXRuJywgJzgnLCAnLW1hJywgJzIwMCcsICctbWV0YWxfYmluZGluZycsICctaW1hZScsICc8aW5maWxlLm1hZT4nLCAnLW9tYWUnLCAnPG91dGZpbGUubWFlPic=

> <r_epik_Ionization_Penalty>
0.00265971

> <r_epik_Ionization_Penalty_Charging>
0.00262393

> <r_epik_Ionization_Penalty_Neutral>
3.57846e-05

> <r_epik_State_Penalty>
0.00182566

> <r_epik_Charging_Adjusted_Penalty>
0.00444959

> <i_epik_Tot_Q>
1

> <i_epik_Tot_abs_Q>
1

> <r_epik_Metal_State_Penalty>
0.0216344

> <b_epik_Metal_Only>
0

> <s_lp_Force_Field>
OPLS_2005

> <r_lp_Energy>
12.4185

> <b_lp_Chiralities_Consistent>
1

> <s_lp_Variant>
AV-unprocessed.smi:2045-1

> <Gold.Version>
5.8.1

> <Gold.Id.Protein>
6NUR|6NUR_protein|mol2

> <Gold.PLP.Fitness>
44.8164

> <Gold.PLP.PLP>
-28.6108

> <Gold.PLP.part.hbond>
-6.7629

> <Gold.PLP.part.metal>
0.0000

> <Gold.PLP.part.buried>
2.7247

> <Gold.PLP.part.nonpolar>
-25.5419

> <Gold.PLP.part.repulsive>
0.3873

> <Gold.PLP.ligand.clash>
0.0000

> <Gold.PLP.ligand.torsion>
0.5451

> <Gold.PLP.Chemscore.Hbond>
5.7603

> <Gold.PLP.Chemscore.CHOScore>
0.0000

> <Gold.PLP.Chemscore.Metal>
0.0000

> <Gold.Chemscore.Hbonds>
donor molecule, donor type, donor heavy atom, donor atom, acceptor molecule, acceptor atom, score
      L1  H     5    23       P1  7948  0.80
      L1  H     8    24       P1  7948  1.00
      L1  H    11    39       P1  7948  2.00
      P1  H  7989  7998       L1    17  1.00
      P1  H  7997  8009       L1    18  1.00

> <Gold.PLP.Chemscore.Internal.Correction>
0.0151

> <Gold.Rescore>
     Score         DG    S(hbond)    S(metal)    S(lipo)     H(rot)  DE(clash)    DE(int)     intcor
     19.21     -21.60       4.07        0.00      56.37       1.58       1.85       0.54       ----

> <Gold.Chemscore.Fitness>
19.2105

> <Gold.Chemscore.DG>
-21.6019

> <Gold.Chemscore.ZeroCoef>
-5.4800

> <Gold.Chemscore.Hbond>
4.0659

> <Gold.Chemscore.Metal>
0.0000

> <Gold.Chemscore.Lipo>
56.3687

> <Gold.Chemscore.Internal_Hbond>
0.0000

> <Gold.Chemscore.DEClash>
1.8543

> <Gold.Chemscore.DEInternal>
0.5372

> <Gold.Chemscore.Rot>
1.5833

> <Gold.Chemscore.Internal.Correction>
   9.000000E+99

> <Gold.Chemscore.Hbonds>
donor molecule, donor type, donor heavy atom, donor atom, acceptor molecule, acceptor atom, score
      L1  H     5    23       P1  7948  0.20
      L1  H     8    24       P1  7948  0.97
      L1  H    11    39       P1  7948  0.99
      P1  H  7989  7998       L1    17  0.96
      P1  H  7997  8009       L1    18  0.78

> <Gold.Chemscore.Hbond.Weighted>
-13.5800

> <Gold.Chemscore.Metal.Weighted>
-0.0000

> <Gold.Chemscore.Lipo.Weighted>
-6.5951

> <Gold.Chemscore.Internal_Hbond.Weighted>
0.0000

> <Gold.Chemscore.DEClash.Weighted>
1.8543

> <Gold.Chemscore.DEInternal.Weighted>
0.5372

> <Gold.Chemscore.Rot.Weighted>
4.0532

> <Gold.Chemscore.Internal.Correction.Weighted>
   9.000000E+99

> <Gold.Protein.RotatedTorsions>
[ 6907 6896 6895 6894 ] final  -57.11 input  -60.11 | X-H torsion
[ 7974 7965 7964 7962 ] final -169.38 input  175.53 | X-H torsion
[ 8008 7997 7996 7995 ] final -146.79 input   59.86 | X-H torsion
[ 10167 10162 10161 10158 ] final  -24.80 input  -65.29 | X-H torsion
[ 10718 10713 10712 10709 ] final  -89.00 input   66.30 | X-H torsion
[ 10763 10752 10751 10750 ] final -153.09 input  -60.55 | X-H torsion
[ 11005 11000 10999 10996 ] final  134.40 input  -57.11 | X-H torsion

> <Gold.Protein.ActiveResidues>
 VAL166  LYS551  ARG553  GLY616  TRP617  ASP618  TYR619  PRO620  LYS621  CYS622 
 ASP623  PHE694  ASN695  SER759  ASP760  ASP761  ALA762  ILE779  LEU786  VAL792 
 PHE793  MET794  SER795  GLU796  ALA797  LYS798  CYS799  TRP800  GLU811  SER814 

> <Gold.Protein.RotatedAtoms>
  150.8112  134.7268  159.6689 H   0  0  0  0  0  0  0  0  0  0  0  0  # atno 6907 bound_to 6896
  152.4232  134.5914  159.9985 H   0  0  0  0  0  0  0  0  0  0  0  0  # atno 6908 bound_to 6896
  151.6123  133.3309  159.3106 H   0  0  0  0  0  0  0  0  0  0  0  0  # atno 6909 bound_to 6896
  144.7186  140.2230  143.6313 H   0  0  0  0  0  0  0  0  0  0  0  0  # atno 7974 bound_to 7965
  155.5651  140.0629  157.2820 H   0  0  0  0  0  0  0  0  0  0  0  0  # atno 8008 bound_to 7997
  154.4378  140.1879  156.0867 H   0  0  0  0  0  0  0  0  0  0  0  0  # atno 8009 bound_to 7997
  156.0418  140.3294  155.7256 H   0  0  0  0  0  0  0  0  0  0  0  0  # atno 8010 bound_to 7997
  140.7287  143.4321  151.0786 H   0  0  0  0  0  0  0  0  0  0  0  0  # atno 10167 bound_to 10162
  155.9984  130.4856  150.5105 H   0  0  0  0  0  0  0  0  0  0  0  0  # atno 10718 bound_to 10713
  154.7951  135.3221  154.7686 H   0  0  0  0  0  0  0  0  0  0  0  0  # atno 10763 bound_to 10752
  153.8366  135.6874  153.4812 H   0  0  0  0  0  0  0  0  0  0  0  0  # atno 10764 bound_to 10752
  153.1638  135.4650  154.9751 H   0  0  0  0  0  0  0  0  0  0  0  0  # atno 10765 bound_to 10752
  139.9913  134.9514  156.9861 H   0  0  0  0  0  0  0  0  0  0  0  0  # atno 11005 bound_to 11000
  145.8483  139.2163  143.1787 LP  0  0  0  0  0  0  0  0  0  0  0  0  # atno 17320 bound_to 7965
  146.0284  140.8281  142.9888 LP  0  0  0  0  0  0  0  0  0  0  0  0  # atno 17321 bound_to 7965
  139.7979  143.8126  152.3159 LP  0  0  0  0  0  0  0  0  0  0  0  0  # atno 17342 bound_to 10162
  139.8132  144.7327  150.9670 LP  0  0  0  0  0  0  0  0  0  0  0  0  # atno 17343 bound_to 10162
  157.3079  131.0658  151.2022 LP  0  0  0  0  0  0  0  0  0  0  0  0  # atno 17370 bound_to 10713
  157.2978  130.6828  149.6148 LP  0  0  0  0  0  0  0  0  0  0  0  0  # atno 17371 bound_to 10713
  140.4904  134.1199  155.7231 LP  0  0  0  0  0  0  0  0  0  0  0  0  # atno 17394 bound_to 11000
  141.1568  133.8868  157.1956 LP  0  0  0  0  0  0  0  0  0  0  0  0  # atno 17395 bound_to 11000

$$$$
