AV-unprocessed.smi:97|AV-procd|sdf|862|dock3
  -GOLD-   2262017313D 1   1.00000     0.00000
 Structure written by MMmdl.
 46 49  0  0  0  0  0  0  0  0  1 V2000
  150.3373  138.3380  155.8501 O   0  0  0  0  0  0  0  0  0  0  0  0
  149.5436  139.0420  156.4730 C   0  0  0  0  0  0  0  0  0  0  0  0
  148.1029  138.5423  156.6832 C   0  0  0  0  0  0  0  0  0  0  0  0
  147.9866  137.3414  157.5434 N   0  0  0  0  0  0  0  0  0  0  0  0
  148.5553  136.1207  157.1018 C   0  0  0  0  0  0  0  0  0  0  0  0
  149.1412  136.0430  156.0214 O   0  0  0  0  0  0  0  0  0  0  0  0
  148.4057  134.9904  158.0118 C   0  0  0  0  0  0  0  0  0  0  0  0
  148.8934  133.7874  157.6649 F   0  0  0  0  0  0  0  0  0  0  0  0
  147.7855  135.1336  159.2011 C   0  0  0  0  0  0  0  0  0  0  0  0
  147.2607  136.3380  159.6310 N   0  0  0  0  0  0  0  0  0  0  0  0
  146.5833  136.4592  160.9769 C   0  0  1  0  0  0  0  0  0  0  0  0
  146.3515  135.0699  161.5824 C   0  0  0  0  0  0  0  0  0  0  0  0
  147.5279  134.9353  162.5252 C   0  0  0  0  0  0  0  0  0  0  0  0
  147.7165  136.3750  162.9871 C   0  0  0  0  0  0  0  0  0  0  0  0
  147.4214  137.1694  161.8428 O   0  0  0  0  0  0  0  0  0  0  0  0
  147.3362  137.4719  158.7946 C   0  0  0  0  0  0  0  0  0  0  0  0
  146.8536  138.5498  159.1480 O   0  0  0  0  0  0  0  0  0  0  0  0
  149.8678  140.2528  156.9570 N   0  0  0  0  0  0  0  0  0  0  0  0
  151.1313  140.9424  156.7283 C   0  0  0  0  0  0  0  0  0  0  0  0
  151.4423  141.9922  157.7858 C   0  0  0  0  0  0  0  0  0  0  0  0
  151.4373  143.3771  157.4605 C   0  0  0  0  0  0  0  0  0  0  0  0
  151.7226  144.3538  158.4408 C   0  0  0  0  0  0  0  0  0  0  0  0
  152.0032  143.9107  159.7430 C   0  0  0  0  0  0  0  0  0  0  0  0
  152.0033  142.5697  160.0666 C   0  0  0  0  0  0  0  0  0  0  0  0
  151.7238  141.5795  159.1105 C   0  0  0  0  0  0  0  0  0  0  0  0
  152.3020  142.4200  161.3823 O   0  0  0  0  0  0  0  0  0  0  0  0
  152.4924  143.7181  161.8830 C   0  0  0  0  0  0  0  0  0  0  0  0
  152.3013  144.6447  160.8451 O   0  0  0  0  0  0  0  0  0  0  0  0
  147.5140  139.3610  157.1004 H   0  0  0  0  0  0  0  0  0  0  0  0
  147.6591  138.3774  155.7007 H   0  0  0  0  0  0  0  0  0  0  0  0
  147.7001  134.2630  159.8341 H   0  0  0  0  0  0  0  0  0  0  0  0
  145.6663  137.0280  160.8155 H   0  0  0  0  0  0  0  0  0  0  0  0
  145.4145  135.0861  162.1403 H   0  0  0  0  0  0  0  0  0  0  0  0
  146.2979  134.2882  160.8236 H   0  0  0  0  0  0  0  0  0  0  0  0
  147.3413  134.2442  163.3476 H   0  0  0  0  0  0  0  0  0  0  0  0
  148.4099  134.5923  161.9832 H   0  0  0  0  0  0  0  0  0  0  0  0
  147.0043  136.6175  163.7770 H   0  0  0  0  0  0  0  0  0  0  0  0
  148.7213  136.5699  163.3621 H   0  0  0  0  0  0  0  0  0  0  0  0
  149.1597  140.7610  157.4662 H   0  0  0  0  0  0  0  0  0  0  0  0
  151.9297  140.2005  156.7393 H   0  0  0  0  0  0  0  0  0  0  0  0
  151.1429  141.3929  155.7342 H   0  0  0  0  0  0  0  0  0  0  0  0
  151.2137  143.7003  156.4544 H   0  0  0  0  0  0  0  0  0  0  0  0
  151.7223  145.4059  158.1971 H   0  0  0  0  0  0  0  0  0  0  0  0
  151.7286  140.5343  159.3834 H   0  0  0  0  0  0  0  0  0  0  0  0
  151.7752  143.9105  162.6816 H   0  0  0  0  0  0  0  0  0  0  0  0
  153.5055  143.8135  162.2757 H   0  0  0  0  0  0  0  0  0  0  0  0
  1  2  2  0  0  0  0
  2  3  1  0  0  0  0
  2 18  1  0  0  0  0
  3  4  1  0  0  0  0
  3 29  1  0  0  0  0
  3 30  1  0  0  0  0
  4 16  1  0  0  0  0
  4  5  1  0  0  0  0
  5  6  2  0  0  0  0
  5  7  1  0  0  0  0
  7  8  1  0  0  0  0
  7  9  2  0  0  0  0
  9 10  1  0  0  0  0
  9 31  1  0  0  0  0
 10 11  1  0  0  0  0
 10 16  1  0  0  0  0
 11 15  1  0  0  0  0
 11 12  1  0  0  0  0
 11 32  1  0  0  0  0
 12 13  1  0  0  0  0
 12 33  1  0  0  0  0
 12 34  1  0  0  0  0
 13 14  1  0  0  0  0
 13 35  1  0  0  0  0
 13 36  1  0  0  0  0
 14 15  1  0  0  0  0
 14 37  1  0  0  0  0
 14 38  1  0  0  0  0
 16 17  2  0  0  0  0
 18 19  1  0  0  0  0
 18 39  1  0  0  0  0
 19 20  1  0  0  0  0
 19 40  1  0  0  0  0
 19 41  1  0  0  0  0
 20 25  1  0  0  0  0
 20 21  2  0  0  0  0
 21 22  1  0  0  0  0
 21 42  1  0  0  0  0
 22 23  2  0  0  0  0
 22 43  1  0  0  0  0
 23 28  1  0  0  0  0
 23 24  1  0  0  0  0
 24 25  2  0  0  0  0
 24 26  1  0  0  0  0
 25 44  1  0  0  0  0
 26 27  1  0  0  0  0
 27 28  1  0  0  0  0
 27 45  1  0  0  0  0
 27 46  1  0  0  0  0
M  END
> <s_m_source_file>
AV-unprocessed.smi

> <i_m_source_file_index>
97

> <i_lp_mmshare_version>
43012

> <i_f3d_flags>
0

> <s_epik_input>
TzFbQ0gyXU9jKGMxMilbY0hdYyhbY0hdW2NIXTIpW0NIMl1bTkhdQyg9TylbQ0gyXW4zYyg9TyljKEYpW2NIXW4oYzM9TylbQ0BASF00W0NIMl1bQ0gyXVtDSDJdTzQ=

> <s_epik_cmdline>
J2VwaWtfcHl0aG9uJywgJy1waCcsICc3LjAnLCAnLXRuJywgJzgnLCAnLW1hJywgJzIwMCcsICctbWV0YWxfYmluZGluZycsICctaW1hZScsICc8aW5maWxlLm1hZT4nLCAnLW9tYWUnLCAnPG91dGZpbGUubWFlPic=

> <r_lp_tautomer_probability>
1

> <r_epik_Ionization_Penalty>
3.79042e-08

> <r_epik_Ionization_Penalty_Charging>
3.81036e-09

> <r_epik_Ionization_Penalty_Neutral>
3.40938e-08

> <r_epik_State_Penalty>
-0

> <r_epik_Charging_Adjusted_Penalty>
3.81036e-09

> <i_epik_Tot_Q>
0

> <i_epik_Tot_abs_Q>
0

> <r_epik_Metal_State_Penalty>
-0

> <b_epik_Metal_Only>
0

> <s_epik_Chemistry_Notes>
This compound contains an acetal/aminal-like group ( X-CH(R)-Y where X, Y are N, S, or O) that may be acid/base labile, releasing an aldehyde.

> <s_lp_Force_Field>
OPLS_2005

> <r_lp_Energy>
39.492

> <b_lp_Chiralities_Consistent>
1

> <s_lp_Variant>
AV-unprocessed.smi:97-2

> <Gold.Version>
5.8.1

> <Gold.Id.Protein>
6NUR|6NUR_protein|mol2

> <Gold.PLP.Fitness>
47.8836

> <Gold.PLP.PLP>
-44.6380

> <Gold.PLP.part.hbond>
-3.2368

> <Gold.PLP.part.metal>
0.0000

> <Gold.PLP.part.buried>
-5.9100

> <Gold.PLP.part.nonpolar>
-35.8722

> <Gold.PLP.part.repulsive>
0.2935

> <Gold.PLP.ligand.clash>
0.0000

> <Gold.PLP.ligand.torsion>
0.5523

> <Gold.PLP.Chemscore.Hbond>
1.4288

> <Gold.PLP.Chemscore.CHOScore>
0.0000

> <Gold.PLP.Chemscore.Metal>
0.0000

> <Gold.Chemscore.Hbonds>
donor molecule, donor type, donor heavy atom, donor atom, acceptor molecule, acceptor atom, score
      P1  H  6931  6943       L1    15  0.74
      P1  H  6934  6947       L1    15  0.58

> <Gold.PLP.Chemscore.Internal.Correction>
0.0638

> <Gold.Rescore>
     Score         DG    S(hbond)    S(metal)    S(lipo)     H(rot)  DE(clash)    DE(int)     intcor
     12.44     -14.70       1.26        0.00      99.29       2.58       0.05       2.21       ----

> <Gold.Chemscore.Fitness>
12.4410

> <Gold.Chemscore.DG>
-14.6951

> <Gold.Chemscore.ZeroCoef>
-5.4800

> <Gold.Chemscore.Hbond>
1.2586

> <Gold.Chemscore.Metal>
0.0000

> <Gold.Chemscore.Lipo>
99.2867

> <Gold.Chemscore.Internal_Hbond>
0.0000

> <Gold.Chemscore.DEClash>
0.0484

> <Gold.Chemscore.DEInternal>
2.2058

> <Gold.Chemscore.Rot>
2.5801

> <Gold.Chemscore.Internal.Correction>
   9.000000E+99

> <Gold.Chemscore.Hbonds>
donor molecule, donor type, donor heavy atom, donor atom, acceptor molecule, acceptor atom, score
      P1  H  6931  6943       L1    15  0.11
      P1  H  6934  6947       L1    17  0.32

> <Gold.Chemscore.Hbond.Weighted>
-4.2036

> <Gold.Chemscore.Metal.Weighted>
-0.0000

> <Gold.Chemscore.Lipo.Weighted>
-11.6165

> <Gold.Chemscore.Internal_Hbond.Weighted>
0.0000

> <Gold.Chemscore.DEClash.Weighted>
0.0484

> <Gold.Chemscore.DEInternal.Weighted>
2.2058

> <Gold.Chemscore.Rot.Weighted>
6.6050

> <Gold.Chemscore.Internal.Correction.Weighted>
   9.000000E+99

> <Gold.Protein.RotatedTorsions>
[ 6907 6896 6895 6894 ] final -116.69 input  -60.11 | X-H torsion
[ 7974 7965 7964 7962 ] final  -41.23 input  175.53 | X-H torsion
[ 8008 7997 7996 7995 ] final -132.83 input   59.86 | X-H torsion
[ 10167 10162 10161 10158 ] final  -75.45 input  -65.29 | X-H torsion
[ 10718 10713 10712 10709 ] final   31.83 input   66.30 | X-H torsion
[ 10763 10752 10751 10750 ] final   -4.26 input  -60.55 | X-H torsion
[ 11005 11000 10999 10996 ] final  -24.69 input  -57.11 | X-H torsion

> <Gold.Protein.ActiveResidues>
 VAL166  LYS551  ARG553  GLY616  TRP617  ASP618  TYR619  PRO620  LYS621  CYS622 
 ASP623  PHE694  ASN695  SER759  ASP760  ASP761  ALA762  ILE779  LEU786  VAL792 
 PHE793  MET794  SER795  GLU796  ALA797  LYS798  CYS799  TRP800  GLU811  SER814 

> <Gold.Protein.RotatedAtoms>
  150.8076  133.8481  159.3197 H   0  0  0  0  0  0  0  0  0  0  0  0  # atno 6907 bound_to 6896
  151.6276  135.1024  160.0124 H   0  0  0  0  0  0  0  0  0  0  0  0  # atno 6908 bound_to 6896
  152.4167  133.7010  159.6480 H   0  0  0  0  0  0  0  0  0  0  0  0  # atno 6909 bound_to 6896
  146.0230  140.6826  142.9169 H   0  0  0  0  0  0  0  0  0  0  0  0  # atno 7974 bound_to 7965
  155.3355  140.0469  157.3043 H   0  0  0  0  0  0  0  0  0  0  0  0  # atno 8008 bound_to 7997
  154.5305  140.2255  155.8778 H   0  0  0  0  0  0  0  0  0  0  0  0  # atno 8009 bound_to 7997
  156.1784  140.3080  155.9108 H   0  0  0  0  0  0  0  0  0  0  0  0  # atno 8010 bound_to 7997
  140.4942  143.2374  151.7858 H   0  0  0  0  0  0  0  0  0  0  0  0  # atno 10167 bound_to 10162
  157.2775  130.7238  149.6538 H   0  0  0  0  0  0  0  0  0  0  0  0  # atno 10718 bound_to 10713
  153.3825  135.6999  153.6555 H   0  0  0  0  0  0  0  0  0  0  0  0  # atno 10763 bound_to 10752
  153.5160  135.3622  155.2610 H   0  0  0  0  0  0  0  0  0  0  0  0  # atno 10764 bound_to 10752
  154.8694  135.4146  154.3126 H   0  0  0  0  0  0  0  0  0  0  0  0  # atno 10765 bound_to 10752
  140.8869  133.7615  156.0371 H   0  0  0  0  0  0  0  0  0  0  0  0  # atno 11005 bound_to 11000
  144.6998  140.3600  143.7165 LP  0  0  0  0  0  0  0  0  0  0  0  0  # atno 17320 bound_to 7965
  145.7163  139.1698  143.2510 LP  0  0  0  0  0  0  0  0  0  0  0  0  # atno 17321 bound_to 7965
  139.4857  144.4609  151.9542 LP  0  0  0  0  0  0  0  0  0  0  0  0  # atno 17342 bound_to 10162
  140.3697  144.2871  150.5921 LP  0  0  0  0  0  0  0  0  0  0  0  0  # atno 17343 bound_to 10162
  155.9664  130.4348  150.5066 LP  0  0  0  0  0  0  0  0  0  0  0  0  # atno 17370 bound_to 10713
  157.3003  131.0644  151.2073 LP  0  0  0  0  0  0  0  0  0  0  0  0  # atno 17371 bound_to 10713
  140.8394  134.3084  157.5319 LP  0  0  0  0  0  0  0  0  0  0  0  0  # atno 17394 bound_to 11000
  139.8725  134.9408  156.3778 LP  0  0  0  0  0  0  0  0  0  0  0  0  # atno 17395 bound_to 11000

$$$$
