AV-unprocessed.smi:2065|AV-procd|sdf|8418|dock2
  -GOLD-   2272011113D 1   1.00000     0.00000
 Structure written by MMmdl.
 38 39  0  0  0  0  0  0  0  0  1 V2000
  153.1874  142.6186  162.3409 C   0  0  0  0  0  0  0  0  0  0  0  0
  152.6924  142.7199  160.9284 C   0  0  0  0  0  0  0  0  0  0  0  0
  152.5131  141.6676  159.9838 C   0  0  0  0  0  0  0  0  0  0  0  0
  152.0469  142.3295  158.8810 C   0  0  0  0  0  0  0  0  0  0  0  0
  151.7016  141.8289  157.6649 N   0  0  0  0  0  0  0  0  0  0  0  0
  150.4848  141.4747  157.2163 C   0  0  0  0  0  0  0  0  0  0  0  0
  149.4368  141.5476  157.8585 O   0  0  0  0  0  0  0  0  0  0  0  0
  150.5488  141.0244  155.9549 N   0  0  0  0  0  0  0  0  0  0  0  0
  149.4198  140.5335  155.1626 C   0  0  1  0  0  0  0  0  0  0  0  0
  148.7512  141.7041  154.4072 C   0  0  0  0  0  0  0  0  0  0  0  0
  147.2926  141.4354  154.0031 C   0  0  0  0  0  0  0  0  0  0  0  0
  147.0994  140.2741  153.0165 C   0  0  0  0  0  0  0  0  0  0  0  0
  147.4816  138.9011  153.5960 C   0  0  0  0  0  0  0  0  0  0  0  0
  148.9210  138.6717  153.5908 N   0  0  0  0  0  0  0  0  0  0  0  0
  149.8558  139.3646  154.2590 C   0  0  0  0  0  0  0  0  0  0  0  0
  151.0470  139.0751  154.1462 O   0  0  0  0  0  0  0  0  0  0  0  0
  151.9641  143.6733  159.1702 N   0  0  0  0  0  0  0  0  0  0  0  0
  151.5297  144.7709  158.3284 C   0  0  0  0  0  0  0  0  0  0  0  0
  152.3637  143.9100  160.4385 N   0  0  0  0  0  0  0  0  0  0  0  0
  153.4913  141.5992  162.5796 H   0  0  0  0  0  0  0  0  0  0  0  0
  152.4113  142.9075  163.0498 H   0  0  0  0  0  0  0  0  0  0  0  0
  154.0481  143.2676  162.5039 H   0  0  0  0  0  0  0  0  0  0  0  0
  152.7018  140.6128  160.1149 H   0  0  0  0  0  0  0  0  0  0  0  0
  152.4653  141.7137  157.0151 H   0  0  0  0  0  0  0  0  0  0  0  0
  151.4532  140.9942  155.5069 H   0  0  0  0  0  0  0  0  0  0  0  0
  148.6962  140.1191  155.8673 H   0  0  0  0  0  0  0  0  0  0  0  0
  148.7517  142.5937  155.0386 H   0  0  0  0  0  0  0  0  0  0  0  0
  149.3407  141.9683  153.5280 H   0  0  0  0  0  0  0  0  0  0  0  0
  146.6951  141.2562  154.8979 H   0  0  0  0  0  0  0  0  0  0  0  0
  146.8867  142.3421  153.5535 H   0  0  0  0  0  0  0  0  0  0  0  0
  146.0462  140.2449  152.7351 H   0  0  0  0  0  0  0  0  0  0  0  0
  147.6494  140.4633  152.0935 H   0  0  0  0  0  0  0  0  0  0  0  0
  147.0785  138.7706  154.6012 H   0  0  0  0  0  0  0  0  0  0  0  0
  147.0331  138.1188  152.9833 H   0  0  0  0  0  0  0  0  0  0  0  0
  149.2455  137.9117  153.0104 H   0  0  0  0  0  0  0  0  0  0  0  0
  150.5037  144.5979  158.0019 H   0  0  0  0  0  0  0  0  0  0  0  0
  152.1760  144.8378  157.4530 H   0  0  0  0  0  0  0  0  0  0  0  0
  151.5727  145.7150  158.8736 H   0  0  0  0  0  0  0  0  0  0  0  0
  1  2  1  0  0  0  0
  1 20  1  0  0  0  0
  1 21  1  0  0  0  0
  1 22  1  0  0  0  0
  2 19  2  0  0  0  0
  2  3  1  0  0  0  0
  3  4  2  0  0  0  0
  3 23  1  0  0  0  0
  4  5  1  0  0  0  0
  4 17  1  0  0  0  0
  5  6  1  0  0  0  0
  5 24  1  0  0  0  0
  6  7  2  0  0  0  0
  6  8  1  0  0  0  0
  8  9  1  0  0  0  0
  8 25  1  0  0  0  0
  9 15  1  0  0  0  0
  9 10  1  0  0  0  0
  9 26  1  0  0  0  0
 10 11  1  0  0  0  0
 10 27  1  0  0  0  0
 10 28  1  0  0  0  0
 11 12  1  0  0  0  0
 11 29  1  0  0  0  0
 11 30  1  0  0  0  0
 12 13  1  0  0  0  0
 12 31  1  0  0  0  0
 12 32  1  0  0  0  0
 13 14  1  0  0  0  0
 13 33  1  0  0  0  0
 13 34  1  0  0  0  0
 14 15  1  0  0  0  0
 14 35  1  0  0  0  0
 15 16  2  0  0  0  0
 17 18  1  0  0  0  0
 17 19  1  0  0  0  0
 18 36  1  0  0  0  0
 18 37  1  0  0  0  0
 18 38  1  0  0  0  0
M  END
> <s_m_source_file>
AV-unprocessed.smi

> <i_m_source_file_index>
2065

> <i_lp_mmshare_version>
43012

> <i_f3d_flags>
0

> <s_epik_input>
W0NIM11jMVtjSF1jKG4objEpW0NIM10pW05IXUMoPU8pW05IXVtDQEBIXTJbQ0gyXVtDSDJdW0NIMl1bQ0gyXVtOSF1DMj1P

> <s_epik_cmdline>
J2VwaWtfcHl0aG9uJywgJy1waCcsICc3LjAnLCAnLXRuJywgJzgnLCAnLW1hJywgJzIwMCcsICctbWV0YWxfYmluZGluZycsICctaW1hZScsICc8aW5maWxlLm1hZT4nLCAnLW9tYWUnLCAnPG91dGZpbGUubWFlPic=

> <r_lp_tautomer_probability>
1

> <r_epik_Ionization_Penalty>
8.1752e-05

> <r_epik_Ionization_Penalty_Charging>
0

> <r_epik_Ionization_Penalty_Neutral>
8.1752e-05

> <r_epik_State_Penalty>
-0

> <r_epik_Charging_Adjusted_Penalty>
0

> <i_epik_Tot_Q>
0

> <i_epik_Tot_abs_Q>
0

> <r_epik_Metal_State_Penalty>
-0

> <b_epik_Metal_Only>
0

> <s_lp_Force_Field>
OPLS_2005

> <r_lp_Energy>
11.1948

> <b_lp_Chiralities_Consistent>
1

> <s_lp_Variant>
AV-unprocessed.smi:2065-2

> <Gold.Version>
5.8.1

> <Gold.Id.Protein>
6NUR|6NUR_protein|mol2

> <Gold.PLP.Fitness>
44.7976

> <Gold.PLP.PLP>
-41.4200

> <Gold.PLP.part.hbond>
-3.0000

> <Gold.PLP.part.metal>
0.0000

> <Gold.PLP.part.buried>
-2.1612

> <Gold.PLP.part.nonpolar>
-36.3274

> <Gold.PLP.part.repulsive>
0.5526

> <Gold.PLP.ligand.clash>
0.0000

> <Gold.PLP.ligand.torsion>
1.0998

> <Gold.PLP.Chemscore.Hbond>
1.8500

> <Gold.PLP.Chemscore.CHOScore>
0.0000

> <Gold.PLP.Chemscore.Metal>
0.0000

> <Gold.Chemscore.Hbonds>
donor molecule, donor type, donor heavy atom, donor atom, acceptor molecule, acceptor atom, score
      L1  H    14    35       P1  7948  1.00
      P1  H  7989  7998       L1    16  0.80

> <Gold.PLP.Chemscore.Internal.Correction>
0.0271

> <Gold.Rescore>
     Score         DG    S(hbond)    S(metal)    S(lipo)     H(rot)  DE(clash)    DE(int)     intcor
     14.86     -16.35       1.20        0.00      80.46       1.00       0.40       1.09       ----

> <Gold.Chemscore.Fitness>
14.8584

> <Gold.Chemscore.DG>
-16.3472

> <Gold.Chemscore.ZeroCoef>
-5.4800

> <Gold.Chemscore.Hbond>
1.2017

> <Gold.Chemscore.Metal>
0.0000

> <Gold.Chemscore.Lipo>
80.4569

> <Gold.Chemscore.Internal_Hbond>
0.0000

> <Gold.Chemscore.DEClash>
0.3959

> <Gold.Chemscore.DEInternal>
1.0929

> <Gold.Chemscore.Rot>
1.0000

> <Gold.Chemscore.Internal.Correction>
   9.000000E+99

> <Gold.Chemscore.Hbonds>
donor molecule, donor type, donor heavy atom, donor atom, acceptor molecule, acceptor atom, score
      L1  H    14    35       P1  7948  0.89
      P1  H  7989  7998       L1    16  0.11

> <Gold.Chemscore.Hbond.Weighted>
-4.0138

> <Gold.Chemscore.Metal.Weighted>
-0.0000

> <Gold.Chemscore.Lipo.Weighted>
-9.4135

> <Gold.Chemscore.Internal_Hbond.Weighted>
0.0000

> <Gold.Chemscore.DEClash.Weighted>
0.3959

> <Gold.Chemscore.DEInternal.Weighted>
1.0929

> <Gold.Chemscore.Rot.Weighted>
2.5600

> <Gold.Chemscore.Internal.Correction.Weighted>
   9.000000E+99

> <Gold.Protein.RotatedTorsions>
[ 6907 6896 6895 6894 ] final -143.71 input  -60.11 | X-H torsion
[ 7974 7965 7964 7962 ] final -152.15 input  175.53 | X-H torsion
[ 8008 7997 7996 7995 ] final   36.74 input   59.86 | X-H torsion
[ 10167 10162 10161 10158 ] final  -25.62 input  -65.29 | X-H torsion
[ 10718 10713 10712 10709 ] final   16.39 input   66.30 | X-H torsion
[ 10763 10752 10751 10750 ] final -169.08 input  -60.55 | X-H torsion
[ 11005 11000 10999 10996 ] final -160.21 input  -57.11 | X-H torsion

> <Gold.Protein.ActiveResidues>
 VAL166  LYS551  ARG553  GLY616  TRP617  ASP618  TYR619  PRO620  LYS621  CYS622 
 ASP623  PHE694  ASN695  SER759  ASP760  ASP761  ALA762  ILE779  LEU786  VAL792 
 PHE793  MET794  SER795  GLU796  ALA797  LYS798  CYS799  TRP800  GLU811  SER814 

> <Gold.Protein.RotatedAtoms>
  151.1042  133.5221  159.2608 H   0  0  0  0  0  0  0  0  0  0  0  0  # atno 6907 bound_to 6896
  151.2040  135.0454  159.8894 H   0  0  0  0  0  0  0  0  0  0  0  0  # atno 6908 bound_to 6896
  152.5445  134.0866  159.8312 H   0  0  0  0  0  0  0  0  0  0  0  0  # atno 6909 bound_to 6896
  144.7810  140.4701  143.5839 H   0  0  0  0  0  0  0  0  0  0  0  0  # atno 7974 bound_to 7965
  155.1924  140.3309  155.4356 H   0  0  0  0  0  0  0  0  0  0  0  0  # atno 8008 bound_to 7997
  156.2437  140.1908  156.6966 H   0  0  0  0  0  0  0  0  0  0  0  0  # atno 8009 bound_to 7997
  154.6197  140.0597  156.9585 H   0  0  0  0  0  0  0  0  0  0  0  0  # atno 8010 bound_to 7997
  140.7286  143.4249  151.0893 H   0  0  0  0  0  0  0  0  0  0  0  0  # atno 10167 bound_to 10162
  157.0672  130.6333  149.5798 H   0  0  0  0  0  0  0  0  0  0  0  0  # atno 10718 bound_to 10713
  154.6561  135.2918  154.9926 H   0  0  0  0  0  0  0  0  0  0  0  0  # atno 10763 bound_to 10752
  154.1001  135.6578  153.4871 H   0  0  0  0  0  0  0  0  0  0  0  0  # atno 10764 bound_to 10752
  153.0403  135.5240  154.7491 H   0  0  0  0  0  0  0  0  0  0  0  0  # atno 10765 bound_to 10752
  140.6341  134.4620  157.5231 H   0  0  0  0  0  0  0  0  0  0  0  0  # atno 11005 bound_to 11000
  145.6051  139.1507  143.3107 LP  0  0  0  0  0  0  0  0  0  0  0  0  # atno 17320 bound_to 7965
  146.2018  140.6170  142.9099 LP  0  0  0  0  0  0  0  0  0  0  0  0  # atno 17321 bound_to 7965
  139.7899  143.8234  152.3150 LP  0  0  0  0  0  0  0  0  0  0  0  0  # atno 17342 bound_to 10162
  139.8214  144.7294  150.9568 LP  0  0  0  0  0  0  0  0  0  0  0  0  # atno 17343 bound_to 10162
  155.9961  130.5029  150.7484 LP  0  0  0  0  0  0  0  0  0  0  0  0  # atno 17370 bound_to 10713
  157.4908  131.0910  151.0429 LP  0  0  0  0  0  0  0  0  0  0  0  0  # atno 17371 bound_to 10713
  139.9105  134.8355  156.1546 LP  0  0  0  0  0  0  0  0  0  0  0  0  # atno 17394 bound_to 11000
  141.0654  133.6821  156.2035 LP  0  0  0  0  0  0  0  0  0  0  0  0  # atno 17395 bound_to 11000

$$$$
