AV-unprocessed.smi:3311|AV-procd|sdf|12724|dock10
  -GOLD-   2272019 63D 1   1.00000     0.00000
 Structure written by MMmdl.
 43 44  0  0  0  0  0  0  0  0  1 V2000
  146.1748  138.5526  152.9714 C   0  0  0  0  0  0  0  0  0  0  0  0
  146.4991  137.3650  153.9042 C   0  0  1  0  0  0  0  0  0  0  0  0
  146.4816  136.0904  153.1770 N   0  0  0  0  0  0  0  0  0  0  0  0
  145.3796  135.9012  152.2305 C   0  0  0  0  0  0  0  0  0  0  0  0
  145.1672  134.4145  151.8650 C   0  0  0  0  0  0  0  0  0  0  0  0
  144.8170  133.7394  153.0605 O   0  0  0  0  0  0  0  0  0  0  0  0
  144.0562  134.2136  150.8025 C   0  0  0  0  0  0  0  0  0  0  0  0
  143.9383  132.7556  150.3232 C   0  0  0  0  0  0  0  0  0  0  0  0
  145.2825  132.2224  149.8100 C   0  0  0  0  0  0  0  0  0  0  0  0
  146.3700  132.3571  150.8844 C   0  0  0  0  0  0  0  0  0  0  0  0
  146.5025  133.8137  151.3643 C   0  0  0  0  0  0  0  0  0  0  0  0
  147.8531  137.5154  154.6493 C   0  0  2  0  0  0  0  0  0  0  0  0
  148.1662  136.3059  155.5494 C   0  0  0  0  0  0  0  0  0  0  0  0
  147.9608  138.7713  155.3892 N   0  0  0  0  0  0  0  0  0  0  0  0
  147.0124  139.7571  155.5889 C   0  0  0  0  0  0  0  0  0  0  0  0
  147.5993  140.7524  156.3162 C   0  0  0  0  0  0  0  0  0  0  0  0
  148.9294  140.2884  156.5100 C   0  0  0  0  0  0  0  0  0  0  0  0
  149.1436  139.1092  155.9506 N   0  0  0  0  0  0  0  0  0  0  0  0
  146.2984  139.5063  153.4837 H   0  0  0  0  0  0  0  0  0  0  0  0
  145.1424  138.5208  152.6246 H   0  0  0  0  0  0  0  0  0  0  0  0
  146.8186  138.5632  152.0913 H   0  0  0  0  0  0  0  0  0  0  0  0
  145.7188  137.3253  154.6651 H   0  0  0  0  0  0  0  0  0  0  0  0
  147.3666  135.9565  152.6971 H   0  0  0  0  0  0  0  0  0  0  0  0
  144.4623  136.3010  152.6647 H   0  0  0  0  0  0  0  0  0  0  0  0
  145.5583  136.4653  151.3150 H   0  0  0  0  0  0  0  0  0  0  0  0
  145.5734  133.7233  153.6264 H   0  0  0  0  0  0  0  0  0  0  0  0
  143.0892  134.5382  151.1888 H   0  0  0  0  0  0  0  0  0  0  0  0
  144.2662  134.8497  149.9415 H   0  0  0  0  0  0  0  0  0  0  0  0
  143.5828  132.1266  151.1402 H   0  0  0  0  0  0  0  0  0  0  0  0
  143.1878  132.6859  149.5353 H   0  0  0  0  0  0  0  0  0  0  0  0
  145.1800  131.1786  149.5120 H   0  0  0  0  0  0  0  0  0  0  0  0
  145.5793  132.7727  148.9162 H   0  0  0  0  0  0  0  0  0  0  0  0
  146.1355  131.7076  151.7285 H   0  0  0  0  0  0  0  0  0  0  0  0
  147.3249  132.0110  150.4883 H   0  0  0  0  0  0  0  0  0  0  0  0
  146.8776  134.4158  150.5355 H   0  0  0  0  0  0  0  0  0  0  0  0
  147.2616  133.8742  152.1458 H   0  0  0  0  0  0  0  0  0  0  0  0
  148.6435  137.5227  153.8954 H   0  0  0  0  0  0  0  0  0  0  0  0
  148.1834  135.3834  154.9686 H   0  0  0  0  0  0  0  0  0  0  0  0
  147.4293  136.1797  156.3423 H   0  0  0  0  0  0  0  0  0  0  0  0
  149.1441  136.4123  156.0198 H   0  0  0  0  0  0  0  0  0  0  0  0
  146.0086  139.6744  155.1995 H   0  0  0  0  0  0  0  0  0  0  0  0
  147.1485  141.6737  156.6535 H   0  0  0  0  0  0  0  0  0  0  0  0
  149.7412  140.7712  157.0339 H   0  0  0  0  0  0  0  0  0  0  0  0
  1  2  1  0  0  0  0
  1 19  1  0  0  0  0
  1 20  1  0  0  0  0
  1 21  1  0  0  0  0
  2  3  1  0  0  0  0
  2 12  1  0  0  0  0
  2 22  1  0  0  0  0
  3  4  1  0  0  0  0
  3 23  1  0  0  0  0
  4  5  1  0  0  0  0
  4 24  1  0  0  0  0
  4 25  1  0  0  0  0
  5 11  1  0  0  0  0
  5  6  1  0  0  0  0
  5  7  1  0  0  0  0
  6 26  1  0  0  0  0
  7  8  1  0  0  0  0
  7 27  1  0  0  0  0
  7 28  1  0  0  0  0
  8  9  1  0  0  0  0
  8 29  1  0  0  0  0
  8 30  1  0  0  0  0
  9 10  1  0  0  0  0
  9 31  1  0  0  0  0
  9 32  1  0  0  0  0
 10 11  1  0  0  0  0
 10 33  1  0  0  0  0
 10 34  1  0  0  0  0
 11 35  1  0  0  0  0
 11 36  1  0  0  0  0
 12 13  1  0  0  0  0
 12 14  1  0  0  0  0
 12 37  1  0  0  0  0
 13 38  1  0  0  0  0
 13 39  1  0  0  0  0
 13 40  1  0  0  0  0
 14 18  1  0  0  0  0
 14 15  1  0  0  0  0
 15 16  2  0  0  0  0
 15 41  1  0  0  0  0
 16 17  1  0  0  0  0
 16 42  1  0  0  0  0
 17 18  2  0  0  0  0
 17 43  1  0  0  0  0
M  END
> <s_m_source_file>
AV-unprocessed.smi

> <i_m_source_file_index>
3311

> <i_lp_mmshare_version>
43012

> <i_f3d_flags>
0

> <s_epik_input>
bjFbY0hdW2NIXVtjSF1uMVtDQEBIXShbQ0gzXSlbQ0BIXShbQ0gzXSlbTkhdW0NIMl1DMihbT0hdKVtDSDJdW0NIMl1bQ0gyXVtDSDJdW0NIMl0y

> <s_epik_cmdline>
J2VwaWtfcHl0aG9uJywgJy1waCcsICc3LjAnLCAnLXRuJywgJzgnLCAnLW1hJywgJzIwMCcsICctbWV0YWxfYmluZGluZycsICctaW1hZScsICc8aW5maWxlLm1hZT4nLCAnLW9tYWUnLCAnPG91dGZpbGUubWFlPic=

> <r_lp_tautomer_probability>
1

> <r_epik_Ionization_Penalty>
2.222

> <r_epik_Ionization_Penalty_Charging>
0

> <r_epik_Ionization_Penalty_Neutral>
2.222

> <r_epik_State_Penalty>
2.36562

> <r_epik_Charging_Adjusted_Penalty>
2.36562

> <i_epik_Tot_Q>
0

> <i_epik_Tot_abs_Q>
0

> <r_epik_Metal_State_Penalty>
2.36435

> <b_epik_Metal_Only>
0

> <s_lp_Force_Field>
OPLS_2005

> <r_lp_Energy>
28.1428

> <b_lp_Chiralities_Consistent>
1

> <s_lp_Variant>
AV-unprocessed.smi:3311-6

> <Gold.Version>
5.8.1

> <Gold.Id.Protein>
6NUR|6NUR_protein|mol2

> <Gold.PLP.Fitness>
43.0696

> <Gold.PLP.PLP>
-34.8147

> <Gold.PLP.part.hbond>
-1.0000

> <Gold.PLP.part.metal>
0.0000

> <Gold.PLP.part.buried>
1.3391

> <Gold.PLP.part.nonpolar>
-35.1698

> <Gold.PLP.part.repulsive>
0.1041

> <Gold.PLP.ligand.clash>
0.0000

> <Gold.PLP.ligand.torsion>
0.2613

> <Gold.PLP.Chemscore.Hbond>
1.0000

> <Gold.PLP.Chemscore.CHOScore>
1.8819

> <Gold.PLP.Chemscore.Metal>
0.0000

> <Gold.Chemscore.Hbonds>
donor molecule, donor type, donor heavy atom, donor atom, acceptor molecule, acceptor atom, score
      L1  H     3    23       P1  7948  1.00

> <Gold.PLP.Chemscore.Internal.Correction>
0.1318

> <Gold.Rescore>
     Score         DG    S(hbond)    S(metal)    S(lipo)     H(rot)  DE(clash)    DE(int)     intcor
     14.19     -14.57       0.99        0.00      94.61       2.07       0.12       0.26       ----

> <Gold.Chemscore.Fitness>
14.1861

> <Gold.Chemscore.DG>
-14.5727

> <Gold.Chemscore.ZeroCoef>
-5.4800

> <Gold.Chemscore.Hbond>
0.9938

> <Gold.Chemscore.Metal>
0.0000

> <Gold.Chemscore.Lipo>
94.6084

> <Gold.Chemscore.Internal_Hbond>
0.0000

> <Gold.Chemscore.DEClash>
0.1221

> <Gold.Chemscore.DEInternal>
0.2646

> <Gold.Chemscore.Rot>
2.0686

> <Gold.Chemscore.Internal.Correction>
   9.000000E+99

> <Gold.Chemscore.Hbonds>
donor molecule, donor type, donor heavy atom, donor atom, acceptor molecule, acceptor atom, score
      L1  H     3    23       P1  7948  1.00

> <Gold.Chemscore.Hbond.Weighted>
-3.3192

> <Gold.Chemscore.Metal.Weighted>
-0.0000

> <Gold.Chemscore.Lipo.Weighted>
-11.0692

> <Gold.Chemscore.Internal_Hbond.Weighted>
0.0000

> <Gold.Chemscore.DEClash.Weighted>
0.1221

> <Gold.Chemscore.DEInternal.Weighted>
0.2646

> <Gold.Chemscore.Rot.Weighted>
5.2957

> <Gold.Chemscore.Internal.Correction.Weighted>
   9.000000E+99

> <Gold.Protein.RotatedTorsions>
[ 6907 6896 6895 6894 ] final  -96.84 input  -60.11 | X-H torsion
[ 7974 7965 7964 7962 ] final  -19.31 input  175.53 | X-H torsion
[ 8008 7997 7996 7995 ] final   45.45 input   59.86 | X-H torsion
[ 10167 10162 10161 10158 ] final  -14.83 input  -65.29 | X-H torsion
[ 10718 10713 10712 10709 ] final  119.46 input   66.30 | X-H torsion
[ 10763 10752 10751 10750 ] final   32.55 input  -60.55 | X-H torsion
[ 11005 11000 10999 10996 ] final  166.73 input  -57.11 | X-H torsion

> <Gold.Protein.ActiveResidues>
 VAL166  LYS551  ARG553  GLY616  TRP617  ASP618  TYR619  PRO620  LYS621  CYS622 
 ASP623  PHE694  ASN695  SER759  ASP760  ASP761  ALA762  ILE779  LEU786  VAL792 
 PHE793  MET794  SER795  GLU796  ALA797  LYS798  CYS799  TRP800  GLU811  SER814 

> <Gold.Protein.RotatedAtoms>
  150.6999  134.1441  159.4115 H   0  0  0  0  0  0  0  0  0  0  0  0  # atno 6907 bound_to 6896
  151.9424  135.0205  160.0546 H   0  0  0  0  0  0  0  0  0  0  0  0  # atno 6908 bound_to 6896
  152.2082  133.4856  159.5132 H   0  0  0  0  0  0  0  0  0  0  0  0  # atno 6909 bound_to 6896
  146.1848  140.4044  142.8481 H   0  0  0  0  0  0  0  0  0  0  0  0  # atno 7974 bound_to 7965
  155.3360  140.3405  155.4239 H   0  0  0  0  0  0  0  0  0  0  0  0  # atno 8008 bound_to 7997
  156.1837  140.1673  156.8262 H   0  0  0  0  0  0  0  0  0  0  0  0  # atno 8009 bound_to 7997
  154.5362  140.0734  156.8415 H   0  0  0  0  0  0  0  0  0  0  0  0  # atno 8010 bound_to 7997
  140.7208  143.5281  150.9553 H   0  0  0  0  0  0  0  0  0  0  0  0  # atno 10167 bound_to 10162
  157.5960  131.1058  150.7900 H   0  0  0  0  0  0  0  0  0  0  0  0  # atno 10718 bound_to 10713
  153.0257  135.6410  154.1372 H   0  0  0  0  0  0  0  0  0  0  0  0  # atno 10763 bound_to 10752
  154.1102  135.2853  155.3234 H   0  0  0  0  0  0  0  0  0  0  0  0  # atno 10764 bound_to 10752
  154.6337  135.5484  153.7772 H   0  0  0  0  0  0  0  0  0  0  0  0  # atno 10765 bound_to 10752
  140.2695  134.7838  157.3662 H   0  0  0  0  0  0  0  0  0  0  0  0  # atno 11005 bound_to 11000
  144.8377  140.6808  143.6250 LP  0  0  0  0  0  0  0  0  0  0  0  0  # atno 17320 bound_to 7965
  145.3972  139.1605  143.4197 LP  0  0  0  0  0  0  0  0  0  0  0  0  # atno 17321 bound_to 7965
  139.9000  143.6847  152.3132 LP  0  0  0  0  0  0  0  0  0  0  0  0  # atno 17342 bound_to 10162
  139.7193  144.7605  151.0981 LP  0  0  0  0  0  0  0  0  0  0  0  0  # atno 17343 bound_to 10162
  156.8310  130.5016  149.5331 LP  0  0  0  0  0  0  0  0  0  0  0  0  # atno 17370 bound_to 10713
  156.1022  130.5978  150.9913 LP  0  0  0  0  0  0  0  0  0  0  0  0  # atno 17371 bound_to 10713
  140.1387  134.5000  155.8048 LP  0  0  0  0  0  0  0  0  0  0  0  0  # atno 17394 bound_to 11000
  141.2179  133.6817  156.7171 LP  0  0  0  0  0  0  0  0  0  0  0  0  # atno 17395 bound_to 11000

$$$$
