AV-unprocessed.smi:528|AV-procd|sdf|2834|dock10
  -GOLD-   2262023323D 1   1.00000     0.00000
 Structure written by MMmdl.
 45 47  0  0  0  0  0  0  0  0  1 V2000
  151.0059  140.8961  156.8251 C   0  0  0  0  0  0  0  0  0  0  0  0
  150.6398  142.3617  157.1118 C   0  0  1  0  0  0  0  0  0  0  0  0
  149.2102  142.5335  156.8592 N   0  0  0  0  0  0  0  0  0  0  0  0
  148.2181  141.8303  157.4279 C   0  0  0  0  0  0  0  0  0  0  0  0
  148.4021  140.9605  158.2804 O   0  0  0  0  0  0  0  0  0  0  0  0
  146.7973  142.1711  156.9596 C   0  0  0  0  0  0  0  0  0  0  0  0
  145.7938  142.0028  158.0237 N   0  0  0  0  0  0  0  0  0  0  0  0
  145.8512  142.8958  159.1118 C   0  0  0  0  0  0  0  0  0  0  0  0
  145.0022  142.8347  160.1556 C   0  0  0  0  0  0  0  0  0  0  0  0
  145.0546  143.8456  161.2906 C   0  0  0  0  0  0  0  0  0  0  0  0
  144.1093  143.5977  162.1975 F   0  0  0  0  0  0  0  0  0  0  0  0
  146.2385  143.7835  161.8979 F   0  0  0  0  0  0  0  0  0  0  0  0
  144.8851  145.0885  160.8378 F   0  0  0  0  0  0  0  0  0  0  0  0
  143.9803  141.8081  160.0970 C   0  0  0  0  0  0  0  0  0  0  0  0
  143.9068  140.9504  159.0604 C   0  0  0  0  0  0  0  0  0  0  0  0
  144.8519  141.0149  157.9434 C   0  0  0  0  0  0  0  0  0  0  0  0
  144.7997  140.2315  156.9945 O   0  0  0  0  0  0  0  0  0  0  0  0
  150.9838  142.7804  158.5641 C   0  0  1  0  0  0  0  0  0  0  0  0
  152.3886  142.3158  159.0217 C   0  0  0  0  0  0  0  0  0  0  0  0
  153.0520  143.6148  159.5120 C   0  0  2  0  0  0  0  0  0  0  0  0
  152.3757  144.0789  160.8143 C   0  0  0  0  0  0  0  0  0  0  0  0
  151.0080  144.5852  160.3211 C   0  0  0  0  0  0  0  0  0  0  0  0
  151.0693  144.3110  158.8062 C   0  0  1  0  0  0  0  0  0  0  0  0
  152.5294  144.6262  158.5006 C   0  0  0  0  0  0  0  0  0  0  0  0
  152.0742  140.7170  156.9452 H   0  0  0  0  0  0  0  0  0  0  0  0
  150.7460  140.6218  155.8022 H   0  0  0  0  0  0  0  0  0  0  0  0
  150.4783  140.2162  157.4948 H   0  0  0  0  0  0  0  0  0  0  0  0
  151.2153  142.9828  156.4237 H   0  0  0  0  0  0  0  0  0  0  0  0
  148.9563  143.2286  156.1720 H   0  0  0  0  0  0  0  0  0  0  0  0
  146.8007  143.1957  156.5857 H   0  0  0  0  0  0  0  0  0  0  0  0
  146.5316  141.5534  156.0992 H   0  0  0  0  0  0  0  0  0  0  0  0
  146.6359  143.6355  159.0459 H   0  0  0  0  0  0  0  0  0  0  0  0
  143.2642  141.7207  160.9009 H   0  0  0  0  0  0  0  0  0  0  0  0
  143.1344  140.1954  159.0521 H   0  0  0  0  0  0  0  0  0  0  0  0
  150.2239  142.3570  159.2231 H   0  0  0  0  0  0  0  0  0  0  0  0
  152.3400  141.5540  159.8005 H   0  0  0  0  0  0  0  0  0  0  0  0
  152.9640  141.9021  158.1928 H   0  0  0  0  0  0  0  0  0  0  0  0
  154.1383  143.5511  159.5815 H   0  0  0  0  0  0  0  0  0  0  0  0
  152.2835  143.2713  161.5414 H   0  0  0  0  0  0  0  0  0  0  0  0
  152.9389  144.8883  161.2802 H   0  0  0  0  0  0  0  0  0  0  0  0
  150.1736  144.0771  160.8056 H   0  0  0  0  0  0  0  0  0  0  0  0
  150.9036  145.6535  160.5152 H   0  0  0  0  0  0  0  0  0  0  0  0
  150.3489  144.9076  158.2476 H   0  0  0  0  0  0  0  0  0  0  0  0
  152.8080  145.6554  158.7338 H   0  0  0  0  0  0  0  0  0  0  0  0
  152.8179  144.4032  157.4724 H   0  0  0  0  0  0  0  0  0  0  0  0
  1  2  1  0  0  0  0
  1 25  1  0  0  0  0
  1 26  1  0  0  0  0
  1 27  1  0  0  0  0
  2  3  1  0  0  0  0
  2 18  1  0  0  0  0
  2 28  1  0  0  0  0
  3  4  1  0  0  0  0
  3 29  1  0  0  0  0
  4  5  2  0  0  0  0
  4  6  1  0  0  0  0
  6  7  1  0  0  0  0
  6 30  1  0  0  0  0
  6 31  1  0  0  0  0
  7 16  1  0  0  0  0
  7  8  1  0  0  0  0
  8  9  2  0  0  0  0
  8 32  1  0  0  0  0
  9 10  1  0  0  0  0
  9 14  1  0  0  0  0
 10 11  1  0  0  0  0
 10 12  1  0  0  0  0
 10 13  1  0  0  0  0
 14 15  2  0  0  0  0
 14 33  1  0  0  0  0
 15 16  1  0  0  0  0
 15 34  1  0  0  0  0
 16 17  2  0  0  0  0
 18 23  1  0  0  0  0
 18 19  1  0  0  0  0
 18 35  1  0  0  0  0
 19 20  1  0  0  0  0
 19 36  1  0  0  0  0
 19 37  1  0  0  0  0
 20 24  1  0  0  0  0
 20 21  1  0  0  0  0
 20 38  1  0  0  0  0
 21 22  1  0  0  0  0
 21 39  1  0  0  0  0
 21 40  1  0  0  0  0
 22 23  1  0  0  0  0
 22 41  1  0  0  0  0
 22 42  1  0  0  0  0
 23 24  1  0  0  0  0
 23 43  1  0  0  0  0
 24 44  1  0  0  0  0
 24 45  1  0  0  0  0
M  END
> <s_m_source_file>
AV-unprocessed.smi

> <i_m_source_file_index>
528

> <i_lp_mmshare_version>
43012

> <i_f3d_flags>
0

> <s_epik_input>
W0NIMl0xW0NIMl1bQ0BASF0oW0NIMl0yKVtDQEBIXShbQ0gyXVtDQEhdMTIpW0NASF0oW0NIM10pW05IXUMoPU8pW0NIMl1uM1tjSF1jKEMoRikoRilGKVtjSF1bY0hdYzM9Tw==

> <s_epik_cmdline>
J2VwaWtfcHl0aG9uJywgJy1waCcsICc3LjAnLCAnLXRuJywgJzgnLCAnLW1hJywgJzIwMCcsICctbWV0YWxfYmluZGluZycsICctaW1hZScsICc8aW5maWxlLm1hZT4nLCAnLW9tYWUnLCAnPG91dGZpbGUubWFlPic=

> <r_lp_tautomer_probability>
1

> <r_epik_Ionization_Penalty>
4.09479e-08

> <r_epik_Ionization_Penalty_Charging>
1.9321e-08

> <r_epik_Ionization_Penalty_Neutral>
2.16269e-08

> <r_epik_State_Penalty>
-0

> <r_epik_Charging_Adjusted_Penalty>
1.9321e-08

> <i_epik_Tot_Q>
0

> <i_epik_Tot_abs_Q>
0

> <r_epik_Metal_State_Penalty>
-0

> <b_epik_Metal_Only>
0

> <s_lp_Force_Field>
OPLS_2005

> <r_lp_Energy>
62.5946

> <b_lp_Chiralities_Consistent>
1

> <s_lp_Variant>
AV-unprocessed.smi:528-4

> <Gold.Version>
5.8.1

> <Gold.Id.Protein>
6NUR|6NUR_protein|mol2

> <Gold.PLP.Fitness>
46.3434

> <Gold.PLP.PLP>
-44.7439

> <Gold.PLP.part.hbond>
-1.9228

> <Gold.PLP.part.metal>
0.0000

> <Gold.PLP.part.buried>
-5.5397

> <Gold.PLP.part.nonpolar>
-37.8546

> <Gold.PLP.part.repulsive>
0.0330

> <Gold.PLP.ligand.clash>
0.0000

> <Gold.PLP.ligand.torsion>
0.7310

> <Gold.PLP.Chemscore.Hbond>
1.0000

> <Gold.PLP.Chemscore.CHOScore>
0.0000

> <Gold.PLP.Chemscore.Metal>
0.0000

> <Gold.Chemscore.Hbonds>
donor molecule, donor type, donor heavy atom, donor atom, acceptor molecule, acceptor atom, score
      L1  H     3    29       P1  8028  1.00

> <Gold.PLP.Chemscore.Internal.Correction>
0.0615

> <Gold.Rescore>
     Score         DG    S(hbond)    S(metal)    S(lipo)     H(rot)  DE(clash)    DE(int)     intcor
     15.30     -17.24       0.97        0.00     110.12       1.71       0.33       1.60       ----

> <Gold.Chemscore.Fitness>
15.3045

> <Gold.Chemscore.DG>
-17.2354

> <Gold.Chemscore.ZeroCoef>
-5.4800

> <Gold.Chemscore.Hbond>
0.9745

> <Gold.Chemscore.Metal>
0.0000

> <Gold.Chemscore.Lipo>
110.1250

> <Gold.Chemscore.Internal_Hbond>
0.0000

> <Gold.Chemscore.DEClash>
0.3272

> <Gold.Chemscore.DEInternal>
1.6037

> <Gold.Chemscore.Rot>
1.7125

> <Gold.Chemscore.Internal.Correction>
   9.000000E+99

> <Gold.Chemscore.Hbonds>
donor molecule, donor type, donor heavy atom, donor atom, acceptor molecule, acceptor atom, score
      L1  H     3    29       P1  8028  0.94

> <Gold.Chemscore.Hbond.Weighted>
-3.2547

> <Gold.Chemscore.Metal.Weighted>
-0.0000

> <Gold.Chemscore.Lipo.Weighted>
-12.8846

> <Gold.Chemscore.Internal_Hbond.Weighted>
0.0000

> <Gold.Chemscore.DEClash.Weighted>
0.3272

> <Gold.Chemscore.DEInternal.Weighted>
1.6037

> <Gold.Chemscore.Rot.Weighted>
4.3840

> <Gold.Chemscore.Internal.Correction.Weighted>
   9.000000E+99

> <Gold.Protein.RotatedTorsions>
[ 6907 6896 6895 6894 ] final  123.53 input  -60.11 | X-H torsion
[ 7974 7965 7964 7962 ] final   39.63 input  175.53 | X-H torsion
[ 8008 7997 7996 7995 ] final  -78.15 input   59.86 | X-H torsion
[ 10167 10162 10161 10158 ] final  140.77 input  -65.29 | X-H torsion
[ 10718 10713 10712 10709 ] final  120.61 input   66.30 | X-H torsion
[ 10763 10752 10751 10750 ] final   46.94 input  -60.55 | X-H torsion
[ 11005 11000 10999 10996 ] final   18.09 input  -57.11 | X-H torsion

> <Gold.Protein.ActiveResidues>
 VAL166  LYS551  ARG553  GLY616  TRP617  ASP618  TYR619  PRO620  LYS621  CYS622 
 ASP623  PHE694  ASN695  SER759  ASP760  ASP761  ALA762  ILE779  LEU786  VAL792 
 PHE793  MET794  SER795  GLU796  ALA797  LYS798  CYS799  TRP800  GLU811  SER814 

> <Gold.Protein.RotatedAtoms>
  152.4154  133.7030  159.6434 H   0  0  0  0  0  0  0  0  0  0  0  0  # atno 6907 bound_to 6896
  150.8032  133.8549  159.3224 H   0  0  0  0  0  0  0  0  0  0  0  0  # atno 6908 bound_to 6896
  151.6280  135.1027  160.0167 H   0  0  0  0  0  0  0  0  0  0  0  0  # atno 6909 bound_to 6896
  146.0969  139.5629  142.9439 H   0  0  0  0  0  0  0  0  0  0  0  0  # atno 7974 bound_to 7965
  154.5663  140.0699  156.8896 H   0  0  0  0  0  0  0  0  0  0  0  0  # atno 8008 bound_to 7997
  155.2718  140.3365  155.4246 H   0  0  0  0  0  0  0  0  0  0  0  0  # atno 8009 bound_to 7997
  156.2083  140.1749  156.7737 H   0  0  0  0  0  0  0  0  0  0  0  0  # atno 8010 bound_to 7997
  139.5039  144.6213  151.6043 H   0  0  0  0  0  0  0  0  0  0  0  0  # atno 10167 bound_to 10162
  157.5878  131.1068  150.8059 H   0  0  0  0  0  0  0  0  0  0  0  0  # atno 10718 bound_to 10713
  152.9805  135.5992  154.3681 H   0  0  0  0  0  0  0  0  0  0  0  0  # atno 10763 bound_to 10752
  154.3357  135.2768  155.2450 H   0  0  0  0  0  0  0  0  0  0  0  0  # atno 10764 bound_to 10752
  154.4554  135.5979  153.6275 H   0  0  0  0  0  0  0  0  0  0  0  0  # atno 10765 bound_to 10752
  140.4287  134.1443  155.7678 H   0  0  0  0  0  0  0  0  0  0  0  0  # atno 11005 bound_to 11000
  145.5931  141.0366  143.2059 LP  0  0  0  0  0  0  0  0  0  0  0  0  # atno 17320 bound_to 7965
  144.7402  139.7470  143.7313 LP  0  0  0  0  0  0  0  0  0  0  0  0  # atno 17321 bound_to 7965
  140.5917  143.9768  150.6328 LP  0  0  0  0  0  0  0  0  0  0  0  0  # atno 17342 bound_to 10162
  140.2951  143.3298  152.1025 LP  0  0  0  0  0  0  0  0  0  0  0  0  # atno 17343 bound_to 10162
  156.8488  130.5073  149.5314 LP  0  0  0  0  0  0  0  0  0  0  0  0  # atno 17370 bound_to 10713
  156.0929  130.5910  150.9764 LP  0  0  0  0  0  0  0  0  0  0  0  0  # atno 17371 bound_to 10713
  141.1754  133.8524  157.1436 LP  0  0  0  0  0  0  0  0  0  0  0  0  # atno 17394 bound_to 11000
  140.0149  134.9972  157.0473 LP  0  0  0  0  0  0  0  0  0  0  0  0  # atno 17395 bound_to 11000

$$$$
