#       Name:                AV-unprocessed.smi:1767
#       Creating user name   scv26
#       Creation time:       Fri Mar 27 08:37:54 2020


#       File generated by GOLD software.
#

@<TRIPOS>MOLECULE
AV-unprocessed.smi:1767
    35    37     1
SMALL
NO_CHARGES


@<TRIPOS>ATOM
      1 ****        -1.6552   2.9578   1.4273 O.3            1 S1                 0.0000
      2 ****        -1.1624   1.6383   1.3171 C.3            1 S1                 0.0000
      3 ****         0.3664   1.6757   1.5104 C.3            1 S1                 0.0000
      4 ****         0.9400   0.3448   1.5991 N.pl3          1 S1                 0.0000
      5 ****         1.0185  -0.4308   2.6973 C.2            1 S1                 0.0000
      6 ****         1.5717  -1.6319   2.5574 N.2            1 S1                 0.0000
      7 ****         1.8915  -1.6368   1.2105 C.ar           1 S1                 0.0000
      8 ****         2.5046  -2.6331   0.4175 C.ar           1 S1                 0.0000
      9 ****         2.7304  -2.4133  -0.9573 C.ar           1 S1                 0.0000
     10 ****         2.3487  -1.1967  -1.5593 C.ar           1 S1                 0.0000
     11 ****         1.7375  -0.1888  -0.7892 C.ar           1 S1                 0.0000
     12 ****         1.5125  -0.4123   0.5820 C.ar           1 S1                 0.0000
     13 ****        -1.5636   0.9815   0.0030 C.ar           1 S1                 0.0000
     14 ****        -2.0424  -0.3466  -0.0033 C.ar           1 S1                 0.0000
     15 ****        -2.3865  -0.9719  -1.2174 C.ar           1 S1                 0.0000
     16 ****        -2.2551  -0.2726  -2.4323 C.ar           1 S1                 0.0000
     17 ****        -2.5841  -0.8746  -3.5997 F              1 S1                 0.0000
     18 ****        -1.7798   1.0526  -2.4327 C.ar           1 S1                 0.0000
     19 ****        -1.4345   1.6781  -1.2190 C.ar           1 S1                 0.0000
     20 ****        -2.5995   2.9262   1.4081 H              1 S1                 0.0000
     21 ****        -1.6086   1.0755   2.1384 H              1 S1                 0.0000
     22 ****         0.8498   2.2174   0.6963 H              1 S1                 0.0000
     23 ****         0.6159   2.2083   2.4294 H              1 S1                 0.0000
     24 ****         0.6425  -0.0960   3.6531 H              1 S1                 0.0000
     25 ****         2.8007  -3.5689   0.8678 H              1 S1                 0.0000
     26 ****         3.1989  -3.1827  -1.5533 H              1 S1                 0.0000
     27 ****         2.5249  -1.0376  -2.6131 H              1 S1                 0.0000
     28 ****         1.4410   0.7423  -1.2486 H              1 S1                 0.0000
     29 ****        -2.1376  -0.8946   0.9227 H              1 S1                 0.0000
     30 ****        -2.7484  -1.9895  -1.2168 H              1 S1                 0.0000
     31 ****        -1.6765   1.5886  -3.3645 H              1 S1                 0.0000
     32 ****        -1.0611   2.6916  -1.2305 H              1 S1                 0.0000
     33 ****        -1.3201   3.5084   0.6627 LP             1 S1                 0.0000
     34 ****        -1.3483   3.3621   2.2889 LP             1 S1                 0.0000
     35 ****         1.7181  -2.3439   3.2441 LP             1 S1                 0.0000
@<TRIPOS>BOND
    1    1    2 1     
    2    1   20 1     
    3    2    3 1     
    4    2   13 1     
    5    2   21 1     
    6    3    4 1     
    7    3   22 1     
    8    3   23 1     
    9    4   12 1     
   10    4    5 1     
   11    5    6 2     
   12    5   24 1     
   13    6    7 1     
   14    7   12 ar    
   15    7    8 ar    
   16    8    9 ar    
   17    8   25 1     
   18    9   10 ar    
   19    9   26 1     
   20   10   11 ar    
   21   10   27 1     
   22   11   12 ar    
   23   11   28 1     
   24   13   19 ar    
   25   13   14 ar    
   26   14   15 ar    
   27   14   29 1     
   28   15   16 ar    
   29   15   30 1     
   30   16   17 1     
   31   16   18 ar    
   32   18   19 ar    
   33   18   31 1     
   34   19   32 1     
   35    1   33 1     
   36    1   34 1     
   37    6   35 1     
@<TRIPOS>SUBSTRUCTURE
      1 S1             1
@<TRIPOS>SET
LONE_PAIRS      STATIC     ATOMS    <user>   **** ""
3 33 34 35
DONOR_HYDROGENS      STATIC     ATOMS    <user>   **** ""
1 20
ATOM$BLUE        STATIC     ATOMS    COLORGROUP SYSTEM
3 33 34 35
ATOM$RED        STATIC     ATOMS    COLORGROUP SYSTEM
1 20
