AV-unprocessed.smi:2827|AV-procd|sdf|10896|dock5
  -GOLD-   2272015343D 1   1.00000     0.00000
 Structure written by MMmdl.
 48 51  0  0  0  0  0  0  0  0  3 V2000
  152.6574  139.2822  156.0664 O   0  0  0  0  0  0  0  0  0  0  0  0
  152.3795  139.1104  157.2530 C   0  0  0  0  0  0  0  0  0  0  0  0
  152.5748  137.7357  157.8948 C   0  0  0  0  0  0  0  0  0  0  0  0
  153.6925  137.7869  158.8323 N   0  0  0  0  0  0  0  0  0  0  0  0
  153.5943  137.2320  160.1045 C   0  0  0  0  0  0  0  0  0  0  0  0
  154.4453  137.5005  161.1126 C   0  0  0  0  0  0  0  0  0  0  0  0
  155.5603  138.4430  160.8898 C   0  0  0  0  0  0  0  0  0  0  0  0
  156.3232  138.7405  161.8075 O   0  0  0  0  0  0  0  0  0  0  0  0
  155.6973  139.0119  159.5182 C   0  0  0  0  0  0  0  0  0  0  0  0
  156.7350  139.9298  159.0978 N   0  3  0  0  0  0  0  0  0  0  0  0
  157.5221  140.3633  159.9351 O   0  0  0  0  0  0  0  0  0  0  0  0
  156.7976  140.2468  157.9147 O   0  5  0  0  0  0  0  0  0  0  0  0
  154.7710  138.6408  158.5996 C   0  0  0  0  0  0  0  0  0  0  0  0
  151.8557  140.0599  158.0430 N   0  0  0  0  0  0  0  0  0  0  0  0
  151.3676  141.3598  157.5960 C   0  0  0  0  0  0  0  0  0  0  0  0
  151.1237  142.3045  158.7992 C   0  0  2  0  0  0  0  0  0  0  0  0
  150.4496  143.6619  158.4466 C   0  0  2  0  0  0  0  0  0  0  0  0
  151.4139  144.5624  157.6408 C   0  0  0  0  0  0  0  0  0  0  0  0
  152.6815  144.8366  158.4778 C   0  0  1  0  0  0  0  0  0  0  0  0
  152.2891  145.5562  159.7861 C   0  0  0  0  0  0  0  0  0  0  0  0
  151.3239  144.6597  160.5908 C   0  0  1  0  0  0  0  0  0  0  0  0
  150.0562  144.3881  159.7523 C   0  0  0  0  0  0  0  0  0  0  0  0
  152.0211  143.3225  160.9259 C   0  0  0  0  0  0  0  0  0  0  0  0
  152.4094  142.5997  159.6153 C   0  0  2  0  0  0  0  0  0  0  0  0
  153.3791  143.5014  158.8152 C   0  0  0  0  0  0  0  0  0  0  0  0
  151.6598  137.4413  158.4106 H   0  0  0  0  0  0  0  0  0  0  0  0
  152.7561  136.9785  157.1302 H   0  0  0  0  0  0  0  0  0  0  0  0
  152.7655  136.5507  160.2309 H   0  0  0  0  0  0  0  0  0  0  0  0
  154.3273  137.0457  162.0852 H   0  0  0  0  0  0  0  0  0  0  0  0
  154.8070  139.0041  157.5824 H   0  0  0  0  0  0  0  0  0  0  0  0
  151.6814  139.8226  159.0089 H   0  0  0  0  0  0  0  0  0  0  0  0
  152.1296  141.7892  156.9452 H   0  0  0  0  0  0  0  0  0  0  0  0
  150.4752  141.2518  156.9798 H   0  0  0  0  0  0  0  0  0  0  0  0
  150.4407  141.7646  159.4576 H   0  0  0  0  0  0  0  0  0  0  0  0
  149.5432  143.4979  157.8663 H   0  0  0  0  0  0  0  0  0  0  0  0
  151.6792  144.0953  156.6926 H   0  0  0  0  0  0  0  0  0  0  0  0
  150.9222  145.5019  157.3858 H   0  0  0  0  0  0  0  0  0  0  0  0
  153.3634  145.4682  157.9075 H   0  0  0  0  0  0  0  0  0  0  0  0
  153.1788  145.7792  160.3767 H   0  0  0  0  0  0  0  0  0  0  0  0
  151.8186  146.5148  159.5640 H   0  0  0  0  0  0  0  0  0  0  0  0
  151.0452  145.1660  161.5156 H   0  0  0  0  0  0  0  0  0  0  0  0
  149.5456  145.3246  159.5236 H   0  0  0  0  0  0  0  0  0  0  0  0
  149.3481  143.7858  160.3225 H   0  0  0  0  0  0  0  0  0  0  0  0
  152.9079  143.5025  161.5349 H   0  0  0  0  0  0  0  0  0  0  0  0
  151.3612  142.6934  161.5245 H   0  0  0  0  0  0  0  0  0  0  0  0
  152.9078  141.6621  159.8634 H   0  0  0  0  0  0  0  0  0  0  0  0
  153.7103  143.0050  157.9033 H   0  0  0  0  0  0  0  0  0  0  0  0
  154.2816  143.6886  159.3983 H   0  0  0  0  0  0  0  0  0  0  0  0
  1  2  2  0  0  0  0
  2  3  1  0  0  0  0
  2 14  1  0  0  0  0
  3  4  1  0  0  0  0
  3 26  1  0  0  0  0
  3 27  1  0  0  0  0
  4 13  1  0  0  0  0
  4  5  1  0  0  0  0
  5  6  2  0  0  0  0
  5 28  1  0  0  0  0
  6  7  1  0  0  0  0
  6 29  1  0  0  0  0
  7  8  2  0  0  0  0
  7  9  1  0  0  0  0
  9 10  1  0  0  0  0
  9 13  2  0  0  0  0
 10 11  2  0  0  0  0
 10 12  1  0  0  0  0
 13 30  1  0  0  0  0
 14 15  1  0  0  0  0
 14 31  1  0  0  0  0
 15 16  1  0  0  0  0
 15 32  1  0  0  0  0
 15 33  1  0  0  0  0
 16 24  1  0  0  0  0
 16 17  1  0  0  0  0
 16 34  1  0  0  0  0
 17 22  1  0  0  0  0
 17 18  1  0  0  0  0
 17 35  1  0  0  0  0
 18 19  1  0  0  0  0
 18 36  1  0  0  0  0
 18 37  1  0  0  0  0
 19 25  1  0  0  0  0
 19 20  1  0  0  0  0
 19 38  1  0  0  0  0
 20 21  1  0  0  0  0
 20 39  1  0  0  0  0
 20 40  1  0  0  0  0
 21 22  1  0  0  0  0
 21 23  1  0  0  0  0
 21 41  1  0  0  0  0
 22 42  1  0  0  0  0
 22 43  1  0  0  0  0
 23 24  1  0  0  0  0
 23 44  1  0  0  0  0
 23 45  1  0  0  0  0
 24 25  1  0  0  0  0
 24 46  1  0  0  0  0
 25 47  1  0  0  0  0
 25 48  1  0  0  0  0
M  CHG  1  10   1
M  CHG  1  12  -1
M  END
> <s_m_source_file>
AV-unprocessed.smi

> <i_m_source_file_index>
2827

> <i_lp_mmshare_version>
43012

> <i_f3d_flags>
0

> <s_epik_input>
Tz1bTitdKFtPLV0pYyhbY0hdMSljKD1PKVtjSF1bY0hdbjFbQ0gyXUMoPU8pW05IXVtDSDJdW0NASF0oW0NASF0yMylbQ0BASF00W0NIMl1bQ0BIXShbQ0gyXTMpW0NIMl1bQ0BIXShbQ0gyXTIpW0NIMl00

> <s_epik_cmdline>
J2VwaWtfcHl0aG9uJywgJy1waCcsICc3LjAnLCAnLXRuJywgJzgnLCAnLW1hJywgJzIwMCcsICctbWV0YWxfYmluZGluZycsICctaW1hZScsICc8aW5maWxlLm1hZT4nLCAnLW9tYWUnLCAnPG91dGZpbGUubWFlPic=

> <r_lp_tautomer_probability>
1

> <r_epik_Ionization_Penalty>
3.31423e-08

> <r_epik_Ionization_Penalty_Charging>
1.04538e-08

> <r_epik_Ionization_Penalty_Neutral>
2.26885e-08

> <r_epik_State_Penalty>
-0

> <r_epik_Charging_Adjusted_Penalty>
1.04538e-08

> <i_epik_Tot_Q>
0

> <i_epik_Tot_abs_Q>
2

> <r_epik_Metal_State_Penalty>
-0

> <b_epik_Metal_Only>
0

> <s_lp_Force_Field>
OPLS_2005

> <r_lp_Energy>
36.4142

> <b_lp_Chiralities_Consistent>
1

> <s_lp_Variant>
AV-unprocessed.smi:2827-1

> <Gold.Version>
5.8.1

> <Gold.Id.Protein>
6NUR|6NUR_protein|mol2

> <Gold.PLP.Fitness>
54.8315

> <Gold.PLP.PLP>
-49.6715

> <Gold.PLP.part.hbond>
-3.0000

> <Gold.PLP.part.metal>
0.0000

> <Gold.PLP.part.buried>
-5.8198

> <Gold.PLP.part.nonpolar>
-39.6271

> <Gold.PLP.part.repulsive>
0.1928

> <Gold.PLP.ligand.clash>
0.0000

> <Gold.PLP.ligand.torsion>
0.4860

> <Gold.PLP.Chemscore.Hbond>
2.0000

> <Gold.PLP.Chemscore.CHOScore>
0.0000

> <Gold.PLP.Chemscore.Metal>
0.0000

> <Gold.Chemscore.Hbonds>
donor molecule, donor type, donor heavy atom, donor atom, acceptor molecule, acceptor atom, score
      P1  H  7997  8010       L1     1  0.75

> <Gold.PLP.Chemscore.Internal.Correction>
0.1319

> <Gold.Rescore>
     Score         DG    S(hbond)    S(metal)    S(lipo)     H(rot)  DE(clash)    DE(int)     intcor
     22.21     -24.41       1.95        0.00     144.52       1.75       0.02       2.17       ----

> <Gold.Chemscore.Fitness>
22.2129

> <Gold.Chemscore.DG>
-24.4117

> <Gold.Chemscore.ZeroCoef>
-5.4800

> <Gold.Chemscore.Hbond>
1.9499

> <Gold.Chemscore.Metal>
0.0000

> <Gold.Chemscore.Lipo>
144.5246

> <Gold.Chemscore.Internal_Hbond>
0.0000

> <Gold.Chemscore.DEClash>
0.0247

> <Gold.Chemscore.DEInternal>
2.1741

> <Gold.Chemscore.Rot>
1.7540

> <Gold.Chemscore.Internal.Correction>
   9.000000E+99

> <Gold.Chemscore.Hbonds>
donor molecule, donor type, donor heavy atom, donor atom, acceptor molecule, acceptor atom, score
      P1  H  7997  8009       L1    12  0.07
      P1  H  7997  8010       L1     1  0.09

> <Gold.Chemscore.Hbond.Weighted>
-6.5125

> <Gold.Chemscore.Metal.Weighted>
-0.0000

> <Gold.Chemscore.Lipo.Weighted>
-16.9094

> <Gold.Chemscore.Internal_Hbond.Weighted>
0.0000

> <Gold.Chemscore.DEClash.Weighted>
0.0247

> <Gold.Chemscore.DEInternal.Weighted>
2.1741

> <Gold.Chemscore.Rot.Weighted>
4.4902

> <Gold.Chemscore.Internal.Correction.Weighted>
   9.000000E+99

> <Gold.Protein.RotatedTorsions>
[ 6907 6896 6895 6894 ] final  -98.84 input  -60.11 | X-H torsion
[ 7974 7965 7964 7962 ] final -101.08 input  175.53 | X-H torsion
[ 8008 7997 7996 7995 ] final   72.60 input   59.86 | X-H torsion
[ 10167 10162 10161 10158 ] final  -57.98 input  -65.29 | X-H torsion
[ 10718 10713 10712 10709 ] final   19.67 input   66.30 | X-H torsion
[ 10763 10752 10751 10750 ] final    0.69 input  -60.55 | X-H torsion
[ 11005 11000 10999 10996 ] final  -49.05 input  -57.11 | X-H torsion

> <Gold.Protein.ActiveResidues>
 VAL166  LYS551  ARG553  GLY616  TRP617  ASP618  TYR619  PRO620  LYS621  CYS622 
 ASP623  PHE694  ASN695  SER759  ASP760  ASP761  ALA762  ILE779  LEU786  VAL792 
 PHE793  MET794  SER795  GLU796  ALA797  LYS798  CYS799  TRP800  GLU811  SER814 

> <Gold.Protein.RotatedAtoms>
  150.7060  134.1133  159.4007 H   0  0  0  0  0  0  0  0  0  0  0  0  # atno 6907 bound_to 6896
  151.9120  135.0332  160.0524 H   0  0  0  0  0  0  0  0  0  0  0  0  # atno 6908 bound_to 6896
  152.2328  133.5036  159.5262 H   0  0  0  0  0  0  0  0  0  0  0  0  # atno 6909 bound_to 6896
  145.2862  140.9340  143.2904 H   0  0  0  0  0  0  0  0  0  0  0  0  # atno 7974 bound_to 7965
  155.7713  140.3484  155.5248 H   0  0  0  0  0  0  0  0  0  0  0  0  # atno 8008 bound_to 7997
  155.8819  140.1003  157.1500 H   0  0  0  0  0  0  0  0  0  0  0  0  # atno 8009 bound_to 7997
  154.4025  140.1321  156.4194 H   0  0  0  0  0  0  0  0  0  0  0  0  # atno 8010 bound_to 7997
  140.6225  143.2425  151.5445 H   0  0  0  0  0  0  0  0  0  0  0  0  # atno 10167 bound_to 10162
  157.1138  130.6520  149.5904 H   0  0  0  0  0  0  0  0  0  0  0  0  # atno 10718 bound_to 10713
  153.3175  135.6967  153.7060 H   0  0  0  0  0  0  0  0  0  0  0  0  # atno 10763 bound_to 10752
  153.5913  135.3479  155.2912 H   0  0  0  0  0  0  0  0  0  0  0  0  # atno 10764 bound_to 10752
  154.8590  135.4318  154.2330 H   0  0  0  0  0  0  0  0  0  0  0  0  # atno 10765 bound_to 10752
  141.0736  133.6672  156.3529 H   0  0  0  0  0  0  0  0  0  0  0  0  # atno 11005 bound_to 11000
  144.9211  139.4410  143.6540 LP  0  0  0  0  0  0  0  0  0  0  0  0  # atno 17320 bound_to 7965
  146.3200  139.8072  142.8953 LP  0  0  0  0  0  0  0  0  0  0  0  0  # atno 17321 bound_to 7965
  139.5451  144.2543  152.1426 LP  0  0  0  0  0  0  0  0  0  0  0  0  # atno 17342 bound_to 10162
  140.1767  144.4884  150.6550 LP  0  0  0  0  0  0  0  0  0  0  0  0  # atno 17343 bound_to 10162
  155.9844  130.4869  150.6982 LP  0  0  0  0  0  0  0  0  0  0  0  0  # atno 17370 bound_to 10713
  157.4536  131.0875  151.0820 LP  0  0  0  0  0  0  0  0  0  0  0  0  # atno 17371 bound_to 10713
  140.5620  134.5925  157.5436 LP  0  0  0  0  0  0  0  0  0  0  0  0  # atno 17394 bound_to 11000
  139.9549  134.7552  156.0364 LP  0  0  0  0  0  0  0  0  0  0  0  0  # atno 17395 bound_to 11000

$$$$
