#       Name:                AV-unprocessed.smi:3275
#       Creating user name   scv26
#       Creation time:       Fri Mar 27 18:44:36 2020


#       File generated by GOLD software.
#

@<TRIPOS>MOLECULE
AV-unprocessed.smi:3275
    40    41     1
SMALL
NO_CHARGES


@<TRIPOS>ATOM
      1 ****        -2.8987   4.3608  -1.3607 O.3            1 S1                 0.0000
      2 ****        -1.5038   4.1607  -1.2825 C.3            1 S1                 0.0000
      3 ****        -1.1972   2.6606  -1.2333 C.3            1 S1                 0.0000
      4 ****         0.2117   2.4951  -1.1279 O.3            1 S1                 0.0000
      5 ****         0.7154   1.1609  -1.0709 C.3            1 S1                 0.0000
      6 ****         0.4780   0.3635  -2.3700 C.3            1 S1                 0.0000
      7 ****         1.1233  -1.0273  -2.2533 C.3            1 S1                 0.0000
      8 ****         0.6248  -1.7640  -0.9970 C.3            1 S1                 0.0000
      9 ****         0.8316  -0.9511   0.1989 N.3            1 S1                 0.0000
     10 ****         0.6016  -1.6515   1.3924 C.ar           1 S1                 0.0000
     11 ****        -0.7109  -1.9871   1.8042 C.ar           1 S1                 0.0000
     12 ****        -0.9004  -2.6904   3.0109 C.ar           1 S1                 0.0000
     13 ****         0.1671  -3.0397   3.7603 N.pl3          1 S1                 1.0000
     14 ****         1.4364  -2.7445   3.4060 C.ar           1 S1                 0.0000
     15 ****         1.6901  -2.0417   2.2101 C.ar           1 S1                 0.0000
     16 ****         3.3210  -1.6696   1.7741 Cl             1 S1                 0.0000
     17 ****         0.2152   0.3726   0.1581 C.3            1 S1                 0.0000
     18 ****        -3.0678   5.2902  -1.3916 H              1 S1                 0.0000
     19 ****        -1.0263   4.6221  -2.1474 H              1 S1                 0.0000
     20 ****        -1.1216   4.6593  -0.3914 H              1 S1                 0.0000
     21 ****        -1.7042   2.2175  -0.3764 H              1 S1                 0.0000
     22 ****        -1.5814   2.1825  -2.1339 H              1 S1                 0.0000
     23 ****         1.7943   1.2801  -0.9596 H              1 S1                 0.0000
     24 ****        -0.5878   0.2391  -2.5598 H              1 S1                 0.0000
     25 ****         0.8915   0.8997  -3.2246 H              1 S1                 0.0000
     26 ****         0.9052  -1.6174  -3.1436 H              1 S1                 0.0000
     27 ****         2.2082  -0.9234  -2.2085 H              1 S1                 0.0000
     28 ****        -0.4364  -1.9954  -1.0999 H              1 S1                 0.0000
     29 ****         1.1506  -2.7143  -0.8942 H              1 S1                 0.0000
     30 ****        -1.5660  -1.7125   1.2037 H              1 S1                 0.0000
     31 ****        -1.8666  -2.9827   3.3955 H              1 S1                 0.0000
     32 ****         2.2072  -3.0764   4.0860 H              1 S1                 0.0000
     33 ****         0.4543   0.9175   1.0724 H              1 S1                 0.0000
     34 ****        -0.8677   0.2554   0.1231 H              1 S1                 0.0000
     35 ****         0.0083  -3.5483   4.6306 H              1 S1                 0.0000
     36 ****        -3.3418   3.9640  -0.5568 LP             1 S1                 0.0000
     37 ****        -3.2559   3.9255  -2.1871 LP             1 S1                 0.0000
     38 ****         0.5069   2.9627  -0.2947 LP             1 S1                 0.0000
     39 ****         0.6258   2.9380  -1.9231 LP             1 S1                 0.0000
     40 ****         1.8111  -0.7497   0.1933 LP             1 S1                 0.0000
@<TRIPOS>BOND
    1    1    2 1     
    2    1   18 1     
    3    2    3 1     
    4    2   19 1     
    5    2   20 1     
    6    3    4 1     
    7    3   21 1     
    8    3   22 1     
    9    4    5 1     
   10    5   17 1     
   11    5    6 1     
   12    5   23 1     
   13    6    7 1     
   14    6   24 1     
   15    6   25 1     
   16    7    8 1     
   17    7   26 1     
   18    7   27 1     
   19    8    9 1     
   20    8   28 1     
   21    8   29 1     
   22    9   10 1     
   23    9   17 1     
   24   10   15 ar    
   25   10   11 ar    
   26   11   12 ar    
   27   11   30 1     
   28   12   13 ar    
   29   12   31 1     
   30   13   14 ar    
   31   13   35 1     
   32   14   15 ar    
   33   14   32 1     
   34   15   16 1     
   35   17   33 1     
   36   17   34 1     
   37    1   36 1     
   38    1   37 1     
   39    4   38 1     
   40    4   39 1     
   41    9   40 1     
@<TRIPOS>SUBSTRUCTURE
      1 S1             1
@<TRIPOS>SET
LONE_PAIRS      STATIC     ATOMS    <user>   **** ""
5 36 37 38 39 40
DONOR_HYDROGENS      STATIC     ATOMS    <user>   **** ""
2 18 35
ATOM$BLUE        STATIC     ATOMS    COLORGROUP SYSTEM
5 36 37 38 39 40
ATOM$RED        STATIC     ATOMS    COLORGROUP SYSTEM
2 18 35
