AV-unprocessed.smi:1682|AV-procd|sdf|6744|dock9
  -GOLD-   22720 7503D 1   1.00000     0.00000
 Structure written by MMmdl.
 38 39  0  0  0  0  0  0  0  0  1 V2000
  150.4839  140.8953  154.9166 O   0  0  0  0  0  0  0  0  0  0  0  0
  150.3379  139.7697  155.3946 C   0  0  0  0  0  0  0  0  0  0  0  0
  150.2251  139.5393  156.7117 N   0  0  0  0  0  0  0  0  0  0  0  0
  150.2584  140.5668  157.7458 C   0  0  0  0  0  0  0  0  0  0  0  0
  151.7003  140.9691  158.0985 C   0  0  0  0  0  0  0  0  0  0  0  0
  151.7951  142.4062  158.5744 C   0  0  0  0  0  0  0  0  0  0  0  0
  152.3503  142.7126  159.8352 C   0  0  0  0  0  0  0  0  0  0  0  0
  152.4205  144.0637  160.2270 C   0  0  0  0  0  0  0  0  0  0  0  0
  151.9368  145.0508  159.3469 C   0  0  0  0  0  0  0  0  0  0  0  0
  151.4014  144.6413  158.1093 C   0  0  0  0  0  0  0  0  0  0  0  0
  151.3287  143.3489  157.7242 N   0  0  0  0  0  0  0  0  0  0  0  0
  150.2824  138.5396  154.4753 C   0  0  1  0  0  0  0  0  0  0  0  0
  151.4583  137.5796  154.7439 C   0  0  0  0  0  0  0  0  0  0  0  0
  150.7989  136.3455  155.3358 C   0  0  0  0  0  0  0  0  0  0  0  0
  151.4426  135.3998  155.7881 O   0  0  0  0  0  0  0  0  0  0  0  0
  149.4663  136.4500  155.3043 N   0  0  0  0  0  0  0  0  0  0  0  0
  148.5070  135.4752  155.8218 C   0  0  0  0  0  0  0  0  0  0  0  0
  148.7002  134.0757  155.2104 C   0  0  0  0  0  0  0  0  0  0  0  0
  149.7974  133.4870  155.6858 F   0  0  0  0  0  0  0  0  0  0  0  0
  147.6480  133.3193  155.5197 F   0  0  0  0  0  0  0  0  0  0  0  0
  148.7875  134.1580  153.8827 F   0  0  0  0  0  0  0  0  0  0  0  0
  149.0108  137.6930  154.7028 C   0  0  0  0  0  0  0  0  0  0  0  0
  150.1083  138.5848  157.0200 H   0  0  0  0  0  0  0  0  0  0  0  0
  149.6856  141.4391  157.4259 H   0  0  0  0  0  0  0  0  0  0  0  0
  149.7550  140.1720  158.6287 H   0  0  0  0  0  0  0  0  0  0  0  0
  152.0927  140.3126  158.8765 H   0  0  0  0  0  0  0  0  0  0  0  0
  152.3507  140.8390  157.2325 H   0  0  0  0  0  0  0  0  0  0  0  0
  152.7157  141.9328  160.4874 H   0  0  0  0  0  0  0  0  0  0  0  0
  152.8382  144.3372  161.1847 H   0  0  0  0  0  0  0  0  0  0  0  0
  151.9754  146.0967  159.6129 H   0  0  0  0  0  0  0  0  0  0  0  0
  151.0221  145.3712  157.4096 H   0  0  0  0  0  0  0  0  0  0  0  0
  150.3132  138.8716  153.4359 H   0  0  0  0  0  0  0  0  0  0  0  0
  151.9657  137.3107  153.8169 H   0  0  0  0  0  0  0  0  0  0  0  0
  152.2048  137.9800  155.4322 H   0  0  0  0  0  0  0  0  0  0  0  0
  148.5921  135.4226  156.9084 H   0  0  0  0  0  0  0  0  0  0  0  0
  147.4953  135.8270  155.6158 H   0  0  0  0  0  0  0  0  0  0  0  0
  148.2802  138.1861  155.3466 H   0  0  0  0  0  0  0  0  0  0  0  0
  148.5173  137.4763  153.7547 H   0  0  0  0  0  0  0  0  0  0  0  0
  1  2  2  0  0  0  0
  2  3  1  0  0  0  0
  2 12  1  0  0  0  0
  3  4  1  0  0  0  0
  3 23  1  0  0  0  0
  4  5  1  0  0  0  0
  4 24  1  0  0  0  0
  4 25  1  0  0  0  0
  5  6  1  0  0  0  0
  5 26  1  0  0  0  0
  5 27  1  0  0  0  0
  6 11  1  0  0  0  0
  6  7  2  0  0  0  0
  7  8  1  0  0  0  0
  7 28  1  0  0  0  0
  8  9  2  0  0  0  0
  8 29  1  0  0  0  0
  9 10  1  0  0  0  0
  9 30  1  0  0  0  0
 10 11  2  0  0  0  0
 10 31  1  0  0  0  0
 12 22  1  0  0  0  0
 12 13  1  0  0  0  0
 12 32  1  0  0  0  0
 13 14  1  0  0  0  0
 13 33  1  0  0  0  0
 13 34  1  0  0  0  0
 14 15  2  0  0  0  0
 14 16  1  0  0  0  0
 16 17  1  0  0  0  0
 16 22  1  0  0  0  0
 17 18  1  0  0  0  0
 17 35  1  0  0  0  0
 17 36  1  0  0  0  0
 18 19  1  0  0  0  0
 18 20  1  0  0  0  0
 18 21  1  0  0  0  0
 22 37  1  0  0  0  0
 22 38  1  0  0  0  0
M  END
> <s_m_source_file>
AV-unprocessed.smi

> <i_m_source_file_index>
1682

> <i_lp_mmshare_version>
43012

> <i_f3d_flags>
0

> <s_epik_input>
RkMoRikoRilbQ0gyXU4oW0NIMl0xKUMoPU8pW0NIMl1bQ0BIXTFDKD1PKVtOSF1bQ0gyXVtDSDJdYzJbY0hdW2NIXVtjSF1bY0hdbjI=

> <s_epik_cmdline>
J2VwaWtfcHl0aG9uJywgJy1waCcsICc3LjAnLCAnLXRuJywgJzgnLCAnLW1hJywgJzIwMCcsICctbWV0YWxfYmluZGluZycsICctaW1hZScsICc8aW5maWxlLm1hZT4nLCAnLW9tYWUnLCAnPG91dGZpbGUubWFlPic=

> <r_epik_Ionization_Penalty>
0.0252359

> <r_epik_Ionization_Penalty_Charging>
0

> <r_epik_Ionization_Penalty_Neutral>
0.0252359

> <r_epik_State_Penalty>
0.020532

> <r_epik_Charging_Adjusted_Penalty>
0.020532

> <i_epik_Tot_Q>
0

> <i_epik_Tot_abs_Q>
0

> <r_epik_Metal_State_Penalty>
0.0196899

> <b_epik_Metal_Only>
0

> <s_lp_Force_Field>
OPLS_2005

> <r_lp_Energy>
9.99714

> <b_lp_Chiralities_Consistent>
1

> <s_lp_Variant>
AV-unprocessed.smi:1682-2

> <Gold.Version>
5.8.1

> <Gold.Id.Protein>
6NUR|6NUR_protein|mol2

> <Gold.PLP.Fitness>
45.0862

> <Gold.PLP.PLP>
-38.0863

> <Gold.PLP.part.hbond>
-2.0000

> <Gold.PLP.part.metal>
0.0000

> <Gold.PLP.part.buried>
-3.7341

> <Gold.PLP.part.nonpolar>
-32.6053

> <Gold.PLP.part.repulsive>
0.2470

> <Gold.PLP.ligand.clash>
0.0000

> <Gold.PLP.ligand.torsion>
0.5083

> <Gold.PLP.Chemscore.Hbond>
1.8480

> <Gold.PLP.Chemscore.CHOScore>
0.7653

> <Gold.PLP.Chemscore.Metal>
0.0000

> <Gold.Chemscore.Hbonds>
donor molecule, donor type, donor heavy atom, donor atom, acceptor molecule, acceptor atom, score
      P1  H  7989  7998       L1     1  0.77
      P1  H 10752 10764       L1    15  0.93
      L1  C    10    31       P1  8028  0.29

> <Gold.PLP.Chemscore.Internal.Correction>
0.1764

> <Gold.Rescore>
     Score         DG    S(hbond)    S(metal)    S(lipo)     H(rot)  DE(clash)    DE(int)     intcor
     14.28     -16.56       1.57        0.00      95.66       2.09       0.17       2.10       ----

> <Gold.Chemscore.Fitness>
14.2839

> <Gold.Chemscore.DG>
-16.5575

> <Gold.Chemscore.ZeroCoef>
-5.4800

> <Gold.Chemscore.Hbond>
1.5664

> <Gold.Chemscore.Metal>
0.0000

> <Gold.Chemscore.Lipo>
95.6588

> <Gold.Chemscore.Internal_Hbond>
0.0000

> <Gold.Chemscore.DEClash>
0.1722

> <Gold.Chemscore.DEInternal>
2.1015

> <Gold.Chemscore.Rot>
2.0884

> <Gold.Chemscore.Internal.Correction>
   9.000000E+99

> <Gold.Chemscore.Hbonds>
donor molecule, donor type, donor heavy atom, donor atom, acceptor molecule, acceptor atom, score
      P1  H  7989  7998       L1     1  0.64
      P1  H 10752 10764       L1    15  0.70

> <Gold.Chemscore.Hbond.Weighted>
-5.2319

> <Gold.Chemscore.Metal.Weighted>
-0.0000

> <Gold.Chemscore.Lipo.Weighted>
-11.1921

> <Gold.Chemscore.Internal_Hbond.Weighted>
0.0000

> <Gold.Chemscore.DEClash.Weighted>
0.1722

> <Gold.Chemscore.DEInternal.Weighted>
2.1015

> <Gold.Chemscore.Rot.Weighted>
5.3464

> <Gold.Chemscore.Internal.Correction.Weighted>
   9.000000E+99

> <Gold.Protein.RotatedTorsions>
[ 6907 6896 6895 6894 ] final  -41.65 input  -60.11 | X-H torsion
[ 7974 7965 7964 7962 ] final  144.51 input  175.53 | X-H torsion
[ 8008 7997 7996 7995 ] final -115.76 input   59.86 | X-H torsion
[ 10167 10162 10161 10158 ] final   66.18 input  -65.29 | X-H torsion
[ 10718 10713 10712 10709 ] final  162.35 input   66.30 | X-H torsion
[ 10763 10752 10751 10750 ] final  -21.94 input  -60.55 | X-H torsion
[ 11005 11000 10999 10996 ] final  134.11 input  -57.11 | X-H torsion

> <Gold.Protein.ActiveResidues>
 VAL166  LYS551  ARG553  GLY616  TRP617  ASP618  TYR619  PRO620  LYS621  CYS622 
 ASP623  PHE694  ASN695  SER759  ASP760  ASP761  ALA762  ILE779  LEU786  VAL792 
 PHE793  MET794  SER795  GLU796  ALA797  LYS798  CYS799  TRP800  GLU811  SER814 

> <Gold.Protein.RotatedAtoms>
  150.9643  134.9026  159.7749 H   0  0  0  0  0  0  0  0  0  0  0  0  # atno 6907 bound_to 6896
  152.5168  134.3629  159.9301 H   0  0  0  0  0  0  0  0  0  0  0  0  # atno 6908 bound_to 6896
  151.3640  133.3838  159.2727 H   0  0  0  0  0  0  0  0  0  0  0  0  # atno 6909 bound_to 6896
  144.8830  139.5671  143.5834 H   0  0  0  0  0  0  0  0  0  0  0  0  # atno 7974 bound_to 7965
  155.0572  140.0393  157.2564 H   0  0  0  0  0  0  0  0  0  0  0  0  # atno 8008 bound_to 7997
  154.7089  140.2688  155.6623 H   0  0  0  0  0  0  0  0  0  0  0  0  # atno 8009 bound_to 7997
  156.2783  140.2725  156.1725 H   0  0  0  0  0  0  0  0  0  0  0  0  # atno 8010 bound_to 7997
  140.1032  144.4885  150.7024 H   0  0  0  0  0  0  0  0  0  0  0  0  # atno 10167 bound_to 10162
  157.1238  131.0499  151.2403 H   0  0  0  0  0  0  0  0  0  0  0  0  # atno 10718 bound_to 10713
  153.6441  135.6984  153.5231 H   0  0  0  0  0  0  0  0  0  0  0  0  # atno 10763 bound_to 10752
  153.2759  135.4200  155.1032 H   0  0  0  0  0  0  0  0  0  0  0  0  # atno 10764 bound_to 10752
  154.8492  135.3590  154.5985 H   0  0  0  0  0  0  0  0  0  0  0  0  # atno 10765 bound_to 10752
  139.9894  134.9520  156.9820 H   0  0  0  0  0  0  0  0  0  0  0  0  # atno 11005 bound_to 11000
  146.3006  139.7416  142.9094 LP  0  0  0  0  0  0  0  0  0  0  0  0  # atno 17320 bound_to 7965
  145.3920  141.0373  143.3119 LP  0  0  0  0  0  0  0  0  0  0  0  0  # atno 17321 bound_to 7965
  140.6966  143.2408  151.4982 LP  0  0  0  0  0  0  0  0  0  0  0  0  # atno 17342 bound_to 10162
  139.5660  144.2042  152.1765 LP  0  0  0  0  0  0  0  0  0  0  0  0  # atno 17343 bound_to 10162
  157.4453  130.7567  149.7104 LP  0  0  0  0  0  0  0  0  0  0  0  0  # atno 17370 bound_to 10713
  155.9822  130.4011  150.3426 LP  0  0  0  0  0  0  0  0  0  0  0  0  # atno 17371 bound_to 10713
  140.4939  134.1166  155.7237 LP  0  0  0  0  0  0  0  0  0  0  0  0  # atno 17394 bound_to 11000
  141.1553  133.8895  157.1994 LP  0  0  0  0  0  0  0  0  0  0  0  0  # atno 17395 bound_to 11000

$$$$
