AV-unprocessed.smi:3080|AV-procd|sdf|11738|dock3
  -GOLD-   2272017133D 1   1.00000     0.00000
 Structure written by MMmdl.
 27 28  0  0  0  0  0  0  0  0  2 V2000
  150.9887  137.3800  154.7015 C   0  0  0  0  0  0  0  0  0  0  0  0
  151.5771  137.6103  155.9601 C   0  0  0  0  0  0  0  0  0  0  0  0
  151.6797  138.9346  156.4287 C   0  0  0  0  0  0  0  0  0  0  0  0
  151.1847  139.9754  155.6143 C   0  0  0  0  0  0  0  0  0  0  0  0
  151.2739  141.4216  156.0629 C   0  0  0  0  0  0  0  0  0  0  0  0
  150.3834  141.7066  157.2802 C   0  0  0  0  0  0  0  0  0  0  0  0
  150.3182  143.1523  157.5651 N   0  3  0  0  0  0  0  0  0  0  0  0
  151.6358  143.8158  157.5518 C   0  0  0  0  0  0  0  0  0  0  0  0
  152.5034  143.4738  158.7383 C   0  0  0  0  0  0  0  0  0  0  0  0
  151.8082  144.8177  158.6665 C   0  0  0  0  0  0  0  0  0  0  0  0
  150.6204  139.7620  154.4045 N   0  0  0  0  0  0  0  0  0  0  0  0
  150.5267  138.4883  153.9643 C   0  0  0  0  0  0  0  0  0  0  0  0
  150.8936  136.3777  154.3104 H   0  0  0  0  0  0  0  0  0  0  0  0
  151.9436  136.7865  156.5545 H   0  0  0  0  0  0  0  0  0  0  0  0
  152.1282  139.1418  157.3894 H   0  0  0  0  0  0  0  0  0  0  0  0
  152.3140  141.6537  156.2969 H   0  0  0  0  0  0  0  0  0  0  0  0
  150.9934  142.0725  155.2336 H   0  0  0  0  0  0  0  0  0  0  0  0
  149.3746  141.3318  157.1011 H   0  0  0  0  0  0  0  0  0  0  0  0
  150.7699  141.1878  158.1586 H   0  0  0  0  0  0  0  0  0  0  0  0
  149.7325  143.5893  156.8677 H   0  0  0  0  0  0  0  0  0  0  0  0
  152.0698  144.0131  156.5731 H   0  0  0  0  0  0  0  0  0  0  0  0
  152.1276  142.7504  159.4596 H   0  0  0  0  0  0  0  0  0  0  0  0
  153.5806  143.4608  158.5853 H   0  0  0  0  0  0  0  0  0  0  0  0
  152.4300  145.6886  158.4682 H   0  0  0  0  0  0  0  0  0  0  0  0
  150.9729  144.9874  159.3437 H   0  0  0  0  0  0  0  0  0  0  0  0
  150.0709  138.3485  152.9952 H   0  0  0  0  0  0  0  0  0  0  0  0
  149.8969  143.2872  158.4729 H   0  0  0  0  0  0  0  0  0  0  0  0
  1 12  1  0  0  0  0
  1  2  2  0  0  0  0
  1 13  1  0  0  0  0
  2  3  1  0  0  0  0
  2 14  1  0  0  0  0
  3  4  2  0  0  0  0
  3 15  1  0  0  0  0
  4  5  1  0  0  0  0
  4 11  1  0  0  0  0
  5  6  1  0  0  0  0
  5 16  1  0  0  0  0
  5 17  1  0  0  0  0
  6  7  1  0  0  0  0
  6 18  1  0  0  0  0
  6 19  1  0  0  0  0
  7  8  1  0  0  0  0
  7 20  1  0  0  0  0
  7 27  1  0  0  0  0
  8 10  1  0  0  0  0
  8  9  1  0  0  0  0
  8 21  1  0  0  0  0
  9 10  1  0  0  0  0
  9 22  1  0  0  0  0
  9 23  1  0  0  0  0
 10 24  1  0  0  0  0
 10 25  1  0  0  0  0
 11 12  2  0  0  0  0
 12 26  1  0  0  0  0
M  CHG  1   7   1
M  END
> <s_m_source_file>
AV-unprocessed.smi

> <i_m_source_file_index>
3080

> <i_lp_mmshare_version>
43012

> <i_f3d_flags>
0

> <s_epik_input>
bjFbY0hdW2NIXVtjSF1bY0hdYzFbQ0gyXVtDSDJdW05IXVtDSF0yW0NIMl1bQ0gyXTI=

> <s_epik_cmdline>
J2VwaWtfcHl0aG9uJywgJy1waCcsICc3LjAnLCAnLXRuJywgJzgnLCAnLW1hJywgJzIwMCcsICctbWV0YWxfYmluZGluZycsICctaW1hZScsICc8aW5maWxlLm1hZT4nLCAnLW9tYWUnLCAnPG91dGZpbGUubWFlPic=

> <r_epik_Ionization_Penalty>
0.0260151

> <r_epik_Ionization_Penalty_Charging>
0.024724

> <r_epik_Ionization_Penalty_Neutral>
0.00129111

> <r_epik_State_Penalty>
0.0109584

> <r_epik_Charging_Adjusted_Penalty>
0.0356824

> <i_epik_Tot_Q>
1

> <i_epik_Tot_abs_Q>
1

> <r_epik_Metal_State_Penalty>
0.00998059

> <b_epik_Metal_Only>
0

> <s_lp_Force_Field>
OPLS_2005

> <r_lp_Energy>
12.7619

> <b_lp_Chiralities_Consistent>
1

> <s_lp_Variant>
AV-unprocessed.smi:3080-1

> <Gold.Version>
5.8.1

> <Gold.Id.Protein>
6NUR|6NUR_protein|mol2

> <Gold.PLP.Fitness>
42.8062

> <Gold.PLP.PLP>
-28.7773

> <Gold.PLP.part.hbond>
-2.0000

> <Gold.PLP.part.metal>
0.0000

> <Gold.PLP.part.buried>
-4.2742

> <Gold.PLP.part.nonpolar>
-22.9518

> <Gold.PLP.part.repulsive>
0.1377

> <Gold.PLP.ligand.clash>
0.0000

> <Gold.PLP.ligand.torsion>
0.4383

> <Gold.PLP.Chemscore.Hbond>
2.9500

> <Gold.PLP.Chemscore.CHOScore>
1.8088

> <Gold.PLP.Chemscore.Metal>
0.0000

> <Gold.Chemscore.Hbonds>
donor molecule, donor type, donor heavy atom, donor atom, acceptor molecule, acceptor atom, score
      L1  H     7    20       P1  8028  2.00
      P1  H  7989  7998       L1    11  0.90
      L1  C    12    26       P1  7948  0.83
      L1  C    12    26       P1  7957  1.00

> <Gold.PLP.Chemscore.Internal.Correction>
0.6291

> <Gold.Rescore>
     Score         DG    S(hbond)    S(metal)    S(lipo)     H(rot)  DE(clash)    DE(int)     intcor
     17.03     -17.83       1.89        0.00      82.53       1.42       0.36       0.45       ----

> <Gold.Chemscore.Fitness>
17.0260

> <Gold.Chemscore.DG>
-17.8334

> <Gold.Chemscore.ZeroCoef>
-5.4800

> <Gold.Chemscore.Hbond>
1.8940

> <Gold.Chemscore.Metal>
0.0000

> <Gold.Chemscore.Lipo>
82.5318

> <Gold.Chemscore.Internal_Hbond>
0.0000

> <Gold.Chemscore.DEClash>
0.3559

> <Gold.Chemscore.DEInternal>
0.4515

> <Gold.Chemscore.Rot>
1.4175

> <Gold.Chemscore.Internal.Correction>
   9.000000E+99

> <Gold.Chemscore.Hbonds>
donor molecule, donor type, donor heavy atom, donor atom, acceptor molecule, acceptor atom, score
      L1  H     7    20       P1  8028  0.99
      P1  H  7989  7998       L1    11  0.17

> <Gold.Chemscore.Hbond.Weighted>
-6.3260

> <Gold.Chemscore.Metal.Weighted>
-0.0000

> <Gold.Chemscore.Lipo.Weighted>
-9.6562

> <Gold.Chemscore.Internal_Hbond.Weighted>
0.0000

> <Gold.Chemscore.DEClash.Weighted>
0.3559

> <Gold.Chemscore.DEInternal.Weighted>
0.4515

> <Gold.Chemscore.Rot.Weighted>
3.6289

> <Gold.Chemscore.Internal.Correction.Weighted>
   9.000000E+99

> <Gold.Protein.RotatedTorsions>
[ 6907 6896 6895 6894 ] final   53.81 input  -60.11 | X-H torsion
[ 7974 7965 7964 7962 ] final    8.50 input  175.53 | X-H torsion
[ 8008 7997 7996 7995 ] final   25.23 input   59.86 | X-H torsion
[ 10167 10162 10161 10158 ] final    8.71 input  -65.29 | X-H torsion
[ 10718 10713 10712 10709 ] final   74.79 input   66.30 | X-H torsion
[ 10763 10752 10751 10750 ] final   82.92 input  -60.55 | X-H torsion
[ 11005 11000 10999 10996 ] final  -96.10 input  -57.11 | X-H torsion

> <Gold.Protein.ActiveResidues>
 VAL166  LYS551  ARG553  GLY616  TRP617  ASP618  TYR619  PRO620  LYS621  CYS622 
 ASP623  PHE694  ASN695  SER759  ASP760  ASP761  ALA762  ILE779  LEU786  VAL792 
 PHE793  MET794  SER795  GLU796  ALA797  LYS798  CYS799  TRP800  GLU811  SER814 

> <Gold.Protein.RotatedAtoms>
  152.3375  134.7179  160.0272 H   0  0  0  0  0  0  0  0  0  0  0  0  # atno 6907 bound_to 6896
  151.7575  133.3326  159.3416 H   0  0  0  0  0  0  0  0  0  0  0  0  # atno 6908 bound_to 6896
  150.7459  134.6068  159.6110 H   0  0  0  0  0  0  0  0  0  0  0  0  # atno 6909 bound_to 6896
  146.2415  139.9925  142.8424 H   0  0  0  0  0  0  0  0  0  0  0  0  # atno 7974 bound_to 7965
  155.0086  140.3134  155.4839 H   0  0  0  0  0  0  0  0  0  0  0  0  # atno 8008 bound_to 7997
  156.2913  140.2219  156.5140 H   0  0  0  0  0  0  0  0  0  0  0  0  # atno 8009 bound_to 7997
  154.7555  140.0463  157.0917 H   0  0  0  0  0  0  0  0  0  0  0  0  # atno 8010 bound_to 7997
  140.6298  143.8019  150.7281 H   0  0  0  0  0  0  0  0  0  0  0  0  # atno 10167 bound_to 10162
  157.6607  130.9695  150.1261 H   0  0  0  0  0  0  0  0  0  0  0  0  # atno 10718 bound_to 10713
  153.1245  135.4710  154.9250 H   0  0  0  0  0  0  0  0  0  0  0  0  # atno 10763 bound_to 10752
  154.7607  135.3130  154.8386 H   0  0  0  0  0  0  0  0  0  0  0  0  # atno 10764 bound_to 10752
  153.8943  135.6881  153.4812 H   0  0  0  0  0  0  0  0  0  0  0  0  # atno 10765 bound_to 10752
  141.1422  133.8073  157.0525 H   0  0  0  0  0  0  0  0  0  0  0  0  # atno 11005 bound_to 11000
  145.1490  140.9613  143.4444 LP  0  0  0  0  0  0  0  0  0  0  0  0  # atno 17320 bound_to 7965
  145.0223  139.3413  143.6066 LP  0  0  0  0  0  0  0  0  0  0  0  0  # atno 17321 bound_to 7965
  140.1627  143.4261  152.2055 LP  0  0  0  0  0  0  0  0  0  0  0  0  # atno 17342 bound_to 10162
  139.5514  144.7340  151.4424 LP  0  0  0  0  0  0  0  0  0  0  0  0  # atno 17343 bound_to 10162
  156.2120  130.3667  149.8659 LP  0  0  0  0  0  0  0  0  0  0  0  0  # atno 17370 bound_to 10713
  156.6535  130.8753  151.3535 LP  0  0  0  0  0  0  0  0  0  0  0  0  # atno 17371 bound_to 10713
  140.0623  134.9748  157.1325 LP  0  0  0  0  0  0  0  0  0  0  0  0  # atno 17394 bound_to 11000
  140.3831  134.2266  155.7170 LP  0  0  0  0  0  0  0  0  0  0  0  0  # atno 17395 bound_to 11000

$$$$
