AV-unprocessed.smi:1413|AV-procd|sdf|5759|dock9
  -GOLD-   22720 5393D 1   1.00000     0.00000
 Structure written by MMmdl.
 53 55  0  0  0  0  0  0  0  0  1 V2000
  151.9314  144.3058  157.3947 C   0  0  0  0  0  0  0  0  0  0  0  0
  151.0927  143.5492  158.4403 C   0  0  1  0  0  0  0  0  0  0  0  0
  150.4188  142.2797  157.8830 C   0  0  0  0  0  0  0  0  0  0  0  0
  151.3882  141.2001  157.7211 N   0  0  0  0  0  0  0  0  0  0  0  0
  150.9491  140.1014  156.9526 C   0  0  0  0  0  0  0  0  0  0  0  0
  150.7595  140.2442  155.5584 C   0  0  0  0  0  0  0  0  0  0  0  0
  150.3199  139.1370  154.8090 C   0  0  0  0  0  0  0  0  0  0  0  0
  150.0707  137.9163  155.4654 C   0  0  0  0  0  0  0  0  0  0  0  0
  149.6479  136.8092  154.6818 N   0  0  0  0  0  0  0  0  0  0  0  0
  149.3556  135.5621  155.0879 C   0  0  0  0  0  0  0  0  0  0  0  0
  149.3683  135.1741  156.2558 O   0  0  0  0  0  0  0  0  0  0  0  0
  149.0250  134.7829  154.0480 N   0  0  0  0  0  0  0  0  0  0  0  0
  148.6253  133.3783  154.1196 C   0  0  1  0  0  0  0  0  0  0  0  0
  147.9335  132.9962  152.8030 C   0  0  0  0  0  0  0  0  0  0  0  0
  149.8472  132.4805  154.4033 C   0  0  1  0  0  0  0  0  0  0  0  0
  150.5003  132.6815  155.7711 C   0  0  0  0  0  0  0  0  0  0  0  0
  151.2226  131.3663  156.0093 C   0  0  0  0  0  0  0  0  0  0  0  0
  150.5332  130.3864  155.0550 C   0  0  0  0  0  0  0  0  0  0  0  0
  149.4641  131.1154  154.4661 O   0  0  0  0  0  0  0  0  0  0  0  0
  150.3032  137.8622  156.8600 C   0  0  0  0  0  0  0  0  0  0  0  0
  150.7284  138.9210  157.5814 N   0  0  0  0  0  0  0  0  0  0  0  0
  152.1531  140.9287  158.9347 C   0  0  0  0  0  0  0  0  0  0  0  0
  152.8282  142.2158  159.4409 C   0  0  2  0  0  0  0  0  0  0  0  0
  153.5326  142.0008  160.7847 C   0  0  0  0  0  0  0  0  0  0  0  0
  151.8454  143.2360  159.6147 O   0  0  0  0  0  0  0  0  0  0  0  0
  151.3046  144.6445  156.5698 H   0  0  0  0  0  0  0  0  0  0  0  0
  152.7188  143.6855  156.9670 H   0  0  0  0  0  0  0  0  0  0  0  0
  152.3996  145.1863  157.8349 H   0  0  0  0  0  0  0  0  0  0  0  0
  150.3024  144.2291  158.7597 H   0  0  0  0  0  0  0  0  0  0  0  0
  149.6488  141.9417  158.5776 H   0  0  0  0  0  0  0  0  0  0  0  0
  149.9116  142.5177  156.9487 H   0  0  0  0  0  0  0  0  0  0  0  0
  150.9605  141.1800  155.0585 H   0  0  0  0  0  0  0  0  0  0  0  0
  150.1757  139.2286  153.7424 H   0  0  0  0  0  0  0  0  0  0  0  0
  149.5051  137.0019  153.7013 H   0  0  0  0  0  0  0  0  0  0  0  0
  149.0445  135.1961  153.1273 H   0  0  0  0  0  0  0  0  0  0  0  0
  147.8997  133.2408  154.9235 H   0  0  0  0  0  0  0  0  0  0  0  0
  147.5871  131.9627  152.8248 H   0  0  0  0  0  0  0  0  0  0  0  0
  148.6091  133.1017  151.9534 H   0  0  0  0  0  0  0  0  0  0  0  0
  147.0642  133.6282  152.6190 H   0  0  0  0  0  0  0  0  0  0  0  0
  150.5958  132.5992  153.6171 H   0  0  0  0  0  0  0  0  0  0  0  0
  151.1672  133.5436  155.8022 H   0  0  0  0  0  0  0  0  0  0  0  0
  149.7344  132.8201  156.5356 H   0  0  0  0  0  0  0  0  0  0  0  0
  152.2817  131.4509  155.7635 H   0  0  0  0  0  0  0  0  0  0  0  0
  151.1428  131.0522  157.0504 H   0  0  0  0  0  0  0  0  0  0  0  0
  151.2227  130.0626  154.2744 H   0  0  0  0  0  0  0  0  0  0  0  0
  150.1587  129.4996  155.5666 H   0  0  0  0  0  0  0  0  0  0  0  0
  150.1737  136.9534  157.4266 H   0  0  0  0  0  0  0  0  0  0  0  0
  151.4842  140.5270  159.6974 H   0  0  0  0  0  0  0  0  0  0  0  0
  152.9157  140.1741  158.7382 H   0  0  0  0  0  0  0  0  0  0  0  0
  153.5749  142.5451  158.7181 H   0  0  0  0  0  0  0  0  0  0  0  0
  154.3027  141.2332  160.7055 H   0  0  0  0  0  0  0  0  0  0  0  0
  152.8270  141.6886  161.5551 H   0  0  0  0  0  0  0  0  0  0  0  0
  154.0123  142.9190  161.1244 H   0  0  0  0  0  0  0  0  0  0  0  0
  1  2  1  0  0  0  0
  1 26  1  0  0  0  0
  1 27  1  0  0  0  0
  1 28  1  0  0  0  0
  2 25  1  0  0  0  0
  2  3  1  0  0  0  0
  2 29  1  0  0  0  0
  3  4  1  0  0  0  0
  3 30  1  0  0  0  0
  3 31  1  0  0  0  0
  4  5  1  0  0  0  0
  4 22  1  0  0  0  0
  5 21  1  0  0  0  0
  5  6  2  0  0  0  0
  6  7  1  0  0  0  0
  6 32  1  0  0  0  0
  7  8  2  0  0  0  0
  7 33  1  0  0  0  0
  8  9  1  0  0  0  0
  8 20  1  0  0  0  0
  9 10  1  0  0  0  0
  9 34  1  0  0  0  0
 10 11  2  0  0  0  0
 10 12  1  0  0  0  0
 12 13  1  0  0  0  0
 12 35  1  0  0  0  0
 13 14  1  0  0  0  0
 13 15  1  0  0  0  0
 13 36  1  0  0  0  0
 14 37  1  0  0  0  0
 14 38  1  0  0  0  0
 14 39  1  0  0  0  0
 15 19  1  0  0  0  0
 15 16  1  0  0  0  0
 15 40  1  0  0  0  0
 16 17  1  0  0  0  0
 16 41  1  0  0  0  0
 16 42  1  0  0  0  0
 17 18  1  0  0  0  0
 17 43  1  0  0  0  0
 17 44  1  0  0  0  0
 18 19  1  0  0  0  0
 18 45  1  0  0  0  0
 18 46  1  0  0  0  0
 20 21  2  0  0  0  0
 20 47  1  0  0  0  0
 22 23  1  0  0  0  0
 22 48  1  0  0  0  0
 22 49  1  0  0  0  0
 23 24  1  0  0  0  0
 23 25  1  0  0  0  0
 23 50  1  0  0  0  0
 24 51  1  0  0  0  0
 24 52  1  0  0  0  0
 24 53  1  0  0  0  0
M  END
> <s_m_source_file>
AV-unprocessed.smi

> <i_m_source_file_index>
1413

> <i_lp_mmshare_version>
43012

> <i_f3d_flags>
0

> <s_epik_input>
W0NIM11bQ0BASF0xW0NIMl1OKFtDSDJdW0NASF0oTzEpW0NIM10pYzJbY0hdW2NIXWMoW2NIXW4yKVtOSF1DKD1PKVtOSF1bQ0BIXShbQ0gzXSlbQ0BASF0zW0NIMl1bQ0gyXVtDSDJdTzM=

> <s_epik_cmdline>
J2VwaWtfcHl0aG9uJywgJy1waCcsICc3LjAnLCAnLXRuJywgJzgnLCAnLW1hJywgJzIwMCcsICctbWV0YWxfYmluZGluZycsICctaW1hZScsICc8aW5maWxlLm1hZT4nLCAnLW9tYWUnLCAnPG91dGZpbGUubWFlPic=

> <r_lp_tautomer_probability>
1

> <r_epik_Ionization_Penalty>
0.00271172

> <r_epik_Ionization_Penalty_Charging>
0

> <r_epik_Ionization_Penalty_Neutral>
0.00271172

> <r_epik_State_Penalty>
0.00186503

> <r_epik_Charging_Adjusted_Penalty>
0.00186503

> <i_epik_Tot_Q>
0

> <i_epik_Tot_abs_Q>
0

> <r_epik_Metal_State_Penalty>
-0

> <b_epik_Metal_Only>
0

> <s_lp_Force_Field>
OPLS_2005

> <r_lp_Energy>
37.0854

> <b_lp_Chiralities_Consistent>
1

> <s_lp_Variant>
AV-unprocessed.smi:1413-12

> <Gold.Version>
5.8.1

> <Gold.Id.Protein>
6NUR|6NUR_protein|mol2

> <Gold.PLP.Fitness>
48.8101

> <Gold.PLP.PLP>
-44.1060

> <Gold.PLP.part.hbond>
-2.0000

> <Gold.PLP.part.metal>
0.0000

> <Gold.PLP.part.buried>
-6.0757

> <Gold.PLP.part.nonpolar>
-36.0983

> <Gold.PLP.part.repulsive>
0.1018

> <Gold.PLP.ligand.clash>
0.0000

> <Gold.PLP.ligand.torsion>
0.6806

> <Gold.PLP.Chemscore.Hbond>
1.9048

> <Gold.PLP.Chemscore.CHOScore>
0.0000

> <Gold.PLP.Chemscore.Metal>
0.0000

> <Gold.Chemscore.Hbonds>
donor molecule, donor type, donor heavy atom, donor atom, acceptor molecule, acceptor atom, score
      L1  H     9    34       P1  7948  0.90
      L1  H    12    35       P1  7948  0.95

> <Gold.PLP.Chemscore.Internal.Correction>
0.3509

> <Gold.Rescore>
     Score         DG    S(hbond)    S(metal)    S(lipo)     H(rot)  DE(clash)    DE(int)     intcor
     18.54     -20.80       1.77        0.00     110.01       1.35       0.13       2.13       ----

> <Gold.Chemscore.Fitness>
18.5420

> <Gold.Chemscore.DG>
-20.8027

> <Gold.Chemscore.ZeroCoef>
-5.4800

> <Gold.Chemscore.Hbond>
1.7663

> <Gold.Chemscore.Metal>
0.0000

> <Gold.Chemscore.Lipo>
110.0143

> <Gold.Chemscore.Internal_Hbond>
0.0000

> <Gold.Chemscore.DEClash>
0.1269

> <Gold.Chemscore.DEInternal>
2.1338

> <Gold.Chemscore.Rot>
1.3471

> <Gold.Chemscore.Internal.Correction>
   9.000000E+99

> <Gold.Chemscore.Hbonds>
donor molecule, donor type, donor heavy atom, donor atom, acceptor molecule, acceptor atom, score
      L1  H     9    34       P1  7948  0.72
      L1  H    12    35       P1  7948  0.21

> <Gold.Chemscore.Hbond.Weighted>
-5.8995

> <Gold.Chemscore.Metal.Weighted>
-0.0000

> <Gold.Chemscore.Lipo.Weighted>
-12.8717

> <Gold.Chemscore.Internal_Hbond.Weighted>
0.0000

> <Gold.Chemscore.DEClash.Weighted>
0.1269

> <Gold.Chemscore.DEInternal.Weighted>
2.1338

> <Gold.Chemscore.Rot.Weighted>
3.4485

> <Gold.Chemscore.Internal.Correction.Weighted>
   9.000000E+99

> <Gold.Protein.RotatedTorsions>
[ 6907 6896 6895 6894 ] final -179.04 input  -60.11 | X-H torsion
[ 7974 7965 7964 7962 ] final  158.98 input  175.53 | X-H torsion
[ 8008 7997 7996 7995 ] final  -71.95 input   59.86 | X-H torsion
[ 10167 10162 10161 10158 ] final -127.11 input  -65.29 | X-H torsion
[ 10718 10713 10712 10709 ] final  109.08 input   66.30 | X-H torsion
[ 10763 10752 10751 10750 ] final   33.53 input  -60.55 | X-H torsion
[ 11005 11000 10999 10996 ] final  176.94 input  -57.11 | X-H torsion

> <Gold.Protein.ActiveResidues>
 VAL166  LYS551  ARG553  GLY616  TRP617  ASP618  TYR619  PRO620  LYS621  CYS622 
 ASP623  PHE694  ASN695  SER759  ASP760  ASP761  ALA762  ILE779  LEU786  VAL792 
 PHE793  MET794  SER795  GLU796  ALA797  LYS798  CYS799  TRP800  GLU811  SER814 

> <Gold.Protein.RotatedAtoms>
  151.6470  133.3323  159.3142 H   0  0  0  0  0  0  0  0  0  0  0  0  # atno 6907 bound_to 6896
  150.7979  134.7056  159.6584 H   0  0  0  0  0  0  0  0  0  0  0  0  # atno 6908 bound_to 6896
  152.4068  134.6197  160.0099 H   0  0  0  0  0  0  0  0  0  0  0  0  # atno 6909 bound_to 6896
  144.7815  139.7553  143.6258 H   0  0  0  0  0  0  0  0  0  0  0  0  # atno 7974 bound_to 7965
  154.5127  140.0806  156.8022 H   0  0  0  0  0  0  0  0  0  0  0  0  # atno 8008 bound_to 7997
  155.3748  140.3425  155.4226 H   0  0  0  0  0  0  0  0  0  0  0  0  # atno 8009 bound_to 7997
  156.1592  140.1583  156.8628 H   0  0  0  0  0  0  0  0  0  0  0  0  # atno 8010 bound_to 7997
  139.9643  143.5915  152.2434 H   0  0  0  0  0  0  0  0  0  0  0  0  # atno 10167 bound_to 10162
  157.6557  131.0906  150.6401 H   0  0  0  0  0  0  0  0  0  0  0  0  # atno 10718 bound_to 10713
  153.0207  135.6384  154.1526 H   0  0  0  0  0  0  0  0  0  0  0  0  # atno 10763 bound_to 10752
  154.1260  135.2843  155.3198 H   0  0  0  0  0  0  0  0  0  0  0  0  # atno 10764 bound_to 10752
  154.6229  135.5519  153.7657 H   0  0  0  0  0  0  0  0  0  0  0  0  # atno 10765 bound_to 10752
  140.3787  134.6966  157.4437 H   0  0  0  0  0  0  0  0  0  0  0  0  # atno 11005 bound_to 11000
  146.2026  139.5330  142.9733 LP  0  0  0  0  0  0  0  0  0  0  0  0  # atno 17320 bound_to 7965
  145.6036  141.0351  143.2004 LP  0  0  0  0  0  0  0  0  0  0  0  0  # atno 17321 bound_to 7965
  139.6530  144.7661  151.2111 LP  0  0  0  0  0  0  0  0  0  0  0  0  # atno 17342 bound_to 10162
  140.7543  143.6131  150.8586 LP  0  0  0  0  0  0  0  0  0  0  0  0  # atno 17343 bound_to 10162
  156.6707  130.4539  149.5658 LP  0  0  0  0  0  0  0  0  0  0  0  0  # atno 17370 bound_to 10713
  156.1999  130.6613  151.1156 LP  0  0  0  0  0  0  0  0  0  0  0  0  # atno 17371 bound_to 10713
  140.0495  134.6150  155.8879 LP  0  0  0  0  0  0  0  0  0  0  0  0  # atno 17394 bound_to 11000
  141.1931  133.6577  156.5531 LP  0  0  0  0  0  0  0  0  0  0  0  0  # atno 17395 bound_to 11000

$$$$
