AV-unprocessed.smi:1270|AV-procd|sdf|5331|dock7
  -GOLD-   22720 4463D 1   1.00000     0.00000
 Structure written by MMmdl.
 42 43  0  0  0  0  0  0  0  0  1 V2000
  151.7688  139.8731  156.7969 C   0  0  0  0  0  0  0  0  0  0  0  0
  152.6739  140.1407  157.8627 O   0  0  0  0  0  0  0  0  0  0  0  0
  152.5631  141.3424  158.5363 C   0  0  0  0  0  0  0  0  0  0  0  0
  151.8084  142.3246  157.9823 N   0  0  0  0  0  0  0  0  0  0  0  0
  151.7035  143.5003  158.6346 C   0  0  0  0  0  0  0  0  0  0  0  0
  152.3444  143.7610  159.8594 C   0  0  0  0  0  0  0  0  0  0  0  0
  153.1278  142.7444  160.4361 C   0  0  0  0  0  0  0  0  0  0  0  0
  153.2367  141.4988  159.7705 C   0  0  0  0  0  0  0  0  0  0  0  0
  154.0164  140.4097  160.2508 N   0  0  0  0  0  0  0  0  0  0  0  0
  154.6286  140.2707  161.4390 C   0  0  0  0  0  0  0  0  0  0  0  0
  154.5942  141.0865  162.3599 O   0  0  0  0  0  0  0  0  0  0  0  0
  155.2814  139.1021  161.5120 N   0  0  0  0  0  0  0  0  0  0  0  0
  156.0561  138.6418  162.6609 C   0  0  0  0  0  0  0  0  0  0  0  0
  155.1177  138.3590  163.8432 C   0  0  0  0  0  0  0  0  0  0  0  0
  155.9032  137.9236  165.0930 C   0  0  0  0  0  0  0  0  0  0  0  0
  156.9555  138.8989  165.4435 N   0  0  0  0  0  0  0  0  0  0  0  0
  156.6968  140.0307  166.7403 S   0  0  0  0  0  0  0  0  0  0  0  0
  155.6293  141.3307  165.9963 C   0  0  0  0  0  0  0  0  0  0  0  0
  155.9234  139.3463  167.7876 O   0  0  0  0  0  0  0  0  0  0  0  0
  157.9945  140.6385  167.0724 O   0  0  0  0  0  0  0  0  0  0  0  0
  157.8689  139.2436  164.3356 C   0  0  0  0  0  0  0  0  0  0  0  0
  157.0987  139.6917  163.0813 C   0  0  0  0  0  0  0  0  0  0  0  0
  151.9894  138.8928  156.3746 H   0  0  0  0  0  0  0  0  0  0  0  0
  151.8673  140.6077  155.9963 H   0  0  0  0  0  0  0  0  0  0  0  0
  150.7346  139.8582  157.1445 H   0  0  0  0  0  0  0  0  0  0  0  0
  151.0967  144.2588  158.1623 H   0  0  0  0  0  0  0  0  0  0  0  0
  152.2420  144.7212  160.3430 H   0  0  0  0  0  0  0  0  0  0  0  0
  153.6382  142.9481  161.3643 H   0  0  0  0  0  0  0  0  0  0  0  0
  154.0703  139.6160  159.6294 H   0  0  0  0  0  0  0  0  0  0  0  0
  155.2488  138.4890  160.7106 H   0  0  0  0  0  0  0  0  0  0  0  0
  156.5675  137.7138  162.3970 H   0  0  0  0  0  0  0  0  0  0  0  0
  154.5251  139.2453  164.0676 H   0  0  0  0  0  0  0  0  0  0  0  0
  154.4056  137.5780  163.5740 H   0  0  0  0  0  0  0  0  0  0  0  0
  155.2267  137.7750  165.9340 H   0  0  0  0  0  0  0  0  0  0  0  0
  156.3771  136.9592  164.9069 H   0  0  0  0  0  0  0  0  0  0  0  0
  155.4127  142.0865  166.7508 H   0  0  0  0  0  0  0  0  0  0  0  0
  154.6927  140.8925  165.6569 H   0  0  0  0  0  0  0  0  0  0  0  0
  156.1460  141.8029  165.1626 H   0  0  0  0  0  0  0  0  0  0  0  0
  158.5700  140.0171  164.6470 H   0  0  0  0  0  0  0  0  0  0  0  0
  158.4684  138.3639  164.0983 H   0  0  0  0  0  0  0  0  0  0  0  0
  157.8063  139.8652  162.2698 H   0  0  0  0  0  0  0  0  0  0  0  0
  156.6096  140.6476  163.2656 H   0  0  0  0  0  0  0  0  0  0  0  0
  1  2  1  0  0  0  0
  1 23  1  0  0  0  0
  1 24  1  0  0  0  0
  1 25  1  0  0  0  0
  2  3  1  0  0  0  0
  3  8  1  0  0  0  0
  3  4  2  0  0  0  0
  4  5  1  0  0  0  0
  5  6  2  0  0  0  0
  5 26  1  0  0  0  0
  6  7  1  0  0  0  0
  6 27  1  0  0  0  0
  7  8  2  0  0  0  0
  7 28  1  0  0  0  0
  8  9  1  0  0  0  0
  9 10  1  0  0  0  0
  9 29  1  0  0  0  0
 10 11  2  0  0  0  0
 10 12  1  0  0  0  0
 12 13  1  0  0  0  0
 12 30  1  0  0  0  0
 13 22  1  0  0  0  0
 13 14  1  0  0  0  0
 13 31  1  0  0  0  0
 14 15  1  0  0  0  0
 14 32  1  0  0  0  0
 14 33  1  0  0  0  0
 15 16  1  0  0  0  0
 15 34  1  0  0  0  0
 15 35  1  0  0  0  0
 16 17  1  0  0  0  0
 16 21  1  0  0  0  0
 17 18  1  0  0  0  0
 17 19  2  0  0  0  0
 17 20  2  0  0  0  0
 18 36  1  0  0  0  0
 18 37  1  0  0  0  0
 18 38  1  0  0  0  0
 21 22  1  0  0  0  0
 21 39  1  0  0  0  0
 21 40  1  0  0  0  0
 22 41  1  0  0  0  0
 22 42  1  0  0  0  0
M  END
> <s_m_source_file>
AV-unprocessed.smi

> <i_m_source_file_index>
1270

> <i_lp_mmshare_version>
43012

> <i_f3d_flags>
0

> <s_epik_input>
W0NIM11PYzFuW2NIXVtjSF1bY0hdYzFbTkhdQyg9TylbTkhdW0NIXTJbQ0gyXVtDSDJdTihTKD1PKSg9TylbQ0gzXSlbQ0gyXVtDSDJdMg==

> <s_epik_cmdline>
J2VwaWtfcHl0aG9uJywgJy1waCcsICc3LjAnLCAnLXRuJywgJzgnLCAnLW1hJywgJzIwMCcsICctbWV0YWxfYmluZGluZycsICctaW1hZScsICc8aW5maWxlLm1hZT4nLCAnLW9tYWUnLCAnPG91dGZpbGUubWFlPic=

> <r_lp_tautomer_probability>
1

> <r_epik_Ionization_Penalty>
9.27336e-05

> <r_epik_Ionization_Penalty_Charging>
0

> <r_epik_Ionization_Penalty_Neutral>
9.27336e-05

> <r_epik_State_Penalty>
-0

> <r_epik_Charging_Adjusted_Penalty>
0

> <i_epik_Tot_Q>
0

> <i_epik_Tot_abs_Q>
0

> <r_epik_Metal_State_Penalty>
-0

> <b_epik_Metal_Only>
0

> <s_lp_Force_Field>
OPLS_2005

> <r_lp_Energy>
1.71558

> <b_lp_Chiralities_Consistent>
1

> <s_lp_Variant>
AV-unprocessed.smi:1270-1

> <Gold.Version>
5.8.1

> <Gold.Id.Protein>
6NUR|6NUR_protein|mol2

> <Gold.PLP.Fitness>
36.1107

> <Gold.PLP.PLP>
-33.6038

> <Gold.PLP.part.hbond>
-3.0000

> <Gold.PLP.part.metal>
0.0000

> <Gold.PLP.part.buried>
-5.1237

> <Gold.PLP.part.nonpolar>
-24.8990

> <Gold.PLP.part.repulsive>
0.1913

> <Gold.PLP.ligand.clash>
0.0000

> <Gold.PLP.ligand.torsion>
1.2629

> <Gold.PLP.Chemscore.Hbond>
0.9920

> <Gold.PLP.Chemscore.CHOScore>
0.0000

> <Gold.PLP.Chemscore.Metal>
0.0000

> <Gold.Chemscore.Hbonds>
donor molecule, donor type, donor heavy atom, donor atom, acceptor molecule, acceptor atom, score
      P1  H  7997  8010       L1     2  0.80

> <Gold.PLP.Chemscore.Internal.Correction>
2.0568

> <Gold.Rescore>
     Score         DG    S(hbond)    S(metal)    S(lipo)     H(rot)  DE(clash)    DE(int)     intcor
      7.67     -11.04       0.00        0.00      75.73       1.29       0.01       3.36       ----

> <Gold.Chemscore.Fitness>
7.6694

> <Gold.Chemscore.DG>
-11.0403

> <Gold.Chemscore.ZeroCoef>
-5.4800

> <Gold.Chemscore.Hbond>
0.0000

> <Gold.Chemscore.Metal>
0.0000

> <Gold.Chemscore.Lipo>
75.7287

> <Gold.Chemscore.Internal_Hbond>
0.0000

> <Gold.Chemscore.DEClash>
0.0122

> <Gold.Chemscore.DEInternal>
3.3588

> <Gold.Chemscore.Rot>
1.2890

> <Gold.Chemscore.Internal.Correction>
   9.000000E+99

> <Gold.Chemscore.Hbonds>
donor molecule, donor type, donor heavy atom, donor atom, acceptor molecule, acceptor atom, score
      P1  H  7997  8010       L1     2  0.28

> <Gold.Chemscore.Hbond.Weighted>
-0.0000

> <Gold.Chemscore.Metal.Weighted>
-0.0000

> <Gold.Chemscore.Lipo.Weighted>
-8.8603

> <Gold.Chemscore.Internal_Hbond.Weighted>
0.0000

> <Gold.Chemscore.DEClash.Weighted>
0.0122

> <Gold.Chemscore.DEInternal.Weighted>
3.3588

> <Gold.Chemscore.Rot.Weighted>
3.2999

> <Gold.Chemscore.Internal.Correction.Weighted>
   9.000000E+99

> <Gold.Protein.RotatedTorsions>
[ 6907 6896 6895 6894 ] final  138.47 input  -60.11 | X-H torsion
[ 7974 7965 7964 7962 ] final -130.82 input  175.53 | X-H torsion
[ 8008 7997 7996 7995 ] final   34.69 input   59.86 | X-H torsion
[ 10167 10162 10161 10158 ] final  -28.56 input  -65.29 | X-H torsion
[ 10718 10713 10712 10709 ] final   38.57 input   66.30 | X-H torsion
[ 10763 10752 10751 10750 ] final -155.40 input  -60.55 | X-H torsion
[ 11005 11000 10999 10996 ] final  -78.20 input  -57.11 | X-H torsion

> <Gold.Protein.ActiveResidues>
 VAL166  LYS551  ARG553  GLY616  TRP617  ASP618  TYR619  PRO620  LYS621  CYS622 
 ASP623  PHE694  ASN695  SER759  ASP760  ASP761  ALA762  ILE779  LEU786  VAL792 
 PHE793  MET794  SER795  GLU796  ALA797  LYS798  CYS799  TRP800  GLU811  SER814 

> <Gold.Protein.RotatedAtoms>
  152.2662  133.5341  159.5411 H   0  0  0  0  0  0  0  0  0  0  0  0  # atno 6907 bound_to 6896
  150.7143  134.0761  159.3890 H   0  0  0  0  0  0  0  0  0  0  0  0  # atno 6908 bound_to 6896
  151.8677  135.0501  160.0527 H   0  0  0  0  0  0  0  0  0  0  0  0  # atno 6909 bound_to 6896
  144.9438  140.7268  143.4830 H   0  0  0  0  0  0  0  0  0  0  0  0  # atno 7974 bound_to 7965
  155.1589  140.3281  155.4415 H   0  0  0  0  0  0  0  0  0  0  0  0  # atno 8008 bound_to 7997
  156.2549  140.1963  156.6648 H   0  0  0  0  0  0  0  0  0  0  0  0  # atno 8009 bound_to 7997
  154.6419  140.0569  156.9842 H   0  0  0  0  0  0  0  0  0  0  0  0  # atno 8010 bound_to 7997
  140.7269  143.4000  151.1281 H   0  0  0  0  0  0  0  0  0  0  0  0  # atno 10167 bound_to 10162
  157.3604  130.7646  149.7043 H   0  0  0  0  0  0  0  0  0  0  0  0  # atno 10718 bound_to 10713
  154.7789  135.3168  154.8031 H   0  0  0  0  0  0  0  0  0  0  0  0  # atno 10763 bound_to 10752
  153.8748  135.6841  153.4776 H   0  0  0  0  0  0  0  0  0  0  0  0  # atno 10764 bound_to 10752
  153.1421  135.4735  154.9447 H   0  0  0  0  0  0  0  0  0  0  0  0  # atno 10765 bound_to 10752
  141.1664  133.7053  156.7935 H   0  0  0  0  0  0  0  0  0  0  0  0  # atno 11005 bound_to 11000
  145.2950  139.1870  143.4720 LP  0  0  0  0  0  0  0  0  0  0  0  0  # atno 17320 bound_to 7965
  146.3296  140.2932  142.8616 LP  0  0  0  0  0  0  0  0  0  0  0  0  # atno 17321 bound_to 7965
  139.7619  143.8623  152.3102 LP  0  0  0  0  0  0  0  0  0  0  0  0  # atno 17342 bound_to 10162
  139.8512  144.7163  150.9212 LP  0  0  0  0  0  0  0  0  0  0  0  0  # atno 17343 bound_to 10162
  155.9736  130.4115  150.3986 LP  0  0  0  0  0  0  0  0  0  0  0  0  # atno 17370 bound_to 10713
  157.2062  131.0449  151.2624 LP  0  0  0  0  0  0  0  0  0  0  0  0  # atno 17371 bound_to 10713
  140.2308  134.8687  157.3474 LP  0  0  0  0  0  0  0  0  0  0  0  0  # atno 17394 bound_to 11000
  140.1893  134.4391  155.7725 LP  0  0  0  0  0  0  0  0  0  0  0  0  # atno 17395 bound_to 11000

$$$$
