#       Name:                AV-unprocessed.smi:1697
#       Creating user name   scv26
#       Creation time:       Fri Mar 27 07:58:40 2020


#       File generated by GOLD software.
#

@<TRIPOS>MOLECULE
AV-unprocessed.smi:1697
    59    61     1
SMALL
NO_CHARGES


@<TRIPOS>ATOM
      1 ****        -5.5279   2.4584  -2.8575 C.3            1 S1                 0.0000
      2 ****        -4.7504   3.1044  -1.7091 C.3            1 S1                 0.0000
      3 ****        -4.5536   2.1360  -0.6892 O.3            1 S1                 0.0000
      4 ****        -3.8423   2.6106   0.4486 C.3            1 S1                 0.0000
      5 ****        -2.3227   2.6169   0.1988 C.3            1 S1                 0.0000
      6 ****        -1.7793   1.1913   0.0051 C.3            1 S1                 0.0000
      7 ****        -2.1009   0.3307   1.1751 N.4            1 S1                 1.0000
      8 ****        -1.4930  -1.0235   1.0982 C.3            1 S1                 0.0000
      9 ****         0.0200  -1.0220   1.3977 C.3            1 S1                 0.0000
     10 ****         0.2239  -0.6110   2.7354 O.3            1 S1                 0.0000
     11 ****         0.6422  -2.4183   1.2008 C.3            1 S1                 0.0000
     12 ****         2.0897  -2.4386   1.4517 N.pl3          1 S1                 0.0000
     13 ****         2.7863  -2.8621   2.5417 C.2            1 S1                 0.0000
     14 ****         4.1099  -2.6733   2.2808 N.pl3          1 S1                 1.0000
     15 ****         4.2608  -2.1275   1.0039 C.ar           1 S1                 0.0000
     16 ****         5.4002  -1.7630   0.2961 C.ar           1 S1                 0.0000
     17 ****         5.2121  -1.2298  -0.9994 C.ar           1 S1                 0.0000
     18 ****         6.4367  -0.8204  -1.7998 C.3            1 S1                 0.0000
     19 ****         3.9109  -1.0781  -1.5450 C.ar           1 S1                 0.0000
     20 ****         3.7203  -0.5037  -2.9386 C.3            1 S1                 0.0000
     21 ****         2.7646  -1.4557  -0.8096 C.ar           1 S1                 0.0000
     22 ****         2.9682  -1.9772   0.4656 C.ar           1 S1                 0.0000
     23 ****        -3.5653   0.2732   1.4205 C.3            1 S1                 0.0000
     24 ****        -4.1572   1.6790   1.6288 C.3            1 S1                 0.0000
     25 ****        -5.7003   3.1738  -3.6619 H              1 S1                 0.0000
     26 ****        -6.4987   2.0962  -2.5187 H              1 S1                 0.0000
     27 ****        -4.9800   1.6125  -3.2732 H              1 S1                 0.0000
     28 ****        -3.7974   3.4794  -2.0812 H              1 S1                 0.0000
     29 ****        -5.3097   3.9551  -1.3173 H              1 S1                 0.0000
     30 ****        -4.1842   3.6157   0.7014 H              1 S1                 0.0000
     31 ****        -2.0693   3.2335  -0.6628 H              1 S1                 0.0000
     32 ****        -1.8212   3.0774   1.0511 H              1 S1                 0.0000
     33 ****        -2.1984   0.7496  -0.9006 H              1 S1                 0.0000
     34 ****        -0.7024   1.2497  -0.1448 H              1 S1                 0.0000
     35 ****        -1.9831  -1.6876   1.8122 H              1 S1                 0.0000
     36 ****        -1.6866  -1.4453   0.1106 H              1 S1                 0.0000
     37 ****         0.5357  -0.3176   0.7470 H              1 S1                 0.0000
     38 ****         1.1540  -0.5884   2.9045 H              1 S1                 0.0000
     39 ****         0.1810  -3.1410   1.8758 H              1 S1                 0.0000
     40 ****         0.4666  -2.7853   0.1887 H              1 S1                 0.0000
     41 ****         2.3663  -3.2705   3.4500 H              1 S1                 0.0000
     42 ****         6.3879  -1.8820   0.7173 H              1 S1                 0.0000
     43 ****         6.4168   0.2497  -2.0081 H              1 S1                 0.0000
     44 ****         6.4740  -1.3579  -2.7475 H              1 S1                 0.0000
     45 ****         7.3582  -1.0381  -1.2588 H              1 S1                 0.0000
     46 ****         2.6641  -0.4331  -3.2004 H              1 S1                 0.0000
     47 ****         4.2059  -1.1355  -3.6829 H              1 S1                 0.0000
     48 ****         4.1466   0.4976  -3.0025 H              1 S1                 0.0000
     49 ****         1.7745  -1.3416  -1.2252 H              1 S1                 0.0000
     50 ****        -4.0561  -0.2233   0.5818 H              1 S1                 0.0000
     51 ****        -3.7670  -0.3301   2.3064 H              1 S1                 0.0000
     52 ****        -3.7525   2.1079   2.5465 H              1 S1                 0.0000
     53 ****        -5.2361   1.6118   1.7733 H              1 S1                 0.0000
     54 ****        -1.6973   0.7730   1.9890 H              1 S1                 0.0000
     55 ****         4.8537  -2.9040   2.9274 H              1 S1                 0.0000
     56 ****        -4.0420   1.3708  -1.0800 LP             1 S1                 0.0000
     57 ****        -5.4510   1.8164  -0.3851 LP             1 S1                 0.0000
     58 ****        -0.2163  -1.2581   3.3578 LP             1 S1                 0.0000
     59 ****        -0.1657   0.2999   2.8714 LP             1 S1                 0.0000
@<TRIPOS>BOND
    1    1    2 1     
    2    1   25 1     
    3    1   26 1     
    4    1   27 1     
    5    2    3 1     
    6    2   28 1     
    7    2   29 1     
    8    3    4 1     
    9    4   24 1     
   10    4    5 1     
   11    4   30 1     
   12    5    6 1     
   13    5   31 1     
   14    5   32 1     
   15    6    7 1     
   16    6   33 1     
   17    6   34 1     
   18    7    8 1     
   19    7   23 1     
   20    7   54 1     
   21    8    9 1     
   22    8   35 1     
   23    8   36 1     
   24    9   10 1     
   25    9   11 1     
   26    9   37 1     
   27   10   38 1     
   28   11   12 1     
   29   11   39 1     
   30   11   40 1     
   31   12   22 1     
   32   12   13 1     
   33   13   14 2     
   34   13   41 1     
   35   14   15 1     
   36   14   55 1     
   37   15   22 ar    
   38   15   16 ar    
   39   16   17 ar    
   40   16   42 1     
   41   17   18 1     
   42   17   19 ar    
   43   18   43 1     
   44   18   44 1     
   45   18   45 1     
   46   19   20 1     
   47   19   21 ar    
   48   20   46 1     
   49   20   47 1     
   50   20   48 1     
   51   21   22 ar    
   52   21   49 1     
   53   23   24 1     
   54   23   50 1     
   55   23   51 1     
   56   24   52 1     
   57   24   53 1     
   58    3   56 1     
   59    3   57 1     
   60   10   58 1     
   61   10   59 1     
@<TRIPOS>SUBSTRUCTURE
      1 S1             1
@<TRIPOS>SET
LONE_PAIRS      STATIC     ATOMS    <user>   **** ""
4 56 57 58 59
DONOR_HYDROGENS      STATIC     ATOMS    <user>   **** ""
3 54 38 55
ATOM$BLUE        STATIC     ATOMS    COLORGROUP SYSTEM
4 56 57 58 59
ATOM$RED        STATIC     ATOMS    COLORGROUP SYSTEM
3 54 38 55
