#       Name:                AV-unprocessed.smi:3226
#       Creating user name   scv26
#       Creation time:       Fri Mar 27 18:16:27 2020


#       File generated by GOLD software.
#

@<TRIPOS>MOLECULE
AV-unprocessed.smi:3226
    43    45     1
SMALL
NO_CHARGES


@<TRIPOS>ATOM
      1 ****        -4.0694   0.0863  -4.2183 C.3            1 S1                 0.0000
      2 ****        -2.8053   0.7223  -3.6294 C.3            1 S1                 0.0000
      3 ****        -2.9941   1.1709  -2.2131 C.2            1 S1                 0.0000
      4 ****        -3.4791   2.3736  -1.8820 N.2            1 S1                 0.0000
      5 ****        -3.5273   2.3902  -0.5026 N.2            1 S1                 0.0000
      6 ****        -3.0765   1.1916  -0.1377 C.2            1 S1                 0.0000
      7 ****        -2.7232   0.3841  -1.1499 N.pl3          1 S1                 0.0000
      8 ****        -2.1998  -0.9698  -1.0810 C.3            1 S1                 0.0000
      9 ****        -0.6631  -1.0060  -1.1110 C.3            1 S1                 0.0000
     10 ****        -0.0778  -0.3727   0.0881 N.4            1 S1                 1.0000
     11 ****         1.3959  -0.4302   0.1397 C.3            1 S1                 0.0000
     12 ****         1.9364   0.2559   1.4080 C.3            1 S1                 0.0000
     13 ****         1.5860  -0.4941   2.7326 C.3            1 S1                 0.0000
     14 ****         2.9675  -0.7097   3.3927 C.3            1 S1                 0.0000
     15 ****         3.5427   0.6471   3.7412 C.2            1 S1                 0.0000
     16 ****         3.8595   1.2500   2.5938 C.2            1 S1                 0.0000
     17 ****         3.4858   0.3050   1.4702 C.3            1 S1                 0.0000
     18 ****         3.7954  -1.0369   2.1473 C.3            1 S1                 0.0000
     19 ****        -3.9035  -0.2262  -5.2495 H              1 S1                 0.0000
     20 ****        -4.9027   0.7898  -4.2133 H              1 S1                 0.0000
     21 ****        -4.3702  -0.7932  -3.6484 H              1 S1                 0.0000
     22 ****        -1.9720   0.0226  -3.6876 H              1 S1                 0.0000
     23 ****        -2.5184   1.5856  -4.2310 H              1 S1                 0.0000
     24 ****        -2.9977   0.8957   0.8982 H              1 S1                 0.0000
     25 ****        -2.5749  -1.4446  -0.1733 H              1 S1                 0.0000
     26 ****        -2.6046  -1.5422  -1.9160 H              1 S1                 0.0000
     27 ****        -0.3288  -2.0431  -1.1599 H              1 S1                 0.0000
     28 ****        -0.2868  -0.5083  -2.0057 H              1 S1                 0.0000
     29 ****        -0.3627   0.5962   0.1122 H              1 S1                 0.0000
     30 ****         1.7190  -1.4704   0.0910 H              1 S1                 0.0000
     31 ****         1.7947   0.0696  -0.7441 H              1 S1                 0.0000
     32 ****         1.5456   1.2750   1.4385 H              1 S1                 0.0000
     33 ****         0.9151   0.0852   3.3683 H              1 S1                 0.0000
     34 ****         1.1068  -1.4542   2.5356 H              1 S1                 0.0000
     35 ****         3.0128  -1.4480   4.1935 H              1 S1                 0.0000
     36 ****         3.6397   1.0380   4.7434 H              1 S1                 0.0000
     37 ****         4.2686   2.2402   2.4576 H              1 S1                 0.0000
     38 ****         4.0074   0.4904   0.5309 H              1 S1                 0.0000
     39 ****         4.8573  -1.1683   2.3654 H              1 S1                 0.0000
     40 ****         3.4427  -1.9118   1.5990 H              1 S1                 0.0000
     41 ****        -0.4425  -0.8369   0.9077 H              1 S1                 0.0000
     42 ****        -3.7502   3.1077  -2.5046 LP             1 S1                 0.0000
     43 ****        -3.8324   3.1356   0.0900 LP             1 S1                 0.0000
@<TRIPOS>BOND
    1    1    2 1     
    2    1   19 1     
    3    1   20 1     
    4    1   21 1     
    5    2    3 1     
    6    2   22 1     
    7    2   23 1     
    8    3    7 1     
    9    3    4 2     
   10    4    5 1     
   11    5    6 2     
   12    6    7 1     
   13    6   24 1     
   14    7    8 1     
   15    8    9 1     
   16    8   25 1     
   17    8   26 1     
   18    9   10 1     
   19    9   27 1     
   20    9   28 1     
   21   10   11 1     
   22   10   29 1     
   23   10   41 1     
   24   11   12 1     
   25   11   30 1     
   26   11   31 1     
   27   12   17 1     
   28   12   13 1     
   29   12   32 1     
   30   13   14 1     
   31   13   33 1     
   32   13   34 1     
   33   14   18 1     
   34   14   15 1     
   35   14   35 1     
   36   15   16 2     
   37   15   36 1     
   38   16   17 1     
   39   16   37 1     
   40   17   18 1     
   41   17   38 1     
   42   18   39 1     
   43   18   40 1     
   44    4   42 1     
   45    5   43 1     
@<TRIPOS>SUBSTRUCTURE
      1 S1             1
@<TRIPOS>SET
LONE_PAIRS      STATIC     ATOMS    <user>   **** ""
2 42 43
DONOR_HYDROGENS      STATIC     ATOMS    <user>   **** ""
2 29 41
ATOM$BLUE        STATIC     ATOMS    COLORGROUP SYSTEM
2 42 43
ATOM$RED        STATIC     ATOMS    COLORGROUP SYSTEM
2 29 41
