#       Name:                AV-unprocessed.smi:127
#       Creating user name   scv26
#       Creation time:       Thu Mar 26 18:29:10 2020


#       File generated by GOLD software.
#

@<TRIPOS>MOLECULE
AV-unprocessed.smi:127
    38    39     1
SMALL
NO_CHARGES


@<TRIPOS>ATOM
      1 ****        -3.9563   1.7356   0.4328 O.co2          1 S1                 0.0000
      2 ****        -3.6395   1.2215   1.5276 C.2            1 S1                 0.0000
      3 ****        -3.7118   1.7817   2.6431 O.co2          1 S1                -1.0000
      4 ****        -3.1131  -0.2166   1.4986 C.3            1 S1                 0.0000
      5 ****        -1.6636  -0.2819   1.3735 N.am           1 S1                 0.0000
      6 ****        -0.9023  -0.4106   2.5629 C.2            1 S1                 0.0000
      7 ****        -1.4125  -0.3343   3.6820 O.2            1 S1                 0.0000
      8 ****         0.5236  -0.6352   2.3514 C.2            1 S1                 0.0000
      9 ****         1.3405  -0.7636   3.4110 F              1 S1                 0.0000
     10 ****         1.0408  -0.7220   1.1071 C.2            1 S1                 0.0000
     11 ****         0.2724  -0.6067  -0.0394 N.am           1 S1                 0.0000
     12 ****         0.8719  -0.7167  -1.4257 C.3            1 S1                 0.0000
     13 ****         0.9166   0.6641  -2.1087 C.3            1 S1                 0.0000
     14 ****         2.3605   0.7703  -2.5575 C.3            1 S1                 0.0000
     15 ****         3.0772  -0.0736  -1.5145 C.3            1 S1                 0.0000
     16 ****         2.1925  -1.1724  -1.3398 O.3            1 S1                 0.0000
     17 ****        -1.1202  -0.3988   0.0708 C.2            1 S1                 0.0000
     18 ****        -1.8222  -0.3167  -0.9401 O.2            1 S1                 0.0000
     19 ****        -3.4092  -0.7581   2.3984 H              1 S1                 0.0000
     20 ****        -3.5564  -0.7803   0.6761 H              1 S1                 0.0000
     21 ****         2.1029  -0.8937   1.0263 H              1 S1                 0.0000
     22 ****         0.2659  -1.4568  -1.9512 H              1 S1                 0.0000
     23 ****         0.2047   0.7163  -2.9328 H              1 S1                 0.0000
     24 ****         0.6838   1.4504  -1.3886 H              1 S1                 0.0000
     25 ****         2.4806   0.3244  -3.5456 H              1 S1                 0.0000
     26 ****         2.7212   1.7984  -2.5975 H              1 S1                 0.0000
     27 ****         4.0646  -0.4004  -1.8407 H              1 S1                 0.0000
     28 ****         3.1863   0.4759  -0.5784 H              1 S1                 0.0000
     29 ****        -4.3017   2.6735   0.4021 LP             1 S1                 0.0000
     30 ****        -3.8642   1.2088  -0.4123 LP             1 S1                 0.0000
     31 ****        -4.0465   2.7217   2.7098 LP             1 S1                 0.0000
     32 ****        -3.4349   1.2898   3.4685 LP             1 S1                 0.0000
     33 ****        -2.3957  -0.1765   3.7735 LP             1 S1                 0.0000
     34 ****        -0.8433  -0.4302   4.4986 LP             1 S1                 0.0000
     35 ****         2.3589  -1.8528  -2.0536 LP             1 S1                 0.0000
     36 ****         2.3461  -1.5863  -0.4425 LP             1 S1                 0.0000
     37 ****        -2.8065  -0.1631  -0.8542 LP             1 S1                 0.0000
     38 ****        -1.4069  -0.4037  -1.8457 LP             1 S1                 0.0000
@<TRIPOS>BOND
    1    1    2 ar    
    2    2    3 ar    
    3    2    4 1     
    4    4    5 1     
    5    4   19 1     
    6    4   20 1     
    7    5   17 am    
    8    5    6 am    
    9    6    7 2     
   10    6    8 1     
   11    8    9 1     
   12    8   10 2     
   13   10   11 1     
   14   10   21 1     
   15   11   12 1     
   16   11   17 am    
   17   12   16 1     
   18   12   13 1     
   19   12   22 1     
   20   13   14 1     
   21   13   23 1     
   22   13   24 1     
   23   14   15 1     
   24   14   25 1     
   25   14   26 1     
   26   15   16 1     
   27   15   27 1     
   28   15   28 1     
   29   17   18 2     
   30    1   29 1     
   31    1   30 1     
   32    3   31 1     
   33    3   32 1     
   34    7   33 1     
   35    7   34 1     
   36   16   35 1     
   37   16   36 1     
   38   18   37 1     
   39   18   38 1     
@<TRIPOS>SUBSTRUCTURE
      1 S1             1
@<TRIPOS>SET
LONE_PAIRS      STATIC     ATOMS    <user>   **** ""
10 29 30 31 32 33 34 35 36 37 38
ATOM$BLUE        STATIC     ATOMS    COLORGROUP SYSTEM
10 29 30 31 32 33 34 35 36 37 38
