AV-unprocessed.smi:191|AV-procd|sdf|1494|dock5
  -GOLD-   2262019313D 1   1.00000     0.00000
 Structure written by MMmdl.
 46 48  0  0  0  0  0  0  0  0  1 V2000
  145.2301  137.7597  161.1105 C   0  0  0  0  0  0  0  0  0  0  0  0
  145.2695  136.4814  160.2590 C   0  0  0  0  0  0  0  0  0  0  0  0
  146.6188  136.1496  159.7917 N   0  0  0  0  0  0  0  0  0  0  0  0
  147.3468  135.0872  160.4873 C   0  0  0  0  0  0  0  0  0  0  0  0
  147.1245  135.1084  162.0120 C   0  0  1  0  0  0  0  0  0  0  0  0
  147.6618  133.8313  162.6686 C   0  0  0  0  0  0  0  0  0  0  0  0
  147.6918  136.3045  162.6571 C   0  0  0  0  0  0  0  0  0  0  0  0
  148.1350  137.2464  163.1627 N   0  0  0  0  0  0  0  0  0  0  0  0
  147.0720  136.6461  158.6017 C   0  0  0  0  0  0  0  0  0  0  0  0
  146.3401  137.6153  157.9873 N   0  0  0  0  0  0  0  0  0  0  0  0
  146.7289  138.1428  156.8247 C   0  0  0  0  0  0  0  0  0  0  0  0
  147.8114  137.8573  156.1029 N   0  0  0  0  0  0  0  0  0  0  0  0
  148.5636  136.8941  156.7056 C   0  0  0  0  0  0  0  0  0  0  0  0
  148.2742  136.2398  157.9402 C   0  0  0  0  0  0  0  0  0  0  0  0
  149.2910  135.3319  158.2212 N   0  0  0  0  0  0  0  0  0  0  0  0
  150.1190  135.4382  157.2199 C   0  0  0  0  0  0  0  0  0  0  0  0
  149.7545  136.3487  156.2568 N   0  0  0  0  0  0  0  0  0  0  0  0
  150.4891  136.6756  155.0436 C   0  0  0  0  0  0  0  0  0  0  0  0
  150.7496  138.1821  154.8571 C   0  0  0  0  0  0  0  0  0  0  0  0
  149.5569  138.7958  154.0965 C   0  0  0  0  0  0  0  0  0  0  0  0
  149.8681  140.0506  153.5240 O   0  0  0  0  0  0  0  0  0  0  0  0
  151.2025  138.9212  156.1248 C   0  0  0  0  0  0  0  0  0  0  0  0
  152.3674  139.4636  155.4641 O   0  0  0  0  0  0  0  0  0  0  0  0
  152.1445  138.5734  154.3480 C   0  0  0  0  0  0  0  0  0  0  0  0
  144.2117  137.9720  161.4362 H   0  0  0  0  0  0  0  0  0  0  0  0
  145.5823  138.6259  160.5508 H   0  0  0  0  0  0  0  0  0  0  0  0
  145.8482  137.6651  162.0033 H   0  0  0  0  0  0  0  0  0  0  0  0
  144.8390  135.6455  160.8115 H   0  0  0  0  0  0  0  0  0  0  0  0
  144.6210  136.6151  159.3939 H   0  0  0  0  0  0  0  0  0  0  0  0
  146.9901  134.1326  160.1012 H   0  0  0  0  0  0  0  0  0  0  0  0
  148.4081  135.0930  160.2497 H   0  0  0  0  0  0  0  0  0  0  0  0
  146.0536  135.1539  162.2083 H   0  0  0  0  0  0  0  0  0  0  0  0
  147.4629  133.8310  163.7407 H   0  0  0  0  0  0  0  0  0  0  0  0
  148.7396  133.7398  162.5299 H   0  0  0  0  0  0  0  0  0  0  0  0
  147.1923  132.9432  162.2447 H   0  0  0  0  0  0  0  0  0  0  0  0
  146.0797  138.9027  156.4153 H   0  0  0  0  0  0  0  0  0  0  0  0
  151.0251  134.8530  157.1610 H   0  0  0  0  0  0  0  0  0  0  0  0
  151.4292  136.1228  155.0484 H   0  0  0  0  0  0  0  0  0  0  0  0
  149.9211  136.2792  154.2009 H   0  0  0  0  0  0  0  0  0  0  0  0
  149.2311  138.1448  153.2853 H   0  0  0  0  0  0  0  0  0  0  0  0
  148.7010  138.9294  154.7588 H   0  0  0  0  0  0  0  0  0  0  0  0
  149.4283  140.1183  152.6903 H   0  0  0  0  0  0  0  0  0  0  0  0
  150.5152  139.6951  156.4684 H   0  0  0  0  0  0  0  0  0  0  0  0
  151.4785  138.2610  156.9484 H   0  0  0  0  0  0  0  0  0  0  0  0
  152.8646  137.7546  154.3420 H   0  0  0  0  0  0  0  0  0  0  0  0
  152.1408  139.0936  153.3896 H   0  0  0  0  0  0  0  0  0  0  0  0
  1  2  1  0  0  0  0
  1 25  1  0  0  0  0
  1 26  1  0  0  0  0
  1 27  1  0  0  0  0
  2  3  1  0  0  0  0
  2 28  1  0  0  0  0
  2 29  1  0  0  0  0
  3  4  1  0  0  0  0
  3  9  1  0  0  0  0
  4  5  1  0  0  0  0
  4 30  1  0  0  0  0
  4 31  1  0  0  0  0
  5  6  1  0  0  0  0
  5  7  1  0  0  0  0
  5 32  1  0  0  0  0
  6 33  1  0  0  0  0
  6 34  1  0  0  0  0
  6 35  1  0  0  0  0
  7  8  3  0  0  0  0
  9 14  1  0  0  0  0
  9 10  2  0  0  0  0
 10 11  1  0  0  0  0
 11 12  2  0  0  0  0
 11 36  1  0  0  0  0
 12 13  1  0  0  0  0
 13 17  1  0  0  0  0
 13 14  2  0  0  0  0
 14 15  1  0  0  0  0
 15 16  2  0  0  0  0
 16 17  1  0  0  0  0
 16 37  1  0  0  0  0
 17 18  1  0  0  0  0
 18 19  1  0  0  0  0
 18 38  1  0  0  0  0
 18 39  1  0  0  0  0
 19 24  1  0  0  0  0
 19 20  1  0  0  0  0
 19 22  1  0  0  0  0
 20 21  1  0  0  0  0
 20 40  1  0  0  0  0
 20 41  1  0  0  0  0
 21 42  1  0  0  0  0
 22 23  1  0  0  0  0
 22 43  1  0  0  0  0
 22 44  1  0  0  0  0
 23 24  1  0  0  0  0
 24 45  1  0  0  0  0
 24 46  1  0  0  0  0
M  END
> <s_m_source_file>
AV-unprocessed.smi

> <i_m_source_file_index>
191

> <i_lp_mmshare_version>
43012

> <i_f3d_flags>
0

> <s_epik_input>
TiNDW0NAQEhdKFtDSDNdKVtDSDJdTihbQ0gyXVtDSDNdKWMobltjSF1uMSljKGMxMiluW2NIXW4yW0NIMl1DMyhbQ0gyXVtPSF0pW0NIMl1PW0NIMl0z

> <s_epik_cmdline>
J2VwaWtfcHl0aG9uJywgJy1waCcsICc3LjAnLCAnLXRuJywgJzgnLCAnLW1hJywgJzIwMCcsICctbWV0YWxfYmluZGluZycsICctaW1hZScsICc8aW5maWxlLm1hZT4nLCAnLW9tYWUnLCAnPG91dGZpbGUubWFlPic=

> <r_lp_tautomer_probability>
1

> <r_epik_Ionization_Penalty>
0.000569684

> <r_epik_Ionization_Penalty_Charging>
0

> <r_epik_Ionization_Penalty_Neutral>
0.000569684

> <r_epik_State_Penalty>
0.000286009

> <r_epik_Charging_Adjusted_Penalty>
0.000286009

> <i_epik_Tot_Q>
0

> <i_epik_Tot_abs_Q>
0

> <r_epik_Metal_State_Penalty>
-0

> <b_epik_Metal_Only>
0

> <s_lp_Force_Field>
OPLS_2005

> <r_lp_Energy>
30.7711

> <b_lp_Chiralities_Consistent>
1

> <s_lp_Variant>
AV-unprocessed.smi:191-2

> <Gold.Version>
5.8.1

> <Gold.Id.Protein>
6NUR|6NUR_protein|mol2

> <Gold.PLP.Fitness>
43.3740

> <Gold.PLP.PLP>
-33.5984

> <Gold.PLP.part.hbond>
-4.6245

> <Gold.PLP.part.metal>
0.0000

> <Gold.PLP.part.buried>
-3.1789

> <Gold.PLP.part.nonpolar>
-23.7980

> <Gold.PLP.part.repulsive>
0.0347

> <Gold.PLP.ligand.clash>
0.0000

> <Gold.PLP.ligand.torsion>
1.5994

> <Gold.PLP.Chemscore.Hbond>
4.0880

> <Gold.PLP.Chemscore.CHOScore>
0.0000

> <Gold.PLP.Chemscore.Metal>
0.0000

> <Gold.Chemscore.Hbonds>
donor molecule, donor type, donor heavy atom, donor atom, acceptor molecule, acceptor atom, score
      L1  H    21    42       P1  7957  0.90
      P1  H  6896  6907       L1    15  0.59
      P1  H  6931  6943       L1     8  0.61
      P1  H  7989  7998       L1    21  0.66
      P1  H  7997  8010       L1    23  0.46

> <Gold.PLP.Chemscore.Internal.Correction>
0.7105

> <Gold.Rescore>
     Score         DG    S(hbond)    S(metal)    S(lipo)     H(rot)  DE(clash)    DE(int)     intcor
     11.24     -15.27       3.09        0.00      63.53       3.11       0.07       3.96       ----

> <Gold.Chemscore.Fitness>
11.2434

> <Gold.Chemscore.DG>
-15.2735

> <Gold.Chemscore.ZeroCoef>
-5.4800

> <Gold.Chemscore.Hbond>
3.0881

> <Gold.Chemscore.Metal>
0.0000

> <Gold.Chemscore.Lipo>
63.5257

> <Gold.Chemscore.Internal_Hbond>
0.0000

> <Gold.Chemscore.DEClash>
0.0724

> <Gold.Chemscore.DEInternal>
3.9576

> <Gold.Chemscore.Rot>
3.1067

> <Gold.Chemscore.Internal.Correction>
   9.000000E+99

> <Gold.Chemscore.Hbonds>
donor molecule, donor type, donor heavy atom, donor atom, acceptor molecule, acceptor atom, score
      L1  H    21    42       P1  7957  0.83
      P1  H  6896  6907       L1    15  0.07
      P1  H  6931  6943       L1     8  0.47
      P1  H  7989  7998       L1    21  0.50
      P1  H  7997  8010       L1    23  0.45

> <Gold.Chemscore.Hbond.Weighted>
-10.3142

> <Gold.Chemscore.Metal.Weighted>
-0.0000

> <Gold.Chemscore.Lipo.Weighted>
-7.4325

> <Gold.Chemscore.Internal_Hbond.Weighted>
0.0000

> <Gold.Chemscore.DEClash.Weighted>
0.0724

> <Gold.Chemscore.DEInternal.Weighted>
3.9576

> <Gold.Chemscore.Rot.Weighted>
7.9532

> <Gold.Chemscore.Internal.Correction.Weighted>
   9.000000E+99

> <Gold.Protein.RotatedTorsions>
[ 6907 6896 6895 6894 ] final  -56.96 input  -60.11 | X-H torsion
[ 7974 7965 7964 7962 ] final -168.37 input  175.53 | X-H torsion
[ 8008 7997 7996 7995 ] final   77.61 input   59.86 | X-H torsion
[ 10167 10162 10161 10158 ] final  -13.97 input  -65.29 | X-H torsion
[ 10718 10713 10712 10709 ] final  108.29 input   66.30 | X-H torsion
[ 10763 10752 10751 10750 ] final   33.19 input  -60.55 | X-H torsion
[ 11005 11000 10999 10996 ] final   89.80 input  -57.11 | X-H torsion

> <Gold.Protein.ActiveResidues>
 VAL166  LYS551  ARG553  GLY616  TRP617  ASP618  TYR619  PRO620  LYS621  CYS622 
 ASP623  PHE694  ASN695  SER759  ASP760  ASP761  ALA762  ILE779  LEU786  VAL792 
 PHE793  MET794  SER795  GLU796  ALA797  LYS798  CYS799  TRP800  GLU811  SER814 

> <Gold.Protein.RotatedAtoms>
  150.8125  134.7288  159.6700 H   0  0  0  0  0  0  0  0  0  0  0  0  # atno 6907 bound_to 6896
  152.4244  134.5892  159.9979 H   0  0  0  0  0  0  0  0  0  0  0  0  # atno 6908 bound_to 6896
  151.6098  133.3311  159.3101 H   0  0  0  0  0  0  0  0  0  0  0  0  # atno 6909 bound_to 6896
  144.7204  140.2381  143.6295 H   0  0  0  0  0  0  0  0  0  0  0  0  # atno 7974 bound_to 7965
  155.8440  140.3461  155.5650 H   0  0  0  0  0  0  0  0  0  0  0  0  # atno 8008 bound_to 7997
  155.8110  140.0899  157.1923 H   0  0  0  0  0  0  0  0  0  0  0  0  # atno 8009 bound_to 7997
  154.4006  140.1448  156.3374 H   0  0  0  0  0  0  0  0  0  0  0  0  # atno 8010 bound_to 7997
  140.7192  143.5371  150.9452 H   0  0  0  0  0  0  0  0  0  0  0  0  # atno 10167 bound_to 10162
  157.6592  131.0890  150.6283 H   0  0  0  0  0  0  0  0  0  0  0  0  # atno 10718 bound_to 10713
  153.0224  135.6393  154.1473 H   0  0  0  0  0  0  0  0  0  0  0  0  # atno 10763 bound_to 10752
  154.1206  135.2847  155.3211 H   0  0  0  0  0  0  0  0  0  0  0  0  # atno 10764 bound_to 10752
  154.6266  135.5507  153.7696 H   0  0  0  0  0  0  0  0  0  0  0  0  # atno 10765 bound_to 10752
  139.8868  134.8574  156.3194 H   0  0  0  0  0  0  0  0  0  0  0  0  # atno 11005 bound_to 11000
  145.8346  139.2102  143.1862 LP  0  0  0  0  0  0  0  0  0  0  0  0  # atno 17320 bound_to 7965
  146.0400  140.8174  142.9833 LP  0  0  0  0  0  0  0  0  0  0  0  0  # atno 17321 bound_to 7965
  139.9092  143.6740  152.3118 LP  0  0  0  0  0  0  0  0  0  0  0  0  # atno 17342 bound_to 10162
  139.7118  144.7619  151.1100 LP  0  0  0  0  0  0  0  0  0  0  0  0  # atno 17343 bound_to 10162
  156.6587  130.4506  149.5695 LP  0  0  0  0  0  0  0  0  0  0  0  0  # atno 17370 bound_to 10713
  156.2083  130.6663  151.1242 LP  0  0  0  0  0  0  0  0  0  0  0  0  # atno 17371 bound_to 10713
  140.9797  133.7275  156.0653 LP  0  0  0  0  0  0  0  0  0  0  0  0  # atno 17394 bound_to 11000
  140.7766  134.3773  157.5496 LP  0  0  0  0  0  0  0  0  0  0  0  0  # atno 17395 bound_to 11000

$$$$
