AV-unprocessed.smi:1301|AV-procd|sdf|5421|dock4
  -GOLD-   22720 4583D 1   1.00000     0.00000
 Structure written by MMmdl.
 45 46  0  0  0  0  0  0  0  0  2 V2000
  138.1698  137.3800  154.0149 C   0  0  0  0  0  0  0  0  0  0  0  0
  139.6482  137.4544  154.1860 C   0  0  0  0  0  0  0  0  0  0  0  0
  140.6021  138.2939  153.6830 C   0  0  0  0  0  0  0  0  0  0  0  0
  141.8021  137.7927  154.2540 C   0  0  0  0  0  0  0  0  0  0  0  0
  143.0522  138.4014  153.9739 N   0  0  0  0  0  0  0  0  0  0  0  0
  144.2256  138.1806  154.5912 C   0  0  0  0  0  0  0  0  0  0  0  0
  144.3996  137.3883  155.5175 O   0  0  0  0  0  0  0  0  0  0  0  0
  145.2014  138.9379  154.0678 N   0  0  0  0  0  0  0  0  0  0  0  0
  146.5971  138.9440  154.4998 C   0  0  2  0  0  0  0  0  0  0  0  0
  147.4609  139.7140  153.4891 C   0  0  0  0  0  0  0  0  0  0  0  0
  148.9490  139.6527  153.8725 C   0  0  0  0  0  0  0  0  0  0  0  0
  149.4168  138.2480  153.9985 N   0  3  1  0  0  0  0  0  0  0  0  0
  150.8806  138.1628  154.2391 C   0  0  0  0  0  0  0  0  0  0  0  0
  151.3120  138.8156  155.5699 C   0  0  0  0  0  0  0  0  0  0  0  0
  151.4389  140.3375  155.4076 C   0  0  0  0  0  0  0  0  0  0  0  0
  152.6280  138.2207  156.0990 C   0  0  0  0  0  0  0  0  0  0  0  0
  148.6128  137.4910  154.9954 C   0  0  0  0  0  0  0  0  0  0  0  0
  147.1186  137.5045  154.6313 C   0  0  0  0  0  0  0  0  0  0  0  0
  141.5986  136.7438  155.0363 N   0  0  0  0  0  0  0  0  0  0  0  0
  140.2171  136.5215  154.9968 O   0  0  0  0  0  0  0  0  0  0  0  0
  137.8264  138.1061  153.2779 H   0  0  0  0  0  0  0  0  0  0  0  0
  137.6612  137.5867  154.9567 H   0  0  0  0  0  0  0  0  0  0  0  0
  137.8691  136.3880  153.6776 H   0  0  0  0  0  0  0  0  0  0  0  0
  140.4600  139.1294  153.0138 H   0  0  0  0  0  0  0  0  0  0  0  0
  143.0514  139.0760  153.2234 H   0  0  0  0  0  0  0  0  0  0  0  0
  144.9589  139.5598  153.3102 H   0  0  0  0  0  0  0  0  0  0  0  0
  146.6947  139.4323  155.4712 H   0  0  0  0  0  0  0  0  0  0  0  0
  147.3273  139.2972  152.4896 H   0  0  0  0  0  0  0  0  0  0  0  0
  147.1371  140.7542  153.4360 H   0  0  0  0  0  0  0  0  0  0  0  0
  149.5328  140.1683  153.1089 H   0  0  0  0  0  0  0  0  0  0  0  0
  149.1188  140.1801  154.8126 H   0  0  0  0  0  0  0  0  0  0  0  0
  151.1887  137.1163  154.2603 H   0  0  0  0  0  0  0  0  0  0  0  0
  151.4085  138.6144  153.3978 H   0  0  0  0  0  0  0  0  0  0  0  0
  150.5417  138.6438  156.3213 H   0  0  0  0  0  0  0  0  0  0  0  0
  152.2013  140.5970  154.6723 H   0  0  0  0  0  0  0  0  0  0  0  0
  151.7115  140.8128  156.3503 H   0  0  0  0  0  0  0  0  0  0  0  0
  150.4971  140.7787  155.0800 H   0  0  0  0  0  0  0  0  0  0  0  0
  153.4409  138.3565  155.3849 H   0  0  0  0  0  0  0  0  0  0  0  0
  152.5334  137.1527  156.2970 H   0  0  0  0  0  0  0  0  0  0  0  0
  152.9254  138.6976  157.0335 H   0  0  0  0  0  0  0  0  0  0  0  0
  148.9519  136.4575  155.0525 H   0  0  0  0  0  0  0  0  0  0  0  0
  148.7581  137.9240  155.9865 H   0  0  0  0  0  0  0  0  0  0  0  0
  146.5494  136.9683  155.3918 H   0  0  0  0  0  0  0  0  0  0  0  0
  146.9683  136.9653  153.6945 H   0  0  0  0  0  0  0  0  0  0  0  0
  149.2534  137.8187  153.0988 H   0  0  0  0  0  0  0  0  0  0  0  0
  1  2  1  0  0  0  0
  1 21  1  0  0  0  0
  1 22  1  0  0  0  0
  1 23  1  0  0  0  0
  2 20  1  0  0  0  0
  2  3  2  0  0  0  0
  3  4  1  0  0  0  0
  3 24  1  0  0  0  0
  4  5  1  0  0  0  0
  4 19  2  0  0  0  0
  5  6  1  0  0  0  0
  5 25  1  0  0  0  0
  6  7  2  0  0  0  0
  6  8  1  0  0  0  0
  8  9  1  0  0  0  0
  8 26  1  0  0  0  0
  9 18  1  0  0  0  0
  9 10  1  0  0  0  0
  9 27  1  0  0  0  0
 10 11  1  0  0  0  0
 10 28  1  0  0  0  0
 10 29  1  0  0  0  0
 11 12  1  0  0  0  0
 11 30  1  0  0  0  0
 11 31  1  0  0  0  0
 12 13  1  0  0  0  0
 12 17  1  0  0  0  0
 12 45  1  0  0  0  0
 13 14  1  0  0  0  0
 13 32  1  0  0  0  0
 13 33  1  0  0  0  0
 14 15  1  0  0  0  0
 14 16  1  0  0  0  0
 14 34  1  0  0  0  0
 15 35  1  0  0  0  0
 15 36  1  0  0  0  0
 15 37  1  0  0  0  0
 16 38  1  0  0  0  0
 16 39  1  0  0  0  0
 16 40  1  0  0  0  0
 17 18  1  0  0  0  0
 17 41  1  0  0  0  0
 17 42  1  0  0  0  0
 18 43  1  0  0  0  0
 18 44  1  0  0  0  0
 19 20  1  0  0  0  0
M  CHG  1  12   1
M  END
> <s_m_source_file>
AV-unprocessed.smi

> <i_m_source_file_index>
1301

> <i_lp_mmshare_version>
43012

> <i_f3d_flags>
0

> <s_epik_input>
W0NIM11jMVtjSF1jKG5vMSlbTkhdQyg9TylbTkhdW0NIXTJbQ0gyXVtDSDJdTihbQ0gyXVtDSDJdMilbQ0gyXVtDSF0oW0NIM10pW0NIM10=

> <s_epik_cmdline>
J2VwaWtfcHl0aG9uJywgJy1waCcsICc3LjAnLCAnLXRuJywgJzgnLCAnLW1hJywgJzIwMCcsICctbWV0YWxfYmluZGluZycsICctaW1hZScsICc8aW5maWxlLm1hZT4nLCAnLW9tYWUnLCAnPG91dGZpbGUubWFlPic=

> <r_epik_Ionization_Penalty>
0.0020743

> <r_epik_Ionization_Penalty_Charging>
0.0020412

> <r_epik_Ionization_Penalty_Neutral>
3.31029e-05

> <r_epik_State_Penalty>
0.00139626

> <r_epik_Charging_Adjusted_Penalty>
0.00343746

> <i_epik_Tot_Q>
1

> <i_epik_Tot_abs_Q>
1

> <r_epik_Metal_State_Penalty>
0.0141509

> <b_epik_Metal_Only>
0

> <s_lp_Force_Field>
OPLS_2005

> <r_lp_Energy>
17.3221

> <b_lp_Chiralities_Consistent>
1

> <s_lp_Variant>
AV-unprocessed.smi:1301-1

> <Gold.Version>
5.8.1

> <Gold.Id.Protein>
6NUR|6NUR_protein|mol2

> <Gold.PLP.Fitness>
42.6015

> <Gold.PLP.PLP>
-28.4148

> <Gold.PLP.part.hbond>
-4.2688

> <Gold.PLP.part.metal>
0.0000

> <Gold.PLP.part.buried>
-2.0633

> <Gold.PLP.part.nonpolar>
-22.1610

> <Gold.PLP.part.repulsive>
0.1172

> <Gold.PLP.ligand.clash>
0.0000

> <Gold.PLP.ligand.torsion>
0.4093

> <Gold.PLP.Chemscore.Hbond>
4.9920

> <Gold.PLP.Chemscore.CHOScore>
0.0000

> <Gold.PLP.Chemscore.Metal>
0.0000

> <Gold.Chemscore.Hbonds>
donor molecule, donor type, donor heavy atom, donor atom, acceptor molecule, acceptor atom, score
      L1  H     5    25       P1 10175  1.00
      L1  H     8    26       P1 10175  0.94
      L1  H    12    45       P1  7948  2.00
      P1  H 11000 11005       L1    20  0.86

> <Gold.PLP.Chemscore.Internal.Correction>
0.0293

> <Gold.Rescore>
     Score         DG    S(hbond)    S(metal)    S(lipo)     H(rot)  DE(clash)    DE(int)     intcor
     16.98     -20.30       3.32        0.00      63.08       1.43       0.03       3.28       ----

> <Gold.Chemscore.Fitness>
16.9823

> <Gold.Chemscore.DG>
-20.2960

> <Gold.Chemscore.ZeroCoef>
-5.4800

> <Gold.Chemscore.Hbond>
3.3222

> <Gold.Chemscore.Metal>
0.0000

> <Gold.Chemscore.Lipo>
63.0788

> <Gold.Chemscore.Internal_Hbond>
0.0000

> <Gold.Chemscore.DEClash>
0.0291

> <Gold.Chemscore.DEInternal>
3.2846

> <Gold.Chemscore.Rot>
1.4298

> <Gold.Chemscore.Internal.Correction>
   9.000000E+99

> <Gold.Chemscore.Hbonds>
donor molecule, donor type, donor heavy atom, donor atom, acceptor molecule, acceptor atom, score
      L1  H     5    25       P1 10175  0.97
      L1  H     8    26       P1 10175  0.91
      L1  H    12    45       P1  7948  0.93
      P1  H 11000 11005       L1    20  0.31

> <Gold.Chemscore.Hbond.Weighted>
-11.0962

> <Gold.Chemscore.Metal.Weighted>
-0.0000

> <Gold.Chemscore.Lipo.Weighted>
-7.3802

> <Gold.Chemscore.Internal_Hbond.Weighted>
0.0000

> <Gold.Chemscore.DEClash.Weighted>
0.0291

> <Gold.Chemscore.DEInternal.Weighted>
3.2846

> <Gold.Chemscore.Rot.Weighted>
3.6604

> <Gold.Chemscore.Internal.Correction.Weighted>
   9.000000E+99

> <Gold.Protein.RotatedTorsions>
[ 6907 6896 6895 6894 ] final   75.06 input  -60.11 | X-H torsion
[ 7974 7965 7964 7962 ] final -173.29 input  175.53 | X-H torsion
[ 8008 7997 7996 7995 ] final -145.17 input   59.86 | X-H torsion
[ 10167 10162 10161 10158 ] final  -96.63 input  -65.29 | X-H torsion
[ 10718 10713 10712 10709 ] final   78.48 input   66.30 | X-H torsion
[ 10763 10752 10751 10750 ] final  -97.65 input  -60.55 | X-H torsion
[ 11005 11000 10999 10996 ] final   66.58 input  -57.11 | X-H torsion

> <Gold.Protein.ActiveResidues>
 VAL166  LYS551  ARG553  GLY616  TRP617  ASP618  TYR619  PRO620  LYS621  CYS622 
 ASP623  PHE694  ASN695  SER759  ASP760  ASP761  ALA762  ILE779  LEU786  VAL792 
 PHE793  MET794  SER795  GLU796  ALA797  LYS798  CYS799  TRP800  GLU811  SER814 

> <Gold.Protein.RotatedAtoms>
  152.5007  134.4177  159.9469 H   0  0  0  0  0  0  0  0  0  0  0  0  # atno 6907 bound_to 6896
  151.4149  133.3710  159.2756 H   0  0  0  0  0  0  0  0  0  0  0  0  # atno 6908 bound_to 6896
  150.9265  134.8703  159.7582 H   0  0  0  0  0  0  0  0  0  0  0  0  # atno 6909 bound_to 6896
  144.7139  140.1644  143.6373 H   0  0  0  0  0  0  0  0  0  0  0  0  # atno 7974 bound_to 7965
  155.5388  140.0606  157.2874 H   0  0  0  0  0  0  0  0  0  0  0  0  # atno 8008 bound_to 7997
  154.4459  140.1923  156.0613 H   0  0  0  0  0  0  0  0  0  0  0  0  # atno 8009 bound_to 7997
  156.0600  140.3273  155.7454 H   0  0  0  0  0  0  0  0  0  0  0  0  # atno 8010 bound_to 7997
  140.2918  143.3216  152.0338 H   0  0  0  0  0  0  0  0  0  0  0  0  # atno 10167 bound_to 10162
  157.6746  130.9870  150.1792 H   0  0  0  0  0  0  0  0  0  0  0  0  # atno 10718 bound_to 10713
  154.7347  135.5038  153.9021 H   0  0  0  0  0  0  0  0  0  0  0  0  # atno 10763 bound_to 10752
  153.0983  135.6678  153.9729 H   0  0  0  0  0  0  0  0  0  0  0  0  # atno 10764 bound_to 10752
  153.9521  135.3056  155.3417 H   0  0  0  0  0  0  0  0  0  0  0  0  # atno 10765 bound_to 10752
  139.9823  134.6724  156.0239 H   0  0  0  0  0  0  0  0  0  0  0  0  # atno 11005 bound_to 11000
  145.9001  139.2425  143.1499 LP  0  0  0  0  0  0  0  0  0  0  0  0  # atno 17320 bound_to 7965
  145.9819  140.8675  143.0110 LP  0  0  0  0  0  0  0  0  0  0  0  0  # atno 17321 bound_to 7965
  139.4936  144.6519  151.6657 LP  0  0  0  0  0  0  0  0  0  0  0  0  # atno 17342 bound_to 10162
  140.5725  144.0084  150.6224 LP  0  0  0  0  0  0  0  0  0  0  0  0  # atno 17343 bound_to 10162
  156.2528  130.3702  149.8213 LP  0  0  0  0  0  0  0  0  0  0  0  0  # atno 17370 bound_to 10713
  156.5981  130.8535  151.3425 LP  0  0  0  0  0  0  0  0  0  0  0  0  # atno 17371 bound_to 10713
  141.1493  133.6551  156.3965 LP  0  0  0  0  0  0  0  0  0  0  0  0  # atno 17394 bound_to 11000
  140.5071  134.6430  157.5270 LP  0  0  0  0  0  0  0  0  0  0  0  0  # atno 17395 bound_to 11000

$$$$
