AV-unprocessed.smi:682|AV-procd|sdf|3328|dock4
  -GOLD-   22720 0293D 1   1.00000     0.00000
 Structure written by MMmdl.
 41 42  0  0  0  0  0  0  0  0  1 V2000
  144.0284  132.7396  148.9735 C   0  0  0  0  0  0  0  0  0  0  0  0
  143.7684  133.1291  150.3167 O   0  0  0  0  0  0  0  0  0  0  0  0
  144.8728  133.1173  151.2318 C   0  0  1  0  0  0  0  0  0  0  0  0
  145.1502  131.6903  151.7208 C   0  0  0  0  0  0  0  0  0  0  0  0
  146.0341  133.9656  150.6781 C   0  0  0  0  0  0  0  0  0  0  0  0
  145.3133  135.1867  151.2453 C   0  0  2  0  0  0  0  0  0  0  0  0
  146.2307  136.1771  151.7985 N   0  0  0  0  0  0  0  0  0  0  0  0
  145.8482  137.2357  152.5246 C   0  0  0  0  0  0  0  0  0  0  0  0
  144.6738  137.4836  152.7984 O   0  0  0  0  0  0  0  0  0  0  0  0
  146.9033  137.9718  152.9076 N   0  0  0  0  0  0  0  0  0  0  0  0
  146.8849  139.1500  153.6946 C   0  0  0  0  0  0  0  0  0  0  0  0
  147.6760  140.3277  153.5744 C   0  0  0  0  0  0  0  0  0  0  0  0
  147.3545  141.2127  154.5062 N   0  0  0  0  0  0  0  0  0  0  0  0
  146.3687  140.6240  155.2258 N   0  0  0  0  0  0  0  0  0  0  0  0
  145.7834  141.3373  156.3408 C   0  0  0  0  0  0  0  0  0  0  0  0
  146.0569  139.3642  154.7551 C   0  0  0  0  0  0  0  0  0  0  0  0
  144.6513  134.2493  152.2881 C   0  0  0  0  0  0  0  0  0  0  0  0
  143.1981  134.5730  152.6524 C   0  0  0  0  0  0  0  0  0  0  0  0
  145.3885  134.0738  153.6294 C   0  0  0  0  0  0  0  0  0  0  0  0
  143.1464  132.9447  148.3671 H   0  0  0  0  0  0  0  0  0  0  0  0
  144.2293  131.6712  148.8967 H   0  0  0  0  0  0  0  0  0  0  0  0
  144.8633  133.2853  148.5353 H   0  0  0  0  0  0  0  0  0  0  0  0
  145.9174  131.6680  152.4939 H   0  0  0  0  0  0  0  0  0  0  0  0
  145.5125  131.0481  150.9187 H   0  0  0  0  0  0  0  0  0  0  0  0
  144.2530  131.2334  152.1386 H   0  0  0  0  0  0  0  0  0  0  0  0
  146.9853  133.7516  151.1686 H   0  0  0  0  0  0  0  0  0  0  0  0
  146.1489  133.9789  149.5950 H   0  0  0  0  0  0  0  0  0  0  0  0
  144.5977  135.5992  150.5298 H   0  0  0  0  0  0  0  0  0  0  0  0
  147.2151  136.0456  151.6177 H   0  0  0  0  0  0  0  0  0  0  0  0
  147.8137  137.6556  152.6074 H   0  0  0  0  0  0  0  0  0  0  0  0
  148.4524  140.5746  152.8658 H   0  0  0  0  0  0  0  0  0  0  0  0
  145.0996  140.6848  156.8848 H   0  0  0  0  0  0  0  0  0  0  0  0
  145.2321  142.2037  155.9745 H   0  0  0  0  0  0  0  0  0  0  0  0
  146.5685  141.6717  157.0199 H   0  0  0  0  0  0  0  0  0  0  0  0
  145.2931  138.7471  155.2050 H   0  0  0  0  0  0  0  0  0  0  0  0
  143.1349  135.4184  153.3384 H   0  0  0  0  0  0  0  0  0  0  0  0
  142.7084  133.7232  153.1286 H   0  0  0  0  0  0  0  0  0  0  0  0
  142.6075  134.8395  151.7759 H   0  0  0  0  0  0  0  0  0  0  0  0
  145.3283  134.9731  154.2430 H   0  0  0  0  0  0  0  0  0  0  0  0
  146.4474  133.8537  153.4923 H   0  0  0  0  0  0  0  0  0  0  0  0
  144.9638  133.2574  154.2141 H   0  0  0  0  0  0  0  0  0  0  0  0
  1  2  1  0  0  0  0
  1 20  1  0  0  0  0
  1 21  1  0  0  0  0
  1 22  1  0  0  0  0
  2  3  1  0  0  0  0
  3 17  1  0  0  0  0
  3  4  1  0  0  0  0
  3  5  1  0  0  0  0
  4 23  1  0  0  0  0
  4 24  1  0  0  0  0
  4 25  1  0  0  0  0
  5  6  1  0  0  0  0
  5 26  1  0  0  0  0
  5 27  1  0  0  0  0
  6  7  1  0  0  0  0
  6 17  1  0  0  0  0
  6 28  1  0  0  0  0
  7  8  1  0  0  0  0
  7 29  1  0  0  0  0
  8  9  2  0  0  0  0
  8 10  1  0  0  0  0
 10 11  1  0  0  0  0
 10 30  1  0  0  0  0
 11 16  2  0  0  0  0
 11 12  1  0  0  0  0
 12 13  2  0  0  0  0
 12 31  1  0  0  0  0
 13 14  1  0  0  0  0
 14 15  1  0  0  0  0
 14 16  1  0  0  0  0
 15 32  1  0  0  0  0
 15 33  1  0  0  0  0
 15 34  1  0  0  0  0
 16 35  1  0  0  0  0
 17 18  1  0  0  0  0
 17 19  1  0  0  0  0
 18 36  1  0  0  0  0
 18 37  1  0  0  0  0
 18 38  1  0  0  0  0
 19 39  1  0  0  0  0
 19 40  1  0  0  0  0
 19 41  1  0  0  0  0
M  END
> <s_m_source_file>
AV-unprocessed.smi

> <i_m_source_file_index>
682

> <i_lp_mmshare_version>
43012

> <i_f3d_flags>
0

> <s_epik_input>
W0NIM11PW0NAQF0xKFtDSDNdKVtDSDJdW0NASF0oQzEoW0NIM10pW0NIM10pW05IXUMoPU8pW05IXWMyW2NIXW5uKFtDSDNdKVtjSF0y

> <s_epik_cmdline>
J2VwaWtfcHl0aG9uJywgJy1waCcsICc3LjAnLCAnLXRuJywgJzgnLCAnLW1hJywgJzIwMCcsICctbWV0YWxfYmluZGluZycsICctaW1hZScsICc8aW5maWxlLm1hZT4nLCAnLW9tYWUnLCAnPG91dGZpbGUubWFlPic=

> <r_lp_tautomer_probability>
1

> <r_epik_Ionization_Penalty>
0.000192302

> <r_epik_Ionization_Penalty_Charging>
0

> <r_epik_Ionization_Penalty_Neutral>
0.000192302

> <r_epik_State_Penalty>
-0

> <r_epik_Charging_Adjusted_Penalty>
0

> <i_epik_Tot_Q>
0

> <i_epik_Tot_abs_Q>
0

> <r_epik_Metal_State_Penalty>
-0

> <b_epik_Metal_Only>
0

> <s_lp_Force_Field>
OPLS_2005

> <r_lp_Energy>
24.1869

> <b_lp_Chiralities_Consistent>
1

> <s_lp_Variant>
AV-unprocessed.smi:682-3

> <Gold.Version>
5.8.1

> <Gold.Id.Protein>
6NUR|6NUR_protein|mol2

> <Gold.PLP.Fitness>
35.1024

> <Gold.PLP.PLP>
-27.1352

> <Gold.PLP.part.hbond>
-2.0000

> <Gold.PLP.part.metal>
0.0000

> <Gold.PLP.part.buried>
-4.7074

> <Gold.PLP.part.nonpolar>
-21.1427

> <Gold.PLP.part.repulsive>
0.8449

> <Gold.PLP.ligand.clash>
0.0000

> <Gold.PLP.ligand.torsion>
0.6915

> <Gold.PLP.Chemscore.Hbond>
1.9920

> <Gold.PLP.Chemscore.CHOScore>
1.0000

> <Gold.PLP.Chemscore.Metal>
0.0000

> <Gold.Chemscore.Hbonds>
donor molecule, donor type, donor heavy atom, donor atom, acceptor molecule, acceptor atom, score
      L1  H     7    29       P1  7948  1.00
      L1  H    10    30       P1  7948  0.99
      L1  C    12    31       P1  7957  1.00

> <Gold.PLP.Chemscore.Internal.Correction>
0.3741

> <Gold.Rescore>
     Score         DG    S(hbond)    S(metal)    S(lipo)     H(rot)  DE(clash)    DE(int)     intcor
     15.32     -16.74       1.96        0.00      67.19       1.23       0.10       1.32       ----

> <Gold.Chemscore.Fitness>
15.3225

> <Gold.Chemscore.DG>
-16.7417

> <Gold.Chemscore.ZeroCoef>
-5.4800

> <Gold.Chemscore.Hbond>
1.9637

> <Gold.Chemscore.Metal>
0.0000

> <Gold.Chemscore.Lipo>
67.1888

> <Gold.Chemscore.Internal_Hbond>
0.0000

> <Gold.Chemscore.DEClash>
0.1035

> <Gold.Chemscore.DEInternal>
1.3157

> <Gold.Chemscore.Rot>
1.2336

> <Gold.Chemscore.Internal.Correction>
   9.000000E+99

> <Gold.Chemscore.Hbonds>
donor molecule, donor type, donor heavy atom, donor atom, acceptor molecule, acceptor atom, score
      L1  H     7    29       P1  7948  0.99
      L1  H    10    30       P1  7948  0.93

> <Gold.Chemscore.Hbond.Weighted>
-6.5587

> <Gold.Chemscore.Metal.Weighted>
-0.0000

> <Gold.Chemscore.Lipo.Weighted>
-7.8611

> <Gold.Chemscore.Internal_Hbond.Weighted>
0.0000

> <Gold.Chemscore.DEClash.Weighted>
0.1035

> <Gold.Chemscore.DEInternal.Weighted>
1.3157

> <Gold.Chemscore.Rot.Weighted>
3.1581

> <Gold.Chemscore.Internal.Correction.Weighted>
   9.000000E+99

> <Gold.Protein.RotatedTorsions>
[ 6907 6896 6895 6894 ] final   76.24 input  -60.11 | X-H torsion
[ 7974 7965 7964 7962 ] final  -95.57 input  175.53 | X-H torsion
[ 8008 7997 7996 7995 ] final   13.28 input   59.86 | X-H torsion
[ 10167 10162 10161 10158 ] final   -0.35 input  -65.29 | X-H torsion
[ 10718 10713 10712 10709 ] final -103.82 input   66.30 | X-H torsion
[ 10763 10752 10751 10750 ] final -157.43 input  -60.55 | X-H torsion
[ 11005 11000 10999 10996 ] final  -15.25 input  -57.11 | X-H torsion

> <Gold.Protein.ActiveResidues>
 VAL166  LYS551  ARG553  GLY616  TRP617  ASP618  TYR619  PRO620  LYS621  CYS622 
 ASP623  PHE694  ASN695  SER759  ASP760  ASP761  ALA762  ILE779  LEU786  VAL792 
 PHE793  MET794  SER795  GLU796  ALA797  LYS798  CYS799  TRP800  GLU811  SER814 

> <Gold.Protein.RotatedAtoms>
  152.5064  134.3998  159.9412 H   0  0  0  0  0  0  0  0  0  0  0  0  # atno 6907 bound_to 6896
  151.3962  133.3766  159.2734 H   0  0  0  0  0  0  0  0  0  0  0  0  # atno 6908 bound_to 6896
  150.9396  134.8827  159.7662 H   0  0  0  0  0  0  0  0  0  0  0  0  # atno 6909 bound_to 6896
  145.3583  140.9488  143.2515 H   0  0  0  0  0  0  0  0  0  0  0  0  # atno 7974 bound_to 7965
  154.8323  140.2901  155.5714 H   0  0  0  0  0  0  0  0  0  0  0  0  # atno 8008 bound_to 7997
  156.3006  140.2529  156.3182 H   0  0  0  0  0  0  0  0  0  0  0  0  # atno 8009 bound_to 7997
  154.9217  140.0386  157.1991 H   0  0  0  0  0  0  0  0  0  0  0  0  # atno 8010 bound_to 7997
  140.6763  143.6905  150.8032 H   0  0  0  0  0  0  0  0  0  0  0  0  # atno 10167 bound_to 10162
  156.0280  130.5485  150.7307 H   0  0  0  0  0  0  0  0  0  0  0  0  # atno 10718 bound_to 10713
  154.7636  135.3125  154.8329 H   0  0  0  0  0  0  0  0  0  0  0  0  # atno 10763 bound_to 10752
  153.9084  135.6808  153.4756 H   0  0  0  0  0  0  0  0  0  0  0  0  # atno 10764 bound_to 10752
  153.1240  135.4810  154.9174 H   0  0  0  0  0  0  0  0  0  0  0  0  # atno 10765 bound_to 10752
  140.7947  133.8260  155.9413 H   0  0  0  0  0  0  0  0  0  0  0  0  # atno 11005 bound_to 11000
  144.8665  139.5100  143.6787 LP  0  0  0  0  0  0  0  0  0  0  0  0  # atno 17320 bound_to 7965
  146.2938  139.7218  142.9141 LP  0  0  0  0  0  0  0  0  0  0  0  0  # atno 17321 bound_to 7965
  140.0598  143.5166  152.2633 LP  0  0  0  0  0  0  0  0  0  0  0  0  # atno 17342 bound_to 10162
  139.6058  144.7596  151.3065 LP  0  0  0  0  0  0  0  0  0  0  0  0  # atno 17343 bound_to 10162
  157.4900  131.0910  151.0437 LP  0  0  0  0  0  0  0  0  0  0  0  0  # atno 17370 bound_to 10713
  157.0847  130.5917  149.5427 LP  0  0  0  0  0  0  0  0  0  0  0  0  # atno 17371 bound_to 10713
  140.9354  134.1968  157.4835 LP  0  0  0  0  0  0  0  0  0  0  0  0  # atno 17394 bound_to 11000
  139.8727  134.9850  156.5264 LP  0  0  0  0  0  0  0  0  0  0  0  0  # atno 17395 bound_to 11000

$$$$
