#       Name:                AV-unprocessed.smi:102
#       Creating user name   scv26
#       Creation time:       Thu Mar 26 17:48:59 2020


#       File generated by GOLD software.
#

@<TRIPOS>MOLECULE
AV-unprocessed.smi:102
    56    57     1
SMALL
NO_CHARGES


@<TRIPOS>ATOM
      1 ****        -4.3940   0.7856   1.0875 C.3            1 S1                 0.0000
      2 ****        -3.9830  -0.5834   0.5622 C.2            1 S1                 0.0000
      3 ****        -4.8164  -1.3995   0.1693 O.2            1 S1                 0.0000
      4 ****        -2.6554  -0.7604   0.5862 O.3            1 S1                 0.0000
      5 ****        -2.0929  -1.9770   0.1184 C.3            1 S1                 0.0000
      6 ****        -0.5712  -1.8344  -0.0477 C.3            1 S1                 0.0000
      7 ****         0.0383  -1.3955   1.1536 O.3            1 S1                 0.0000
      8 ****         1.3011  -0.8968   0.8492 C.3            1 S1                 0.0000
      9 ****         1.6268   0.1934   1.8432 N.am           1 S1                 0.0000
     10 ****         2.7137   0.0608   2.6961 C.2            1 S1                 0.0000
     11 ****         3.0317   0.9836   3.6346 C.2            1 S1                 0.0000
     12 ****         4.1037   0.7879   4.4210 F              1 S1                 0.0000
     13 ****         2.2181   2.1840   3.8044 C.2            1 S1                 0.0000
     14 ****         2.4281   3.0780   4.6216 O.2            1 S1                 0.0000
     15 ****         1.1203   2.2633   2.9428 N.am           1 S1                 0.0000
     16 ****         0.7773   1.3167   1.9762 C.2            1 S1                 0.0000
     17 ****        -0.2310   1.4806   1.2911 O.2            1 S1                 0.0000
     18 ****         1.2814  -0.3886  -0.6063 C.3            1 S1                 0.0000
     19 ****         2.3719  -0.9392  -1.3338 O.3            1 S1                 0.0000
     20 ****         2.7754  -0.3636  -2.4802 C.2            1 S1                 0.0000
     21 ****         3.9537  -1.0917  -3.1126 C.3            1 S1                 0.0000
     22 ****         2.2778   0.6327  -3.0049 O.2            1 S1                 0.0000
     23 ****        -0.0541  -0.8931  -1.1493 C.3            1 S1                 0.0000
     24 ****        -0.8841   0.2359  -1.4017 O.3            1 S1                 0.0000
     25 ****        -1.6718   0.2865  -2.4903 C.2            1 S1                 0.0000
     26 ****        -2.4631   1.5850  -2.5702 C.3            1 S1                 0.0000
     27 ****        -1.7858  -0.5891  -3.3477 O.2            1 S1                 0.0000
     28 ****         0.5194   3.0695   3.0340 H              1 S1                 0.0000
     29 ****        -3.6615   1.5409   0.8012 H              1 S1                 0.0000
     30 ****        -4.4653   0.7661   2.1749 H              1 S1                 0.0000
     31 ****        -5.3635   1.0744   0.6810 H              1 S1                 0.0000
     32 ****        -2.3170  -2.7674   0.8355 H              1 S1                 0.0000
     33 ****        -2.5406  -2.2651  -0.8340 H              1 S1                 0.0000
     34 ****        -0.1624  -2.8246  -0.2540 H              1 S1                 0.0000
     35 ****         2.0328  -1.6915   1.0045 H              1 S1                 0.0000
     36 ****         3.3459  -0.8119   2.6160 H              1 S1                 0.0000
     37 ****         1.3317   0.7011  -0.6187 H              1 S1                 0.0000
     38 ****         4.7430  -1.2491  -2.3774 H              1 S1                 0.0000
     39 ****         4.3633  -0.5113  -3.9396 H              1 S1                 0.0000
     40 ****         3.6365  -2.0619  -3.4953 H              1 S1                 0.0000
     41 ****         0.1030  -1.4586  -2.0691 H              1 S1                 0.0000
     42 ****        -2.7690   1.9085  -1.5751 H              1 S1                 0.0000
     43 ****        -3.3579   1.4499  -3.1781 H              1 S1                 0.0000
     44 ****        -1.8539   2.3698  -3.0184 H              1 S1                 0.0000
     45 ****        -5.7895  -1.1701   0.1905 LP             1 S1                 0.0000
     46 ****        -4.5204  -2.2920  -0.1711 LP             1 S1                 0.0000
     47 ****         0.1225  -2.1628   1.7894 LP             1 S1                 0.0000
     48 ****        -0.5172  -0.6763   1.5709 LP             1 S1                 0.0000
     49 ****         3.2113   3.0160   5.2403 LP             1 S1                 0.0000
     50 ****         1.8157   3.8672   4.6677 LP             1 S1                 0.0000
     51 ****        -0.4826   0.8017   0.6013 LP             1 S1                 0.0000
     52 ****        -0.7992   2.2927   1.4239 LP             1 S1                 0.0000
     53 ****         1.4995   1.0890  -2.5735 LP             1 S1                 0.0000
     54 ****         2.6519   0.9857  -3.8625 LP             1 S1                 0.0000
     55 ****        -1.2618  -1.4372  -3.2690 LP             1 S1                 0.0000
     56 ****        -2.4025  -0.4525  -4.1230 LP             1 S1                 0.0000
@<TRIPOS>BOND
    1    1    2 1     
    2    1   29 1     
    3    1   30 1     
    4    1   31 1     
    5    2    3 2     
    6    2    4 1     
    7    4    5 1     
    8    5    6 1     
    9    5   32 1     
   10    5   33 1     
   11    6   23 1     
   12    6    7 1     
   13    6   34 1     
   14    7    8 1     
   15    8    9 1     
   16    8   18 1     
   17    8   35 1     
   18    9   16 1     
   19    9   10 1     
   20   10   11 2     
   21   10   36 1     
   22   11   12 1     
   23   11   13 1     
   24   13   14 2     
   25   13   15 1     
   26   15   28 1     
   27   15   16 1     
   28   16   17 2     
   29   18   19 1     
   30   18   23 1     
   31   18   37 1     
   32   19   20 1     
   33   20   21 1     
   34   20   22 2     
   35   21   38 1     
   36   21   39 1     
   37   21   40 1     
   38   23   24 1     
   39   23   41 1     
   40   24   25 1     
   41   25   26 1     
   42   25   27 2     
   43   26   42 1     
   44   26   43 1     
   45   26   44 1     
   46    3   45 1     
   47    3   46 1     
   48    7   47 1     
   49    7   48 1     
   50   14   49 1     
   51   14   50 1     
   52   17   51 1     
   53   17   52 1     
   54   22   53 1     
   55   22   54 1     
   56   27   55 1     
   57   27   56 1     
@<TRIPOS>SUBSTRUCTURE
      1 S1             1
@<TRIPOS>SET
LONE_PAIRS      STATIC     ATOMS    <user>   **** ""
12 45 46 47 48 49 50 51 52 53 54 55 56
DONOR_HYDROGENS      STATIC     ATOMS    <user>   **** ""
1 28
ATOM$BLUE        STATIC     ATOMS    COLORGROUP SYSTEM
12 45 46 47 48 49 50 51 52 53 54 55 56
ATOM$RED        STATIC     ATOMS    COLORGROUP SYSTEM
1 28
