AV-unprocessed.smi:3181|AV-procd|sdf|12142|dock8
  -GOLD-   2272017583D 1   1.00000     0.00000
 Structure written by MMmdl.
 42 43  0  0  0  0  0  0  0  0  2 V2000
  147.6564  141.7012  155.9812 C   0  0  0  0  0  0  0  0  0  0  0  0
  149.1054  141.2022  155.8544 C   0  0  1  0  0  0  0  0  0  0  0  0
  149.4186  140.6503  154.4464 C   0  0  0  0  0  0  0  0  0  0  0  0
  150.4306  139.6097  154.4576 N   0  0  0  0  0  0  0  0  0  0  0  0
  150.3556  138.3205  154.1225 C   0  0  0  0  0  0  0  0  0  0  0  0
  151.5009  137.6664  154.2543 N   0  0  0  0  0  0  0  0  0  0  0  0
  152.2965  138.6848  154.6976 C   0  0  0  0  0  0  0  0  0  0  0  0
  151.7042  139.8717  154.8331 N   0  0  0  0  0  0  0  0  0  0  0  0
  150.0371  142.3039  156.1869 N   0  3  0  0  0  0  0  0  0  0  0  0
  150.4711  142.3909  157.6003 C   0  0  1  0  0  0  0  0  0  0  0  0
  151.4814  141.2860  157.9614 C   0  0  0  0  0  0  0  0  0  0  0  0
  151.9614  141.4277  159.4127 C   0  0  0  0  0  0  0  0  0  0  0  0
  152.5765  142.8140  159.6919 C   0  0  2  0  0  0  0  0  0  0  0  0
  153.0479  142.8920  161.1552 C   0  0  0  0  0  0  0  0  0  0  0  0
  151.5754  143.9389  159.3188 C   0  0  1  0  0  0  0  0  0  0  0  0
  152.1569  145.3504  159.5174 C   0  0  0  0  0  0  0  0  0  0  0  0
  151.0904  143.7741  157.8636 C   0  0  0  0  0  0  0  0  0  0  0  0
  146.9396  140.8950  155.8239 H   0  0  0  0  0  0  0  0  0  0  0  0
  147.4404  142.4853  155.2546 H   0  0  0  0  0  0  0  0  0  0  0  0
  147.4683  142.1082  156.9754 H   0  0  0  0  0  0  0  0  0  0  0  0
  149.2320  140.3982  156.5812 H   0  0  0  0  0  0  0  0  0  0  0  0
  148.5141  140.2414  153.9937 H   0  0  0  0  0  0  0  0  0  0  0  0
  149.7617  141.4464  153.7852 H   0  0  0  0  0  0  0  0  0  0  0  0
  149.4463  137.8495  153.7788 H   0  0  0  0  0  0  0  0  0  0  0  0
  153.3430  138.5474  154.9264 H   0  0  0  0  0  0  0  0  0  0  0  0
  150.8508  142.2421  155.5918 H   0  0  0  0  0  0  0  0  0  0  0  0
  149.5874  142.2908  158.2331 H   0  0  0  0  0  0  0  0  0  0  0  0
  151.0332  140.3004  157.8340 H   0  0  0  0  0  0  0  0  0  0  0  0
  152.3379  141.3279  157.2871 H   0  0  0  0  0  0  0  0  0  0  0  0
  151.1222  141.2550  160.0882 H   0  0  0  0  0  0  0  0  0  0  0  0
  152.6919  140.6465  159.6274 H   0  0  0  0  0  0  0  0  0  0  0  0
  153.4581  142.9193  159.0576 H   0  0  0  0  0  0  0  0  0  0  0  0
  152.2052  142.8605  161.8464 H   0  0  0  0  0  0  0  0  0  0  0  0
  153.6100  143.8046  161.3520 H   0  0  0  0  0  0  0  0  0  0  0  0
  153.7066  142.0579  161.3988 H   0  0  0  0  0  0  0  0  0  0  0  0
  150.7048  143.8490  159.9705 H   0  0  0  0  0  0  0  0  0  0  0  0
  153.0784  145.4840  158.9497 H   0  0  0  0  0  0  0  0  0  0  0  0
  152.3751  145.5554  160.5651 H   0  0  0  0  0  0  0  0  0  0  0  0
  151.4519  146.1143  159.1880 H   0  0  0  0  0  0  0  0  0  0  0  0
  151.9274  143.9359  157.1823 H   0  0  0  0  0  0  0  0  0  0  0  0
  150.3564  144.5481  157.6346 H   0  0  0  0  0  0  0  0  0  0  0  0
  149.5578  143.1674  155.9752 H   0  0  0  0  0  0  0  0  0  0  0  0
  1  2  1  0  0  0  0
  1 18  1  0  0  0  0
  1 19  1  0  0  0  0
  1 20  1  0  0  0  0
  2  3  1  0  0  0  0
  2  9  1  0  0  0  0
  2 21  1  0  0  0  0
  3  4  1  0  0  0  0
  3 22  1  0  0  0  0
  3 23  1  0  0  0  0
  4  8  1  0  0  0  0
  4  5  1  0  0  0  0
  5  6  2  0  0  0  0
  5 24  1  0  0  0  0
  6  7  1  0  0  0  0
  7  8  2  0  0  0  0
  7 25  1  0  0  0  0
  9 10  1  0  0  0  0
  9 26  1  0  0  0  0
  9 42  1  0  0  0  0
 10 17  1  0  0  0  0
 10 11  1  0  0  0  0
 10 27  1  0  0  0  0
 11 12  1  0  0  0  0
 11 28  1  0  0  0  0
 11 29  1  0  0  0  0
 12 13  1  0  0  0  0
 12 30  1  0  0  0  0
 12 31  1  0  0  0  0
 13 14  1  0  0  0  0
 13 15  1  0  0  0  0
 13 32  1  0  0  0  0
 14 33  1  0  0  0  0
 14 34  1  0  0  0  0
 14 35  1  0  0  0  0
 15 16  1  0  0  0  0
 15 17  1  0  0  0  0
 15 36  1  0  0  0  0
 16 37  1  0  0  0  0
 16 38  1  0  0  0  0
 16 39  1  0  0  0  0
 17 40  1  0  0  0  0
 17 41  1  0  0  0  0
M  CHG  1   9   1
M  END
> <s_m_source_file>
AV-unprocessed.smi

> <i_m_source_file_index>
3181

> <i_lp_mmshare_version>
43012

> <i_f3d_flags>
0

> <s_epik_input>
bjFbY0hdbltjSF1uMVtDSDJdW0NAQEhdKFtDSDNdKVtOSF1bQ0BASF0yW0NIMl1bQ0gyXVtDQEBIXShbQ0gzXSlbQ0BASF0oW0NIM10pW0NIMl0y

> <s_epik_cmdline>
J2VwaWtfcHl0aG9uJywgJy1waCcsICc3LjAnLCAnLXRuJywgJzgnLCAnLW1hJywgJzIwMCcsICctbWV0YWxfYmluZGluZycsICctaW1hZScsICc8aW5maWxlLm1hZT4nLCAnLW9tYWUnLCAnPG91dGZpbGUubWFlPic=

> <r_lp_tautomer_probability>
1

> <r_epik_Ionization_Penalty>
0.000617007

> <r_epik_Ionization_Penalty_Charging>
0.000616215

> <r_epik_Ionization_Penalty_Neutral>
7.92544e-07

> <r_epik_State_Penalty>
0.000388807

> <r_epik_Charging_Adjusted_Penalty>
0.00100502

> <i_epik_Tot_Q>
1

> <i_epik_Tot_abs_Q>
1

> <r_epik_Metal_State_Penalty>
-0

> <b_epik_Metal_Only>
0

> <s_lp_Force_Field>
OPLS_2005

> <r_lp_Energy>
19.8676

> <b_lp_Chiralities_Consistent>
1

> <s_lp_Variant>
AV-unprocessed.smi:3181-8

> <Gold.Version>
5.8.1

> <Gold.Id.Protein>
6NUR|6NUR_protein|mol2

> <Gold.PLP.Fitness>
49.0529

> <Gold.PLP.PLP>
-41.4155

> <Gold.PLP.part.hbond>
-2.0000

> <Gold.PLP.part.metal>
0.0000

> <Gold.PLP.part.buried>
-3.4745

> <Gold.PLP.part.nonpolar>
-35.4567

> <Gold.PLP.part.repulsive>
0.3531

> <Gold.PLP.ligand.clash>
0.0000

> <Gold.PLP.ligand.torsion>
0.9281

> <Gold.PLP.Chemscore.Hbond>
2.1500

> <Gold.PLP.Chemscore.CHOScore>
1.0000

> <Gold.PLP.Chemscore.Metal>
0.0000

> <Gold.Chemscore.Hbonds>
donor molecule, donor type, donor heavy atom, donor atom, acceptor molecule, acceptor atom, score
      L1  H     9    42       P1  8028  2.00
      P1  H  7989  7998       L1     8  0.15
      L1  C     5    24       P1  7948  1.00

> <Gold.PLP.Chemscore.Internal.Correction>
0.0436

> <Gold.Rescore>
     Score         DG    S(hbond)    S(metal)    S(lipo)     H(rot)  DE(clash)    DE(int)     intcor
     14.06     -15.10       1.01        0.00      99.52       2.11       0.10       0.93       ----

> <Gold.Chemscore.Fitness>
14.0640

> <Gold.Chemscore.DG>
-15.0981

> <Gold.Chemscore.ZeroCoef>
-5.4800

> <Gold.Chemscore.Hbond>
1.0103

> <Gold.Chemscore.Metal>
0.0000

> <Gold.Chemscore.Lipo>
99.5219

> <Gold.Chemscore.Internal_Hbond>
0.0000

> <Gold.Chemscore.DEClash>
0.1011

> <Gold.Chemscore.DEInternal>
0.9330

> <Gold.Chemscore.Rot>
2.1095

> <Gold.Chemscore.Internal.Correction>
   9.000000E+99

> <Gold.Chemscore.Hbonds>
donor molecule, donor type, donor heavy atom, donor atom, acceptor molecule, acceptor atom, score
      L1  H     9    42       P1  8028  1.00

> <Gold.Chemscore.Hbond.Weighted>
-3.3743

> <Gold.Chemscore.Metal.Weighted>
-0.0000

> <Gold.Chemscore.Lipo.Weighted>
-11.6441

> <Gold.Chemscore.Internal_Hbond.Weighted>
0.0000

> <Gold.Chemscore.DEClash.Weighted>
0.1011

> <Gold.Chemscore.DEInternal.Weighted>
0.9330

> <Gold.Chemscore.Rot.Weighted>
5.4003

> <Gold.Chemscore.Internal.Correction.Weighted>
   9.000000E+99

> <Gold.Protein.RotatedTorsions>
[ 6907 6896 6895 6894 ] final   76.29 input  -60.11 | X-H torsion
[ 7974 7965 7964 7962 ] final  135.55 input  175.53 | X-H torsion
[ 8008 7997 7996 7995 ] final   -4.03 input   59.86 | X-H torsion
[ 10167 10162 10161 10158 ] final   35.56 input  -65.29 | X-H torsion
[ 10718 10713 10712 10709 ] final  109.21 input   66.30 | X-H torsion
[ 10763 10752 10751 10750 ] final   -3.73 input  -60.55 | X-H torsion
[ 11005 11000 10999 10996 ] final  166.20 input  -57.11 | X-H torsion

> <Gold.Protein.ActiveResidues>
 VAL166  LYS551  ARG553  GLY616  TRP617  ASP618  TYR619  PRO620  LYS621  CYS622 
 ASP623  PHE694  ASN695  SER759  ASP760  ASP761  ALA762  ILE779  LEU786  VAL792 
 PHE793  MET794  SER795  GLU796  ALA797  LYS798  CYS799  TRP800  GLU811  SER814 

> <Gold.Protein.RotatedAtoms>
  152.5066  134.3991  159.9410 H   0  0  0  0  0  0  0  0  0  0  0  0  # atno 6907 bound_to 6896
  151.3954  133.3768  159.2733 H   0  0  0  0  0  0  0  0  0  0  0  0  # atno 6908 bound_to 6896
  150.9401  134.8832  159.7666 H   0  0  0  0  0  0  0  0  0  0  0  0  # atno 6909 bound_to 6896
  144.9652  139.4666  143.5460 H   0  0  0  0  0  0  0  0  0  0  0  0  # atno 7974 bound_to 7965
  154.6185  140.2494  155.7578 H   0  0  0  0  0  0  0  0  0  0  0  0  # atno 8008 bound_to 7997
  156.2413  140.2931  156.0401 H   0  0  0  0  0  0  0  0  0  0  0  0  # atno 8009 bound_to 7997
  155.1935  140.0392  157.2895 H   0  0  0  0  0  0  0  0  0  0  0  0  # atno 8010 bound_to 7997
  140.4211  144.1459  150.6148 H   0  0  0  0  0  0  0  0  0  0  0  0  # atno 10167 bound_to 10162
  157.6552  131.0909  150.6420 H   0  0  0  0  0  0  0  0  0  0  0  0  # atno 10718 bound_to 10713
  153.3753  135.6996  153.6606 H   0  0  0  0  0  0  0  0  0  0  0  0  # atno 10763 bound_to 10752
  153.5239  135.3606  155.2645 H   0  0  0  0  0  0  0  0  0  0  0  0  # atno 10764 bound_to 10752
  154.8686  135.4164  154.3040 H   0  0  0  0  0  0  0  0  0  0  0  0  # atno 10765 bound_to 10752
  140.2640  134.7880  157.3615 H   0  0  0  0  0  0  0  0  0  0  0  0  # atno 11005 bound_to 11000
  146.3365  139.8828  142.8821 LP  0  0  0  0  0  0  0  0  0  0  0  0  # atno 17320 bound_to 7965
  145.2640  141.0086  143.3810 LP  0  0  0  0  0  0  0  0  0  0  0  0  # atno 17321 bound_to 7965
  140.4533  143.2478  151.9319 LP  0  0  0  0  0  0  0  0  0  0  0  0  # atno 17342 bound_to 10162
  139.4782  144.5541  151.8341 LP  0  0  0  0  0  0  0  0  0  0  0  0  # atno 17343 bound_to 10162
  156.6727  130.4544  149.5652 LP  0  0  0  0  0  0  0  0  0  0  0  0  # atno 17370 bound_to 10713
  156.1986  130.6605  151.1142 LP  0  0  0  0  0  0  0  0  0  0  0  0  # atno 17371 bound_to 10713
  140.1437  134.4938  155.8012 LP  0  0  0  0  0  0  0  0  0  0  0  0  # atno 17394 bound_to 11000
  141.2186  133.6835  156.7256 LP  0  0  0  0  0  0  0  0  0  0  0  0  # atno 17395 bound_to 11000

$$$$
