AV-unprocessed.smi:2973|AV-procd|sdf|11343|dock3
  -GOLD-   2272016253D 1   1.00000     0.00000
 Structure written by MMmdl.
 50 52  0  0  0  0  0  0  0  0  2 V2000
  149.5106  139.5011  157.9008 C   0  0  0  0  0  0  0  0  0  0  0  0
  150.5509  140.6041  157.6117 C   0  0  2  0  0  0  0  0  0  0  0  0
  150.7437  141.4932  158.8595 C   0  0  0  0  0  0  0  0  0  0  0  0
  151.8192  142.5694  158.6409 C   0  0  0  0  0  0  0  0  0  0  0  0
  151.4995  143.4362  157.4155 C   0  0  0  0  0  0  0  0  0  0  0  0
  151.3241  142.5665  156.1613 C   0  0  0  0  0  0  0  0  0  0  0  0
  150.2418  141.4774  156.3565 C   0  0  2  0  0  0  0  0  0  0  0  0
  148.9152  142.0695  156.4055 N   0  0  0  0  0  0  0  0  0  0  0  0
  148.1471  141.7170  155.3666 C   0  0  0  0  0  0  0  0  0  0  0  0
  146.9984  142.1091  155.1698 O   0  0  0  0  0  0  0  0  0  0  0  0
  148.8505  140.8749  154.5876 N   0  0  0  0  0  0  0  0  0  0  0  0
  148.3683  140.3121  153.3201 C   0  0  0  0  0  0  0  0  0  0  0  0
  147.0873  139.4877  153.5049 C   0  0  0  0  0  0  0  0  0  0  0  0
  146.1374  139.9435  154.1433 O   0  0  0  0  0  0  0  0  0  0  0  0
  147.0724  138.2726  152.9351 N   0  0  0  0  0  0  0  0  0  0  0  0
  145.9425  137.3456  152.9500 C   0  0  0  0  0  0  0  0  0  0  0  0
  145.4595  136.9766  151.5323 C   0  0  0  0  0  0  0  0  0  0  0  0
  145.4009  135.4813  151.2686 C   0  0  0  0  0  0  0  0  0  0  0  0
  144.2304  134.8458  150.7998 C   0  0  0  0  0  0  0  0  0  0  0  0
  144.2356  133.4494  150.6032 C   0  0  0  0  0  0  0  0  0  0  0  0
  145.4090  132.7177  150.8785 C   0  0  0  0  0  0  0  0  0  0  0  0
  146.5511  133.4032  151.3397 C   0  0  0  0  0  0  0  0  0  0  0  0
  146.5077  134.7426  151.5129 N   0  3  0  0  0  0  0  0  0  0  0  0
  150.0787  140.6631  155.0800 C   0  0  0  0  0  0  0  0  0  0  0  0
  150.9581  139.9473  154.5997 O   0  0  0  0  0  0  0  0  0  0  0  0
  148.5235  139.9195  158.0976 H   0  0  0  0  0  0  0  0  0  0  0  0
  149.7976  138.9181  158.7763 H   0  0  0  0  0  0  0  0  0  0  0  0
  149.4180  138.8019  157.0699 H   0  0  0  0  0  0  0  0  0  0  0  0
  151.5015  140.0989  157.4317 H   0  0  0  0  0  0  0  0  0  0  0  0
  149.7996  141.9716  159.1242 H   0  0  0  0  0  0  0  0  0  0  0  0
  151.0228  140.8769  159.7150 H   0  0  0  0  0  0  0  0  0  0  0  0
  151.9018  143.1978  159.5282 H   0  0  0  0  0  0  0  0  0  0  0  0
  152.7913  142.0931  158.5081 H   0  0  0  0  0  0  0  0  0  0  0  0
  150.5923  144.0133  157.5985 H   0  0  0  0  0  0  0  0  0  0  0  0
  152.2984  144.1607  157.2553 H   0  0  0  0  0  0  0  0  0  0  0  0
  151.0798  143.2022  155.3083 H   0  0  0  0  0  0  0  0  0  0  0  0
  152.2802  142.0970  155.9250 H   0  0  0  0  0  0  0  0  0  0  0  0
  148.6236  142.6962  157.1415 H   0  0  0  0  0  0  0  0  0  0  0  0
  148.1927  141.1177  152.6045 H   0  0  0  0  0  0  0  0  0  0  0  0
  149.1294  139.6734  152.8694 H   0  0  0  0  0  0  0  0  0  0  0  0
  147.9002  137.9736  152.4393 H   0  0  0  0  0  0  0  0  0  0  0  0
  146.2546  136.4413  153.4725 H   0  0  0  0  0  0  0  0  0  0  0  0
  145.1176  137.7592  153.5325 H   0  0  0  0  0  0  0  0  0  0  0  0
  144.4695  137.4026  151.3642 H   0  0  0  0  0  0  0  0  0  0  0  0
  146.1142  137.4372  150.7915 H   0  0  0  0  0  0  0  0  0  0  0  0
  143.3334  135.4163  150.6068 H   0  0  0  0  0  0  0  0  0  0  0  0
  143.3463  132.9450  150.2548 H   0  0  0  0  0  0  0  0  0  0  0  0
  145.4308  131.6464  150.7419 H   0  0  0  0  0  0  0  0  0  0  0  0
  147.4896  132.9239  151.5770 H   0  0  0  0  0  0  0  0  0  0  0  0
  147.3440  135.2162  151.8556 H   0  0  0  0  0  0  0  0  0  0  0  0
  1  2  1  0  0  0  0
  1 26  1  0  0  0  0
  1 27  1  0  0  0  0
  1 28  1  0  0  0  0
  2  7  1  0  0  0  0
  2  3  1  0  0  0  0
  2 29  1  0  0  0  0
  3  4  1  0  0  0  0
  3 30  1  0  0  0  0
  3 31  1  0  0  0  0
  4  5  1  0  0  0  0
  4 32  1  0  0  0  0
  4 33  1  0  0  0  0
  5  6  1  0  0  0  0
  5 34  1  0  0  0  0
  5 35  1  0  0  0  0
  6  7  1  0  0  0  0
  6 36  1  0  0  0  0
  6 37  1  0  0  0  0
  7 24  1  0  0  0  0
  7  8  1  0  0  0  0
  8  9  1  0  0  0  0
  8 38  1  0  0  0  0
  9 10  2  0  0  0  0
  9 11  1  0  0  0  0
 11 12  1  0  0  0  0
 11 24  1  0  0  0  0
 12 13  1  0  0  0  0
 12 39  1  0  0  0  0
 12 40  1  0  0  0  0
 13 14  2  0  0  0  0
 13 15  1  0  0  0  0
 15 16  1  0  0  0  0
 15 41  1  0  0  0  0
 16 17  1  0  0  0  0
 16 42  1  0  0  0  0
 16 43  1  0  0  0  0
 17 18  1  0  0  0  0
 17 44  1  0  0  0  0
 17 45  1  0  0  0  0
 18 23  1  0  0  0  0
 18 19  2  0  0  0  0
 19 20  1  0  0  0  0
 19 46  1  0  0  0  0
 20 21  2  0  0  0  0
 20 47  1  0  0  0  0
 21 22  1  0  0  0  0
 21 48  1  0  0  0  0
 22 23  2  0  0  0  0
 22 49  1  0  0  0  0
 23 50  1  0  0  0  0
 24 25  2  0  0  0  0
M  CHG  1  23   1
M  END
> <s_m_source_file>
AV-unprocessed.smi

> <i_m_source_file_index>
2973

> <i_lp_mmshare_version>
43012

> <i_f3d_flags>
0

> <s_epik_input>
W0NIMl0xW0NIMl1bQ0gyXVtDSDJdW0NAQEhdKFtDSDNdKVtDQF0xMltOSF1DKD1PKU4oQzI9TylbQ0gyXUMoPU8pW05IXVtDSDJdW0NIMl1jM1tjSF1bY0hdW2NIXVtjSF1uMw==

> <s_epik_cmdline>
J2VwaWtfcHl0aG9uJywgJy1waCcsICc3LjAnLCAnLXRuJywgJzgnLCAnLW1hJywgJzIwMCcsICctbWV0YWxfYmluZGluZycsICctaW1hZScsICc8aW5maWxlLm1hZT4nLCAnLW9tYWUnLCAnPG91dGZpbGUubWFlPic=

> <r_lp_tautomer_probability>
1

> <r_epik_Ionization_Penalty>
1.90043

> <r_epik_Ionization_Penalty_Charging>
1.90039

> <r_epik_Ionization_Penalty_Neutral>
4.65525e-05

> <r_epik_State_Penalty>
2.02162

> <r_epik_Charging_Adjusted_Penalty>
3.922

> <i_epik_Tot_Q>
1

> <i_epik_Tot_abs_Q>
1

> <r_epik_Metal_State_Penalty>
2.06631

> <b_epik_Metal_Only>
0

> <s_lp_Force_Field>
OPLS_2005

> <r_lp_Energy>
26.4657

> <b_lp_Chiralities_Consistent>
1

> <s_lp_Variant>
AV-unprocessed.smi:2973-7

> <Gold.Version>
5.8.1

> <Gold.Id.Protein>
6NUR|6NUR_protein|mol2

> <Gold.PLP.Fitness>
47.2161

> <Gold.PLP.PLP>
-36.6134

> <Gold.PLP.part.hbond>
-4.0000

> <Gold.PLP.part.metal>
0.0000

> <Gold.PLP.part.buried>
-1.2881

> <Gold.PLP.part.nonpolar>
-32.5307

> <Gold.PLP.part.repulsive>
0.4430

> <Gold.PLP.ligand.clash>
0.0000

> <Gold.PLP.ligand.torsion>
0.5347

> <Gold.PLP.Chemscore.Hbond>
3.8800

> <Gold.PLP.Chemscore.CHOScore>
0.0000

> <Gold.PLP.Chemscore.Metal>
0.0000

> <Gold.Chemscore.Hbonds>
donor molecule, donor type, donor heavy atom, donor atom, acceptor molecule, acceptor atom, score
      L1  H    15    41       P1  7948  0.73
      L1  H    23    50       P1  7948  2.00
      P1  H  7989  7998       L1    25  1.00

> <Gold.PLP.Chemscore.Internal.Correction>
0.0322

> <Gold.Rescore>
     Score         DG    S(hbond)    S(metal)    S(lipo)     H(rot)  DE(clash)    DE(int)     intcor
     14.95     -20.02       2.51        0.00      95.55       1.96       1.53       3.54       ----

> <Gold.Chemscore.Fitness>
14.9546

> <Gold.Chemscore.DG>
-20.0232

> <Gold.Chemscore.ZeroCoef>
-5.4800

> <Gold.Chemscore.Hbond>
2.5125

> <Gold.Chemscore.Metal>
0.0000

> <Gold.Chemscore.Lipo>
95.5450

> <Gold.Chemscore.Internal_Hbond>
0.0000

> <Gold.Chemscore.DEClash>
1.5319

> <Gold.Chemscore.DEInternal>
3.5367

> <Gold.Chemscore.Rot>
1.9638

> <Gold.Chemscore.Internal.Correction>
   9.000000E+99

> <Gold.Chemscore.Hbonds>
donor molecule, donor type, donor heavy atom, donor atom, acceptor molecule, acceptor atom, score
      L1  H    15    41       P1  7948  0.70
      L1  H    23    50       P1  7948  0.96
      P1  H  7989  7998       L1    25  0.44

> <Gold.Chemscore.Hbond.Weighted>
-8.3919

> <Gold.Chemscore.Metal.Weighted>
-0.0000

> <Gold.Chemscore.Lipo.Weighted>
-11.1788

> <Gold.Chemscore.Internal_Hbond.Weighted>
0.0000

> <Gold.Chemscore.DEClash.Weighted>
1.5319

> <Gold.Chemscore.DEInternal.Weighted>
3.5367

> <Gold.Chemscore.Rot.Weighted>
5.0274

> <Gold.Chemscore.Internal.Correction.Weighted>
   9.000000E+99

> <Gold.Protein.RotatedTorsions>
[ 6907 6896 6895 6894 ] final  165.35 input  -60.11 | X-H torsion
[ 7974 7965 7964 7962 ] final   86.46 input  175.53 | X-H torsion
[ 8008 7997 7996 7995 ] final   97.27 input   59.86 | X-H torsion
[ 10167 10162 10161 10158 ] final  152.19 input  -65.29 | X-H torsion
[ 10718 10713 10712 10709 ] final -168.97 input   66.30 | X-H torsion
[ 10763 10752 10751 10750 ] final  144.47 input  -60.55 | X-H torsion
[ 11005 11000 10999 10996 ] final    3.76 input  -57.11 | X-H torsion

> <Gold.Protein.ActiveResidues>
 VAL166  LYS551  ARG553  GLY616  TRP617  ASP618  TYR619  PRO620  LYS621  CYS622 
 ASP623  PHE694  ASN695  SER759  ASP760  ASP761  ALA762  ILE779  LEU786  VAL792 
 PHE793  MET794  SER795  GLU796  ALA797  LYS798  CYS799  TRP800  GLU811  SER814 

> <Gold.Protein.RotatedAtoms>
  151.8958  133.3526  159.3813 H   0  0  0  0  0  0  0  0  0  0  0  0  # atno 6907 bound_to 6896
  150.7092  134.4878  159.5510 H   0  0  0  0  0  0  0  0  0  0  0  0  # atno 6908 bound_to 6896
  152.2457  134.8184  160.0504 H   0  0  0  0  0  0  0  0  0  0  0  0  # atno 6909 bound_to 6896
  145.5719  139.2315  143.2401 H   0  0  0  0  0  0  0  0  0  0  0  0  # atno 7974 bound_to 7965
  156.0884  140.3261  155.7783 H   0  0  0  0  0  0  0  0  0  0  0  0  # atno 8008 bound_to 7997
  155.5038  140.0571  157.2952 H   0  0  0  0  0  0  0  0  0  0  0  0  # atno 8009 bound_to 7997
  154.4623  140.1972  156.0229 H   0  0  0  0  0  0  0  0  0  0  0  0  # atno 8010 bound_to 7997
  139.4834  144.5378  151.7616 H   0  0  0  0  0  0  0  0  0  0  0  0  # atno 10167 bound_to 10162
  156.7047  130.9210  151.3083 H   0  0  0  0  0  0  0  0  0  0  0  0  # atno 10718 bound_to 10713
  153.9894  135.2933  155.3413 H   0  0  0  0  0  0  0  0  0  0  0  0  # atno 10763 bound_to 10752
  154.7223  135.5104  153.8834 H   0  0  0  0  0  0  0  0  0  0  0  0  # atno 10764 bound_to 10752
  153.0817  135.6681  154.0148 H   0  0  0  0  0  0  0  0  0  0  0  0  # atno 10765 bound_to 10752
  140.5895  133.9938  155.8082 H   0  0  0  0  0  0  0  0  0  0  0  0  # atno 11005 bound_to 11000
  146.1778  140.6545  142.9203 LP  0  0  0  0  0  0  0  0  0  0  0  0  # atno 17320 bound_to 7965
  144.7434  140.5002  143.6853 LP  0  0  0  0  0  0  0  0  0  0  0  0  # atno 17321 bound_to 7965
  140.4913  144.1306  150.5951 LP  0  0  0  0  0  0  0  0  0  0  0  0  # atno 17342 bound_to 10162
  140.4168  143.2630  151.9765 LP  0  0  0  0  0  0  0  0  0  0  0  0  # atno 17343 bound_to 10162
  157.6959  130.9282  150.0644 LP  0  0  0  0  0  0  0  0  0  0  0  0  # atno 17370 bound_to 10713
  156.1704  130.3646  149.9174 LP  0  0  0  0  0  0  0  0  0  0  0  0  # atno 17371 bound_to 10713
  141.0944  133.9866  157.3184 LP  0  0  0  0  0  0  0  0  0  0  0  0  # atno 17394 bound_to 11000
  139.9281  135.0201  156.8304 LP  0  0  0  0  0  0  0  0  0  0  0  0  # atno 17395 bound_to 11000

$$$$
