AV-unprocessed.smi:263|AV-procd|sdf|2004|dock2
  -GOLD-   2262021203D 1   1.00000     0.00000
 Structure written by MMmdl.
 57 61  0  0  0  0  0  0  0  0  1 V2000
  153.3946  128.0057  154.1763 O   0  0  0  0  0  0  0  0  0  0  0  0
  153.4623  128.9997  155.1839 C   0  0  0  0  0  0  0  0  0  0  0  0
  152.1031  129.0190  155.9268 C   0  0  0  0  0  0  0  0  0  0  0  0
  150.9889  129.4839  155.1154 N   0  0  0  0  0  0  0  0  0  0  0  0
  150.4079  128.8208  154.0579 C   0  0  0  0  0  0  0  0  0  0  0  0
  149.4166  129.4470  153.4855 N   0  0  0  0  0  0  0  0  0  0  0  0
  149.3149  130.6399  154.1918 C   0  0  0  0  0  0  0  0  0  0  0  0
  148.4612  131.7754  154.1014 C   0  0  0  0  0  0  0  0  0  0  0  0
  147.4905  131.8883  153.1597 N   0  0  0  0  0  0  0  0  0  0  0  0
  147.0957  130.6244  152.5415 C   0  0  0  0  0  0  0  0  0  0  0  0
  145.7411  130.7612  151.8255 C   0  0  0  0  0  0  0  0  0  0  0  0
  145.7238  131.9440  150.8280 C   0  0  1  0  0  0  0  0  0  0  0  0
  146.6095  131.6203  149.7709 O   0  0  0  0  0  0  0  0  0  0  0  0
  144.3374  132.1460  150.1722 C   0  0  0  0  0  0  0  0  0  0  0  0
  143.2999  132.7468  151.1346 C   0  0  0  0  0  0  0  0  0  0  0  0
  143.8115  134.0583  151.7448 C   0  0  0  0  0  0  0  0  0  0  0  0
  145.1557  133.8486  152.4563 C   0  0  0  0  0  0  0  0  0  0  0  0
  146.2202  133.2501  151.5096 C   0  0  1  0  0  0  0  0  0  0  0  0
  147.5598  133.0296  152.2452 C   0  0  0  0  0  0  0  0  0  0  0  0
  148.6525  132.7746  155.0042 N   0  0  0  0  0  0  0  0  0  0  0  0
  149.6184  132.6794  155.9228 C   0  0  0  0  0  0  0  0  0  0  0  0
  150.4914  131.6890  156.1161 N   0  0  0  0  0  0  0  0  0  0  0  0
  150.2963  130.6773  155.2226 C   0  0  0  0  0  0  0  0  0  0  0  0
  154.5986  128.6302  156.1584 C   0  0  0  0  0  0  0  0  0  0  0  0
  155.9873  128.7631  155.5088 C   0  0  0  0  0  0  0  0  0  0  0  0
  156.1571  130.0777  154.9933 O   0  0  0  0  0  0  0  0  0  0  0  0
  155.2300  130.3836  153.9590 C   0  0  0  0  0  0  0  0  0  0  0  0
  153.7924  130.3485  154.5082 C   0  0  0  0  0  0  0  0  0  0  0  0
  152.8607  128.3308  153.4675 H   0  0  0  0  0  0  0  0  0  0  0  0
  151.8612  128.0244  156.3043 H   0  0  0  0  0  0  0  0  0  0  0  0
  152.1687  129.6655  156.8030 H   0  0  0  0  0  0  0  0  0  0  0  0
  150.7408  127.8479  153.7263 H   0  0  0  0  0  0  0  0  0  0  0  0
  147.8671  130.3290  151.8292 H   0  0  0  0  0  0  0  0  0  0  0  0
  147.0323  129.8224  153.2759 H   0  0  0  0  0  0  0  0  0  0  0  0
  145.4988  129.8285  151.3144 H   0  0  0  0  0  0  0  0  0  0  0  0
  144.9684  130.8965  152.5817 H   0  0  0  0  0  0  0  0  0  0  0  0
  147.3694  131.1937  150.1364 H   0  0  0  0  0  0  0  0  0  0  0  0
  144.4352  132.8180  149.3180 H   0  0  0  0  0  0  0  0  0  0  0  0
  143.9667  131.2020  149.7707 H   0  0  0  0  0  0  0  0  0  0  0  0
  142.3658  132.9278  150.6020 H   0  0  0  0  0  0  0  0  0  0  0  0
  143.0648  132.0368  151.9275 H   0  0  0  0  0  0  0  0  0  0  0  0
  143.9252  134.8079  150.9604 H   0  0  0  0  0  0  0  0  0  0  0  0
  143.0770  134.4529  152.4471 H   0  0  0  0  0  0  0  0  0  0  0  0
  145.5081  134.8013  152.8525 H   0  0  0  0  0  0  0  0  0  0  0  0
  145.0084  133.1991  153.3200 H   0  0  0  0  0  0  0  0  0  0  0  0
  146.3946  133.9948  150.7310 H   0  0  0  0  0  0  0  0  0  0  0  0
  147.8300  133.9349  152.7907 H   0  0  0  0  0  0  0  0  0  0  0  0
  148.3542  132.8496  151.5195 H   0  0  0  0  0  0  0  0  0  0  0  0
  149.7060  133.5182  156.5973 H   0  0  0  0  0  0  0  0  0  0  0  0
  154.5607  129.2942  157.0232 H   0  0  0  0  0  0  0  0  0  0  0  0
  154.4605  127.6191  156.5436 H   0  0  0  0  0  0  0  0  0  0  0  0
  156.7642  128.5755  156.2502 H   0  0  0  0  0  0  0  0  0  0  0  0
  156.1244  128.0264  154.7158 H   0  0  0  0  0  0  0  0  0  0  0  0
  155.4544  131.3766  153.5696 H   0  0  0  0  0  0  0  0  0  0  0  0
  155.3516  129.6861  153.1290 H   0  0  0  0  0  0  0  0  0  0  0  0
  153.0898  130.5624  153.7018 H   0  0  0  0  0  0  0  0  0  0  0  0
  153.6786  131.1526  155.2360 H   0  0  0  0  0  0  0  0  0  0  0  0
  1  2  1  0  0  0  0
  1 29  1  0  0  0  0
  2 28  1  0  0  0  0
  2  3  1  0  0  0  0
  2 24  1  0  0  0  0
  3  4  1  0  0  0  0
  3 30  1  0  0  0  0
  3 31  1  0  0  0  0
  4 23  1  0  0  0  0
  4  5  1  0  0  0  0
  5  6  2  0  0  0  0
  5 32  1  0  0  0  0
  6  7  1  0  0  0  0
  7 23  2  0  0  0  0
  7  8  1  0  0  0  0
  8  9  1  0  0  0  0
  8 20  2  0  0  0  0
  9 19  1  0  0  0  0
  9 10  1  0  0  0  0
 10 11  1  0  0  0  0
 10 33  1  0  0  0  0
 10 34  1  0  0  0  0
 11 12  1  0  0  0  0
 11 35  1  0  0  0  0
 11 36  1  0  0  0  0
 12 18  1  0  0  0  0
 12 13  1  0  0  0  0
 12 14  1  0  0  0  0
 13 37  1  0  0  0  0
 14 15  1  0  0  0  0
 14 38  1  0  0  0  0
 14 39  1  0  0  0  0
 15 16  1  0  0  0  0
 15 40  1  0  0  0  0
 15 41  1  0  0  0  0
 16 17  1  0  0  0  0
 16 42  1  0  0  0  0
 16 43  1  0  0  0  0
 17 18  1  0  0  0  0
 17 44  1  0  0  0  0
 17 45  1  0  0  0  0
 18 19  1  0  0  0  0
 18 46  1  0  0  0  0
 19 47  1  0  0  0  0
 19 48  1  0  0  0  0
 20 21  1  0  0  0  0
 21 22  2  0  0  0  0
 21 49  1  0  0  0  0
 22 23  1  0  0  0  0
 24 25  1  0  0  0  0
 24 50  1  0  0  0  0
 24 51  1  0  0  0  0
 25 26  1  0  0  0  0
 25 52  1  0  0  0  0
 25 53  1  0  0  0  0
 26 27  1  0  0  0  0
 27 28  1  0  0  0  0
 27 54  1  0  0  0  0
 27 55  1  0  0  0  0
 28 56  1  0  0  0  0
 28 57  1  0  0  0  0
M  END
> <s_m_source_file>
AV-unprocessed.smi

> <i_m_source_file_index>
263

> <i_lp_mmshare_version>
43012

> <i_f3d_flags>
0

> <s_epik_input>
W0NIMl0xW0NIMl1PW0NIMl1bQ0gyXUMxKFtPSF0pW0NIMl1uKFtjSF1uMiljKGMyMyluW2NIXW5jM04oW0NIMl1bQ0gyXTQpW0NIMl1bQ0BASF0oW0NAXTQ1W09IXSlbQ0gyXVtDSDJdW0NIMl1bQ0gyXTU=

> <s_epik_cmdline>
J2VwaWtfcHl0aG9uJywgJy1waCcsICc3LjAnLCAnLXRuJywgJzgnLCAnLW1hJywgJzIwMCcsICctbWV0YWxfYmluZGluZycsICctaW1hZScsICc8aW5maWxlLm1hZT4nLCAnLW9tYWUnLCAnPG91dGZpbGUubWFlPic=

> <r_lp_tautomer_probability>
1

> <r_epik_Ionization_Penalty>
0.00747493

> <r_epik_Ionization_Penalty_Charging>
0

> <r_epik_Ionization_Penalty_Neutral>
0.00747493

> <r_epik_State_Penalty>
0.00549307

> <r_epik_Charging_Adjusted_Penalty>
0.00549307

> <i_epik_Tot_Q>
0

> <i_epik_Tot_abs_Q>
0

> <r_epik_Metal_State_Penalty>
-0

> <b_epik_Metal_Only>
0

> <s_lp_Force_Field>
OPLS_2005

> <r_lp_Energy>
40.0531

> <b_lp_Chiralities_Consistent>
1

> <s_lp_Variant>
AV-unprocessed.smi:263-2

> <Gold.Version>
5.8.1

> <Gold.Id.Protein>
6NUR|6NUR_protein|mol2

> <Gold.PLP.Fitness>
48.9381

> <Gold.PLP.PLP>
-41.7614

> <Gold.PLP.part.hbond>
-2.0000

> <Gold.PLP.part.metal>
0.0000

> <Gold.PLP.part.buried>
-3.1395

> <Gold.PLP.part.nonpolar>
-36.3929

> <Gold.PLP.part.repulsive>
0.2679

> <Gold.PLP.ligand.clash>
0.0000

> <Gold.PLP.ligand.torsion>
0.4004

> <Gold.PLP.Chemscore.Hbond>
1.8960

> <Gold.PLP.Chemscore.CHOScore>
0.6389

> <Gold.PLP.Chemscore.Metal>
0.0000

> <Gold.Chemscore.Hbonds>
donor molecule, donor type, donor heavy atom, donor atom, acceptor molecule, acceptor atom, score
      L1  H     1    29       P1 10737  0.72
      L1  H    13    37       P1 10747  1.00
      L1  C     5    32       P1 10737  0.76

> <Gold.PLP.Chemscore.Internal.Correction>
0.3726

> <Gold.Rescore>
     Score         DG    S(hbond)    S(metal)    S(lipo)     H(rot)  DE(clash)    DE(int)     intcor
     12.75     -16.40       1.80        0.00      99.41       2.62       1.81       1.84       ----

> <Gold.Chemscore.Fitness>
12.7518

> <Gold.Chemscore.DG>
-16.3986

> <Gold.Chemscore.ZeroCoef>
-5.4800

> <Gold.Chemscore.Hbond>
1.7974

> <Gold.Chemscore.Metal>
0.0000

> <Gold.Chemscore.Lipo>
99.4071

> <Gold.Chemscore.Internal_Hbond>
0.0000

> <Gold.Chemscore.DEClash>
1.8097

> <Gold.Chemscore.DEInternal>
1.8370

> <Gold.Chemscore.Rot>
2.6232

> <Gold.Chemscore.Internal.Correction>
   9.000000E+99

> <Gold.Chemscore.Hbonds>
donor molecule, donor type, donor heavy atom, donor atom, acceptor molecule, acceptor atom, score
      L1  H     1    29       P1 10737  0.14
      L1  H    13    37       P1 10747  0.98

> <Gold.Chemscore.Hbond.Weighted>
-6.0035

> <Gold.Chemscore.Metal.Weighted>
-0.0000

> <Gold.Chemscore.Lipo.Weighted>
-11.6306

> <Gold.Chemscore.Internal_Hbond.Weighted>
0.0000

> <Gold.Chemscore.DEClash.Weighted>
1.8097

> <Gold.Chemscore.DEInternal.Weighted>
1.8370

> <Gold.Chemscore.Rot.Weighted>
6.7155

> <Gold.Chemscore.Internal.Correction.Weighted>
   9.000000E+99

> <Gold.Protein.RotatedTorsions>
[ 6907 6896 6895 6894 ] final   14.92 input  -60.11 | X-H torsion
[ 7974 7965 7964 7962 ] final   45.54 input  175.53 | X-H torsion
[ 8008 7997 7996 7995 ] final   95.40 input   59.86 | X-H torsion
[ 10167 10162 10161 10158 ] final  150.90 input  -65.29 | X-H torsion
[ 10718 10713 10712 10709 ] final   36.40 input   66.30 | X-H torsion
[ 10763 10752 10751 10750 ] final -155.69 input  -60.55 | X-H torsion
[ 11005 11000 10999 10996 ] final -135.71 input  -57.11 | X-H torsion

> <Gold.Protein.ActiveResidues>
 VAL166  LYS551  ARG553  GLY616  TRP617  ASP618  TYR619  PRO620  LYS621  CYS622 
 ASP623  PHE694  ASN695  SER759  ASP760  ASP761  ALA762  ILE779  LEU786  VAL792 
 PHE793  MET794  SER795  GLU796  ALA797  LYS798  CYS799  TRP800  GLU811  SER814 

> <Gold.Protein.RotatedAtoms>
  151.8099  135.0684  160.0411 H   0  0  0  0  0  0  0  0  0  0  0  0  # atno 6907 bound_to 6896
  152.3028  133.5668  159.5638 H   0  0  0  0  0  0  0  0  0  0  0  0  # atno 6908 bound_to 6896
  150.7281  134.0182  159.3734 H   0  0  0  0  0  0  0  0  0  0  0  0  # atno 6909 bound_to 6896
  146.0470  139.4953  142.9742 H   0  0  0  0  0  0  0  0  0  0  0  0  # atno 7974 bound_to 7965
  156.0685  140.3287  155.7547 H   0  0  0  0  0  0  0  0  0  0  0  0  # atno 8008 bound_to 7997
  155.5343  140.0596  157.2900 H   0  0  0  0  0  0  0  0  0  0  0  0  # atno 8009 bound_to 7997
  154.4517  140.1922  156.0516 H   0  0  0  0  0  0  0  0  0  0  0  0  # atno 8010 bound_to 7997
  139.4845  144.5484  151.7443 H   0  0  0  0  0  0  0  0  0  0  0  0  # atno 10167 bound_to 10162
  157.3344  130.7515  149.6869 H   0  0  0  0  0  0  0  0  0  0  0  0  # atno 10718 bound_to 10713
  154.7768  135.3162  154.8074 H   0  0  0  0  0  0  0  0  0  0  0  0  # atno 10763 bound_to 10752
  153.8795  135.6836  153.4772 H   0  0  0  0  0  0  0  0  0  0  0  0  # atno 10764 bound_to 10752
  153.1394  135.4745  154.9409 H   0  0  0  0  0  0  0  0  0  0  0  0  # atno 10765 bound_to 10752
  140.8873  134.1856  157.4551 H   0  0  0  0  0  0  0  0  0  0  0  0  # atno 11005 bound_to 11000
  145.6788  141.0196  143.1617 LP  0  0  0  0  0  0  0  0  0  0  0  0  # atno 17320 bound_to 7965
  144.7103  139.8397  143.7417 LP  0  0  0  0  0  0  0  0  0  0  0  0  # atno 17321 bound_to 7965
  140.5034  144.1134  150.5976 LP  0  0  0  0  0  0  0  0  0  0  0  0  # atno 17342 bound_to 10162
  140.4035  143.2692  151.9919 LP  0  0  0  0  0  0  0  0  0  0  0  0  # atno 17343 bound_to 10162
  155.9699  130.4186  150.4334 LP  0  0  0  0  0  0  0  0  0  0  0  0  # atno 17370 bound_to 10713
  157.2371  131.0517  151.2458 LP  0  0  0  0  0  0  0  0  0  0  0  0  # atno 17371 bound_to 10713
  139.8726  134.9843  156.5235 LP  0  0  0  0  0  0  0  0  0  0  0  0  # atno 17394 bound_to 11000
  140.8389  133.8220  155.9056 LP  0  0  0  0  0  0  0  0  0  0  0  0  # atno 17395 bound_to 11000

$$$$
