AV-unprocessed.smi:288|AV-procd|sdf|2211|dock1
  -GOLD-   2262022 43D 1   1.00000     0.00000
 Structure written by MMmdl.
 33 34  0  0  0  0  0  0  0  0  1 V2000
  152.5302  139.7814  156.8229 O   0  0  0  0  0  0  0  0  0  0  0  0
  151.4471  139.9881  156.2737 C   0  0  0  0  0  0  0  0  0  0  0  0
  151.0268  139.3047  155.0563 C   0  0  0  0  0  0  0  0  0  0  0  0
  151.8523  138.4185  154.4741 F   0  0  0  0  0  0  0  0  0  0  0  0
  149.8285  139.5606  154.4889 C   0  0  0  0  0  0  0  0  0  0  0  0
  148.9124  140.4591  155.0164 N   0  0  0  0  0  0  0  0  0  0  0  0
  147.6001  140.7958  154.3235 C   0  0  2  0  0  0  0  0  0  0  0  0
  146.3548  140.6015  155.1991 C   0  0  0  0  0  0  0  0  0  0  0  0
  145.8564  139.2158  154.7978 C   0  0  0  0  0  0  0  0  0  0  0  0
  146.8385  138.7423  153.7209 C   0  0  0  0  0  0  0  0  0  0  0  0
  147.4400  139.9367  153.2403 O   0  0  0  0  0  0  0  0  0  0  0  0
  149.2649  141.2087  156.1615 C   0  0  0  0  0  0  0  0  0  0  0  0
  148.5060  142.0704  156.6124 O   0  0  0  0  0  0  0  0  0  0  0  0
  150.5137  140.9334  156.7673 N   0  0  0  0  0  0  0  0  0  0  0  0
  150.8570  141.6889  157.9631 C   0  0  0  0  0  0  0  0  0  0  0  0
  151.6702  142.9811  157.7065 C   0  0  1  0  0  0  0  0  0  0  0  0
  151.0463  143.6658  156.6386 O   0  0  0  0  0  0  0  0  0  0  0  0
  151.7949  143.9362  158.9132 C   0  0  0  0  0  0  0  0  0  0  0  0
  152.5265  144.9982  158.5747 F   0  0  0  0  0  0  0  0  0  0  0  0
  150.5948  144.3401  159.3303 F   0  0  0  0  0  0  0  0  0  0  0  0
  152.4202  143.3275  159.9203 F   0  0  0  0  0  0  0  0  0  0  0  0
  149.6035  139.0366  153.5736 H   0  0  0  0  0  0  0  0  0  0  0  0
  147.7000  141.8337  154.0016 H   0  0  0  0  0  0  0  0  0  0  0  0
  146.5601  140.7323  156.2612 H   0  0  0  0  0  0  0  0  0  0  0  0
  145.6172  141.3522  154.9127 H   0  0  0  0  0  0  0  0  0  0  0  0
  145.8259  138.5259  155.6417 H   0  0  0  0  0  0  0  0  0  0  0  0
  144.8475  139.2872  154.3902 H   0  0  0  0  0  0  0  0  0  0  0  0
  147.6027  138.0915  154.1481 H   0  0  0  0  0  0  0  0  0  0  0  0
  146.3451  138.1961  152.9167 H   0  0  0  0  0  0  0  0  0  0  0  0
  149.9087  141.9171  158.4543 H   0  0  0  0  0  0  0  0  0  0  0  0
  151.3701  141.0295  158.6637 H   0  0  0  0  0  0  0  0  0  0  0  0
  152.6725  142.7231  157.3637 H   0  0  0  0  0  0  0  0  0  0  0  0
  150.2286  144.0231  156.9492 H   0  0  0  0  0  0  0  0  0  0  0  0
  1  2  2  0  0  0  0
  2 14  1  0  0  0  0
  2  3  1  0  0  0  0
  3  4  1  0  0  0  0
  3  5  2  0  0  0  0
  5  6  1  0  0  0  0
  5 22  1  0  0  0  0
  6  7  1  0  0  0  0
  6 12  1  0  0  0  0
  7 11  1  0  0  0  0
  7  8  1  0  0  0  0
  7 23  1  0  0  0  0
  8  9  1  0  0  0  0
  8 24  1  0  0  0  0
  8 25  1  0  0  0  0
  9 10  1  0  0  0  0
  9 26  1  0  0  0  0
  9 27  1  0  0  0  0
 10 11  1  0  0  0  0
 10 28  1  0  0  0  0
 10 29  1  0  0  0  0
 12 13  2  0  0  0  0
 12 14  1  0  0  0  0
 14 15  1  0  0  0  0
 15 16  1  0  0  0  0
 15 30  1  0  0  0  0
 15 31  1  0  0  0  0
 16 17  1  0  0  0  0
 16 18  1  0  0  0  0
 16 32  1  0  0  0  0
 17 33  1  0  0  0  0
 18 19  1  0  0  0  0
 18 20  1  0  0  0  0
 18 21  1  0  0  0  0
M  END
> <s_m_source_file>
AV-unprocessed.smi

> <i_m_source_file_index>
288

> <i_lp_mmshare_version>
43012

> <i_f3d_flags>
0

> <s_epik_input>
TzFbQ0gyXVtDSDJdW0NIMl1bQ0BIXTFuKFtjSF1jKEYpYzI9TyljKD1PKW4yW0NIMl1bQ0BIXShbT0hdKUMoRikoRilG

> <s_epik_cmdline>
J2VwaWtfcHl0aG9uJywgJy1waCcsICc3LjAnLCAnLXRuJywgJzgnLCAnLW1hJywgJzIwMCcsICctbWV0YWxfYmluZGluZycsICctaW1hZScsICc8aW5maWxlLm1hZT4nLCAnLW9tYWUnLCAnPG91dGZpbGUubWFlPic=

> <r_lp_tautomer_probability>
1

> <r_epik_Ionization_Penalty>
0.000551119

> <r_epik_Ionization_Penalty_Charging>
2.51184e-08

> <r_epik_Ionization_Penalty_Neutral>
0.000551094

> <r_epik_State_Penalty>
0.000345115

> <r_epik_Charging_Adjusted_Penalty>
0.00034514

> <i_epik_Tot_Q>
0

> <i_epik_Tot_abs_Q>
0

> <r_epik_Metal_State_Penalty>
-0

> <b_epik_Metal_Only>
0

> <s_epik_Chemistry_Notes>
This compound contains an acetal/aminal-like group ( X-CH(R)-Y where X, Y are N, S, or O) that may be acid/base labile, releasing an aldehyde.

> <s_lp_Force_Field>
OPLS_2005

> <r_lp_Energy>
32.9649

> <b_lp_Chiralities_Consistent>
1

> <s_lp_Variant>
AV-unprocessed.smi:288-3

> <Gold.Version>
5.8.1

> <Gold.Id.Protein>
6NUR|6NUR_protein|mol2

> <Gold.PLP.Fitness>
47.1836

> <Gold.PLP.PLP>
-41.0547

> <Gold.PLP.part.hbond>
-2.0000

> <Gold.PLP.part.metal>
0.0000

> <Gold.PLP.part.buried>
-7.6629

> <Gold.PLP.part.nonpolar>
-34.0152

> <Gold.PLP.part.repulsive>
3.0630

> <Gold.PLP.ligand.clash>
0.0000

> <Gold.PLP.ligand.torsion>
0.4969

> <Gold.PLP.Chemscore.Hbond>
1.3840

> <Gold.PLP.Chemscore.CHOScore>
0.9677

> <Gold.PLP.Chemscore.Metal>
0.0000

> <Gold.Chemscore.Hbonds>
donor molecule, donor type, donor heavy atom, donor atom, acceptor molecule, acceptor atom, score
      L1  H    17    33       P1  8028  0.42
      P1  H  7997  8008       L1     1  1.00
      L1  C     5    22       P1  7957  0.76

> <Gold.PLP.Chemscore.Internal.Correction>
0.0676

> <Gold.Rescore>
     Score         DG    S(hbond)    S(metal)    S(lipo)     H(rot)  DE(clash)    DE(int)     intcor
      8.67     -10.89       1.88        0.00      48.75       2.57       0.64       1.58       ----

> <Gold.Chemscore.Fitness>
8.6748

> <Gold.Chemscore.DG>
-10.8925

> <Gold.Chemscore.ZeroCoef>
-5.4800

> <Gold.Chemscore.Hbond>
1.8792

> <Gold.Chemscore.Metal>
0.0000

> <Gold.Chemscore.Lipo>
48.7515

> <Gold.Chemscore.Internal_Hbond>
0.0000

> <Gold.Chemscore.DEClash>
0.6404

> <Gold.Chemscore.DEInternal>
1.5773

> <Gold.Chemscore.Rot>
2.5656

> <Gold.Chemscore.Internal.Correction>
   9.000000E+99

> <Gold.Chemscore.Hbonds>
donor molecule, donor type, donor heavy atom, donor atom, acceptor molecule, acceptor atom, score
      L1  H    17    33       P1  8028  0.40
      P1  H  7997  8008       L1     1  1.00

> <Gold.Chemscore.Hbond.Weighted>
-6.2765

> <Gold.Chemscore.Metal.Weighted>
-0.0000

> <Gold.Chemscore.Lipo.Weighted>
-5.7039

> <Gold.Chemscore.Internal_Hbond.Weighted>
0.0000

> <Gold.Chemscore.DEClash.Weighted>
0.6404

> <Gold.Chemscore.DEInternal.Weighted>
1.5773

> <Gold.Chemscore.Rot.Weighted>
6.5679

> <Gold.Chemscore.Internal.Correction.Weighted>
   9.000000E+99

> <Gold.Protein.RotatedTorsions>
[ 6907 6896 6895 6894 ] final -122.87 input  -60.11 | X-H torsion
[ 7974 7965 7964 7962 ] final  -40.13 input  175.53 | X-H torsion
[ 8008 7997 7996 7995 ] final  -54.73 input   59.86 | X-H torsion
[ 10167 10162 10161 10158 ] final   76.49 input  -65.29 | X-H torsion
[ 10718 10713 10712 10709 ] final  -72.24 input   66.30 | X-H torsion
[ 10763 10752 10751 10750 ] final  139.36 input  -60.55 | X-H torsion
[ 11005 11000 10999 10996 ] final -137.61 input  -57.11 | X-H torsion

> <Gold.Protein.ActiveResidues>
 VAL166  LYS551  ARG553  GLY616  TRP617  ASP618  TYR619  PRO620  LYS621  CYS622 
 ASP623  PHE694  ASN695  SER759  ASP760  ASP761  ALA762  ILE779  LEU786  VAL792 
 PHE793  MET794  SER795  GLU796  ALA797  LYS798  CYS799  TRP800  GLU811  SER814 

> <Gold.Protein.RotatedAtoms>
  150.8617  133.7634  159.2990 H   0  0  0  0  0  0  0  0  0  0  0  0  # atno 6907 bound_to 6896
  151.5275  135.1066  159.9903 H   0  0  0  0  0  0  0  0  0  0  0  0  # atno 6908 bound_to 6896
  152.4631  133.7820  159.6911 H   0  0  0  0  0  0  0  0  0  0  0  0  # atno 6909 bound_to 6896
  146.0333  140.6703  142.9122 H   0  0  0  0  0  0  0  0  0  0  0  0  # atno 7974 bound_to 7965
  154.4172  140.1169  156.5363 H   0  0  0  0  0  0  0  0  0  0  0  0  # atno 8008 bound_to 7997
  155.6554  140.3496  155.4744 H   0  0  0  0  0  0  0  0  0  0  0  0  # atno 8009 bound_to 7997
  155.9758  140.1150  157.0761 H   0  0  0  0  0  0  0  0  0  0  0  0  # atno 8010 bound_to 7997
  139.9917  144.5752  150.7813 H   0  0  0  0  0  0  0  0  0  0  0  0  # atno 10167 bound_to 10162
  156.0329  130.4368  150.2563 H   0  0  0  0  0  0  0  0  0  0  0  0  # atno 10718 bound_to 10713
  153.9048  135.3018  155.3448 H   0  0  0  0  0  0  0  0  0  0  0  0  # atno 10763 bound_to 10752
  154.7652  135.4914  153.9544 H   0  0  0  0  0  0  0  0  0  0  0  0  # atno 10764 bound_to 10752
  153.1225  135.6785  153.9413 H   0  0  0  0  0  0  0  0  0  0  0  0  # atno 10765 bound_to 10752
  140.8695  134.2069  157.4660 H   0  0  0  0  0  0  0  0  0  0  0  0  # atno 11005 bound_to 11000
  144.7040  140.3775  143.7133 LP  0  0  0  0  0  0  0  0  0  0  0  0  # atno 17320 bound_to 7965
  145.7005  139.1660  143.2595 LP  0  0  0  0  0  0  0  0  0  0  0  0  # atno 17321 bound_to 7965
  140.7452  143.2872  151.3429 LP  0  0  0  0  0  0  0  0  0  0  0  0  # atno 17342 bound_to 10162
  139.6335  144.0674  152.2496 LP  0  0  0  0  0  0  0  0  0  0  0  0  # atno 17343 bound_to 10162
  157.0664  131.0104  151.3205 LP  0  0  0  0  0  0  0  0  0  0  0  0  # atno 17370 bound_to 10713
  157.5032  130.7893  149.7626 LP  0  0  0  0  0  0  0  0  0  0  0  0  # atno 17371 bound_to 10713
  139.8711  134.9767  156.4932 LP  0  0  0  0  0  0  0  0  0  0  0  0  # atno 17394 bound_to 11000
  140.8590  133.8074  155.9245 LP  0  0  0  0  0  0  0  0  0  0  0  0  # atno 17395 bound_to 11000

$$$$
