AV-unprocessed.smi:1727|AV-procd|sdf|6966|dock1
  -GOLD-   22720 8183D 1   1.00000     0.00000
 Structure written by MMmdl.
 50 52  0  0  0  0  0  0  0  0  2 V2000
  151.1462  141.0120  158.3922 C   0  0  0  0  0  0  0  0  0  0  0  0
  152.0409  140.1575  157.4913 C   0  0  0  0  0  0  0  0  0  0  0  0
  153.0024  139.5868  158.0061 O   0  0  0  0  0  0  0  0  0  0  0  0
  151.7519  140.0592  156.1713 N   0  0  0  0  0  0  0  0  0  0  0  0
  152.4715  139.2215  155.2038 C   0  0  0  0  0  0  0  0  0  0  0  0
  151.5677  138.0441  154.7972 C   0  0  0  0  0  0  0  0  0  0  0  0
  150.2137  138.5421  154.2400 C   0  0  0  0  0  0  0  0  0  0  0  0
  149.2940  137.4255  154.0447 N   0  0  0  0  0  0  0  0  0  0  0  0
  148.6425  136.7798  155.0220 C   0  0  0  0  0  0  0  0  0  0  0  0
  148.7450  137.0633  156.2154 O   0  0  0  0  0  0  0  0  0  0  0  0
  147.8562  135.8099  154.5265 N   0  0  0  0  0  0  0  0  0  0  0  0
  146.9841  134.9476  155.2480 C   0  0  0  0  0  0  0  0  0  0  0  0
  147.1617  134.7282  156.6381 C   0  0  0  0  0  0  0  0  0  0  0  0
  146.3331  133.8154  157.3170 C   0  0  0  0  0  0  0  0  0  0  0  0
  145.3484  133.1223  156.5924 C   0  0  0  0  0  0  0  0  0  0  0  0
  145.2122  133.3438  155.2686 N   0  3  0  0  0  0  0  0  0  0  0  0
  145.9690  134.2200  154.5615 C   0  0  0  0  0  0  0  0  0  0  0  0
  145.7034  134.3579  153.1798 N   0  0  0  0  0  0  0  0  0  0  0  0
  146.2040  133.3705  152.2302 C   0  0  0  0  0  0  0  0  0  0  0  0
  145.4324  133.6353  150.9402 C   0  0  0  0  0  0  0  0  0  0  0  0
  144.0619  134.0596  151.4596 C   0  0  0  0  0  0  0  0  0  0  0  0
  144.3815  134.8104  152.7569 C   0  0  0  0  0  0  0  0  0  0  0  0
  149.5678  139.5848  155.1777 C   0  0  0  0  0  0  0  0  0  0  0  0
  150.5699  140.6858  155.5684 C   0  0  0  0  0  0  0  0  0  0  0  0
  151.1216  142.0457  158.0459 H   0  0  0  0  0  0  0  0  0  0  0  0
  151.5218  141.0134  159.4160 H   0  0  0  0  0  0  0  0  0  0  0  0
  150.1296  140.6187  158.4116 H   0  0  0  0  0  0  0  0  0  0  0  0
  152.7176  139.8209  154.3262 H   0  0  0  0  0  0  0  0  0  0  0  0
  153.4246  138.8461  155.5733 H   0  0  0  0  0  0  0  0  0  0  0  0
  152.0771  137.4277  154.0557 H   0  0  0  0  0  0  0  0  0  0  0  0
  151.3991  137.4062  155.6662 H   0  0  0  0  0  0  0  0  0  0  0  0
  150.3943  139.0289  153.2795 H   0  0  0  0  0  0  0  0  0  0  0  0
  149.1465  137.1237  153.0926 H   0  0  0  0  0  0  0  0  0  0  0  0
  147.7938  135.7548  153.5203 H   0  0  0  0  0  0  0  0  0  0  0  0
  147.9397  135.2321  157.1919 H   0  0  0  0  0  0  0  0  0  0  0  0
  146.4610  133.6409  158.3754 H   0  0  0  0  0  0  0  0  0  0  0  0
  144.6729  132.3994  157.0262 H   0  0  0  0  0  0  0  0  0  0  0  0
  147.2804  133.4669  152.0851 H   0  0  0  0  0  0  0  0  0  0  0  0
  145.9918  132.3596  152.5812 H   0  0  0  0  0  0  0  0  0  0  0  0
  145.8934  134.4571  150.3904 H   0  0  0  0  0  0  0  0  0  0  0  0
  145.3917  132.7665  150.2825 H   0  0  0  0  0  0  0  0  0  0  0  0
  143.5038  134.6659  150.7454 H   0  0  0  0  0  0  0  0  0  0  0  0
  143.4664  133.1738  151.6845 H   0  0  0  0  0  0  0  0  0  0  0  0
  143.6202  134.6292  153.5171 H   0  0  0  0  0  0  0  0  0  0  0  0
  144.4225  135.8831  152.5656 H   0  0  0  0  0  0  0  0  0  0  0  0
  148.6950  140.0298  154.6984 H   0  0  0  0  0  0  0  0  0  0  0  0
  149.2068  139.0961  156.0841 H   0  0  0  0  0  0  0  0  0  0  0  0
  150.0889  141.4068  156.2309 H   0  0  0  0  0  0  0  0  0  0  0  0
  150.8704  141.2512  154.6850 H   0  0  0  0  0  0  0  0  0  0  0  0
  144.4885  132.8250  154.7708 H   0  0  0  0  0  0  0  0  0  0  0  0
  1  2  1  0  0  0  0
  1 25  1  0  0  0  0
  1 26  1  0  0  0  0
  1 27  1  0  0  0  0
  2  3  2  0  0  0  0
  2  4  1  0  0  0  0
  4 24  1  0  0  0  0
  4  5  1  0  0  0  0
  5  6  1  0  0  0  0
  5 28  1  0  0  0  0
  5 29  1  0  0  0  0
  6  7  1  0  0  0  0
  6 30  1  0  0  0  0
  6 31  1  0  0  0  0
  7  8  1  0  0  0  0
  7 23  1  0  0  0  0
  7 32  1  0  0  0  0
  8  9  1  0  0  0  0
  8 33  1  0  0  0  0
  9 10  2  0  0  0  0
  9 11  1  0  0  0  0
 11 12  1  0  0  0  0
 11 34  1  0  0  0  0
 12 17  1  0  0  0  0
 12 13  2  0  0  0  0
 13 14  1  0  0  0  0
 13 35  1  0  0  0  0
 14 15  2  0  0  0  0
 14 36  1  0  0  0  0
 15 16  1  0  0  0  0
 15 37  1  0  0  0  0
 16 17  2  0  0  0  0
 16 50  1  0  0  0  0
 17 18  1  0  0  0  0
 18 22  1  0  0  0  0
 18 19  1  0  0  0  0
 19 20  1  0  0  0  0
 19 38  1  0  0  0  0
 19 39  1  0  0  0  0
 20 21  1  0  0  0  0
 20 40  1  0  0  0  0
 20 41  1  0  0  0  0
 21 22  1  0  0  0  0
 21 42  1  0  0  0  0
 21 43  1  0  0  0  0
 22 44  1  0  0  0  0
 22 45  1  0  0  0  0
 23 24  1  0  0  0  0
 23 46  1  0  0  0  0
 23 47  1  0  0  0  0
 24 48  1  0  0  0  0
 24 49  1  0  0  0  0
M  CHG  1  16   1
M  END
> <s_m_source_file>
AV-unprocessed.smi

> <i_m_source_file_index>
1727

> <i_lp_mmshare_version>
43012

> <i_f3d_flags>
0

> <s_epik_input>
W0NIM11DKD1PKU4xW0NIMl1bQ0gyXVtDSF0oW0NIMl1bQ0gyXTEpW05IXUMoPU8pW05IXWMyW2NIXVtjSF1bY0hdbmMyTjNbQ0gyXVtDSDJdW0NIMl1bQ0gyXTM=

> <s_epik_cmdline>
J2VwaWtfcHl0aG9uJywgJy1waCcsICc3LjAnLCAnLXRuJywgJzgnLCAnLW1hJywgJzIwMCcsICctbWV0YWxfYmluZGluZycsICctaW1hZScsICc8aW5maWxlLm1hZT4nLCAnLW9tYWUnLCAnPG91dGZpbGUubWFlPic=

> <r_lp_tautomer_probability>
0.999994

> <r_epik_Ionization_Penalty>
1.09439

> <r_epik_Ionization_Penalty_Charging>
1.09437

> <r_epik_Ionization_Penalty_Neutral>
2.13526e-05

> <r_epik_State_Penalty>
1.15094

> <r_epik_Charging_Adjusted_Penalty>
2.24531

> <i_epik_Tot_Q>
1

> <i_epik_Tot_abs_Q>
1

> <r_epik_Metal_State_Penalty>
1.23914

> <b_epik_Metal_Only>
0

> <s_lp_Force_Field>
OPLS_2005

> <r_lp_Energy>
56.6798

> <b_lp_Chiralities_Consistent>
1

> <s_lp_Variant>
AV-unprocessed.smi:1727-2

> <Gold.Version>
5.8.1

> <Gold.Id.Protein>
6NUR|6NUR_protein|mol2

> <Gold.PLP.Fitness>
44.0916

> <Gold.PLP.PLP>
-31.4327

> <Gold.PLP.part.hbond>
-3.8859

> <Gold.PLP.part.metal>
0.0000

> <Gold.PLP.part.buried>
-4.2574

> <Gold.PLP.part.nonpolar>
-24.5151

> <Gold.PLP.part.repulsive>
0.1158

> <Gold.PLP.ligand.clash>
0.0000

> <Gold.PLP.ligand.torsion>
0.5115

> <Gold.PLP.Chemscore.Hbond>
4.4264

> <Gold.PLP.Chemscore.CHOScore>
0.0000

> <Gold.PLP.Chemscore.Metal>
0.0000

> <Gold.Chemscore.Hbonds>
donor molecule, donor type, donor heavy atom, donor atom, acceptor molecule, acceptor atom, score
      L1  H     8    33       P1  7948  0.94
      L1  H    11    34       P1  7948  0.69
      L1  H    16    50       P1 10957  1.64
      P1  H  7997  8009       L1     3  1.00

> <Gold.PLP.Chemscore.Internal.Correction>
0.4027

> <Gold.Rescore>
     Score         DG    S(hbond)    S(metal)    S(lipo)     H(rot)  DE(clash)    DE(int)     intcor
     17.41     -20.56       3.28        0.00      61.83       1.22       0.02       3.12       ----

> <Gold.Chemscore.Fitness>
17.4100

> <Gold.Chemscore.DG>
-20.5563

> <Gold.Chemscore.ZeroCoef>
-5.4800

> <Gold.Chemscore.Hbond>
3.2846

> <Gold.Chemscore.Metal>
0.0000

> <Gold.Chemscore.Lipo>
61.8340

> <Gold.Chemscore.Internal_Hbond>
0.0000

> <Gold.Chemscore.DEClash>
0.0234

> <Gold.Chemscore.DEInternal>
3.1229

> <Gold.Chemscore.Rot>
1.2222

> <Gold.Chemscore.Internal.Correction>
   9.000000E+99

> <Gold.Chemscore.Hbonds>
donor molecule, donor type, donor heavy atom, donor atom, acceptor molecule, acceptor atom, score
      L1  H     8    33       P1  7948  0.89
      L1  H    11    34       P1  7948  0.68
      L1  H    16    50       P1 10957  0.77
      P1  H  7997  8009       L1     3  0.55

> <Gold.Chemscore.Hbond.Weighted>
-10.9706

> <Gold.Chemscore.Metal.Weighted>
-0.0000

> <Gold.Chemscore.Lipo.Weighted>
-7.2346

> <Gold.Chemscore.Internal_Hbond.Weighted>
0.0000

> <Gold.Chemscore.DEClash.Weighted>
0.0234

> <Gold.Chemscore.DEInternal.Weighted>
3.1229

> <Gold.Chemscore.Rot.Weighted>
3.1289

> <Gold.Chemscore.Internal.Correction.Weighted>
   9.000000E+99

> <Gold.Protein.RotatedTorsions>
[ 6907 6896 6895 6894 ] final   -2.63 input  -60.11 | X-H torsion
[ 7974 7965 7964 7962 ] final  -51.86 input  175.53 | X-H torsion
[ 8008 7997 7996 7995 ] final  160.69 input   59.86 | X-H torsion
[ 10167 10162 10161 10158 ] final  -44.84 input  -65.29 | X-H torsion
[ 10718 10713 10712 10709 ] final  -48.03 input   66.30 | X-H torsion
[ 10763 10752 10751 10750 ] final -176.88 input  -60.55 | X-H torsion
[ 11005 11000 10999 10996 ] final  135.01 input  -57.11 | X-H torsion

> <Gold.Protein.ActiveResidues>
 VAL166  LYS551  ARG553  GLY616  TRP617  ASP618  TYR619  PRO620  LYS621  CYS622 
 ASP623  PHE694  ASN695  SER759  ASP760  ASP761  ALA762  ILE779  LEU786  VAL792 
 PHE793  MET794  SER795  GLU796  ALA797  LYS798  CYS799  TRP800  GLU811  SER814 

> <Gold.Protein.RotatedAtoms>
  151.5268  135.1068  159.9892 H   0  0  0  0  0  0  0  0  0  0  0  0  # atno 6907 bound_to 6896
  152.4596  133.7791  159.6851 H   0  0  0  0  0  0  0  0  0  0  0  0  # atno 6908 bound_to 6896
  150.8553  133.7659  159.3036 H   0  0  0  0  0  0  0  0  0  0  0  0  # atno 6909 bound_to 6896
  145.9144  140.7888  142.9679 H   0  0  0  0  0  0  0  0  0  0  0  0  # atno 7974 bound_to 7965
  156.2155  140.1797  156.7599 H   0  0  0  0  0  0  0  0  0  0  0  0  # atno 8008 bound_to 7997
  154.5785  140.0670  156.9098 H   0  0  0  0  0  0  0  0  0  0  0  0  # atno 8009 bound_to 7997
  155.2545  140.3331  155.4281 H   0  0  0  0  0  0  0  0  0  0  0  0  # atno 8010 bound_to 7997
  140.6881  143.2910  151.3553 H   0  0  0  0  0  0  0  0  0  0  0  0  # atno 10167 bound_to 10162
  156.2027  130.4157  149.9220 H   0  0  0  0  0  0  0  0  0  0  0  0  # atno 10718 bound_to 10713
  154.5670  135.2824  155.0864 H   0  0  0  0  0  0  0  0  0  0  0  0  # atno 10763 bound_to 10752
  154.2252  135.6384  153.5161 H   0  0  0  0  0  0  0  0  0  0  0  0  # atno 10764 bound_to 10752
  153.0046  135.5524  154.6281 H   0  0  0  0  0  0  0  0  0  0  0  0  # atno 10765 bound_to 10752
  139.9952  134.9500  156.9947 H   0  0  0  0  0  0  0  0  0  0  0  0  # atno 11005 bound_to 11000
  144.6746  140.1876  143.7400 LP  0  0  0  0  0  0  0  0  0  0  0  0  # atno 17320 bound_to 7965
  145.8631  139.2233  143.1705 LP  0  0  0  0  0  0  0  0  0  0  0  0  # atno 17321 bound_to 7965
  139.6258  144.0817  152.2433 LP  0  0  0  0  0  0  0  0  0  0  0  0  # atno 17342 bound_to 10162
  140.0276  144.6106  150.7515 LP  0  0  0  0  0  0  0  0  0  0  0  0  # atno 17343 bound_to 10162
  156.6924  130.8901  151.3590 LP  0  0  0  0  0  0  0  0  0  0  0  0  # atno 17370 bound_to 10713
  157.6994  130.9317  150.0741 LP  0  0  0  0  0  0  0  0  0  0  0  0  # atno 17371 bound_to 10713
  140.4832  134.1268  155.7220 LP  0  0  0  0  0  0  0  0  0  0  0  0  # atno 17394 bound_to 11000
  141.1598  133.8814  157.1878 LP  0  0  0  0  0  0  0  0  0  0  0  0  # atno 17395 bound_to 11000

$$$$
