AV-unprocessed.smi:869|AV-procd|sdf|4003|dock9
  -GOLD-   22720 1483D 1   1.00000     0.00000
 Structure written by MMmdl.
 46 48  0  0  0  0  0  0  0  0  1 V2000
  152.4501  138.6128  155.3988 C   0  0  0  0  0  0  0  0  0  0  0  0
  152.4591  139.8029  156.1669 O   0  0  0  0  0  0  0  0  0  0  0  0
  152.0331  139.5863  157.5040 C   0  0  0  0  0  0  0  0  0  0  0  0
  151.8788  140.9203  158.1780 C   0  0  0  0  0  0  0  0  0  0  0  0
  152.7720  141.4093  159.0422 N   0  0  0  0  0  0  0  0  0  0  0  0
  152.2271  142.6291  159.3904 C   0  0  0  0  0  0  0  0  0  0  0  0
  152.6967  143.6269  160.2746 C   0  0  0  0  0  0  0  0  0  0  0  0
  151.9565  144.8110  160.4724 C   0  0  0  0  0  0  0  0  0  0  0  0
  150.7394  145.0143  159.7901 C   0  0  0  0  0  0  0  0  0  0  0  0
  150.2541  144.0331  158.9044 C   0  0  0  0  0  0  0  0  0  0  0  0
  150.9964  142.8525  158.7118 C   0  0  0  0  0  0  0  0  0  0  0  0
  150.8058  141.7152  157.9337 N   0  0  0  0  0  0  0  0  0  0  0  0
  149.6759  141.4663  157.0472 C   0  0  0  0  0  0  0  0  0  0  0  0
  150.1063  141.2672  155.5799 C   0  0  2  0  0  0  0  0  0  0  0  0
  150.6002  142.4907  155.0711 O   0  0  0  0  0  0  0  0  0  0  0  0
  148.9355  140.8099  154.6958 C   0  0  0  0  0  0  0  0  0  0  0  0
  148.3280  141.9547  154.1113 O   0  0  0  0  0  0  0  0  0  0  0  0
  147.0804  142.3329  154.5590 C   0  0  0  0  0  0  0  0  0  0  0  0
  146.4012  143.3135  153.8071 C   0  0  0  0  0  0  0  0  0  0  0  0
  145.1226  143.7611  154.1914 C   0  0  0  0  0  0  0  0  0  0  0  0
  144.5048  143.2310  155.3411 C   0  0  0  0  0  0  0  0  0  0  0  0
  143.1295  143.7089  155.7590 C   0  0  0  0  0  0  0  0  0  0  0  0
  145.1725  142.2487  156.0985 C   0  0  0  0  0  0  0  0  0  0  0  0
  146.4509  141.8005  155.7125 C   0  0  0  0  0  0  0  0  0  0  0  0
  152.7830  138.8297  154.3837 H   0  0  0  0  0  0  0  0  0  0  0  0
  151.4468  138.1881  155.3414 H   0  0  0  0  0  0  0  0  0  0  0  0
  153.1233  137.8657  155.8218 H   0  0  0  0  0  0  0  0  0  0  0  0
  151.0767  139.0615  157.5204 H   0  0  0  0  0  0  0  0  0  0  0  0
  152.7685  138.9864  158.0415 H   0  0  0  0  0  0  0  0  0  0  0  0
  153.6280  143.4799  160.8012 H   0  0  0  0  0  0  0  0  0  0  0  0
  152.3244  145.5668  161.1506 H   0  0  0  0  0  0  0  0  0  0  0  0
  150.1783  145.9238  159.9474 H   0  0  0  0  0  0  0  0  0  0  0  0
  149.3222  144.1852  158.3808 H   0  0  0  0  0  0  0  0  0  0  0  0
  149.1619  140.5741  157.4065 H   0  0  0  0  0  0  0  0  0  0  0  0
  148.9556  142.2802  157.1284 H   0  0  0  0  0  0  0  0  0  0  0  0
  150.9032  140.5233  155.5419 H   0  0  0  0  0  0  0  0  0  0  0  0
  149.9650  143.1669  155.2516 H   0  0  0  0  0  0  0  0  0  0  0  0
  149.3153  140.1769  153.8920 H   0  0  0  0  0  0  0  0  0  0  0  0
  148.2207  140.2221  155.2747 H   0  0  0  0  0  0  0  0  0  0  0  0
  146.8657  143.7280  152.9244 H   0  0  0  0  0  0  0  0  0  0  0  0
  144.6196  144.5126  153.6007 H   0  0  0  0  0  0  0  0  0  0  0  0
  142.3641  143.0370  155.3706 H   0  0  0  0  0  0  0  0  0  0  0  0
  142.9316  144.7119  155.3795 H   0  0  0  0  0  0  0  0  0  0  0  0
  143.0442  143.7364  156.8456 H   0  0  0  0  0  0  0  0  0  0  0  0
  144.7056  141.8343  156.9799 H   0  0  0  0  0  0  0  0  0  0  0  0
  146.9273  141.0468  156.3203 H   0  0  0  0  0  0  0  0  0  0  0  0
  1  2  1  0  0  0  0
  1 25  1  0  0  0  0
  1 26  1  0  0  0  0
  1 27  1  0  0  0  0
  2  3  1  0  0  0  0
  3  4  1  0  0  0  0
  3 28  1  0  0  0  0
  3 29  1  0  0  0  0
  4 12  1  0  0  0  0
  4  5  2  0  0  0  0
  5  6  1  0  0  0  0
  6 11  2  0  0  0  0
  6  7  1  0  0  0  0
  7  8  2  0  0  0  0
  7 30  1  0  0  0  0
  8  9  1  0  0  0  0
  8 31  1  0  0  0  0
  9 10  2  0  0  0  0
  9 32  1  0  0  0  0
 10 11  1  0  0  0  0
 10 33  1  0  0  0  0
 11 12  1  0  0  0  0
 12 13  1  0  0  0  0
 13 14  1  0  0  0  0
 13 34  1  0  0  0  0
 13 35  1  0  0  0  0
 14 15  1  0  0  0  0
 14 16  1  0  0  0  0
 14 36  1  0  0  0  0
 15 37  1  0  0  0  0
 16 17  1  0  0  0  0
 16 38  1  0  0  0  0
 16 39  1  0  0  0  0
 17 18  1  0  0  0  0
 18 24  1  0  0  0  0
 18 19  2  0  0  0  0
 19 20  1  0  0  0  0
 19 40  1  0  0  0  0
 20 21  2  0  0  0  0
 20 41  1  0  0  0  0
 21 22  1  0  0  0  0
 21 23  1  0  0  0  0
 22 42  1  0  0  0  0
 22 43  1  0  0  0  0
 22 44  1  0  0  0  0
 23 24  2  0  0  0  0
 23 45  1  0  0  0  0
 24 46  1  0  0  0  0
M  END
> <s_m_source_file>
AV-unprocessed.smi

> <i_m_source_file_index>
869

> <i_lp_mmshare_version>
43012

> <i_f3d_flags>
0

> <s_epik_input>
W2NIXTFbY0hdW2NIXVtjSF1jKGMxMiluKGMobjIpW0NIMl1PW0NIM10pW0NIMl1bQ0BIXShbT0hdKVtDSDJdT2MzW2NIXVtjSF1jKFtDSDNdKVtjSF1bY0hdMw==

> <s_epik_cmdline>
J2VwaWtfcHl0aG9uJywgJy1waCcsICc3LjAnLCAnLXRuJywgJzgnLCAnLW1hJywgJzIwMCcsICctbWV0YWxfYmluZGluZycsICctaW1hZScsICc8aW5maWxlLm1hZT4nLCAnLW9tYWUnLCAnPG91dGZpbGUubWFlPic=

> <r_lp_tautomer_probability>
1

> <r_epik_Ionization_Penalty>
0.0446698

> <r_epik_Ionization_Penalty_Charging>
0

> <r_epik_Ionization_Penalty_Neutral>
0.0446698

> <r_epik_State_Penalty>
0.0378721

> <r_epik_Charging_Adjusted_Penalty>
0.0378721

> <i_epik_Tot_Q>
0

> <i_epik_Tot_abs_Q>
0

> <r_epik_Metal_State_Penalty>
3.91074e-05

> <b_epik_Metal_Only>
0

> <s_lp_Force_Field>
OPLS_2005

> <r_lp_Energy>
18.3229

> <b_lp_Chiralities_Consistent>
1

> <s_lp_Variant>
AV-unprocessed.smi:869-1

> <Gold.Version>
5.8.1

> <Gold.Id.Protein>
6NUR|6NUR_protein|mol2

> <Gold.PLP.Fitness>
50.2485

> <Gold.PLP.PLP>
-46.1394

> <Gold.PLP.part.hbond>
-4.7125

> <Gold.PLP.part.metal>
0.0000

> <Gold.PLP.part.buried>
-0.1573

> <Gold.PLP.part.nonpolar>
-41.1344

> <Gold.PLP.part.repulsive>
0.1695

> <Gold.PLP.ligand.clash>
0.0000

> <Gold.PLP.ligand.torsion>
1.1599

> <Gold.PLP.Chemscore.Hbond>
2.1053

> <Gold.PLP.Chemscore.CHOScore>
0.0000

> <Gold.PLP.Chemscore.Metal>
0.0000

> <Gold.Chemscore.Hbonds>
donor molecule, donor type, donor heavy atom, donor atom, acceptor molecule, acceptor atom, score
      L1  H    15    37       P1  8028  1.00
      P1  H  7997  8008       L1     2  1.00
      P1  H  8011  8017       L1    17  0.09

> <Gold.PLP.Chemscore.Internal.Correction>
0.1130

> <Gold.Rescore>
     Score         DG    S(hbond)    S(metal)    S(lipo)     H(rot)  DE(clash)    DE(int)     intcor
     14.49     -18.85       1.46        0.00     124.23       2.36       1.96       2.41       ----

> <Gold.Chemscore.Fitness>
14.4853

> <Gold.Chemscore.DG>
-18.8530

> <Gold.Chemscore.ZeroCoef>
-5.4800

> <Gold.Chemscore.Hbond>
1.4598

> <Gold.Chemscore.Metal>
0.0000

> <Gold.Chemscore.Lipo>
124.2316

> <Gold.Chemscore.Internal_Hbond>
0.0000

> <Gold.Chemscore.DEClash>
1.9622

> <Gold.Chemscore.DEInternal>
2.4056

> <Gold.Chemscore.Rot>
2.3585

> <Gold.Chemscore.Internal.Correction>
   9.000000E+99

> <Gold.Chemscore.Hbonds>
donor molecule, donor type, donor heavy atom, donor atom, acceptor molecule, acceptor atom, score
      L1  H    15    37       P1  8028  1.00
      P1  H  7997  8008       L1     2  0.15
      P1  H  8011  8017       L1    17  0.03

> <Gold.Chemscore.Hbond.Weighted>
-4.8757

> <Gold.Chemscore.Metal.Weighted>
-0.0000

> <Gold.Chemscore.Lipo.Weighted>
-14.5351

> <Gold.Chemscore.Internal_Hbond.Weighted>
0.0000

> <Gold.Chemscore.DEClash.Weighted>
1.9622

> <Gold.Chemscore.DEInternal.Weighted>
2.4056

> <Gold.Chemscore.Rot.Weighted>
6.0378

> <Gold.Chemscore.Internal.Correction.Weighted>
   9.000000E+99

> <Gold.Protein.RotatedTorsions>
[ 6907 6896 6895 6894 ] final   50.31 input  -60.11 | X-H torsion
[ 7974 7965 7964 7962 ] final   91.29 input  175.53 | X-H torsion
[ 8008 7997 7996 7995 ] final  -36.39 input   59.86 | X-H torsion
[ 10167 10162 10161 10158 ] final -145.82 input  -65.29 | X-H torsion
[ 10718 10713 10712 10709 ] final  144.93 input   66.30 | X-H torsion
[ 10763 10752 10751 10750 ] final  -50.20 input  -60.55 | X-H torsion
[ 11005 11000 10999 10996 ] final  102.74 input  -57.11 | X-H torsion

> <Gold.Protein.ActiveResidues>
 VAL166  LYS551  ARG553  GLY616  TRP617  ASP618  TYR619  PRO620  LYS621  CYS622 
 ASP623  PHE694  ASN695  SER759  ASP760  ASP761  ALA762  ILE779  LEU786  VAL792 
 PHE793  MET794  SER795  GLU796  ALA797  LYS798  CYS799  TRP800  GLU811  SER814 

> <Gold.Protein.RotatedAtoms>
  152.3004  134.7617  160.0358 H   0  0  0  0  0  0  0  0  0  0  0  0  # atno 6907 bound_to 6896
  151.8133  133.3379  159.3570 H   0  0  0  0  0  0  0  0  0  0  0  0  # atno 6908 bound_to 6896
  150.7271  134.5573  159.5869 H   0  0  0  0  0  0  0  0  0  0  0  0  # atno 6909 bound_to 6896
  145.5077  139.2276  143.2742 H   0  0  0  0  0  0  0  0  0  0  0  0  # atno 7974 bound_to 7965
  154.4074  140.1632  156.2366 H   0  0  0  0  0  0  0  0  0  0  0  0  # atno 8008 bound_to 7997
  155.9237  140.3419  155.6170 H   0  0  0  0  0  0  0  0  0  0  0  0  # atno 8009 bound_to 7997
  155.7191  140.0766  157.2329 H   0  0  0  0  0  0  0  0  0  0  0  0  # atno 8010 bound_to 7997
  139.7770  143.8155  152.2633 H   0  0  0  0  0  0  0  0  0  0  0  0  # atno 10167 bound_to 10162
  157.3513  131.0951  151.0997 H   0  0  0  0  0  0  0  0  0  0  0  0  # atno 10718 bound_to 10713
  154.1066  135.6555  153.4877 H   0  0  0  0  0  0  0  0  0  0  0  0  # atno 10763 bound_to 10752
  153.0270  135.5237  154.7234 H   0  0  0  0  0  0  0  0  0  0  0  0  # atno 10764 bound_to 10752
  154.6401  135.2987  155.0082 H   0  0  0  0  0  0  0  0  0  0  0  0  # atno 10765 bound_to 10752
  139.8779  134.9236  156.5103 H   0  0  0  0  0  0  0  0  0  0  0  0  # atno 11005 bound_to 11000
  146.2186  140.5881  142.9027 LP  0  0  0  0  0  0  0  0  0  0  0  0  # atno 17320 bound_to 7965
  144.7745  140.5709  143.6647 LP  0  0  0  0  0  0  0  0  0  0  0  0  # atno 17321 bound_to 7965
  139.8207  144.7297  150.9576 LP  0  0  0  0  0  0  0  0  0  0  0  0  # atno 17342 bound_to 10162
  140.7817  143.4162  151.0914 LP  0  0  0  0  0  0  0  0  0  0  0  0  # atno 17343 bound_to 10162
  157.2172  130.6464  149.5797 LP  0  0  0  0  0  0  0  0  0  0  0  0  # atno 17370 bound_to 10713
  155.9722  130.4641  150.6205 LP  0  0  0  0  0  0  0  0  0  0  0  0  # atno 17371 bound_to 10713
  140.8525  133.8121  155.9183 LP  0  0  0  0  0  0  0  0  0  0  0  0  # atno 17394 bound_to 11000
  140.9130  134.2236  157.4974 LP  0  0  0  0  0  0  0  0  0  0  0  0  # atno 17395 bound_to 11000

$$$$
