#       Name:                AV-unprocessed.smi:1507
#       Creating user name   scv26
#       Creation time:       Fri Mar 27 06:20:38 2020


#       File generated by GOLD software.
#

@<TRIPOS>MOLECULE
AV-unprocessed.smi:1507
    39    40     1
SMALL
NO_CHARGES


@<TRIPOS>ATOM
      1 ****        -4.3711   4.1927  -0.2816 N.3            1 S1                 0.0000
      2 ****        -2.7579   4.7781  -0.3526 S.o2           1 S1                 0.0000
      3 ****        -2.6622   5.5529  -1.6003 O.2            1 S1                 0.0000
      4 ****        -2.5217   5.4685   0.9254 O.2            1 S1                 0.0000
      5 ****        -2.0511   3.3246  -0.4397 N.pl3          1 S1                -1.0000
      6 ****        -0.6044   3.2519  -0.5194 C.3            1 S1                 0.0000
      7 ****        -0.1211   1.8120  -0.4444 C.ar           1 S1                 0.0000
      8 ****         0.1119   1.0608  -1.6205 C.ar           1 S1                 0.0000
      9 ****         0.5471  -0.2770  -1.5143 C.ar           1 S1                 0.0000
     10 ****         0.7405  -0.8451  -0.2377 C.ar           1 S1                 0.0000
     11 ****         1.1616  -2.1744  -0.0937 N.3            1 S1                 0.0000
     12 ****         2.4905  -2.2992   0.4916 C.3            1 S1                 0.0000
     13 ****         2.9212  -3.7761   0.5060 C.3            1 S1                 0.0000
     14 ****         1.9472  -4.5493   1.2013 O.3            1 S1                 0.0000
     15 ****         0.6668  -4.4827   0.5797 C.3            1 S1                 0.0000
     16 ****         0.1779  -3.0241   0.5662 C.3            1 S1                 0.0000
     17 ****         0.5099  -0.0923   0.8644 N.pl3          1 S1                 1.0000
     18 ****         0.0926   1.1920   0.8078 C.ar           1 S1                 0.0000
     19 ****        -4.9188   4.4717  -1.0948 H              1 S1                 0.0000
     20 ****        -4.8195   4.4059   0.6085 H              1 S1                 0.0000
     21 ****        -0.2281   3.6929  -1.4430 H              1 S1                 0.0000
     22 ****        -0.1257   3.8075   0.2877 H              1 S1                 0.0000
     23 ****        -0.0429   1.4890  -2.6017 H              1 S1                 0.0000
     24 ****         0.7239  -0.8600  -2.4064 H              1 S1                 0.0000
     25 ****         3.2044  -1.7061  -0.0812 H              1 S1                 0.0000
     26 ****         2.4850  -1.9053   1.5091 H              1 S1                 0.0000
     27 ****         3.0449  -4.1559  -0.5096 H              1 S1                 0.0000
     28 ****         3.8838  -3.8830   1.0063 H              1 S1                 0.0000
     29 ****         0.7206  -4.8860  -0.4328 H              1 S1                 0.0000
     30 ****        -0.0316  -5.1084   1.1352 H              1 S1                 0.0000
     31 ****         0.0177  -2.6800   1.5890 H              1 S1                 0.0000
     32 ****        -0.7790  -2.9535   0.0475 H              1 S1                 0.0000
     33 ****        -0.0627   1.6718   1.7646 H              1 S1                 0.0000
     34 ****         0.6505  -0.5143   1.7822 H              1 S1                 0.0000
     35 ****        -4.3250   3.1946  -0.3230 LP             1 S1                 0.0000
     36 ****        -2.6026   2.4904  -0.4386 LP             1 S1                 0.0000
     37 ****         1.2404  -2.5222  -1.0279 LP             1 S1                 0.0000
     38 ****         1.8698  -4.2047   2.1369 LP             1 S1                 0.0000
     39 ****         2.2468  -5.5031   1.2212 LP             1 S1                 0.0000
@<TRIPOS>BOND
    1    1    2 1     
    2    1   19 1     
    3    1   20 1     
    4    2    3 2     
    5    2    4 2     
    6    2    5 1     
    7    5    6 1     
    8    6    7 1     
    9    6   21 1     
   10    6   22 1     
   11    7   18 ar    
   12    7    8 ar    
   13    8    9 ar    
   14    8   23 1     
   15    9   10 ar    
   16    9   24 1     
   17   10   11 1     
   18   10   17 ar    
   19   11   16 1     
   20   11   12 1     
   21   12   13 1     
   22   12   25 1     
   23   12   26 1     
   24   13   14 1     
   25   13   27 1     
   26   13   28 1     
   27   14   15 1     
   28   15   16 1     
   29   15   29 1     
   30   15   30 1     
   31   16   31 1     
   32   16   32 1     
   33   17   18 ar    
   34   17   34 1     
   35   18   33 1     
   36    1   35 1     
   37    5   36 1     
   38   11   37 1     
   39   14   38 1     
   40   14   39 1     
@<TRIPOS>SUBSTRUCTURE
      1 S1             1
@<TRIPOS>SET
LONE_PAIRS      STATIC     ATOMS    <user>   **** ""
7 35 3 4 36 37 38 39
DONOR_HYDROGENS      STATIC     ATOMS    <user>   **** ""
3 19 20 34
ATOM$BLUE        STATIC     ATOMS    COLORGROUP SYSTEM
7 35 3 4 36 37 38 39
ATOM$RED        STATIC     ATOMS    COLORGROUP SYSTEM
3 19 20 34
