AV-unprocessed.smi:287|AV-procd|sdf|2187|dock2
  -GOLD-   2262021573D 1   1.00000     0.00000
 Structure written by MMmdl.
 55 58  0  0  0  0  0  0  0  0  1 V2000
  135.8398  137.1149  157.4227 C   0  0  0  0  0  0  0  0  0  0  0  0
  136.6568  137.9272  156.4773 C   0  0  0  0  0  0  0  0  0  0  0  0
  137.9100  137.7918  155.9551 C   0  0  0  0  0  0  0  0  0  0  0  0
  138.1388  138.9110  155.0996 C   0  0  0  0  0  0  0  0  0  0  0  0
  139.4014  139.1811  154.2926 C   0  0  1  0  0  0  0  0  0  0  0  0
  139.6788  137.9954  153.3539 C   0  0  0  0  0  0  0  0  0  0  0  0
  139.2817  140.3110  153.4494 O   0  0  0  0  0  0  0  0  0  0  0  0
  140.6319  139.4447  155.1897 C   0  0  0  0  0  0  0  0  0  0  0  0
  141.8928  139.1240  154.5330 N   0  0  0  0  0  0  0  0  0  0  0  0
  142.4952  137.9320  154.7261 C   0  0  0  0  0  0  0  0  0  0  0  0
  142.5228  137.4939  156.0076 N   0  0  0  0  0  0  0  0  0  0  0  0
  143.0925  136.3230  156.3065 C   0  0  0  0  0  0  0  0  0  0  0  0
  143.6817  135.4491  155.4885 N   0  0  0  0  0  0  0  0  0  0  0  0
  143.6573  135.8838  154.1957 C   0  0  0  0  0  0  0  0  0  0  0  0
  143.0915  137.1043  153.7287 C   0  0  0  0  0  0  0  0  0  0  0  0
  143.2678  137.1895  152.3514 N   0  0  0  0  0  0  0  0  0  0  0  0
  143.8929  136.0888  152.0327 C   0  0  0  0  0  0  0  0  0  0  0  0
  144.1744  135.2488  153.0883 N   0  0  0  0  0  0  0  0  0  0  0  0
  144.8670  133.9184  153.0921 C   0  0  1  0  0  0  0  0  0  0  0  0
  144.2589  133.1017  152.1372 O   0  0  0  0  0  0  0  0  0  0  0  0
  145.0505  133.0789  150.9549 C   0  0  2  0  0  0  0  0  0  0  0  0
  144.6874  131.8827  150.0589 C   0  0  0  0  0  0  0  0  0  0  0  0
  143.2844  131.7799  149.9401 O   0  0  0  0  0  0  0  0  0  0  0  0
  146.4751  133.0777  151.5217 C   0  0  2  0  0  0  0  0  0  0  0  0
  146.8481  131.7794  151.9470 O   0  0  0  0  0  0  0  0  0  0  0  0
  146.3662  134.0228  152.7136 C   0  0  1  0  0  0  0  0  0  0  0  0
  146.7786  135.3237  152.3296 O   0  0  0  0  0  0  0  0  0  0  0  0
  136.9767  139.6419  155.1610 C   0  0  0  0  0  0  0  0  0  0  0  0
  136.5107  140.9047  154.5148 C   0  0  0  0  0  0  0  0  0  0  0  0
  136.0759  139.0556  155.9981 O   0  0  0  0  0  0  0  0  0  0  0  0
  144.6927  133.5223  154.0933 H   0  0  0  0  0  0  0  0  0  0  0  0
  144.9064  134.0115  150.4058 H   0  0  0  0  0  0  0  0  0  0  0  0
  147.2058  133.4125  150.7839 H   0  0  0  0  0  0  0  0  0  0  0  0
  146.9806  133.6995  153.5551 H   0  0  0  0  0  0  0  0  0  0  0  0
  136.4287  136.3014  157.8467 H   0  0  0  0  0  0  0  0  0  0  0  0
  134.9794  136.6801  156.9138 H   0  0  0  0  0  0  0  0  0  0  0  0
  135.4731  137.7301  158.2444 H   0  0  0  0  0  0  0  0  0  0  0  0
  138.5917  136.9811  156.1668 H   0  0  0  0  0  0  0  0  0  0  0  0
  139.8234  137.0724  153.9166 H   0  0  0  0  0  0  0  0  0  0  0  0
  140.5773  138.1582  152.7573 H   0  0  0  0  0  0  0  0  0  0  0  0
  138.8490  137.8325  152.6649 H   0  0  0  0  0  0  0  0  0  0  0  0
  139.7479  140.1363  152.6462 H   0  0  0  0  0  0  0  0  0  0  0  0
  140.6533  140.5071  155.4351 H   0  0  0  0  0  0  0  0  0  0  0  0
  140.5490  138.9018  156.1325 H   0  0  0  0  0  0  0  0  0  0  0  0
  142.2775  139.8516  153.9475 H   0  0  0  0  0  0  0  0  0  0  0  0
  143.0735  136.0473  157.3507 H   0  0  0  0  0  0  0  0  0  0  0  0
  144.1616  135.8650  151.0106 H   0  0  0  0  0  0  0  0  0  0  0  0
  145.0907  132.0293  149.0564 H   0  0  0  0  0  0  0  0  0  0  0  0
  145.1034  130.9519  150.4457 H   0  0  0  0  0  0  0  0  0  0  0  0
  142.9530  132.5889  149.5812 H   0  0  0  0  0  0  0  0  0  0  0  0
  147.6887  131.5709  151.5691 H   0  0  0  0  0  0  0  0  0  0  0  0
  147.6530  135.2659  151.9749 H   0  0  0  0  0  0  0  0  0  0  0  0
  136.6639  140.8667  153.4362 H   0  0  0  0  0  0  0  0  0  0  0  0
  137.0584  141.7624  154.9058 H   0  0  0  0  0  0  0  0  0  0  0  0
  135.4487  141.0726  154.6954 H   0  0  0  0  0  0  0  0  0  0  0  0
  1  2  1  0  0  0  0
  1 35  1  0  0  0  0
  1 36  1  0  0  0  0
  1 37  1  0  0  0  0
  2 30  1  0  0  0  0
  2  3  2  0  0  0  0
  3  4  1  0  0  0  0
  3 38  1  0  0  0  0
  4  5  1  0  0  0  0
  4 28  2  0  0  0  0
  5  6  1  0  0  0  0
  5  7  1  0  0  0  0
  5  8  1  0  0  0  0
  6 39  1  0  0  0  0
  6 40  1  0  0  0  0
  6 41  1  0  0  0  0
  7 42  1  0  0  0  0
  8  9  1  0  0  0  0
  8 43  1  0  0  0  0
  8 44  1  0  0  0  0
  9 10  1  0  0  0  0
  9 45  1  0  0  0  0
 10 15  1  0  0  0  0
 10 11  2  0  0  0  0
 11 12  1  0  0  0  0
 12 13  2  0  0  0  0
 12 46  1  0  0  0  0
 13 14  1  0  0  0  0
 14 18  1  0  0  0  0
 14 15  2  0  0  0  0
 15 16  1  0  0  0  0
 16 17  2  0  0  0  0
 17 18  1  0  0  0  0
 17 47  1  0  0  0  0
 18 19  1  0  0  0  0
 19 31  1  0  0  0  0
 19 26  1  0  0  0  0
 19 20  1  0  0  0  0
 20 21  1  0  0  0  0
 21 32  1  0  0  0  0
 21 22  1  0  0  0  0
 21 24  1  0  0  0  0
 22 23  1  0  0  0  0
 22 48  1  0  0  0  0
 22 49  1  0  0  0  0
 23 50  1  0  0  0  0
 24 33  1  0  0  0  0
 24 25  1  0  0  0  0
 24 26  1  0  0  0  0
 25 51  1  0  0  0  0
 26 34  1  0  0  0  0
 26 27  1  0  0  0  0
 27 52  1  0  0  0  0
 28 29  1  0  0  0  0
 28 30  1  0  0  0  0
 29 53  1  0  0  0  0
 29 54  1  0  0  0  0
 29 55  1  0  0  0  0
M  END
> <s_m_source_file>
AV-unprocessed.smi

> <i_m_source_file_index>
287

> <i_lp_mmshare_version>
43012

> <i_f3d_flags>
0

> <s_epik_input>
W0NIM11jMVtjSF1jKGMobzEpW0NIM10pW0NAQF0oW0NIM10pKFtPSF0pW0NIMl1bTkhdYyhuW2NIXW4yKWMoYzIzKW5bY0hdbjNbQ0BASF00T1tDQEhdKFtDSDJdW09IXSlbQ0BASF0oW09IXSlbQ0BIXTRbT0hd

> <s_epik_cmdline>
J2VwaWtfcHl0aG9uJywgJy1waCcsICc3LjAnLCAnLXRuJywgJzgnLCAnLW1hJywgJzIwMCcsICctbWV0YWxfYmluZGluZycsICctaW1hZScsICc8aW5maWxlLm1hZT4nLCAnLW9tYWUnLCAnPG91dGZpbGUubWFlPic=

> <r_lp_tautomer_probability>
1

> <r_epik_Ionization_Penalty>
0.000992612

> <r_epik_Ionization_Penalty_Charging>
0

> <r_epik_Ionization_Penalty_Neutral>
0.000992612

> <r_epik_State_Penalty>
-0

> <r_epik_Charging_Adjusted_Penalty>
0

> <i_epik_Tot_Q>
0

> <i_epik_Tot_abs_Q>
0

> <r_epik_Metal_State_Penalty>
-0

> <b_epik_Metal_Only>
0

> <s_epik_Chemistry_Notes>
This compound contains an acetal/aminal-like group ( X-CH(R)-Y where X, Y are N, S, or O) that may be acid/base labile, releasing an aldehyde.

> <s_lp_Force_Field>
OPLS_2005

> <r_lp_Energy>
42.7121

> <b_lp_Chiralities_Consistent>
1

> <s_lp_Variant>
AV-unprocessed.smi:287-11

> <Gold.Version>
5.8.1

> <Gold.Id.Protein>
6NUR|6NUR_protein|mol2

> <Gold.PLP.Fitness>
48.6269

> <Gold.PLP.PLP>
-35.6463

> <Gold.PLP.part.hbond>
-4.9240

> <Gold.PLP.part.metal>
0.0000

> <Gold.PLP.part.buried>
-5.6746

> <Gold.PLP.part.nonpolar>
-27.6736

> <Gold.PLP.part.repulsive>
2.9355

> <Gold.PLP.ligand.clash>
0.0000

> <Gold.PLP.ligand.torsion>
1.2202

> <Gold.PLP.Chemscore.Hbond>
4.7668

> <Gold.PLP.Chemscore.CHOScore>
0.3168

> <Gold.PLP.Chemscore.Metal>
0.0000

> <Gold.Chemscore.Hbonds>
donor molecule, donor type, donor heavy atom, donor atom, acceptor molecule, acceptor atom, score
      L1  H     7    42       P1 10160  1.00
      L1  H     9    45       P1 10175  0.94
      L1  H    25    51       P1 10747  1.00
      L1  H    27    52       P1  7948  0.78
      P1  H 10785 10796       L1    23  0.95

> <Gold.PLP.Chemscore.Internal.Correction>
0.1703

> <Gold.Rescore>
     Score         DG    S(hbond)    S(metal)    S(lipo)     H(rot)  DE(clash)    DE(int)     intcor
     11.37     -16.14       4.35        0.00      82.16       5.27       1.58       3.20       ----

> <Gold.Chemscore.Fitness>
11.3658

> <Gold.Chemscore.DG>
-16.1417

> <Gold.Chemscore.ZeroCoef>
-5.4800

> <Gold.Chemscore.Hbond>
4.3512

> <Gold.Chemscore.Metal>
0.0000

> <Gold.Chemscore.Lipo>
82.1579

> <Gold.Chemscore.Internal_Hbond>
0.0000

> <Gold.Chemscore.DEClash>
1.5764

> <Gold.Chemscore.DEInternal>
3.1995

> <Gold.Chemscore.Rot>
5.2672

> <Gold.Chemscore.Internal.Correction>
   9.000000E+99

> <Gold.Chemscore.Hbonds>
donor molecule, donor type, donor heavy atom, donor atom, acceptor molecule, acceptor atom, score
      L1  H     7    42       P1 10160  0.97
      L1  H     9    45       P1 10175  0.84
      L1  H    25    51       P1 10747  0.98
      L1  H    27    52       P1  7948  0.73
      P1  H 10785 10796       L1    23  0.19

> <Gold.Chemscore.Hbond.Weighted>
-14.5332

> <Gold.Chemscore.Metal.Weighted>
-0.0000

> <Gold.Chemscore.Lipo.Weighted>
-9.6125

> <Gold.Chemscore.Internal_Hbond.Weighted>
0.0000

> <Gold.Chemscore.DEClash.Weighted>
1.5764

> <Gold.Chemscore.DEInternal.Weighted>
3.1995

> <Gold.Chemscore.Rot.Weighted>
13.4839

> <Gold.Chemscore.Internal.Correction.Weighted>
   9.000000E+99

> <Gold.Protein.RotatedTorsions>
[ 6907 6896 6895 6894 ] final   53.57 input  -60.11 | X-H torsion
[ 7974 7965 7964 7962 ] final  115.81 input  175.53 | X-H torsion
[ 8008 7997 7996 7995 ] final  -53.14 input   59.86 | X-H torsion
[ 10167 10162 10161 10158 ] final  172.30 input  -65.29 | X-H torsion
[ 10718 10713 10712 10709 ] final   90.26 input   66.30 | X-H torsion
[ 10763 10752 10751 10750 ] final -156.36 input  -60.55 | X-H torsion
[ 11005 11000 10999 10996 ] final   40.31 input  -57.11 | X-H torsion

> <Gold.Protein.ActiveResidues>
 VAL166  LYS551  ARG553  GLY616  TRP617  ASP618  TYR619  PRO620  LYS621  CYS622 
 ASP623  PHE694  ASN695  SER759  ASP760  ASP761  ALA762  ILE779  LEU786  VAL792 
 PHE793  MET794  SER795  GLU796  ALA797  LYS798  CYS799  TRP800  GLU811  SER814 

> <Gold.Protein.RotatedAtoms>
  152.3350  134.7209  160.0279 H   0  0  0  0  0  0  0  0  0  0  0  0  # atno 6907 bound_to 6896
  151.7613  133.3328  159.3427 H   0  0  0  0  0  0  0  0  0  0  0  0  # atno 6908 bound_to 6896
  150.7445  134.6035  159.6093 H   0  0  0  0  0  0  0  0  0  0  0  0  # atno 6909 bound_to 6896
  145.1873  139.3018  143.4386 H   0  0  0  0  0  0  0  0  0  0  0  0  # atno 7974 bound_to 7965
  154.4125  140.1207  156.5105 H   0  0  0  0  0  0  0  0  0  0  0  0  # atno 8008 bound_to 7997
  155.6804  140.3496  155.4834 H   0  0  0  0  0  0  0  0  0  0  0  0  # atno 8009 bound_to 7997
  155.9556  140.1113  157.0929 H   0  0  0  0  0  0  0  0  0  0  0  0  # atno 8010 bound_to 7997
  139.5072  144.3389  152.0038 H   0  0  0  0  0  0  0  0  0  0  0  0  # atno 10167 bound_to 10162
  157.6958  131.0364  150.3551 H   0  0  0  0  0  0  0  0  0  0  0  0  # atno 10718 bound_to 10713
  154.7718  135.3147  154.8173 H   0  0  0  0  0  0  0  0  0  0  0  0  # atno 10763 bound_to 10752
  153.8906  135.6826  153.4765 H   0  0  0  0  0  0  0  0  0  0  0  0  # atno 10764 bound_to 10752
  153.1334  135.4770  154.9319 H   0  0  0  0  0  0  0  0  0  0  0  0  # atno 10765 bound_to 10752
  140.1943  134.3948  155.8129 H   0  0  0  0  0  0  0  0  0  0  0  0  # atno 11005 bound_to 11000
  146.3442  140.2074  142.8589 LP  0  0  0  0  0  0  0  0  0  0  0  0  # atno 17320 bound_to 7965
  145.0076  140.8686  143.5244 LP  0  0  0  0  0  0  0  0  0  0  0  0  # atno 17321 bound_to 7965
  140.2827  144.3841  150.6113 LP  0  0  0  0  0  0  0  0  0  0  0  0  # atno 17342 bound_to 10162
  140.6006  143.2167  151.7080 LP  0  0  0  0  0  0  0  0  0  0  0  0  # atno 17343 bound_to 10162
  156.3994  130.3913  149.6970 LP  0  0  0  0  0  0  0  0  0  0  0  0  # atno 17370 bound_to 10713
  156.4293  130.7807  151.2826 LP  0  0  0  0  0  0  0  0  0  0  0  0  # atno 17371 bound_to 10713
  141.2227  133.7062  156.8150 LP  0  0  0  0  0  0  0  0  0  0  0  0  # atno 17394 bound_to 11000
  140.2124  134.8817  157.3289 LP  0  0  0  0  0  0  0  0  0  0  0  0  # atno 17395 bound_to 11000

$$$$
