AV-unprocessed.smi:3117|AV-procd|sdf|11884|dock1
  -GOLD-   2272017273D 1   1.00000     0.00000
 Structure written by MMmdl.
 36 36  0  0  0  0  0  0  0  0  1 V2000
  151.2051  141.2368  156.7279 C   0  0  0  0  0  0  0  0  0  0  0  0
  150.2026  141.8660  157.7136 C   0  0  2  0  0  0  0  0  0  0  0  0
  148.9914  142.2193  156.9676 N   0  0  0  0  0  0  0  0  0  0  0  0
  148.4619  141.1575  156.1088 C   0  0  0  0  0  0  0  0  0  0  0  0
  147.9151  141.7089  154.7757 C   0  0  0  0  0  0  0  0  0  0  0  0
  147.8259  140.6204  153.6912 C   0  0  0  0  0  0  0  0  0  0  0  0
  146.5792  142.4526  154.9521 C   0  0  0  0  0  0  0  0  0  0  0  0
  148.8544  142.6618  154.3214 O   0  0  0  0  0  0  0  0  0  0  0  0
  150.7977  143.0981  158.4587 C   0  0  1  0  0  0  0  0  0  0  0  0
  149.7489  144.0037  159.1307 C   0  0  0  0  0  0  0  0  0  0  0  0
  151.8024  142.7076  159.4407 N   0  0  0  0  0  0  0  0  0  0  0  0
  152.9869  142.0331  159.2267 C   0  0  0  0  0  0  0  0  0  0  0  0
  153.6044  141.8963  160.4367 C   0  0  0  0  0  0  0  0  0  0  0  0
  152.7108  142.5281  161.3454 C   0  0  0  0  0  0  0  0  0  0  0  0
  151.6343  143.0128  160.7480 N   0  0  0  0  0  0  0  0  0  0  0  0
  152.0807  140.8349  157.2376 H   0  0  0  0  0  0  0  0  0  0  0  0
  151.5509  141.9653  155.9939 H   0  0  0  0  0  0  0  0  0  0  0  0
  150.7502  140.4082  156.1839 H   0  0  0  0  0  0  0  0  0  0  0  0
  149.9630  141.0955  158.4483 H   0  0  0  0  0  0  0  0  0  0  0  0
  149.1744  143.0390  156.3978 H   0  0  0  0  0  0  0  0  0  0  0  0
  149.2524  140.4345  155.9015 H   0  0  0  0  0  0  0  0  0  0  0  0
  147.6769  140.6020  156.6183 H   0  0  0  0  0  0  0  0  0  0  0  0
  147.0892  139.8595  153.9513 H   0  0  0  0  0  0  0  0  0  0  0  0
  148.7834  140.1168  153.5535 H   0  0  0  0  0  0  0  0  0  0  0  0
  147.5323  141.0413  152.7289 H   0  0  0  0  0  0  0  0  0  0  0  0
  145.7861  141.7763  155.2724 H   0  0  0  0  0  0  0  0  0  0  0  0
  146.2555  142.9129  154.0178 H   0  0  0  0  0  0  0  0  0  0  0  0
  146.6601  143.2434  155.6989 H   0  0  0  0  0  0  0  0  0  0  0  0
  148.9302  143.3424  154.9727 H   0  0  0  0  0  0  0  0  0  0  0  0
  151.3171  143.7088  157.7182 H   0  0  0  0  0  0  0  0  0  0  0  0
  149.1336  144.5156  158.3918 H   0  0  0  0  0  0  0  0  0  0  0  0
  150.2285  144.7796  159.7285 H   0  0  0  0  0  0  0  0  0  0  0  0
  149.0915  143.4362  159.7900 H   0  0  0  0  0  0  0  0  0  0  0  0
  153.2886  141.7097  158.2414 H   0  0  0  0  0  0  0  0  0  0  0  0
  154.5510  141.4188  160.6414 H   0  0  0  0  0  0  0  0  0  0  0  0
  152.8123  142.6489  162.4138 H   0  0  0  0  0  0  0  0  0  0  0  0
  1  2  1  0  0  0  0
  1 16  1  0  0  0  0
  1 17  1  0  0  0  0
  1 18  1  0  0  0  0
  2  3  1  0  0  0  0
  2  9  1  0  0  0  0
  2 19  1  0  0  0  0
  3  4  1  0  0  0  0
  3 20  1  0  0  0  0
  4  5  1  0  0  0  0
  4 21  1  0  0  0  0
  4 22  1  0  0  0  0
  5  6  1  0  0  0  0
  5  7  1  0  0  0  0
  5  8  1  0  0  0  0
  6 23  1  0  0  0  0
  6 24  1  0  0  0  0
  6 25  1  0  0  0  0
  7 26  1  0  0  0  0
  7 27  1  0  0  0  0
  7 28  1  0  0  0  0
  8 29  1  0  0  0  0
  9 10  1  0  0  0  0
  9 11  1  0  0  0  0
  9 30  1  0  0  0  0
 10 31  1  0  0  0  0
 10 32  1  0  0  0  0
 10 33  1  0  0  0  0
 11 15  1  0  0  0  0
 11 12  1  0  0  0  0
 12 13  2  0  0  0  0
 12 34  1  0  0  0  0
 13 14  1  0  0  0  0
 13 35  1  0  0  0  0
 14 15  2  0  0  0  0
 14 36  1  0  0  0  0
M  END
> <s_m_source_file>
AV-unprocessed.smi

> <i_m_source_file_index>
3117

> <i_lp_mmshare_version>
43012

> <i_f3d_flags>
0

> <s_epik_input>
W0NIM11DKFtDSDNdKShbT0hdKVtDSDJdW05IXVtDQEBIXShbQ0gzXSlbQ0BIXShbQ0gzXSluMVtjSF1bY0hdW2NIXW4x

> <s_epik_cmdline>
J2VwaWtfcHl0aG9uJywgJy1waCcsICc3LjAnLCAnLXRuJywgJzgnLCAnLW1hJywgJzIwMCcsICctbWV0YWxfYmluZGluZycsICctaW1hZScsICc8aW5maWxlLm1hZT4nLCAnLW9tYWUnLCAnPG91dGZpbGUubWFlPic=

> <r_lp_tautomer_probability>
1

> <r_epik_Ionization_Penalty>
2.13419

> <r_epik_Ionization_Penalty_Charging>
0

> <r_epik_Ionization_Penalty_Neutral>
2.13419

> <r_epik_State_Penalty>
2.27148

> <r_epik_Charging_Adjusted_Penalty>
2.27148

> <i_epik_Tot_Q>
0

> <i_epik_Tot_abs_Q>
0

> <r_epik_Metal_State_Penalty>
2.27029

> <b_epik_Metal_Only>
0

> <s_lp_Force_Field>
OPLS_2005

> <r_lp_Energy>
15.8141

> <b_lp_Chiralities_Consistent>
1

> <s_lp_Variant>
AV-unprocessed.smi:3117-7

> <Gold.Version>
5.8.1

> <Gold.Id.Protein>
6NUR|6NUR_protein|mol2

> <Gold.PLP.Fitness>
39.0373

> <Gold.PLP.PLP>
-34.2892

> <Gold.PLP.part.hbond>
-3.5103

> <Gold.PLP.part.metal>
0.0000

> <Gold.PLP.part.buried>
-3.5734

> <Gold.PLP.part.nonpolar>
-26.9806

> <Gold.PLP.part.repulsive>
0.0753

> <Gold.PLP.ligand.clash>
0.0000

> <Gold.PLP.ligand.torsion>
0.8071

> <Gold.PLP.Chemscore.Hbond>
2.0608

> <Gold.PLP.Chemscore.CHOScore>
0.0000

> <Gold.PLP.Chemscore.Metal>
0.0000

> <Gold.Chemscore.Hbonds>
donor molecule, donor type, donor heavy atom, donor atom, acceptor molecule, acceptor atom, score
      L1  H     3    20       P1  8028  1.00
      L1  H     8    29       P1  8028  0.98
      P1  H  8011  8017       L1     8  0.03

> <Gold.PLP.Chemscore.Internal.Correction>
0.1798

> <Gold.Rescore>
     Score         DG    S(hbond)    S(metal)    S(lipo)     H(rot)  DE(clash)    DE(int)     intcor
     15.80     -16.61       2.14        0.00      82.03       2.19       0.14       0.67       ----

> <Gold.Chemscore.Fitness>
15.7999

> <Gold.Chemscore.DG>
-16.6114

> <Gold.Chemscore.ZeroCoef>
-5.4800

> <Gold.Chemscore.Hbond>
2.1365

> <Gold.Chemscore.Metal>
0.0000

> <Gold.Chemscore.Lipo>
82.0294

> <Gold.Chemscore.Internal_Hbond>
0.0000

> <Gold.Chemscore.DEClash>
0.1414

> <Gold.Chemscore.DEInternal>
0.6702

> <Gold.Chemscore.Rot>
2.1882

> <Gold.Chemscore.Internal.Correction>
   9.000000E+99

> <Gold.Chemscore.Hbonds>
donor molecule, donor type, donor heavy atom, donor atom, acceptor molecule, acceptor atom, score
      L1  H     3    20       P1  8028  0.99
      L1  H     8    29       P1  8028  0.92
      P1  H  8011  8017       L1     8  0.05

> <Gold.Chemscore.Hbond.Weighted>
-7.1358

> <Gold.Chemscore.Metal.Weighted>
-0.0000

> <Gold.Chemscore.Lipo.Weighted>
-9.5974

> <Gold.Chemscore.Internal_Hbond.Weighted>
0.0000

> <Gold.Chemscore.DEClash.Weighted>
0.1414

> <Gold.Chemscore.DEInternal.Weighted>
0.6702

> <Gold.Chemscore.Rot.Weighted>
5.6018

> <Gold.Chemscore.Internal.Correction.Weighted>
   9.000000E+99

> <Gold.Protein.RotatedTorsions>
[ 6907 6896 6895 6894 ] final -154.83 input  -60.11 | X-H torsion
[ 7974 7965 7964 7962 ] final   56.01 input  175.53 | X-H torsion
[ 8008 7997 7996 7995 ] final -105.18 input   59.86 | X-H torsion
[ 10167 10162 10161 10158 ] final  -43.53 input  -65.29 | X-H torsion
[ 10718 10713 10712 10709 ] final  143.84 input   66.30 | X-H torsion
[ 10763 10752 10751 10750 ] final   93.71 input  -60.55 | X-H torsion
[ 11005 11000 10999 10996 ] final  102.82 input  -57.11 | X-H torsion

> <Gold.Protein.ActiveResidues>
 VAL166  LYS551  ARG553  GLY616  TRP617  ASP618  TYR619  PRO620  LYS621  CYS622 
 ASP623  PHE694  ASN695  SER759  ASP760  ASP761  ALA762  ILE779  LEU786  VAL792 
 PHE793  MET794  SER795  GLU796  ALA797  LYS798  CYS799  TRP800  GLU811  SER814 

> <Gold.Protein.RotatedAtoms>
  151.2634  133.4291  159.2617 H   0  0  0  0  0  0  0  0  0  0  0  0  # atno 6907 bound_to 6896
  151.0510  134.9673  159.8222 H   0  0  0  0  0  0  0  0  0  0  0  0  # atno 6908 bound_to 6896
  152.5382  134.2588  159.8980 H   0  0  0  0  0  0  0  0  0  0  0  0  # atno 6909 bound_to 6896
  145.9443  139.3916  143.0344 H   0  0  0  0  0  0  0  0  0  0  0  0  # atno 7974 bound_to 7965
  154.8961  140.0414  157.1866 H   0  0  0  0  0  0  0  0  0  0  0  0  # atno 8008 bound_to 7997
  154.8491  140.2926  155.5589 H   0  0  0  0  0  0  0  0  0  0  0  0  # atno 8009 bound_to 7997
  156.2995  140.2468  156.3447 H   0  0  0  0  0  0  0  0  0  0  0  0  # atno 8010 bound_to 7997
  140.6930  143.2978  151.3365 H   0  0  0  0  0  0  0  0  0  0  0  0  # atno 10167 bound_to 10162
  157.3642  131.0969  151.0888 H   0  0  0  0  0  0  0  0  0  0  0  0  # atno 10718 bound_to 10713
  153.2333  135.4316  155.0619 H   0  0  0  0  0  0  0  0  0  0  0  0  # atno 10763 bound_to 10752
  154.8307  135.3385  154.6755 H   0  0  0  0  0  0  0  0  0  0  0  0  # atno 10764 bound_to 10752
  153.7181  135.7018  153.5076 H   0  0  0  0  0  0  0  0  0  0  0  0  # atno 10765 bound_to 10752
  139.8780  134.9239  156.5116 H   0  0  0  0  0  0  0  0  0  0  0  0  # atno 11005 bound_to 11000
  145.8257  140.9656  143.0875 LP  0  0  0  0  0  0  0  0  0  0  0  0  # atno 17320 bound_to 7965
  144.6784  140.0099  143.7484 LP  0  0  0  0  0  0  0  0  0  0  0  0  # atno 17321 bound_to 7965
  139.6354  144.0641  152.2511 LP  0  0  0  0  0  0  0  0  0  0  0  0  # atno 17342 bound_to 10162
  140.0129  144.6210  150.7632 LP  0  0  0  0  0  0  0  0  0  0  0  0  # atno 17343 bound_to 10162
  157.2016  130.6397  149.5740 LP  0  0  0  0  0  0  0  0  0  0  0  0  # atno 17370 bound_to 10713
  155.9743  130.4689  150.6376 LP  0  0  0  0  0  0  0  0  0  0  0  0  # atno 17371 bound_to 10713
  140.8516  133.8127  155.9174 LP  0  0  0  0  0  0  0  0  0  0  0  0  # atno 17394 bound_to 11000
  140.9138  134.2227  157.4969 LP  0  0  0  0  0  0  0  0  0  0  0  0  # atno 17395 bound_to 11000

$$$$
