AV-unprocessed.smi:887|AV-procd|sdf|4053|dock7
  -GOLD-   22720 1543D 1   1.00000     0.00000
 Structure written by MMmdl.
 31 32  0  0  0  0  0  0  0  0  1 V2000
  147.8459  138.9556  154.0316 C   0  0  0  0  0  0  0  0  0  0  0  0
  149.1874  138.7502  154.5557 N   0  0  0  0  0  0  0  0  0  0  0  0
  150.1484  139.6863  154.5594 C   0  0  0  0  0  0  0  0  0  0  0  0
  149.9847  140.8243  154.1198 O   0  0  0  0  0  0  0  0  0  0  0  0
  151.4980  139.2836  155.1574 C   0  0  0  0  0  0  0  0  0  0  0  0
  151.7783  140.0576  156.4058 C   0  0  0  0  0  0  0  0  0  0  0  0
  152.7195  139.6742  157.2604 N   0  0  0  0  0  0  0  0  0  0  0  0
  152.6713  140.6582  158.2579 O   0  0  0  0  0  0  0  0  0  0  0  0
  151.6760  141.5047  157.8986 C   0  0  0  0  0  0  0  0  0  0  0  0
  151.4373  142.7267  158.7290 C   0  0  1  0  0  0  0  0  0  0  0  0
  152.2338  142.6839  160.0517 C   0  0  0  0  0  0  0  0  0  0  0  0
  152.2628  144.0251  160.7644 C   0  0  0  0  0  0  0  0  0  0  0  0
  151.8669  145.1778  160.1983 C   0  0  0  0  0  0  0  0  0  0  0  0
  151.3528  145.2756  158.7743 C   0  0  0  0  0  0  0  0  0  0  0  0
  151.7018  144.0265  157.9449 C   0  0  0  0  0  0  0  0  0  0  0  0
  151.1127  141.2008  156.7304 N   0  0  0  0  0  0  0  0  0  0  0  0
  147.2380  138.0678  154.2056 H   0  0  0  0  0  0  0  0  0  0  0  0
  147.8752  139.1440  152.9577 H   0  0  0  0  0  0  0  0  0  0  0  0
  147.3607  139.8013  154.5208 H   0  0  0  0  0  0  0  0  0  0  0  0
  149.4025  137.8384  154.9331 H   0  0  0  0  0  0  0  0  0  0  0  0
  151.5004  138.2152  155.3786 H   0  0  0  0  0  0  0  0  0  0  0  0
  152.2918  139.4573  154.4298 H   0  0  0  0  0  0  0  0  0  0  0  0
  150.3771  142.7280  158.9880 H   0  0  0  0  0  0  0  0  0  0  0  0
  151.8178  141.9255  160.7157 H   0  0  0  0  0  0  0  0  0  0  0  0
  153.2697  142.4017  159.8600 H   0  0  0  0  0  0  0  0  0  0  0  0
  152.6314  144.0265  161.7797 H   0  0  0  0  0  0  0  0  0  0  0  0
  151.8958  146.0942  160.7695 H   0  0  0  0  0  0  0  0  0  0  0  0
  150.2721  145.4136  158.8141 H   0  0  0  0  0  0  0  0  0  0  0  0
  151.7700  146.1644  158.3001 H   0  0  0  0  0  0  0  0  0  0  0  0
  152.7535  144.0681  157.6576 H   0  0  0  0  0  0  0  0  0  0  0  0
  151.1280  144.0342  157.0174 H   0  0  0  0  0  0  0  0  0  0  0  0
  1  2  1  0  0  0  0
  1 17  1  0  0  0  0
  1 18  1  0  0  0  0
  1 19  1  0  0  0  0
  2  3  1  0  0  0  0
  2 20  1  0  0  0  0
  3  4  2  0  0  0  0
  3  5  1  0  0  0  0
  5  6  1  0  0  0  0
  5 21  1  0  0  0  0
  5 22  1  0  0  0  0
  6 16  1  0  0  0  0
  6  7  2  0  0  0  0
  7  8  1  0  0  0  0
  8  9  1  0  0  0  0
  9 10  1  0  0  0  0
  9 16  2  0  0  0  0
 10 15  1  0  0  0  0
 10 11  1  0  0  0  0
 10 23  1  0  0  0  0
 11 12  1  0  0  0  0
 11 24  1  0  0  0  0
 11 25  1  0  0  0  0
 12 13  2  0  0  0  0
 12 26  1  0  0  0  0
 13 14  1  0  0  0  0
 13 27  1  0  0  0  0
 14 15  1  0  0  0  0
 14 28  1  0  0  0  0
 14 29  1  0  0  0  0
 15 30  1  0  0  0  0
 15 31  1  0  0  0  0
M  END
> <s_m_source_file>
AV-unprocessed.smi

> <i_m_source_file_index>
887

> <i_lp_mmshare_version>
43012

> <i_f3d_flags>
0

> <s_epik_input>
W0NIM11bTkhdQyg9TylbQ0gyXWMxbm9jKG4xKVtDQEBIXTJbQ0gyXVtDSF09W0NIXVtDSDJdW0NIMl0y

> <s_epik_cmdline>
J2VwaWtfcHl0aG9uJywgJy1waCcsICc3LjAnLCAnLXRuJywgJzgnLCAnLW1hJywgJzIwMCcsICctbWV0YWxfYmluZGluZycsICctaW1hZScsICc8aW5maWxlLm1hZT4nLCAnLW9tYWUnLCAnPG91dGZpbGUubWFlPic=

> <r_lp_tautomer_probability>
1

> <r_epik_Ionization_Penalty>
1.02915e-07

> <r_epik_Ionization_Penalty_Charging>
0

> <r_epik_Ionization_Penalty_Neutral>
1.02915e-07

> <r_epik_State_Penalty>
-0

> <r_epik_Charging_Adjusted_Penalty>
0

> <i_epik_Tot_Q>
0

> <i_epik_Tot_abs_Q>
0

> <r_epik_Metal_State_Penalty>
-0

> <b_epik_Metal_Only>
0

> <s_lp_Force_Field>
OPLS_2005

> <r_lp_Energy>
6.05076

> <b_lp_Chiralities_Consistent>
1

> <s_lp_Variant>
AV-unprocessed.smi:887-2

> <Gold.Version>
5.8.1

> <Gold.Id.Protein>
6NUR|6NUR_protein|mol2

> <Gold.PLP.Fitness>
39.8521

> <Gold.PLP.PLP>
-35.7459

> <Gold.PLP.part.hbond>
-2.4264

> <Gold.PLP.part.metal>
0.0000

> <Gold.PLP.part.buried>
-2.2188

> <Gold.PLP.part.nonpolar>
-30.5004

> <Gold.PLP.part.repulsive>
0.5397

> <Gold.PLP.ligand.clash>
0.0000

> <Gold.PLP.ligand.torsion>
0.3209

> <Gold.PLP.Chemscore.Hbond>
1.5470

> <Gold.PLP.Chemscore.CHOScore>
0.0000

> <Gold.PLP.Chemscore.Metal>
0.0000

> <Gold.Chemscore.Hbonds>
donor molecule, donor type, donor heavy atom, donor atom, acceptor molecule, acceptor atom, score
      P1  H  7989  7998       L1     4  0.38
      P1  H  7997  8010       L1     7  0.95
      P1  H  8011  8017       L1     4  0.08

> <Gold.PLP.Chemscore.Internal.Correction>
0.1070

> <Gold.Rescore>
     Score         DG    S(hbond)    S(metal)    S(lipo)     H(rot)  DE(clash)    DE(int)     intcor
     12.49     -14.16       0.99        0.00      81.57       1.63       0.02       1.66       ----

> <Gold.Chemscore.Fitness>
12.4855

> <Gold.Chemscore.DG>
-14.1650

> <Gold.Chemscore.ZeroCoef>
-5.4800

> <Gold.Chemscore.Hbond>
0.9931

> <Gold.Chemscore.Metal>
0.0000

> <Gold.Chemscore.Lipo>
81.5707

> <Gold.Chemscore.Internal_Hbond>
0.0000

> <Gold.Chemscore.DEClash>
0.0240

> <Gold.Chemscore.DEInternal>
1.6554

> <Gold.Chemscore.Rot>
1.6312

> <Gold.Chemscore.Internal.Correction>
   9.000000E+99

> <Gold.Chemscore.Hbonds>
donor molecule, donor type, donor heavy atom, donor atom, acceptor molecule, acceptor atom, score
      P1  H  7989  7998       L1     4  0.03
      P1  H  7997  8010       L1     7  0.12
      P1  H  8011  8017       L1     4  0.11

> <Gold.Chemscore.Hbond.Weighted>
-3.3170

> <Gold.Chemscore.Metal.Weighted>
-0.0000

> <Gold.Chemscore.Lipo.Weighted>
-9.5438

> <Gold.Chemscore.Internal_Hbond.Weighted>
0.0000

> <Gold.Chemscore.DEClash.Weighted>
0.0240

> <Gold.Chemscore.DEInternal.Weighted>
1.6554

> <Gold.Chemscore.Rot.Weighted>
4.1758

> <Gold.Chemscore.Internal.Correction.Weighted>
   9.000000E+99

> <Gold.Protein.RotatedTorsions>
[ 6907 6896 6895 6894 ] final   69.60 input  -60.11 | X-H torsion
[ 7974 7965 7964 7962 ] final -134.40 input  175.53 | X-H torsion
[ 8008 7997 7996 7995 ] final   70.62 input   59.86 | X-H torsion
[ 10167 10162 10161 10158 ] final  -49.75 input  -65.29 | X-H torsion
[ 10718 10713 10712 10709 ] final -136.27 input   66.30 | X-H torsion
[ 10763 10752 10751 10750 ] final  123.34 input  -60.55 | X-H torsion
[ 11005 11000 10999 10996 ] final   24.73 input  -57.11 | X-H torsion

> <Gold.Protein.ActiveResidues>
 VAL166  LYS551  ARG553  GLY616  TRP617  ASP618  TYR619  PRO620  LYS621  CYS622 
 ASP623  PHE694  ASN695  SER759  ASP760  ASP761  ALA762  ILE779  LEU786  VAL792 
 PHE793  MET794  SER795  GLU796  ALA797  LYS798  CYS799  TRP800  GLU811  SER814 

> <Gold.Protein.RotatedAtoms>
  152.4696  134.4992  159.9719 H   0  0  0  0  0  0  0  0  0  0  0  0  # atno 6907 bound_to 6896
  151.5022  133.3496  159.2879 H   0  0  0  0  0  0  0  0  0  0  0  0  # atno 6908 bound_to 6896
  150.8699  134.8098  159.7208 H   0  0  0  0  0  0  0  0  0  0  0  0  # atno 6909 bound_to 6896
  144.9106  140.6890  143.5027 H   0  0  0  0  0  0  0  0  0  0  0  0  # atno 7974 bound_to 7965
  155.7416  140.3490  155.5107 H   0  0  0  0  0  0  0  0  0  0  0  0  # atno 8008 bound_to 7997
  155.9089  140.1047  157.1316 H   0  0  0  0  0  0  0  0  0  0  0  0  # atno 8009 bound_to 7997
  154.4053  140.1271  156.4518 H   0  0  0  0  0  0  0  0  0  0  0  0  # atno 8010 bound_to 7997
  140.6670  143.2685  151.4260 H   0  0  0  0  0  0  0  0  0  0  0  0  # atno 10167 bound_to 10162
  156.2752  130.7289  151.1268 H   0  0  0  0  0  0  0  0  0  0  0  0  # atno 10718 bound_to 10713
  153.6440  135.3374  155.3080 H   0  0  0  0  0  0  0  0  0  0  0  0  # atno 10763 bound_to 10752
  154.8553  135.4325  154.1975 H   0  0  0  0  0  0  0  0  0  0  0  0  # atno 10764 bound_to 10752
  153.2901  135.7016  153.7376 H   0  0  0  0  0  0  0  0  0  0  0  0  # atno 10765 bound_to 10752
  140.3555  134.2182  155.7676 H   0  0  0  0  0  0  0  0  0  0  0  0  # atno 11005 bound_to 11000
  145.3460  139.1719  143.4460 LP  0  0  0  0  0  0  0  0  0  0  0  0  # atno 17320 bound_to 7965
  146.3157  140.3507  142.8656 LP  0  0  0  0  0  0  0  0  0  0  0  0  # atno 17321 bound_to 7965
  139.5923  144.1473  152.2103 LP  0  0  0  0  0  0  0  0  0  0  0  0  # atno 17342 bound_to 10162
  140.0831  144.5684  150.7108 LP  0  0  0  0  0  0  0  0  0  0  0  0  # atno 17343 bound_to 10162
  157.7297  131.0622  150.5762 LP  0  0  0  0  0  0  0  0  0  0  0  0  # atno 17370 bound_to 10713
  156.5862  130.4317  149.5956 LP  0  0  0  0  0  0  0  0  0  0  0  0  # atno 17371 bound_to 10713
  141.2000  133.7999  157.0512 LP  0  0  0  0  0  0  0  0  0  0  0  0  # atno 17394 bound_to 11000
  140.0669  134.9724  157.1400 LP  0  0  0  0  0  0  0  0  0  0  0  0  # atno 17395 bound_to 11000

$$$$
