AV-unprocessed.smi:492|AV-procd|sdf|2710|dock1
  -GOLD-   2262023153D 1   1.00000     0.00000
 Structure written by MMmdl.
 47 49  0  0  0  0  0  0  0  0  2 V2000
  146.1170  131.5003  152.5353 C   0  0  0  0  0  0  0  0  0  0  0  0
  145.9507  132.7652  153.1593 O   0  0  0  0  0  0  0  0  0  0  0  0
  147.0598  133.3640  153.7175 C   0  0  0  0  0  0  0  0  0  0  0  0
  148.3890  132.9054  153.5367 C   0  0  0  0  0  0  0  0  0  0  0  0
  149.4658  133.5785  154.1463 C   0  0  0  0  0  0  0  0  0  0  0  0
  149.2353  134.7210  154.9384 C   0  0  0  0  0  0  0  0  0  0  0  0
  150.3967  135.4314  155.6074 C   0  0  0  0  0  0  0  0  0  0  0  0
  150.3705  136.8288  155.3678 O   0  0  0  0  0  0  0  0  0  0  0  0
  151.6327  137.4493  155.5521 C   0  0  0  0  0  0  0  0  0  0  0  0
  151.4611  138.9764  155.5677 C   0  0  2  0  0  0  0  0  0  0  0  0
  152.6339  139.5737  155.0521 O   0  0  0  0  0  0  0  0  0  0  0  0
  151.0883  139.5414  156.9539 C   0  0  0  0  0  0  0  0  0  0  0  0
  150.9320  141.0043  156.9483 N   0  0  0  0  0  0  0  0  0  0  0  0
  150.1888  141.8019  156.1296 C   0  0  0  0  0  0  0  0  0  0  0  0
  149.3224  141.3567  154.9997 C   0  0  0  0  0  0  0  0  0  0  0  0
  150.3833  143.0890  156.5331 N   0  3  0  0  0  0  0  0  0  0  0  0
  151.2606  143.1160  157.6184 C   0  0  0  0  0  0  0  0  0  0  0  0
  151.7560  144.1824  158.3625 C   0  0  0  0  0  0  0  0  0  0  0  0
  152.6441  143.8643  159.4110 C   0  0  0  0  0  0  0  0  0  0  0  0
  153.0081  142.5300  159.6853 C   0  0  0  0  0  0  0  0  0  0  0  0
  152.4984  141.4569  158.9248 C   0  0  0  0  0  0  0  0  0  0  0  0
  151.6193  141.7797  157.8905 C   0  0  0  0  0  0  0  0  0  0  0  0
  147.9146  135.1757  155.1289 C   0  0  0  0  0  0  0  0  0  0  0  0
  146.8389  134.5027  154.5190 C   0  0  0  0  0  0  0  0  0  0  0  0
  145.1561  131.1620  152.1476 H   0  0  0  0  0  0  0  0  0  0  0  0
  146.4695  130.7488  153.2431 H   0  0  0  0  0  0  0  0  0  0  0  0
  146.8096  131.5586  151.6947 H   0  0  0  0  0  0  0  0  0  0  0  0
  148.6095  132.0368  152.9354 H   0  0  0  0  0  0  0  0  0  0  0  0
  150.4719  133.2127  154.0015 H   0  0  0  0  0  0  0  0  0  0  0  0
  150.3472  135.2356  156.6794 H   0  0  0  0  0  0  0  0  0  0  0  0
  151.3370  135.0155  155.2421 H   0  0  0  0  0  0  0  0  0  0  0  0
  152.1050  137.1045  156.4738 H   0  0  0  0  0  0  0  0  0  0  0  0
  152.2894  137.1683  154.7275 H   0  0  0  0  0  0  0  0  0  0  0  0
  150.6644  139.2299  154.8676 H   0  0  0  0  0  0  0  0  0  0  0  0
  152.8997  139.0917  154.2840 H   0  0  0  0  0  0  0  0  0  0  0  0
  150.1409  139.1142  157.2842 H   0  0  0  0  0  0  0  0  0  0  0  0
  151.8212  139.2652  157.7115 H   0  0  0  0  0  0  0  0  0  0  0  0
  148.8506  142.2132  154.5178 H   0  0  0  0  0  0  0  0  0  0  0  0
  148.5411  140.6896  155.3645 H   0  0  0  0  0  0  0  0  0  0  0  0
  149.9165  140.8253  154.2561 H   0  0  0  0  0  0  0  0  0  0  0  0
  151.4800  145.2057  158.1533 H   0  0  0  0  0  0  0  0  0  0  0  0
  153.0553  144.6594  160.0161 H   0  0  0  0  0  0  0  0  0  0  0  0
  153.6931  142.3243  160.4950 H   0  0  0  0  0  0  0  0  0  0  0  0
  152.7887  140.4400  159.1427 H   0  0  0  0  0  0  0  0  0  0  0  0
  147.7202  136.0423  155.7436 H   0  0  0  0  0  0  0  0  0  0  0  0
  145.8320  134.8632  154.6706 H   0  0  0  0  0  0  0  0  0  0  0  0
  149.9486  143.8902  156.0938 H   0  0  0  0  0  0  0  0  0  0  0  0
  1  2  1  0  0  0  0
  1 25  1  0  0  0  0
  1 26  1  0  0  0  0
  1 27  1  0  0  0  0
  2  3  1  0  0  0  0
  3 24  1  0  0  0  0
  3  4  2  0  0  0  0
  4  5  1  0  0  0  0
  4 28  1  0  0  0  0
  5  6  2  0  0  0  0
  5 29  1  0  0  0  0
  6  7  1  0  0  0  0
  6 23  1  0  0  0  0
  7  8  1  0  0  0  0
  7 30  1  0  0  0  0
  7 31  1  0  0  0  0
  8  9  1  0  0  0  0
  9 10  1  0  0  0  0
  9 32  1  0  0  0  0
  9 33  1  0  0  0  0
 10 11  1  0  0  0  0
 10 12  1  0  0  0  0
 10 34  1  0  0  0  0
 11 35  1  0  0  0  0
 12 13  1  0  0  0  0
 12 36  1  0  0  0  0
 12 37  1  0  0  0  0
 13 22  1  0  0  0  0
 13 14  1  0  0  0  0
 14 15  1  0  0  0  0
 14 16  2  0  0  0  0
 15 38  1  0  0  0  0
 15 39  1  0  0  0  0
 15 40  1  0  0  0  0
 16 17  1  0  0  0  0
 16 47  1  0  0  0  0
 17 22  2  0  0  0  0
 17 18  1  0  0  0  0
 18 19  2  0  0  0  0
 18 41  1  0  0  0  0
 19 20  1  0  0  0  0
 19 42  1  0  0  0  0
 20 21  2  0  0  0  0
 20 43  1  0  0  0  0
 21 22  1  0  0  0  0
 21 44  1  0  0  0  0
 23 24  2  0  0  0  0
 23 45  1  0  0  0  0
 24 46  1  0  0  0  0
M  CHG  1  16   1
M  END
> <s_m_source_file>
AV-unprocessed.smi

> <i_m_source_file_index>
492

> <i_lp_mmshare_version>
43012

> <i_f3d_flags>
0

> <s_epik_input>
W0NIM11PYzFbY0hdW2NIXWMoW2NIXVtjSF0xKVtDSDJdT1tDSDJdW0NASF0oW09IXSlbQ0gyXW4oYyhuMilbQ0gzXSljKGMyMylbY0hdW2NIXVtjSF1bY0hdMw==

> <s_epik_cmdline>
J2VwaWtfcHl0aG9uJywgJy1waCcsICc3LjAnLCAnLXRuJywgJzgnLCAnLW1hJywgJzIwMCcsICctbWV0YWxfYmluZGluZycsICctaW1hZScsICc8aW5maWxlLm1hZT4nLCAnLW9tYWUnLCAnPG91dGZpbGUubWFlPic=

> <r_lp_tautomer_probability>
1

> <r_epik_Ionization_Penalty>
0.952

> <r_epik_Ionization_Penalty_Charging>
0.951999

> <r_epik_Ionization_Penalty_Neutral>
9.7482e-07

> <r_epik_State_Penalty>
0.996343

> <r_epik_Charging_Adjusted_Penalty>
1.94834

> <i_epik_Tot_Q>
1

> <i_epik_Tot_abs_Q>
1

> <r_epik_Metal_State_Penalty>
4.96724

> <b_epik_Metal_Only>
0

> <s_lp_Force_Field>
OPLS_2005

> <r_lp_Energy>
22.3556

> <b_lp_Chiralities_Consistent>
1

> <s_lp_Variant>
AV-unprocessed.smi:492-3

> <Gold.Version>
5.8.1

> <Gold.Id.Protein>
6NUR|6NUR_protein|mol2

> <Gold.PLP.Fitness>
57.0504

> <Gold.PLP.PLP>
-49.0818

> <Gold.PLP.part.hbond>
-2.8192

> <Gold.PLP.part.metal>
0.0000

> <Gold.PLP.part.buried>
-6.1564

> <Gold.PLP.part.nonpolar>
-41.7001

> <Gold.PLP.part.repulsive>
0.3125

> <Gold.PLP.ligand.clash>
0.0000

> <Gold.PLP.ligand.torsion>
0.7325

> <Gold.PLP.Chemscore.Hbond>
3.0209

> <Gold.PLP.Chemscore.CHOScore>
0.0000

> <Gold.PLP.Chemscore.Metal>
0.0000

> <Gold.Chemscore.Hbonds>
donor molecule, donor type, donor heavy atom, donor atom, acceptor molecule, acceptor atom, score
      L1  H    16    47       P1  8028  1.40
      P1  H  7989  7998       L1    11  0.01
      P1  H  7997  8010       L1    11  0.71

> <Gold.PLP.Chemscore.Internal.Correction>
0.3709

> <Gold.Rescore>
     Score         DG    S(hbond)    S(metal)    S(lipo)     H(rot)  DE(clash)    DE(int)     intcor
     19.68     -20.36       1.87        0.00     128.55       2.50       0.10       0.58       ----

> <Gold.Chemscore.Fitness>
19.6817

> <Gold.Chemscore.DG>
-20.3595

> <Gold.Chemscore.ZeroCoef>
-5.4800

> <Gold.Chemscore.Hbond>
1.8711

> <Gold.Chemscore.Metal>
0.0000

> <Gold.Chemscore.Lipo>
128.5457

> <Gold.Chemscore.Internal_Hbond>
0.0000

> <Gold.Chemscore.DEClash>
0.0998

> <Gold.Chemscore.DEInternal>
0.5780

> <Gold.Chemscore.Rot>
2.5038

> <Gold.Chemscore.Internal.Correction>
   9.000000E+99

> <Gold.Chemscore.Hbonds>
donor molecule, donor type, donor heavy atom, donor atom, acceptor molecule, acceptor atom, score
      L1  H    16    47       P1  8028  0.68
      P1  H  7997  8010       L1    11  0.52

> <Gold.Chemscore.Hbond.Weighted>
-6.2494

> <Gold.Chemscore.Metal.Weighted>
-0.0000

> <Gold.Chemscore.Lipo.Weighted>
-15.0398

> <Gold.Chemscore.Internal_Hbond.Weighted>
0.0000

> <Gold.Chemscore.DEClash.Weighted>
0.0998

> <Gold.Chemscore.DEInternal.Weighted>
0.5780

> <Gold.Chemscore.Rot.Weighted>
6.4098

> <Gold.Chemscore.Internal.Correction.Weighted>
   9.000000E+99

> <Gold.Protein.RotatedTorsions>
[ 6907 6896 6895 6894 ] final   50.92 input  -60.11 | X-H torsion
[ 7974 7965 7964 7962 ] final  170.18 input  175.53 | X-H torsion
[ 8008 7997 7996 7995 ] final   83.14 input   59.86 | X-H torsion
[ 10167 10162 10161 10158 ] final  -75.96 input  -65.29 | X-H torsion
[ 10718 10713 10712 10709 ] final -173.12 input   66.30 | X-H torsion
[ 10763 10752 10751 10750 ] final -100.35 input  -60.55 | X-H torsion
[ 11005 11000 10999 10996 ] final  -56.11 input  -57.11 | X-H torsion

> <Gold.Protein.ActiveResidues>
 VAL166  LYS551  ARG553  GLY616  TRP617  ASP618  TYR619  PRO620  LYS621  CYS622 
 ASP623  PHE694  ASN695  SER759  ASP760  ASP761  ALA762  ILE779  LEU786  VAL792 
 PHE793  MET794  SER795  GLU796  ALA797  LYS798  CYS799  TRP800  GLU811  SER814 

> <Gold.Protein.RotatedAtoms>
  152.3071  134.7542  160.0344 H   0  0  0  0  0  0  0  0  0  0  0  0  # atno 6907 bound_to 6896
  151.8036  133.3367  159.3542 H   0  0  0  0  0  0  0  0  0  0  0  0  # atno 6908 bound_to 6896
  150.7301  134.5660  159.5911 H   0  0  0  0  0  0  0  0  0  0  0  0  # atno 6909 bound_to 6896
  144.7331  139.9164  143.6418 H   0  0  0  0  0  0  0  0  0  0  0  0  # atno 7974 bound_to 7965
  155.9200  140.3422  155.6165 H   0  0  0  0  0  0  0  0  0  0  0  0  # atno 8008 bound_to 7997
  155.7285  140.0792  157.2318 H   0  0  0  0  0  0  0  0  0  0  0  0  # atno 8009 bound_to 7997
  154.4068  140.1592  156.2469 H   0  0  0  0  0  0  0  0  0  0  0  0  # atno 8010 bound_to 7997
  140.4898  143.2383  151.7925 H   0  0  0  0  0  0  0  0  0  0  0  0  # atno 10167 bound_to 10162
  156.7656  130.9430  151.3119 H   0  0  0  0  0  0  0  0  0  0  0  0  # atno 10718 bound_to 10713
  154.7572  135.4938  153.9396 H   0  0  0  0  0  0  0  0  0  0  0  0  # atno 10763 bound_to 10752
  153.1209  135.6731  153.9345 H   0  0  0  0  0  0  0  0  0  0  0  0  # atno 10764 bound_to 10752
  153.9078  135.3102  155.3427 H   0  0  0  0  0  0  0  0  0  0  0  0  # atno 10765 bound_to 10752
  141.1105  133.6611  156.4570 H   0  0  0  0  0  0  0  0  0  0  0  0  # atno 11005 bound_to 11000
  146.0962  139.3955  143.0375 LP  0  0  0  0  0  0  0  0  0  0  0  0  # atno 17320 bound_to 7965
  145.7642  140.9923  143.1184 LP  0  0  0  0  0  0  0  0  0  0  0  0  # atno 17321 bound_to 7965
  139.4849  144.4664  151.9478 LP  0  0  0  0  0  0  0  0  0  0  0  0  # atno 17342 bound_to 10162
  140.3751  144.2807  150.5915 LP  0  0  0  0  0  0  0  0  0  0  0  0  # atno 17343 bound_to 10162
  157.6714  130.9055  150.0050 LP  0  0  0  0  0  0  0  0  0  0  0  0  # atno 17370 bound_to 10713
  156.1311  130.3643  149.9731 LP  0  0  0  0  0  0  0  0  0  0  0  0  # atno 17371 bound_to 10713
  140.4788  134.6684  157.5162 LP  0  0  0  0  0  0  0  0  0  0  0  0  # atno 17394 bound_to 11000
  139.9996  134.6857  155.9552 LP  0  0  0  0  0  0  0  0  0  0  0  0  # atno 17395 bound_to 11000

$$$$
