AV-unprocessed.smi:47|AV-procd|sdf|438|dock5
  -GOLD-   2262016303D 1   1.00000     0.00000
 Structure written by MMmdl.
 31 33  0  0  0  0  0  0  0  0  1 V2000
  150.9567  136.0901  154.3342 O   0  0  0  0  0  0  0  0  0  0  0  0
  150.8518  137.2177  155.1770 C   0  0  2  0  0  0  0  0  0  0  0  0
  149.6006  138.0393  154.8963 C   0  0  0  0  0  0  0  0  0  0  0  0
  149.8879  139.3456  155.4707 N   0  0  0  0  0  0  0  0  0  0  0  0
  151.3308  139.5834  155.3426 C   0  0  1  0  0  0  0  0  0  0  0  0
  151.9371  140.1411  156.5940 C   0  0  0  0  0  0  0  0  0  0  0  0
  152.9318  139.5088  157.2085 N   0  0  0  0  0  0  0  0  0  0  0  0
  153.1356  140.2940  158.2861 N   0  0  0  0  0  0  0  0  0  0  0  0
  152.2737  141.3189  158.2852 C   0  0  0  0  0  0  0  0  0  0  0  0
  152.2080  142.3566  159.3166 C   0  0  0  0  0  0  0  0  0  0  0  0
  152.6194  142.0790  160.6409 C   0  0  0  0  0  0  0  0  0  0  0  0
  152.5515  143.0757  161.6339 C   0  0  0  0  0  0  0  0  0  0  0  0
  152.0725  144.3598  161.3135 C   0  0  0  0  0  0  0  0  0  0  0  0
  151.6625  144.6467  159.9982 C   0  0  0  0  0  0  0  0  0  0  0  0
  151.7298  143.6508  159.0047 C   0  0  0  0  0  0  0  0  0  0  0  0
  151.4740  141.2652  157.2201 N   0  0  0  0  0  0  0  0  0  0  0  0
  151.9656  138.2355  154.9500 C   0  0  0  0  0  0  0  0  0  0  0  0
  150.8543  136.8935  156.2190 H   0  0  0  0  0  0  0  0  0  0  0  0
  151.5050  140.2944  154.5336 H   0  0  0  0  0  0  0  0  0  0  0  0
  153.8418  140.0966  158.9803 H   0  0  0  0  0  0  0  0  0  0  0  0
  150.9665  136.3862  153.4367 H   0  0  0  0  0  0  0  0  0  0  0  0
  149.4526  138.1370  153.8198 H   0  0  0  0  0  0  0  0  0  0  0  0
  148.6995  137.5955  155.3203 H   0  0  0  0  0  0  0  0  0  0  0  0
  149.3735  140.0529  154.9559 H   0  0  0  0  0  0  0  0  0  0  0  0
  152.9894  141.1004  160.9095 H   0  0  0  0  0  0  0  0  0  0  0  0
  152.8666  142.8542  162.6430 H   0  0  0  0  0  0  0  0  0  0  0  0
  152.0200  145.1236  162.0751 H   0  0  0  0  0  0  0  0  0  0  0  0
  151.2949  145.6316  159.7501 H   0  0  0  0  0  0  0  0  0  0  0  0
  151.4094  143.8922  158.0017 H   0  0  0  0  0  0  0  0  0  0  0  0
  152.8729  137.9969  155.5070 H   0  0  0  0  0  0  0  0  0  0  0  0
  152.2311  138.2647  153.8921 H   0  0  0  0  0  0  0  0  0  0  0  0
  1  2  1  0  0  0  0
  1 21  1  0  0  0  0
  2 18  1  0  0  0  0
  2 17  1  0  0  0  0
  2  3  1  0  0  0  0
  3  4  1  0  0  0  0
  3 22  1  0  0  0  0
  3 23  1  0  0  0  0
  4  5  1  0  0  0  0
  4 24  1  0  0  0  0
  5 19  1  0  0  0  0
  5  6  1  0  0  0  0
  5 17  1  0  0  0  0
  6 16  1  0  0  0  0
  6  7  2  0  0  0  0
  7  8  1  0  0  0  0
  8 20  1  0  0  0  0
  8  9  1  0  0  0  0
  9 10  1  0  0  0  0
  9 16  2  0  0  0  0
 10 15  1  0  0  0  0
 10 11  2  0  0  0  0
 11 12  1  0  0  0  0
 11 25  1  0  0  0  0
 12 13  2  0  0  0  0
 12 26  1  0  0  0  0
 13 14  1  0  0  0  0
 13 27  1  0  0  0  0
 14 15  2  0  0  0  0
 14 28  1  0  0  0  0
 15 29  1  0  0  0  0
 17 30  1  0  0  0  0
 17 31  1  0  0  0  0
M  END
> <s_m_source_file>
AV-unprocessed.smi

> <i_m_source_file_index>
47

> <i_lp_mmshare_version>
43012

> <i_f3d_flags>
0

> <s_epik_input>
W09IXVtDQEhdMVtDSDJdW05IXVtDQEBIXShbQ0gyXTEpYzJuW25IXWMobjIpLWMzW2NIXVtjSF1bY0hdW2NIXVtjSF0z

> <s_epik_cmdline>
J2VwaWtfcHl0aG9uJywgJy1waCcsICc3LjAnLCAnLXRuJywgJzgnLCAnLW1hJywgJzIwMCcsICctbWV0YWxfYmluZGluZycsICctaW1hZScsICc8aW5maWxlLm1hZT4nLCAnLW9tYWUnLCAnPG91dGZpbGUubWFlPic=

> <r_epik_Ionization_Penalty>
1.65981

> <r_epik_Ionization_Penalty_Charging>
0

> <r_epik_Ionization_Penalty_Neutral>
1.65981

> <r_epik_State_Penalty>
2.0492

> <r_epik_Charging_Adjusted_Penalty>
2.0492

> <i_epik_Tot_Q>
0

> <i_epik_Tot_abs_Q>
0

> <r_epik_Metal_State_Penalty>
2.54641

> <b_epik_Metal_Only>
0

> <s_lp_Force_Field>
OPLS_2005

> <r_lp_Energy>
25.8544

> <b_lp_Chiralities_Consistent>
1

> <s_lp_Variant>
AV-unprocessed.smi:47-16

> <Gold.Version>
5.8.1

> <Gold.Id.Protein>
6NUR|6NUR_protein|mol2

> <Gold.PLP.Fitness>
44.5118

> <Gold.PLP.PLP>
-37.1940

> <Gold.PLP.part.hbond>
-3.6462

> <Gold.PLP.part.metal>
0.0000

> <Gold.PLP.part.buried>
-2.4365

> <Gold.PLP.part.nonpolar>
-32.2018

> <Gold.PLP.part.repulsive>
1.8547

> <Gold.PLP.ligand.clash>
0.0000

> <Gold.PLP.ligand.torsion>
0.3630

> <Gold.PLP.Chemscore.Hbond>
2.6760

> <Gold.PLP.Chemscore.CHOScore>
0.0000

> <Gold.PLP.Chemscore.Metal>
0.0000

> <Gold.Chemscore.Hbonds>
donor molecule, donor type, donor heavy atom, donor atom, acceptor molecule, acceptor atom, score
      L1  H     1    21       P1  7949  0.89
      P1  H  7997  8008       L1     7  0.60
      P1  H 10752 10765       L1     1  0.89

> <Gold.PLP.Chemscore.Internal.Correction>
0.0159

> <Gold.Rescore>
     Score         DG    S(hbond)    S(metal)    S(lipo)     H(rot)  DE(clash)    DE(int)     intcor
     16.33     -17.31       1.46        0.00      91.91       1.48       0.86       0.12       ----

> <Gold.Chemscore.Fitness>
16.3274

> <Gold.Chemscore.DG>
-17.3073

> <Gold.Chemscore.ZeroCoef>
-5.4800

> <Gold.Chemscore.Hbond>
1.4550

> <Gold.Chemscore.Metal>
0.0000

> <Gold.Chemscore.Lipo>
91.9052

> <Gold.Chemscore.Internal_Hbond>
0.0000

> <Gold.Chemscore.DEClash>
0.8564

> <Gold.Chemscore.DEInternal>
0.1235

> <Gold.Chemscore.Rot>
1.4786

> <Gold.Chemscore.Internal.Correction>
   9.000000E+99

> <Gold.Chemscore.Hbonds>
donor molecule, donor type, donor heavy atom, donor atom, acceptor molecule, acceptor atom, score
      L1  H     1    21       P1  7949  0.16
      P1  H  7997  8008       L1     7  0.02
      P1  H 10752 10765       L1     1  0.09

> <Gold.Chemscore.Hbond.Weighted>
-4.8597

> <Gold.Chemscore.Metal.Weighted>
-0.0000

> <Gold.Chemscore.Lipo.Weighted>
-10.7529

> <Gold.Chemscore.Internal_Hbond.Weighted>
0.0000

> <Gold.Chemscore.DEClash.Weighted>
0.8564

> <Gold.Chemscore.DEInternal.Weighted>
0.1235

> <Gold.Chemscore.Rot.Weighted>
3.7853

> <Gold.Chemscore.Internal.Correction.Weighted>
   9.000000E+99

> <Gold.Protein.RotatedTorsions>
[ 6907 6896 6895 6894 ] final   19.28 input  -60.11 | X-H torsion
[ 7974 7965 7964 7962 ] final  -61.11 input  175.53 | X-H torsion
[ 8008 7997 7996 7995 ] final  -46.58 input   59.86 | X-H torsion
[ 10167 10162 10161 10158 ] final   50.61 input  -65.29 | X-H torsion
[ 10718 10713 10712 10709 ] final  101.14 input   66.30 | X-H torsion
[ 10763 10752 10751 10750 ] final -176.36 input  -60.55 | X-H torsion
[ 11005 11000 10999 10996 ] final -138.80 input  -57.11 | X-H torsion

> <Gold.Protein.ActiveResidues>
 VAL166  LYS551  ARG553  GLY616  TRP617  ASP618  TYR619  PRO620  LYS621  CYS622 
 ASP623  PHE694  ASN695  SER759  ASP760  ASP761  ALA762  ILE779  LEU786  VAL792 
 PHE793  MET794  SER795  GLU796  ALA797  LYS798  CYS799  TRP800  GLU811  SER814 

> <Gold.Protein.RotatedAtoms>
  151.8783  135.0463  160.0485 H   0  0  0  0  0  0  0  0  0  0  0  0  # atno 6907 bound_to 6896
  152.2533  133.5229  159.5346 H   0  0  0  0  0  0  0  0  0  0  0  0  # atno 6908 bound_to 6896
  150.7091  134.0847  159.3953 H   0  0  0  0  0  0  0  0  0  0  0  0  # atno 6909 bound_to 6896
  145.8074  140.8619  143.0200 H   0  0  0  0  0  0  0  0  0  0  0  0  # atno 7974 bound_to 7965
  154.4008  140.1368  156.4034 H   0  0  0  0  0  0  0  0  0  0  0  0  # atno 8008 bound_to 7997
  155.7802  140.3481  155.5273 H   0  0  0  0  0  0  0  0  0  0  0  0  # atno 8009 bound_to 7997
  155.8681  140.0967  157.1559 H   0  0  0  0  0  0  0  0  0  0  0  0  # atno 8010 bound_to 7997
  140.2706  144.3270  150.6291 H   0  0  0  0  0  0  0  0  0  0  0  0  # atno 10167 bound_to 10162
  157.6837  131.0718  150.5207 H   0  0  0  0  0  0  0  0  0  0  0  0  # atno 10718 bound_to 10713
  154.5733  135.2830  155.0806 H   0  0  0  0  0  0  0  0  0  0  0  0  # atno 10763 bound_to 10752
  154.2170  135.6398  153.5136 H   0  0  0  0  0  0  0  0  0  0  0  0  # atno 10764 bound_to 10752
  153.0064  135.5505  154.6363 H   0  0  0  0  0  0  0  0  0  0  0  0  # atno 10765 bound_to 10752
  140.8581  134.2203  157.4723 H   0  0  0  0  0  0  0  0  0  0  0  0  # atno 11005 bound_to 11000
  144.6761  140.0346  143.7482 LP  0  0  0  0  0  0  0  0  0  0  0  0  # atno 17320 bound_to 7965
  145.9814  139.2944  143.1040 LP  0  0  0  0  0  0  0  0  0  0  0  0  # atno 17321 bound_to 7965
  140.5893  143.2168  151.7283 LP  0  0  0  0  0  0  0  0  0  0  0  0  # atno 17342 bound_to 10162
  139.4990  144.3964  152.0227 LP  0  0  0  0  0  0  0  0  0  0  0  0  # atno 17343 bound_to 10162
  156.5520  130.4234  149.6103 LP  0  0  0  0  0  0  0  0  0  0  0  0  # atno 17370 bound_to 10713
  156.2894  130.7116  151.1961 LP  0  0  0  0  0  0  0  0  0  0  0  0  # atno 17371 bound_to 10713
  139.8706  134.9716  156.4743 LP  0  0  0  0  0  0  0  0  0  0  0  0  # atno 17394 bound_to 11000
  140.8714  133.7985  155.9368 LP  0  0  0  0  0  0  0  0  0  0  0  0  # atno 17395 bound_to 11000

$$$$
