#       Name:                AV-unprocessed.smi:2784
#       Creating user name   scv26
#       Creation time:       Fri Mar 27 15:16:38 2020


#       File generated by GOLD software.
#

@<TRIPOS>MOLECULE
AV-unprocessed.smi:2784
    38    39     1
SMALL
NO_CHARGES


@<TRIPOS>ATOM
      1 ****        -1.3281   1.1086   2.5620 C.3            1 S1                 0.0000
      2 ****        -0.7588   0.0437   1.8177 O.3            1 S1                 0.0000
      3 ****         0.6603  -0.0371   1.9222 C.3            1 S1                 0.0000
      4 ****         1.0249  -0.8903   3.1420 C.3            1 S1                 0.0000
      5 ****         0.8832  -2.3273   2.6475 C.3            1 S1                 0.0000
      6 ****         1.3618  -2.2918   1.1931 C.3            1 S1                 0.0000
      7 ****         1.2351  -0.8285   0.7251 C.3            1 S1                 0.0000
      8 ****         0.4140  -0.7253  -0.4795 N.am           1 S1                 0.0000
      9 ****         0.3460   0.3568  -1.2680 C.2            1 S1                 0.0000
     10 ****         0.9848   1.3891  -1.0608 O.2            1 S1                 0.0000
     11 ****        -0.5013   0.1621  -2.2921 N.am           1 S1                 0.0000
     12 ****        -0.8375   1.0784  -3.3201 C.2            1 S1                 0.0000
     13 ****        -0.3715   2.3204  -3.4619 N.2            1 S1                 0.0000
     14 ****        -0.9948   2.7992  -4.6051 C.2            1 S1                 0.0000
     15 ****        -1.8096   1.8107  -5.0939 C.2            1 S1                 0.0000
     16 ****        -1.7198   0.7091  -4.2858 O.3            1 S1                 0.0000
     17 ****        -2.4115   1.0965   2.4437 H              1 S1                 0.0000
     18 ****        -0.9644   2.0729   2.2054 H              1 S1                 0.0000
     19 ****        -1.1066   1.0240   3.6259 H              1 S1                 0.0000
     20 ****         1.1014   0.9603   1.9677 H              1 S1                 0.0000
     21 ****         2.0631  -0.7028   3.4190 H              1 S1                 0.0000
     22 ****         0.4109  -0.6875   4.0193 H              1 S1                 0.0000
     23 ****         1.4436  -3.0370   3.2562 H              1 S1                 0.0000
     24 ****        -0.1670  -2.6203   2.6801 H              1 S1                 0.0000
     25 ****         2.4051  -2.6049   1.1353 H              1 S1                 0.0000
     26 ****         0.7864  -2.9862   0.5789 H              1 S1                 0.0000
     27 ****         2.2389  -0.4595   0.5058 H              1 S1                 0.0000
     28 ****        -0.1494  -1.5285  -0.7169 H              1 S1                 0.0000
     29 ****        -0.9578  -0.7365  -2.3404 H              1 S1                 0.0000
     30 ****        -0.8115   3.7961  -4.9778 H              1 S1                 0.0000
     31 ****        -2.4709   1.7364  -5.9445 H              1 S1                 0.0000
     32 ****        -0.9973   0.1693   0.8547 LP             1 S1                 0.0000
     33 ****        -1.1487  -0.8158   2.1483 LP             1 S1                 0.0000
     34 ****         1.5937   1.4500  -0.2699 LP             1 S1                 0.0000
     35 ****         0.8947   2.1663  -1.6835 LP             1 S1                 0.0000
     36 ****         0.2814   2.7993  -2.8751 LP             1 S1                 0.0000
     37 ****        -2.6098   0.4872  -3.8876 LP             1 S1                 0.0000
     38 ****        -1.3774  -0.0793  -4.7969 LP             1 S1                 0.0000
@<TRIPOS>BOND
    1    1    2 1     
    2    1   17 1     
    3    1   18 1     
    4    1   19 1     
    5    2    3 1     
    6    3    7 1     
    7    3    4 1     
    8    3   20 1     
    9    4    5 1     
   10    4   21 1     
   11    4   22 1     
   12    5    6 1     
   13    5   23 1     
   14    5   24 1     
   15    6    7 1     
   16    6   25 1     
   17    6   26 1     
   18    7    8 1     
   19    7   27 1     
   20    8    9 am    
   21    8   28 1     
   22    9   10 2     
   23    9   11 am    
   24   11   12 1     
   25   11   29 1     
   26   12   16 1     
   27   12   13 2     
   28   13   14 1     
   29   14   15 2     
   30   14   30 1     
   31   15   16 1     
   32   15   31 1     
   33    2   32 1     
   34    2   33 1     
   35   10   34 1     
   36   10   35 1     
   37   13   36 1     
   38   16   37 1     
   39   16   38 1     
@<TRIPOS>SUBSTRUCTURE
      1 S1             1
@<TRIPOS>SET
LONE_PAIRS      STATIC     ATOMS    <user>   **** ""
7 32 33 34 35 36 37 38
DONOR_HYDROGENS      STATIC     ATOMS    <user>   **** ""
2 28 29
ATOM$BLUE        STATIC     ATOMS    COLORGROUP SYSTEM
7 32 33 34 35 36 37 38
ATOM$RED        STATIC     ATOMS    COLORGROUP SYSTEM
2 28 29
