#       Name:                AV-unprocessed.smi:148
#       Creating user name   scv26
#       Creation time:       Thu Mar 26 18:37:31 2020


#       File generated by GOLD software.
#

@<TRIPOS>MOLECULE
AV-unprocessed.smi:148
    73    77     1
SMALL
NO_CHARGES


@<TRIPOS>ATOM
      1 ****        -2.1564  -3.5401   1.6276 O.3            1 S1                 0.0000
      2 ****        -0.8501  -3.0965   1.9300 C.3            1 S1                 0.0000
      3 ****        -0.8685  -1.9829   3.0034 C.3            1 S1                 0.0000
      4 ****         0.5214  -1.3088   3.1471 C.3            1 S1                 0.0000
      5 ****         0.9589  -0.6594   1.9242 N.pl3          1 S1                 0.0000
      6 ****         1.9524  -1.0851   1.0702 C.2            1 S1                 0.0000
      7 ****         2.1480  -0.3304   0.0232 N.2            1 S1                 0.0000
      8 ****         1.2255   0.6963   0.1749 C.ar           1 S1                 0.0000
      9 ****         0.8783   1.8326  -0.6008 C.ar           1 S1                 0.0000
     10 ****         1.4926   2.1105  -1.7711 N.3            1 S1                 0.0000
     11 ****         2.2532   3.3568  -1.6531 C.3            1 S1                 0.0000
     12 ****         3.2084   3.5431  -2.8355 C.3            1 S1                 0.0000
     13 ****         2.4266   3.4796  -4.1482 C.3            1 S1                 0.0000
     14 ****         1.6406   2.1644  -4.2247 C.3            1 S1                 0.0000
     15 ****         0.6968   1.9550  -3.0076 C.3            1 S1                 0.0000
     16 ****        -0.0478   0.5778  -3.1250 C.3            1 S1                 0.0000
     17 ****        -1.2661   0.3554  -2.1995 C.3            1 S1                 0.0000
     18 ****        -2.1660  -0.6891  -2.8754 C.3            1 S1                 0.0000
     19 ****        -1.5599  -0.9430  -4.2575 C.3            1 S1                 0.0000
     20 ****        -0.6371   0.2487  -4.5139 C.3            1 S1                 0.0000
     21 ****        -1.4183   1.3203  -5.0138 O.3            1 S1                 0.0000
     22 ****        -0.1042   2.6493  -0.1360 N.ar           1 S1                 0.0000
     23 ****        -0.7174   2.3613   1.0165 C.ar           1 S1                 0.0000
     24 ****        -0.5102   1.3293   1.8383 N.ar           1 S1                 0.0000
     25 ****         0.4781   0.5134   1.3707 C.ar           1 S1                 0.0000
     26 ****        -1.4505  -2.4876   4.3528 C.3            1 S1                 0.0000
     27 ****        -1.7564  -1.4068   5.3912 C.3            1 S1                 0.0000
     28 ****        -1.1748  -1.9614   6.6931 C.3            1 S1                 0.0000
     29 ****        -1.0535  -3.3556   6.4598 O.3            1 S1                 0.0000
     30 ****        -0.6011  -3.5046   5.1249 C.3            1 S1                 0.0000
     31 ****        -2.1000  -4.2151   0.9687 H              1 S1                 0.0000
     32 ****        -0.2468  -3.9434   2.2577 H              1 S1                 0.0000
     33 ****        -0.4133  -2.7379   0.9983 H              1 S1                 0.0000
     34 ****        -1.5555  -1.2148   2.6447 H              1 S1                 0.0000
     35 ****         0.5189  -0.5549   3.9331 H              1 S1                 0.0000
     36 ****         1.2776  -2.0419   3.4266 H              1 S1                 0.0000
     37 ****         2.5231  -1.9860   1.2427 H              1 S1                 0.0000
     38 ****         1.5637   4.2012  -1.6058 H              1 S1                 0.0000
     39 ****         2.8246   3.3604  -0.7232 H              1 S1                 0.0000
     40 ****         3.7283   4.4978  -2.7518 H              1 S1                 0.0000
     41 ****         3.9733   2.7656  -2.8196 H              1 S1                 0.0000
     42 ****         1.7399   4.3245  -4.2131 H              1 S1                 0.0000
     43 ****         3.1072   3.5621  -4.9961 H              1 S1                 0.0000
     44 ****         1.0844   2.1680  -5.1607 H              1 S1                 0.0000
     45 ****         2.3423   1.3314  -4.2883 H              1 S1                 0.0000
     46 ****        -0.0481   2.7522  -3.0212 H              1 S1                 0.0000
     47 ****         0.6775  -0.2076  -2.9044 H              1 S1                 0.0000
     48 ****        -0.9838   0.0111  -1.2067 H              1 S1                 0.0000
     49 ****        -1.8209   1.2866  -2.0777 H              1 S1                 0.0000
     50 ****        -2.2174  -1.6119  -2.2965 H              1 S1                 0.0000
     51 ****        -3.1820  -0.3031  -2.9653 H              1 S1                 0.0000
     52 ****        -0.9642  -1.8563  -4.2247 H              1 S1                 0.0000
     53 ****        -2.3157  -1.0771  -5.0326 H              1 S1                 0.0000
     54 ****         0.1338  -0.0038  -5.2429 H              1 S1                 0.0000
     55 ****        -0.8577   2.0720  -5.1296 H              1 S1                 0.0000
     56 ****        -1.4877   3.0542   1.3215 H              1 S1                 0.0000
     57 ****        -2.4058  -2.9736   4.1496 H              1 S1                 0.0000
     58 ****        -1.3348  -0.4306   5.1539 H              1 S1                 0.0000
     59 ****        -2.8355  -1.2746   5.4806 H              1 S1                 0.0000
     60 ****        -0.1853  -1.5416   6.8807 H              1 S1                 0.0000
     61 ****        -1.8041  -1.7525   7.5585 H              1 S1                 0.0000
     62 ****        -0.7411  -4.5251   4.7676 H              1 S1                 0.0000
     63 ****         0.4636  -3.2753   5.0916 H              1 S1                 0.0000
     64 ****        -2.7002  -2.7757   1.2813 LP             1 S1                 0.0000
     65 ****        -2.5864  -3.9087   2.4517 LP             1 S1                 0.0000
     66 ****         2.8085  -0.4613  -0.7161 LP             1 S1                 0.0000
     67 ****         2.1445   1.3676  -1.9236 LP             1 S1                 0.0000
     68 ****        -2.1459   1.5392  -4.3636 LP             1 S1                 0.0000
     69 ****        -1.8222   1.0624  -5.8915 LP             1 S1                 0.0000
     70 ****        -0.3674   3.4628  -0.6546 LP             1 S1                 0.0000
     71 ****        -1.0148   1.1744   2.6876 LP             1 S1                 0.0000
     72 ****        -1.9401  -3.8034   6.5757 LP             1 S1                 0.0000
     73 ****        -0.3926  -3.7556   7.0948 LP             1 S1                 0.0000
@<TRIPOS>BOND
    1    1    2 1     
    2    1   31 1     
    3    2    3 1     
    4    2   32 1     
    5    2   33 1     
    6    3    4 1     
    7    3   26 1     
    8    3   34 1     
    9    4    5 1     
   10    4   35 1     
   11    4   36 1     
   12    5   25 1     
   13    5    6 1     
   14    6    7 2     
   15    6   37 1     
   16    7    8 1     
   17    8   25 ar    
   18    8    9 ar    
   19    9   10 1     
   20    9   22 ar    
   21   10   15 1     
   22   10   11 1     
   23   11   12 1     
   24   11   38 1     
   25   11   39 1     
   26   12   13 1     
   27   12   40 1     
   28   12   41 1     
   29   13   14 1     
   30   13   42 1     
   31   13   43 1     
   32   14   15 1     
   33   14   44 1     
   34   14   45 1     
   35   15   16 1     
   36   15   46 1     
   37   16   20 1     
   38   16   17 1     
   39   16   47 1     
   40   17   18 1     
   41   17   48 1     
   42   17   49 1     
   43   18   19 1     
   44   18   50 1     
   45   18   51 1     
   46   19   20 1     
   47   19   52 1     
   48   19   53 1     
   49   20   21 1     
   50   20   54 1     
   51   21   55 1     
   52   22   23 ar    
   53   23   24 ar    
   54   23   56 1     
   55   24   25 ar    
   56   26   30 1     
   57   26   27 1     
   58   26   57 1     
   59   27   28 1     
   60   27   58 1     
   61   27   59 1     
   62   28   29 1     
   63   28   60 1     
   64   28   61 1     
   65   29   30 1     
   66   30   62 1     
   67   30   63 1     
   68    1   64 1     
   69    1   65 1     
   70    7   66 1     
   71   10   67 1     
   72   21   68 1     
   73   21   69 1     
   74   22   70 1     
   75   24   71 1     
   76   29   72 1     
   77   29   73 1     
@<TRIPOS>SUBSTRUCTURE
      1 S1             1
@<TRIPOS>SET
LONE_PAIRS      STATIC     ATOMS    <user>   **** ""
10 64 65 66 67 68 69 70 71 72 73
DONOR_HYDROGENS      STATIC     ATOMS    <user>   **** ""
2 31 55
ATOM$BLUE        STATIC     ATOMS    COLORGROUP SYSTEM
10 64 65 66 67 68 69 70 71 72 73
ATOM$RED        STATIC     ATOMS    COLORGROUP SYSTEM
2 31 55
