#       Name:                AV-unprocessed.smi:1243
#       Creating user name   scv26
#       Creation time:       Fri Mar 27 04:31:35 2020


#       File generated by GOLD software.
#

@<TRIPOS>MOLECULE
AV-unprocessed.smi:1243
    57    58     1
SMALL
NO_CHARGES


@<TRIPOS>ATOM
      1 ****        -3.6949   5.8001   0.9694 C.3            1 S1                 0.0000
      2 ****        -2.8631   4.7523   0.4831 O.3            1 S1                 0.0000
      3 ****        -2.4863   4.7721  -0.8463 C.ar           1 S1                 0.0000
      4 ****        -2.9068   5.8033  -1.6212 N.ar           1 S1                 0.0000
      5 ****        -2.5376   5.8250  -2.9184 C.ar           1 S1                 0.0000
      6 ****        -1.7317   4.8332  -3.5066 C.ar           1 S1                 0.0000
      7 ****        -1.2937   3.7629  -2.7051 C.ar           1 S1                 0.0000
      8 ****        -1.6851   3.7184  -1.3450 C.ar           1 S1                 0.0000
      9 ****        -1.2815   2.6949  -0.4442 N.am           1 S1                 0.0000
     10 ****        -0.9209   1.4316  -0.7243 C.2            1 S1                 0.0000
     11 ****        -0.8956   0.9306  -1.8483 O.2            1 S1                 0.0000
     12 ****        -0.5983   0.7617   0.3914 N.am           1 S1                 0.0000
     13 ****        -0.1924  -0.6420   0.4543 C.3            1 S1                 0.0000
     14 ****         1.3503  -0.8412   0.5591 C.3            1 S1                 0.0000
     15 ****         2.0623  -0.2178  -0.6684 C.3            1 S1                 0.0000
     16 ****         1.8913  -0.0838   1.7976 C.3            1 S1                 0.0000
     17 ****         1.7081  -2.3028   0.6597 N.4            1 S1                 1.0000
     18 ****         1.4033  -3.1317  -0.5421 C.3            1 S1                 0.0000
     19 ****         2.0144  -4.5419  -0.4037 C.3            1 S1                 0.0000
     20 ****         1.5458  -5.2353   0.7954 N.3            1 S1                 0.0000
     21 ****         0.1516  -5.6564   0.7085 C.3            1 S1                 0.0000
     22 ****         1.8324  -4.4220   1.9763 C.3            1 S1                 0.0000
     23 ****         1.2182  -3.0099   1.8779 C.3            1 S1                 0.0000
     24 ****        -3.9026   5.6338   2.0264 H              1 S1                 0.0000
     25 ****        -4.6509   5.8257   0.4442 H              1 S1                 0.0000
     26 ****        -3.2091   6.7724   0.8772 H              1 S1                 0.0000
     27 ****        -2.8897   6.6618  -3.5032 H              1 S1                 0.0000
     28 ****        -1.4517   4.8944  -4.5478 H              1 S1                 0.0000
     29 ****        -0.6571   3.0095  -3.1427 H              1 S1                 0.0000
     30 ****        -1.3442   2.9350   0.5345 H              1 S1                 0.0000
     31 ****        -0.6520   1.2571   1.2695 H              1 S1                 0.0000
     32 ****        -0.6909  -1.0592   1.3284 H              1 S1                 0.0000
     33 ****        -0.5998  -1.1788  -0.4026 H              1 S1                 0.0000
     34 ****         2.0137   0.8715  -0.6561 H              1 S1                 0.0000
     35 ****         1.6110  -0.5283  -1.6107 H              1 S1                 0.0000
     36 ****         3.1189  -0.4870  -0.6956 H              1 S1                 0.0000
     37 ****         1.8299   0.9974   1.6681 H              1 S1                 0.0000
     38 ****         2.9390  -0.3234   1.9845 H              1 S1                 0.0000
     39 ****         1.3278  -0.3101   2.7024 H              1 S1                 0.0000
     40 ****         0.3281  -3.1963  -0.7054 H              1 S1                 0.0000
     41 ****         1.8268  -2.6903  -1.4417 H              1 S1                 0.0000
     42 ****         1.7872  -5.1428  -1.2851 H              1 S1                 0.0000
     43 ****         3.1014  -4.4640  -0.3567 H              1 S1                 0.0000
     44 ****        -0.1284  -6.2190   1.5997 H              1 S1                 0.0000
     45 ****         0.0090  -6.3106  -0.1522 H              1 S1                 0.0000
     46 ****        -0.5362  -4.8174   0.6105 H              1 S1                 0.0000
     47 ****         1.4684  -4.9330   2.8685 H              1 S1                 0.0000
     48 ****         2.9146  -4.3416   2.0882 H              1 S1                 0.0000
     49 ****         1.5021  -2.4754   2.7819 H              1 S1                 0.0000
     50 ****         0.1303  -3.0688   1.8803 H              1 S1                 0.0000
     51 ****         2.7151  -2.3146   0.7363 H              1 S1                 0.0000
     52 ****        -3.3496   3.8927   0.6392 LP             1 S1                 0.0000
     53 ****        -2.0245   4.7643   1.0277 LP             1 S1                 0.0000
     54 ****        -3.4773   6.5305  -1.2395 LP             1 S1                 0.0000
     55 ****        -1.1578   1.4756  -2.6447 LP             1 S1                 0.0000
     56 ****        -0.6129  -0.0215  -1.9651 LP             1 S1                 0.0000
     57 ****         2.0534  -6.0928   0.8786 LP             1 S1                 0.0000
@<TRIPOS>BOND
    1    1    2 1     
    2    1   24 1     
    3    1   25 1     
    4    1   26 1     
    5    2    3 1     
    6    3    8 ar    
    7    3    4 ar    
    8    4    5 ar    
    9    5    6 ar    
   10    5   27 1     
   11    6    7 ar    
   12    6   28 1     
   13    7    8 ar    
   14    7   29 1     
   15    8    9 1     
   16    9   10 am    
   17    9   30 1     
   18   10   11 2     
   19   10   12 am    
   20   12   13 1     
   21   12   31 1     
   22   13   14 1     
   23   13   32 1     
   24   13   33 1     
   25   14   15 1     
   26   14   16 1     
   27   14   17 1     
   28   15   34 1     
   29   15   35 1     
   30   15   36 1     
   31   16   37 1     
   32   16   38 1     
   33   16   39 1     
   34   17   23 1     
   35   17   18 1     
   36   17   51 1     
   37   18   19 1     
   38   18   40 1     
   39   18   41 1     
   40   19   20 1     
   41   19   42 1     
   42   19   43 1     
   43   20   21 1     
   44   20   22 1     
   45   21   44 1     
   46   21   45 1     
   47   21   46 1     
   48   22   23 1     
   49   22   47 1     
   50   22   48 1     
   51   23   49 1     
   52   23   50 1     
   53    2   52 1     
   54    2   53 1     
   55    4   54 1     
   56   11   55 1     
   57   11   56 1     
   58   20   57 1     
@<TRIPOS>SUBSTRUCTURE
      1 S1             1
@<TRIPOS>SET
LONE_PAIRS      STATIC     ATOMS    <user>   **** ""
6 52 53 54 55 56 57
DONOR_HYDROGENS      STATIC     ATOMS    <user>   **** ""
3 30 31 51
ATOM$BLUE        STATIC     ATOMS    COLORGROUP SYSTEM
6 52 53 54 55 56 57
ATOM$RED        STATIC     ATOMS    COLORGROUP SYSTEM
3 30 31 51
