AV-unprocessed.smi:3155|AV-procd|sdf|12028|dock6
  -GOLD-   2272017443D 1   1.00000     0.00000
 Structure written by MMmdl.
 37 38  0  0  0  0  0  0  0  0  1 V2000
  151.8150  140.7838  156.8576 C   0  0  0  0  0  0  0  0  0  0  0  0
  150.6415  141.6441  156.3673 C   0  0  1  0  0  0  0  0  0  0  0  0
  149.3304  140.8231  156.3657 C   0  0  0  0  0  0  0  0  0  0  0  0
  148.4902  141.0658  155.2059 N   0  0  0  0  0  0  0  0  0  0  0  0
  147.7577  142.1936  154.8983 C   0  0  0  0  0  0  0  0  0  0  0  0
  147.1389  141.9638  153.7032 C   0  0  0  0  0  0  0  0  0  0  0  0
  147.5719  140.6570  153.3446 C   0  0  0  0  0  0  0  0  0  0  0  0
  148.3877  140.1266  154.2409 N   0  0  0  0  0  0  0  0  0  0  0  0
  150.5536  142.7907  157.2682 N   0  0  0  0  0  0  0  0  0  0  0  0
  151.7778  143.6020  157.2787 C   0  0  0  0  0  0  0  0  0  0  0  0
  151.9622  144.3260  158.6166 C   0  0  0  0  0  0  0  0  0  0  0  0
  151.7346  145.5349  158.6686 O   0  0  0  0  0  0  0  0  0  0  0  0
  152.3647  143.6215  159.6958 N   0  0  0  0  0  0  0  0  0  0  0  0
  152.6813  142.1942  159.7212 C   0  0  0  0  0  0  0  0  0  0  0  0
  153.3261  141.9362  161.0826 C   0  0  0  0  0  0  0  0  0  0  0  0
  152.7677  143.0371  161.9731 C   0  0  0  0  0  0  0  0  0  0  0  0
  152.5485  144.2124  161.0201 C   0  0  0  0  0  0  0  0  0  0  0  0
  151.9611  139.9178  156.2112 H   0  0  0  0  0  0  0  0  0  0  0  0
  151.6458  140.4153  157.8702 H   0  0  0  0  0  0  0  0  0  0  0  0
  152.7478  141.3489  156.8588 H   0  0  0  0  0  0  0  0  0  0  0  0
  150.8848  141.9710  155.3550 H   0  0  0  0  0  0  0  0  0  0  0  0
  149.5647  139.7579  156.3684 H   0  0  0  0  0  0  0  0  0  0  0  0
  148.7593  141.0116  157.2769 H   0  0  0  0  0  0  0  0  0  0  0  0
  147.7333  143.0533  155.5518 H   0  0  0  0  0  0  0  0  0  0  0  0
  146.4801  142.6289  153.1650 H   0  0  0  0  0  0  0  0  0  0  0  0
  147.3216  140.0827  152.4647 H   0  0  0  0  0  0  0  0  0  0  0  0
  150.3508  142.4509  158.1977 H   0  0  0  0  0  0  0  0  0  0  0  0
  152.6406  142.9553  157.1121 H   0  0  0  0  0  0  0  0  0  0  0  0
  151.7749  144.3275  156.4678 H   0  0  0  0  0  0  0  0  0  0  0  0
  151.7576  141.6220  159.6239 H   0  0  0  0  0  0  0  0  0  0  0  0
  153.3526  141.9037  158.9124 H   0  0  0  0  0  0  0  0  0  0  0  0
  153.1213  140.9355  161.4644 H   0  0  0  0  0  0  0  0  0  0  0  0
  154.4083  142.0474  161.0006 H   0  0  0  0  0  0  0  0  0  0  0  0
  151.8105  142.7187  162.3880 H   0  0  0  0  0  0  0  0  0  0  0  0
  153.4274  143.2841  162.8053 H   0  0  0  0  0  0  0  0  0  0  0  0
  153.4264  144.8595  161.0012 H   0  0  0  0  0  0  0  0  0  0  0  0
  151.6900  144.8136  161.3240 H   0  0  0  0  0  0  0  0  0  0  0  0
  1  2  1  0  0  0  0
  1 18  1  0  0  0  0
  1 19  1  0  0  0  0
  1 20  1  0  0  0  0
  2  3  1  0  0  0  0
  2  9  1  0  0  0  0
  2 21  1  0  0  0  0
  3  4  1  0  0  0  0
  3 22  1  0  0  0  0
  3 23  1  0  0  0  0
  4  8  1  0  0  0  0
  4  5  1  0  0  0  0
  5  6  2  0  0  0  0
  5 24  1  0  0  0  0
  6  7  1  0  0  0  0
  6 25  1  0  0  0  0
  7  8  2  0  0  0  0
  7 26  1  0  0  0  0
  9 10  1  0  0  0  0
  9 27  1  0  0  0  0
 10 11  1  0  0  0  0
 10 28  1  0  0  0  0
 10 29  1  0  0  0  0
 11 12  2  0  0  0  0
 11 13  1  0  0  0  0
 13 17  1  0  0  0  0
 13 14  1  0  0  0  0
 14 15  1  0  0  0  0
 14 30  1  0  0  0  0
 14 31  1  0  0  0  0
 15 16  1  0  0  0  0
 15 32  1  0  0  0  0
 15 33  1  0  0  0  0
 16 17  1  0  0  0  0
 16 34  1  0  0  0  0
 16 35  1  0  0  0  0
 17 36  1  0  0  0  0
 17 37  1  0  0  0  0
M  END
> <s_m_source_file>
AV-unprocessed.smi

> <i_m_source_file_index>
3155

> <i_lp_mmshare_version>
43012

> <i_f3d_flags>
0

> <s_epik_input>
bjFbY0hdW2NIXVtjSF1uMVtDSDJdW0NAQEhdKFtDSDNdKVtOSF1bQ0gyXUMoPU8pTjJbQ0gyXVtDSDJdW0NIMl1bQ0gyXTI=

> <s_epik_cmdline>
J2VwaWtfcHl0aG9uJywgJy1waCcsICc3LjAnLCAnLXRuJywgJzgnLCAnLW1hJywgJzIwMCcsICctbWV0YWxfYmluZGluZycsICctaW1hZScsICc8aW5maWxlLm1hZT4nLCAnLW9tYWUnLCAnPG91dGZpbGUubWFlPic=

> <r_lp_tautomer_probability>
1

> <r_epik_Ionization_Penalty>
1.00455

> <r_epik_Ionization_Penalty_Charging>
0

> <r_epik_Ionization_Penalty_Neutral>
1.00455

> <r_epik_State_Penalty>
1.05336

> <r_epik_Charging_Adjusted_Penalty>
1.05336

> <i_epik_Tot_Q>
0

> <i_epik_Tot_abs_Q>
0

> <r_epik_Metal_State_Penalty>
1.05331

> <b_epik_Metal_Only>
0

> <s_lp_Force_Field>
OPLS_2005

> <r_lp_Energy>
30.9369

> <b_lp_Chiralities_Consistent>
1

> <s_lp_Variant>
AV-unprocessed.smi:3155-4

> <Gold.Version>
5.8.1

> <Gold.Id.Protein>
6NUR|6NUR_protein|mol2

> <Gold.PLP.Fitness>
44.5694

> <Gold.PLP.PLP>
-42.6169

> <Gold.PLP.part.hbond>
-2.0000

> <Gold.PLP.part.metal>
0.0000

> <Gold.PLP.part.buried>
-2.4121

> <Gold.PLP.part.nonpolar>
-36.8817

> <Gold.PLP.part.repulsive>
0.2763

> <Gold.PLP.ligand.clash>
0.0000

> <Gold.PLP.ligand.torsion>
1.0636

> <Gold.PLP.Chemscore.Hbond>
0.0000

> <Gold.PLP.Chemscore.CHOScore>
1.3537

> <Gold.PLP.Chemscore.Metal>
0.0000

> <Gold.Chemscore.Hbonds>
donor molecule, donor type, donor heavy atom, donor atom, acceptor molecule, acceptor atom, score
      L1  C     5    24       P1  8028  0.92
      L1  C     7    26       P1  7957  0.37

> <Gold.PLP.Chemscore.Internal.Correction>
0.0186

> <Gold.Rescore>
     Score         DG    S(hbond)    S(metal)    S(lipo)     H(rot)  DE(clash)    DE(int)     intcor
     10.11     -12.46       0.00        0.00      98.41       1.77       1.24       1.11       ----

> <Gold.Chemscore.Fitness>
10.1125

> <Gold.Chemscore.DG>
-12.4649

> <Gold.Chemscore.ZeroCoef>
-5.4800

> <Gold.Chemscore.Hbond>
0.0000

> <Gold.Chemscore.Metal>
0.0000

> <Gold.Chemscore.Lipo>
98.4125

> <Gold.Chemscore.Internal_Hbond>
0.0000

> <Gold.Chemscore.DEClash>
1.2384

> <Gold.Chemscore.DEInternal>
1.1140

> <Gold.Chemscore.Rot>
1.7693

> <Gold.Chemscore.Internal.Correction>
   9.000000E+99

> <Gold.Chemscore.Hbond.Weighted>
-0.0000

> <Gold.Chemscore.Metal.Weighted>
-0.0000

> <Gold.Chemscore.Lipo.Weighted>
-11.5143

> <Gold.Chemscore.Internal_Hbond.Weighted>
0.0000

> <Gold.Chemscore.DEClash.Weighted>
1.2384

> <Gold.Chemscore.DEInternal.Weighted>
1.1140

> <Gold.Chemscore.Rot.Weighted>
4.5294

> <Gold.Chemscore.Internal.Correction.Weighted>
   9.000000E+99

> <Gold.Protein.RotatedTorsions>
[ 6907 6896 6895 6894 ] final  141.59 input  -60.11 | X-H torsion
[ 7974 7965 7964 7962 ] final  -93.19 input  175.53 | X-H torsion
[ 8008 7997 7996 7995 ] final   91.48 input   59.86 | X-H torsion
[ 10167 10162 10161 10158 ] final   15.43 input  -65.29 | X-H torsion
[ 10718 10713 10712 10709 ] final  -83.17 input   66.30 | X-H torsion
[ 10763 10752 10751 10750 ] final  -79.79 input  -60.55 | X-H torsion
[ 11005 11000 10999 10996 ] final -137.73 input  -57.11 | X-H torsion

> <Gold.Protein.ActiveResidues>
 VAL166  LYS551  ARG553  GLY616  TRP617  ASP618  TYR619  PRO620  LYS621  CYS622 
 ASP623  PHE694  ASN695  SER759  ASP760  ASP761  ALA762  ILE779  LEU786  VAL792 
 PHE793  MET794  SER795  GLU796  ALA797  LYS798  CYS799  TRP800  GLU811  SER814 

> <Gold.Protein.RotatedAtoms>
  152.2291  133.5044  159.5205 H   0  0  0  0  0  0  0  0  0  0  0  0  # atno 6907 bound_to 6896
  150.7032  134.1241  159.4054 H   0  0  0  0  0  0  0  0  0  0  0  0  # atno 6908 bound_to 6896
  151.9162  135.0318  160.0569 H   0  0  0  0  0  0  0  0  0  0  0  0  # atno 6909 bound_to 6896
  145.3898  140.9527  143.2347 H   0  0  0  0  0  0  0  0  0  0  0  0  # atno 7974 bound_to 7965
  156.0242  140.3337  155.7071 H   0  0  0  0  0  0  0  0  0  0  0  0  # atno 8008 bound_to 7997
  155.5978  140.0652  157.2759 H   0  0  0  0  0  0  0  0  0  0  0  0  # atno 8009 bound_to 7997
  154.4328  140.1815  156.1130 H   0  0  0  0  0  0  0  0  0  0  0  0  # atno 8010 bound_to 7997
  140.5867  143.8875  150.6837 H   0  0  0  0  0  0  0  0  0  0  0  0  # atno 10167 bound_to 10162
  156.0022  130.4657  150.4216 H   0  0  0  0  0  0  0  0  0  0  0  0  # atno 10718 bound_to 10713
  154.5431  135.5683  153.6856 H   0  0  0  0  0  0  0  0  0  0  0  0  # atno 10763 bound_to 10752
  152.9969  135.6232  154.2475 H   0  0  0  0  0  0  0  0  0  0  0  0  # atno 10764 bound_to 10752
  154.2407  135.2862  155.2834 H   0  0  0  0  0  0  0  0  0  0  0  0  # atno 10765 bound_to 10752
  140.8683  134.2083  157.4666 H   0  0  0  0  0  0  0  0  0  0  0  0  # atno 11005 bound_to 11000
  144.8448  139.5414  143.6883 LP  0  0  0  0  0  0  0  0  0  0  0  0  # atno 17320 bound_to 7965
  146.2803  139.6859  142.9234 LP  0  0  0  0  0  0  0  0  0  0  0  0  # atno 17321 bound_to 7965
  140.2388  143.3680  152.1504 LP  0  0  0  0  0  0  0  0  0  0  0  0  # atno 17342 bound_to 10162
  139.5202  144.7030  151.5438 LP  0  0  0  0  0  0  0  0  0  0  0  0  # atno 17343 bound_to 10162
  157.2272  131.0496  151.2513 LP  0  0  0  0  0  0  0  0  0  0  0  0  # atno 17370 bound_to 10713
  157.3745  130.7199  149.6588 LP  0  0  0  0  0  0  0  0  0  0  0  0  # atno 17371 bound_to 10713
  139.8710  134.9762  156.4913 LP  0  0  0  0  0  0  0  0  0  0  0  0  # atno 17394 bound_to 11000
  140.8603  133.8065  155.9258 LP  0  0  0  0  0  0  0  0  0  0  0  0  # atno 17395 bound_to 11000

$$$$
