AV-unprocessed.smi:379|AV-procd|sdf|2459|dock6
  -GOLD-   2262022403D 1   1.00000     0.00000
 Structure written by MMmdl.
 39 40  0  0  0  0  0  0  0  0  1 V2000
  159.4677  141.6173  157.8313 C   0  0  0  0  0  0  0  0  0  0  0  0
  157.9855  141.4604  158.2022 C   0  0  0  0  0  0  0  0  0  0  0  0
  157.6590  140.1630  158.9694 C   0  0  1  0  0  0  0  0  0  0  0  0
  158.6158  139.9520  160.1511 C   0  0  0  0  0  0  0  0  0  0  0  0
  156.2843  140.1829  159.4668 N   0  0  0  0  0  0  0  0  0  0  0  0
  155.2643  139.4494  158.9938 C   0  0  0  0  0  0  0  0  0  0  0  0
  155.3804  138.6413  158.0713 O   0  0  0  0  0  0  0  0  0  0  0  0
  153.9077  139.6691  159.6795 C   0  0  0  0  0  0  0  0  0  0  0  0
  153.0279  140.6015  158.9415 N   0  0  0  0  0  0  0  0  0  0  0  0
  152.5862  140.2272  157.6464 C   0  0  0  0  0  0  0  0  0  0  0  0
  152.9461  139.1647  157.1357 O   0  0  0  0  0  0  0  0  0  0  0  0
  151.6826  141.1705  156.9925 C   0  0  0  0  0  0  0  0  0  0  0  0
  151.1914  140.8141  155.7029 C   0  0  0  0  0  0  0  0  0  0  0  0
  150.7710  140.5182  154.6660 N   0  0  0  0  0  0  0  0  0  0  0  0
  151.3289  142.3247  157.5943 C   0  0  0  0  0  0  0  0  0  0  0  0
  151.8003  142.6877  158.8371 N   0  0  0  0  0  0  0  0  0  0  0  0
  151.2896  143.8406  159.5235 C   0  0  0  0  0  0  0  0  0  0  0  0
  150.2085  144.6685  158.8635 C   0  0  0  0  0  0  0  0  0  0  0  0
  151.5996  145.2345  159.0132 C   0  0  0  0  0  0  0  0  0  0  0  0
  152.6247  141.8050  159.5691 C   0  0  0  0  0  0  0  0  0  0  0  0
  152.9739  142.0675  160.7227 O   0  0  0  0  0  0  0  0  0  0  0  0
  159.6476  142.5847  157.3623 H   0  0  0  0  0  0  0  0  0  0  0  0
  159.7895  140.8489  157.1279 H   0  0  0  0  0  0  0  0  0  0  0  0
  160.1037  141.5522  158.7143 H   0  0  0  0  0  0  0  0  0  0  0  0
  157.6913  142.3151  158.8127 H   0  0  0  0  0  0  0  0  0  0  0  0
  157.3816  141.5160  157.2954 H   0  0  0  0  0  0  0  0  0  0  0  0
  157.7969  139.3206  158.2892 H   0  0  0  0  0  0  0  0  0  0  0  0
  159.6507  139.8977  159.8123 H   0  0  0  0  0  0  0  0  0  0  0  0
  158.3933  139.0225  160.6763 H   0  0  0  0  0  0  0  0  0  0  0  0
  158.5444  140.7675  160.8717 H   0  0  0  0  0  0  0  0  0  0  0  0
  156.0904  140.8178  160.2277 H   0  0  0  0  0  0  0  0  0  0  0  0
  153.4360  138.6957  159.8187 H   0  0  0  0  0  0  0  0  0  0  0  0
  154.0728  140.0303  160.6964 H   0  0  0  0  0  0  0  0  0  0  0  0
  150.6536  142.9953  157.0825 H   0  0  0  0  0  0  0  0  0  0  0  0
  151.2129  143.7394  160.6048 H   0  0  0  0  0  0  0  0  0  0  0  0
  149.8899  144.3913  157.8603 H   0  0  0  0  0  0  0  0  0  0  0  0
  149.4283  145.0759  159.5033 H   0  0  0  0  0  0  0  0  0  0  0  0
  151.7479  146.0176  159.7539 H   0  0  0  0  0  0  0  0  0  0  0  0
  152.1960  145.3316  158.1078 H   0  0  0  0  0  0  0  0  0  0  0  0
  1  2  1  0  0  0  0
  1 22  1  0  0  0  0
  1 23  1  0  0  0  0
  1 24  1  0  0  0  0
  2  3  1  0  0  0  0
  2 25  1  0  0  0  0
  2 26  1  0  0  0  0
  3  4  1  0  0  0  0
  3  5  1  0  0  0  0
  3 27  1  0  0  0  0
  4 28  1  0  0  0  0
  4 29  1  0  0  0  0
  4 30  1  0  0  0  0
  5  6  1  0  0  0  0
  5 31  1  0  0  0  0
  6  7  2  0  0  0  0
  6  8  1  0  0  0  0
  8  9  1  0  0  0  0
  8 32  1  0  0  0  0
  8 33  1  0  0  0  0
  9 20  1  0  0  0  0
  9 10  1  0  0  0  0
 10 11  2  0  0  0  0
 10 12  1  0  0  0  0
 12 13  1  0  0  0  0
 12 15  2  0  0  0  0
 13 14  3  0  0  0  0
 15 16  1  0  0  0  0
 15 34  1  0  0  0  0
 16 17  1  0  0  0  0
 16 20  1  0  0  0  0
 17 19  1  0  0  0  0
 17 18  1  0  0  0  0
 17 35  1  0  0  0  0
 18 19  1  0  0  0  0
 18 36  1  0  0  0  0
 18 37  1  0  0  0  0
 19 38  1  0  0  0  0
 19 39  1  0  0  0  0
 20 21  2  0  0  0  0
M  END
> <s_m_source_file>
AV-unprocessed.smi

> <i_m_source_file_index>
379

> <i_lp_mmshare_version>
43012

> <i_f3d_flags>
0

> <s_epik_input>
W0NIM11bQ0gyXVtDQEhdKFtDSDNdKVtOSF1DKD1PKVtDSDJdbjFjKD1PKWMoQyNOKVtjSF1uKGMxPU8pW0NIXTJbQ0gyXVtDSDJdMg==

> <s_epik_cmdline>
J2VwaWtfcHl0aG9uJywgJy1waCcsICc3LjAnLCAnLXRuJywgJzgnLCAnLW1hJywgJzIwMCcsICctbWV0YWxfYmluZGluZycsICctaW1hZScsICc8aW5maWxlLm1hZT4nLCAnLW9tYWUnLCAnPG91dGZpbGUubWFlPic=

> <r_lp_tautomer_probability>
1

> <r_epik_Ionization_Penalty>
1.93863e-08

> <r_epik_Ionization_Penalty_Charging>
8.45512e-11

> <r_epik_Ionization_Penalty_Neutral>
1.93017e-08

> <r_epik_State_Penalty>
-0

> <r_epik_Charging_Adjusted_Penalty>
8.45512e-11

> <i_epik_Tot_Q>
0

> <i_epik_Tot_abs_Q>
0

> <r_epik_Metal_State_Penalty>
-0

> <b_epik_Metal_Only>
0

> <s_lp_Force_Field>
OPLS_2005

> <r_lp_Energy>
29.1248

> <b_lp_Chiralities_Consistent>
1

> <s_lp_Variant>
AV-unprocessed.smi:379-2

> <Gold.Version>
5.8.1

> <Gold.Id.Protein>
6NUR|6NUR_protein|mol2

> <Gold.PLP.Fitness>
49.8985

> <Gold.PLP.PLP>
-43.9749

> <Gold.PLP.part.hbond>
-3.5279

> <Gold.PLP.part.metal>
0.0000

> <Gold.PLP.part.buried>
-4.1787

> <Gold.PLP.part.nonpolar>
-34.4069

> <Gold.PLP.part.repulsive>
0.1529

> <Gold.PLP.ligand.clash>
0.0000

> <Gold.PLP.ligand.torsion>
0.5743

> <Gold.PLP.Chemscore.Hbond>
2.2802

> <Gold.PLP.Chemscore.CHOScore>
0.0000

> <Gold.PLP.Chemscore.Metal>
0.0000

> <Gold.Chemscore.Hbonds>
donor molecule, donor type, donor heavy atom, donor atom, acceptor molecule, acceptor atom, score
      P1  H  7989  7998       L1    14  0.89
      P1  H  7997  8008       L1     7  0.08
      P1  H  7997  8009       L1    11  0.25
      L1  C    15    34       P1  8028  0.22

> <Gold.PLP.Chemscore.Internal.Correction>
0.2318

> <Gold.Rescore>
     Score         DG    S(hbond)    S(metal)    S(lipo)     H(rot)  DE(clash)    DE(int)     intcor
     11.63     -15.19       1.19        0.00      92.25       1.98       0.60       2.95       ----

> <Gold.Chemscore.Fitness>
11.6326

> <Gold.Chemscore.DG>
-15.1861

> <Gold.Chemscore.ZeroCoef>
-5.4800

> <Gold.Chemscore.Hbond>
1.1901

> <Gold.Chemscore.Metal>
0.0000

> <Gold.Chemscore.Lipo>
92.2518

> <Gold.Chemscore.Internal_Hbond>
0.0000

> <Gold.Chemscore.DEClash>
0.6041

> <Gold.Chemscore.DEInternal>
2.9494

> <Gold.Chemscore.Rot>
1.9774

> <Gold.Chemscore.Internal.Correction>
   9.000000E+99

> <Gold.Chemscore.Hbonds>
donor molecule, donor type, donor heavy atom, donor atom, acceptor molecule, acceptor atom, score
      P1  H  7989  7998       L1    14  0.77

> <Gold.Chemscore.Hbond.Weighted>
-3.9749

> <Gold.Chemscore.Metal.Weighted>
-0.0000

> <Gold.Chemscore.Lipo.Weighted>
-10.7935

> <Gold.Chemscore.Internal_Hbond.Weighted>
0.0000

> <Gold.Chemscore.DEClash.Weighted>
0.6041

> <Gold.Chemscore.DEInternal.Weighted>
2.9494

> <Gold.Chemscore.Rot.Weighted>
5.0623

> <Gold.Chemscore.Internal.Correction.Weighted>
   9.000000E+99

> <Gold.Protein.RotatedTorsions>
[ 6907 6896 6895 6894 ] final  165.21 input  -60.11 | X-H torsion
[ 7974 7965 7964 7962 ] final  170.45 input  175.53 | X-H torsion
[ 8008 7997 7996 7995 ] final -179.68 input   59.86 | X-H torsion
[ 10167 10162 10161 10158 ] final   53.81 input  -65.29 | X-H torsion
[ 10718 10713 10712 10709 ] final   68.90 input   66.30 | X-H torsion
[ 10763 10752 10751 10750 ] final   -6.19 input  -60.55 | X-H torsion
[ 11005 11000 10999 10996 ] final -122.68 input  -57.11 | X-H torsion

> <Gold.Protein.ActiveResidues>
 VAL166  LYS551  ARG553  GLY616  TRP617  ASP618  TYR619  PRO620  LYS621  CYS622 
 ASP623  PHE694  ASN695  SER759  ASP760  ASP761  ALA762  ILE779  LEU786  VAL792 
 PHE793  MET794  SER795  GLU796  ALA797  LYS798  CYS799  TRP800  GLU811  SER814 

> <Gold.Protein.RotatedAtoms>
  151.8980  133.3531  159.3820 H   0  0  0  0  0  0  0  0  0  0  0  0  # atno 6907 bound_to 6896
  150.7087  134.4857  159.5501 H   0  0  0  0  0  0  0  0  0  0  0  0  # atno 6908 bound_to 6896
  152.2440  134.8200  160.0507 H   0  0  0  0  0  0  0  0  0  0  0  0  # atno 6909 bound_to 6896
  144.7323  139.9204  143.6420 H   0  0  0  0  0  0  0  0  0  0  0  0  # atno 7974 bound_to 7965
  156.0333  140.1287  157.0235 H   0  0  0  0  0  0  0  0  0  0  0  0  # atno 8008 bound_to 7997
  154.4359  140.1045  156.6201 H   0  0  0  0  0  0  0  0  0  0  0  0  # atno 8009 bound_to 7997
  155.5775  140.3467  155.4533 H   0  0  0  0  0  0  0  0  0  0  0  0  # atno 8010 bound_to 7997
  140.2368  144.3628  150.6394 H   0  0  0  0  0  0  0  0  0  0  0  0  # atno 10167 bound_to 10162
  157.6315  130.9397  150.0440 H   0  0  0  0  0  0  0  0  0  0  0  0  # atno 10718 bound_to 10713
  153.4089  135.7007  153.6373 H   0  0  0  0  0  0  0  0  0  0  0  0  # atno 10763 bound_to 10752
  153.4876  135.3680  155.2475 H   0  0  0  0  0  0  0  0  0  0  0  0  # atno 10764 bound_to 10752
  154.8715  135.4081  154.3437 H   0  0  0  0  0  0  0  0  0  0  0  0  # atno 10765 bound_to 10752
  140.9977  134.0448  157.3577 H   0  0  0  0  0  0  0  0  0  0  0  0  # atno 11005 bound_to 11000
  146.0934  139.3925  143.0392 LP  0  0  0  0  0  0  0  0  0  0  0  0  # atno 17320 bound_to 7965
  145.7680  140.9908  143.1165 LP  0  0  0  0  0  0  0  0  0  0  0  0  # atno 17321 bound_to 7965
  140.6144  143.2171  151.6821 LP  0  0  0  0  0  0  0  0  0  0  0  0  # atno 17342 bound_to 10162
  139.5091  144.3588  152.0582 LP  0  0  0  0  0  0  0  0  0  0  0  0  # atno 17343 bound_to 10162
  156.1522  130.3642  149.9421 LP  0  0  0  0  0  0  0  0  0  0  0  0  # atno 17370 bound_to 10713
  156.7438  130.9089  151.3633 LP  0  0  0  0  0  0  0  0  0  0  0  0  # atno 17371 bound_to 10713
  139.9023  135.0169  156.7325 LP  0  0  0  0  0  0  0  0  0  0  0  0  # atno 17394 bound_to 11000
  140.6939  133.9365  155.7983 LP  0  0  0  0  0  0  0  0  0  0  0  0  # atno 17395 bound_to 11000

$$$$
