#       Name:                AV-unprocessed.smi:1633
#       Creating user name   scv26
#       Creation time:       Fri Mar 27 07:21:34 2020


#       File generated by GOLD software.
#

@<TRIPOS>MOLECULE
AV-unprocessed.smi:1633
    56    58     1
SMALL
NO_CHARGES


@<TRIPOS>ATOM
      1 ****        -5.1501  -5.0285  -0.9757 C.3            1 S1                 0.0000
      2 ****        -4.8138  -3.9366  -1.9938 C.2            1 S1                 0.0000
      3 ****        -5.1177  -4.1300  -3.1706 O.2            1 S1                 0.0000
      4 ****        -4.1986  -2.8048  -1.5746 N.am           1 S1                 0.0000
      5 ****        -3.7990  -1.7321  -2.4900 C.3            1 S1                 0.0000
      6 ****        -2.2627  -1.6411  -2.5228 C.3            1 S1                 0.0000
      7 ****        -1.6990  -1.4575  -1.1588 N.4            1 S1                 1.0000
      8 ****        -0.2182  -1.3345  -1.1747 C.3            1 S1                 0.0000
      9 ****         0.3368  -0.5945   0.0596 C.3            1 S1                 0.0000
     10 ****        -0.1888   0.7184   0.0738 O.3            1 S1                 0.0000
     11 ****         1.8771  -0.5335   0.0419 C.3            1 S1                 0.0000
     12 ****         2.4382   0.1354   1.2253 N.pl3          1 S1                 0.0000
     13 ****         2.7379  -0.3768   2.4504 C.2            1 S1                 0.0000
     14 ****         3.2414   0.6363   3.2082 N.pl3          1 S1                 1.0000
     15 ****         3.2660   1.8129   2.4569 C.ar           1 S1                 0.0000
     16 ****         3.6858   3.0952   2.7895 C.ar           1 S1                 0.0000
     17 ****         3.5775   4.0887   1.7907 C.ar           1 S1                 0.0000
     18 ****         4.0216   5.5030   2.1237 C.3            1 S1                 0.0000
     19 ****         3.0654   3.7779   0.5045 C.ar           1 S1                 0.0000
     20 ****         2.9550   4.8539  -0.5624 C.3            1 S1                 0.0000
     21 ****         2.6452   2.4667   0.1853 C.ar           1 S1                 0.0000
     22 ****         2.7549   1.4994   1.1821 C.ar           1 S1                 0.0000
     23 ****        -2.2056  -2.4690  -0.1901 C.3            1 S1                 0.0000
     24 ****        -3.7435  -2.5391  -0.2062 C.3            1 S1                 0.0000
     25 ****        -4.2457  -5.4024  -0.4950 H              1 S1                 0.0000
     26 ****        -5.6393  -5.8718  -1.4646 H              1 S1                 0.0000
     27 ****        -5.8289  -4.6492  -0.2113 H              1 S1                 0.0000
     28 ****        -4.1792  -1.8722  -3.5029 H              1 S1                 0.0000
     29 ****        -4.2234  -0.7893  -2.1416 H              1 S1                 0.0000
     30 ****        -1.8474  -2.5479  -2.9662 H              1 S1                 0.0000
     31 ****        -1.9625  -0.8086  -3.1603 H              1 S1                 0.0000
     32 ****         0.2244  -2.3283  -1.2573 H              1 S1                 0.0000
     33 ****         0.0906  -0.7898  -2.0685 H              1 S1                 0.0000
     34 ****         0.0254  -1.0952   0.9758 H              1 S1                 0.0000
     35 ****         0.1404   1.1660   0.8387 H              1 S1                 0.0000
     36 ****         2.2862  -1.5444   0.0256 H              1 S1                 0.0000
     37 ****         2.2467  -0.0430  -0.8591 H              1 S1                 0.0000
     38 ****         2.6036  -1.4018   2.7651 H              1 S1                 0.0000
     39 ****         4.0764   3.3248   3.7703 H              1 S1                 0.0000
     40 ****         4.8528   5.8030   1.4852 H              1 S1                 0.0000
     41 ****         4.3505   5.5847   3.1601 H              1 S1                 0.0000
     42 ****         3.2019   6.2071   1.9795 H              1 S1                 0.0000
     43 ****         2.5980   4.4442  -1.5077 H              1 S1                 0.0000
     44 ****         3.9262   5.3138  -0.7467 H              1 S1                 0.0000
     45 ****         2.2564   5.6306  -0.2500 H              1 S1                 0.0000
     46 ****         2.2515   2.2347  -0.7930 H              1 S1                 0.0000
     47 ****        -1.7904  -3.4476  -0.4374 H              1 S1                 0.0000
     48 ****        -1.8734  -2.2298   0.8192 H              1 S1                 0.0000
     49 ****        -4.1618  -1.5878   0.1264 H              1 S1                 0.0000
     50 ****        -4.0829  -3.2753   0.5209 H              1 S1                 0.0000
     51 ****        -2.0472  -0.5628  -0.8432 H              1 S1                 0.0000
     52 ****         3.5477   0.5294   4.1670 H              1 S1                 0.0000
     53 ****        -5.5706  -4.9810  -3.4367 LP             1 S1                 0.0000
     54 ****        -4.9118  -3.4362  -3.8607 LP             1 S1                 0.0000
     55 ****        -1.1875   0.6813   0.1087 LP             1 S1                 0.0000
     56 ****         0.0980   1.2053  -0.7512 LP             1 S1                 0.0000
@<TRIPOS>BOND
    1    1    2 1     
    2    1   25 1     
    3    1   26 1     
    4    1   27 1     
    5    2    3 2     
    6    2    4 am    
    7    4   24 1     
    8    4    5 1     
    9    5    6 1     
   10    5   28 1     
   11    5   29 1     
   12    6    7 1     
   13    6   30 1     
   14    6   31 1     
   15    7    8 1     
   16    7   23 1     
   17    7   51 1     
   18    8    9 1     
   19    8   32 1     
   20    8   33 1     
   21    9   10 1     
   22    9   11 1     
   23    9   34 1     
   24   10   35 1     
   25   11   12 1     
   26   11   36 1     
   27   11   37 1     
   28   12   22 1     
   29   12   13 1     
   30   13   14 2     
   31   13   38 1     
   32   14   15 1     
   33   14   52 1     
   34   15   22 ar    
   35   15   16 ar    
   36   16   17 ar    
   37   16   39 1     
   38   17   18 1     
   39   17   19 ar    
   40   18   40 1     
   41   18   41 1     
   42   18   42 1     
   43   19   20 1     
   44   19   21 ar    
   45   20   43 1     
   46   20   44 1     
   47   20   45 1     
   48   21   22 ar    
   49   21   46 1     
   50   23   24 1     
   51   23   47 1     
   52   23   48 1     
   53   24   49 1     
   54   24   50 1     
   55    3   53 1     
   56    3   54 1     
   57   10   55 1     
   58   10   56 1     
@<TRIPOS>SUBSTRUCTURE
      1 S1             1
@<TRIPOS>SET
LONE_PAIRS      STATIC     ATOMS    <user>   **** ""
4 53 54 55 56
DONOR_HYDROGENS      STATIC     ATOMS    <user>   **** ""
3 51 35 52
ATOM$BLUE        STATIC     ATOMS    COLORGROUP SYSTEM
4 53 54 55 56
ATOM$RED        STATIC     ATOMS    COLORGROUP SYSTEM
3 51 35 52
