#       Name:                AV-unprocessed.smi:249
#       Creating user name   scv26
#       Creation time:       Thu Mar 26 20:59:56 2020


#       File generated by GOLD software.
#

@<TRIPOS>MOLECULE
AV-unprocessed.smi:249
    72    75     1
SMALL
NO_CHARGES


@<TRIPOS>ATOM
      1 ****        -4.3907  -4.8507   2.8375 C.3            1 S1                 0.0000
      2 ****        -4.3865  -4.2996   1.4022 C.3            1 S1                 0.0000
      3 ****        -3.5720  -3.0601   1.2394 N.4            1 S1                 1.0000
      4 ****        -4.1214  -1.9261   2.0374 C.3            1 S1                 0.0000
      5 ****        -3.2229  -0.6834   1.9758 C.3            1 S1                 0.0000
      6 ****        -3.0229  -0.2304   0.5206 C.3            1 S1                 0.0000
      7 ****        -2.2397   1.0067   0.3958 N.3            1 S1                 0.0000
      8 ****        -2.8660   2.2391   0.8622 C.3            1 S1                 0.0000
      9 ****        -0.9130   0.9358   0.6621 C.ar           1 S1                 0.0000
     10 ****        -0.4676   1.1206   1.9329 N.ar           1 S1                 0.0000
     11 ****         0.8394   1.0439   2.2016 C.ar           1 S1                 0.0000
     12 ****         1.8507   0.8018   1.3649 N.ar           1 S1                 0.0000
     13 ****         1.4074   0.6291   0.0866 C.ar           1 S1                 0.0000
     14 ****         0.0532   0.6773  -0.3471 C.ar           1 S1                 0.0000
     15 ****        -0.0181   0.4478  -1.7151 N.2            1 S1                 0.0000
     16 ****         1.2245   0.2658  -2.0705 C.2            1 S1                 0.0000
     17 ****         2.1485   0.3784  -1.0552 N.pl3          1 S1                 0.0000
     18 ****         3.5874   0.2180  -1.1730 C.3            1 S1                 0.0000
     19 ****         4.4163   1.4790  -0.8115 C.3            1 S1                 0.0000
     20 ****         5.9122   1.0959  -0.7299 C.3            1 S1                 0.0000
     21 ****         6.4306   0.7483  -1.9981 O.3            1 S1                 0.0000
     22 ****         4.1700   2.7076  -1.7361 C.3            1 S1                 0.0000
     23 ****         2.8123   3.3821  -1.6033 C.3            1 S1                 0.0000
     24 ****         3.0531   4.7678  -2.1956 C.3            1 S1                 0.0000
     25 ****         4.4373   5.0395  -2.0166 O.3            1 S1                 0.0000
     26 ****         5.0780   3.9077  -1.4432 C.3            1 S1                 0.0000
     27 ****        -2.4530  -1.4131  -0.2823 C.3            1 S1                 0.0000
     28 ****        -3.3498  -2.6660  -0.1907 C.3            1 S1                 0.0000
     29 ****        -2.7147  -3.7859  -1.0415 C.3            1 S1                 0.0000
     30 ****        -4.8531  -5.8379   2.8623 H              1 S1                 0.0000
     31 ****        -4.9581  -4.2226   3.5234 H              1 S1                 0.0000
     32 ****        -3.3769  -4.9540   3.2257 H              1 S1                 0.0000
     33 ****        -3.9861  -5.0986   0.7826 H              1 S1                 0.0000
     34 ****        -5.4071  -4.1220   1.0601 H              1 S1                 0.0000
     35 ****        -5.1228  -1.6813   1.6797 H              1 S1                 0.0000
     36 ****        -4.2215  -2.2047   3.0849 H              1 S1                 0.0000
     37 ****        -3.6751   0.1141   2.5656 H              1 S1                 0.0000
     38 ****        -2.2635  -0.9103   2.4420 H              1 S1                 0.0000
     39 ****        -4.0060  -0.0030   0.1058 H              1 S1                 0.0000
     40 ****        -2.2953   3.1091   0.5347 H              1 S1                 0.0000
     41 ****        -2.9350   2.2658   1.9500 H              1 S1                 0.0000
     42 ****        -3.8735   2.3308   0.4560 H              1 S1                 0.0000
     43 ****         1.1147   1.1983   3.2346 H              1 S1                 0.0000
     44 ****         1.5043   0.0575  -3.0932 H              1 S1                 0.0000
     45 ****         3.8700  -0.6102  -0.5221 H              1 S1                 0.0000
     46 ****         3.8172  -0.1019  -2.1901 H              1 S1                 0.0000
     47 ****         4.1363   1.7772   0.1992 H              1 S1                 0.0000
     48 ****         6.5061   1.9118  -0.3185 H              1 S1                 0.0000
     49 ****         6.0520   0.2517  -0.0540 H              1 S1                 0.0000
     50 ****         7.3442   0.5274  -1.8996 H              1 S1                 0.0000
     51 ****         4.3123   2.4146  -2.7775 H              1 S1                 0.0000
     52 ****         2.0120   2.8639  -2.1283 H              1 S1                 0.0000
     53 ****         2.5315   3.4696  -0.5527 H              1 S1                 0.0000
     54 ****         2.8362   4.7716  -3.2643 H              1 S1                 0.0000
     55 ****         2.4345   5.5302  -1.7219 H              1 S1                 0.0000
     56 ****         5.1651   4.0716  -0.3680 H              1 S1                 0.0000
     57 ****         6.0825   3.7863  -1.8493 H              1 S1                 0.0000
     58 ****        -2.3480  -1.1178  -1.3269 H              1 S1                 0.0000
     59 ****        -1.4535  -1.6686   0.0729 H              1 S1                 0.0000
     60 ****        -4.3205  -2.4223  -0.6259 H              1 S1                 0.0000
     61 ****        -2.4206  -3.4100  -2.0222 H              1 S1                 0.0000
     62 ****        -3.4055  -4.6068  -1.2310 H              1 S1                 0.0000
     63 ****        -1.8208  -4.1909  -0.5661 H              1 S1                 0.0000
     64 ****        -2.6595  -3.2668   1.6202 H              1 S1                 0.0000
     65 ****        -2.2676   1.0887  -0.6004 LP             1 S1                 0.0000
     66 ****        -1.1182   1.3141   2.6673 LP             1 S1                 0.0000
     67 ****         2.8109   0.7532   1.6401 LP             1 S1                 0.0000
     68 ****        -0.8332   0.4269  -2.2940 LP             1 S1                 0.0000
     69 ****         6.3366   1.5223  -2.6242 LP             1 S1                 0.0000
     70 ****         5.9312  -0.0377  -2.3624 LP             1 S1                 0.0000
     71 ****         4.5457   5.8261  -1.4087 LP             1 S1                 0.0000
     72 ****         4.8533   5.2433  -2.9028 LP             1 S1                 0.0000
@<TRIPOS>BOND
    1    1    2 1     
    2    1   30 1     
    3    1   31 1     
    4    1   32 1     
    5    2    3 1     
    6    2   33 1     
    7    2   34 1     
    8    3   28 1     
    9    3    4 1     
   10    3   64 1     
   11    4    5 1     
   12    4   35 1     
   13    4   36 1     
   14    5    6 1     
   15    5   37 1     
   16    5   38 1     
   17    6    7 1     
   18    6   27 1     
   19    6   39 1     
   20    7    8 1     
   21    7    9 1     
   22    8   40 1     
   23    8   41 1     
   24    8   42 1     
   25    9   14 ar    
   26    9   10 ar    
   27   10   11 ar    
   28   11   12 ar    
   29   11   43 1     
   30   12   13 ar    
   31   13   17 1     
   32   13   14 ar    
   33   14   15 1     
   34   15   16 2     
   35   16   17 1     
   36   16   44 1     
   37   17   18 1     
   38   18   19 1     
   39   18   45 1     
   40   18   46 1     
   41   19   20 1     
   42   19   22 1     
   43   19   47 1     
   44   20   21 1     
   45   20   48 1     
   46   20   49 1     
   47   21   50 1     
   48   22   26 1     
   49   22   23 1     
   50   22   51 1     
   51   23   24 1     
   52   23   52 1     
   53   23   53 1     
   54   24   25 1     
   55   24   54 1     
   56   24   55 1     
   57   25   26 1     
   58   26   56 1     
   59   26   57 1     
   60   27   28 1     
   61   27   58 1     
   62   27   59 1     
   63   28   29 1     
   64   28   60 1     
   65   29   61 1     
   66   29   62 1     
   67   29   63 1     
   68    7   65 1     
   69   10   66 1     
   70   12   67 1     
   71   15   68 1     
   72   21   69 1     
   73   21   70 1     
   74   25   71 1     
   75   25   72 1     
@<TRIPOS>SUBSTRUCTURE
      1 S1             1
@<TRIPOS>SET
LONE_PAIRS      STATIC     ATOMS    <user>   **** ""
8 65 66 67 68 69 70 71 72
DONOR_HYDROGENS      STATIC     ATOMS    <user>   **** ""
2 64 50
ATOM$BLUE        STATIC     ATOMS    COLORGROUP SYSTEM
8 65 66 67 68 69 70 71 72
ATOM$RED        STATIC     ATOMS    COLORGROUP SYSTEM
2 64 50
