AV-unprocessed.smi:54|AV-procd|sdf|554|dock4
  -GOLD-   2262016453D 1   1.00000     0.00000
 Structure written by MMmdl.
 43 45  0  0  0  0  0  0  0  0  2 V2000
  146.3601  135.3505  162.1606 C   0  0  0  0  0  0  0  0  0  0  0  0
  146.8672  135.4180  160.7107 C   0  0  0  0  0  0  0  0  0  0  0  0
  147.1341  134.0125  160.1469 C   0  0  0  0  0  0  0  0  0  0  0  0
  148.1257  136.2927  160.6167 C   0  0  0  0  0  0  0  0  0  0  0  0
  148.5618  136.8271  161.6387 O   0  0  0  0  0  0  0  0  0  0  0  0
  148.6530  136.4128  159.3781 N   0  0  0  0  0  0  0  0  0  0  0  0
  149.7736  137.1396  158.9590 C   0  0  0  0  0  0  0  0  0  0  0  0
  149.5945  137.7388  157.8066 N   0  0  0  0  0  0  0  0  0  0  0  0
  150.7133  138.4341  157.3885 C   0  0  0  0  0  0  0  0  0  0  0  0
  151.9151  138.5494  158.0307 C   0  0  0  0  0  0  0  0  0  0  0  0
  152.7972  139.3499  157.3161 N   0  0  0  0  0  0  0  0  0  0  0  0
  152.0692  139.6856  156.2523 C   0  0  0  0  0  0  0  0  0  0  0  0
  150.8253  139.1619  156.2080 N   0  0  0  0  0  0  0  0  0  0  0  0
  149.7584  139.3705  155.1708 C   0  0  1  0  0  0  0  0  0  0  0  0
  148.5474  138.8776  155.6548 O   0  0  0  0  0  0  0  0  0  0  0  0
  147.8804  139.9026  156.3803 C   0  0  2  0  0  0  0  0  0  0  0  0
  146.3829  139.5776  156.4915 C   0  0  0  0  0  0  0  0  0  0  0  0
  146.1981  138.3893  157.2305 O   0  0  0  0  0  0  0  0  0  0  0  0
  148.1747  141.1508  155.5398 C   0  0  1  0  0  0  0  0  0  0  0  0
  148.2377  142.2887  156.3762 O   0  0  0  0  0  0  0  0  0  0  0  0
  149.5410  140.8721  154.9092 C   0  0  2  0  0  0  0  0  0  0  0  0
  149.5175  141.1511  153.5242 O   0  0  0  0  0  0  0  0  0  0  0  0
  152.0535  137.8417  159.3252 C   0  0  0  0  0  0  0  0  0  0  0  0
  153.1174  137.9151  159.9372 O   0  0  0  0  0  0  0  0  0  0  0  0
  150.9502  137.1471  159.7351 N   0  5  0  0  0  0  0  0  0  0  0  0
  150.1143  138.8024  154.3104 H   0  0  0  0  0  0  0  0  0  0  0  0
  148.3299  140.0061  157.3699 H   0  0  0  0  0  0  0  0  0  0  0  0
  147.4081  141.2862  154.7749 H   0  0  0  0  0  0  0  0  0  0  0  0
  150.3340  141.4592  155.3752 H   0  0  0  0  0  0  0  0  0  0  0  0
  146.1727  136.3476  162.5614 H   0  0  0  0  0  0  0  0  0  0  0  0
  147.0800  134.8582  162.8156 H   0  0  0  0  0  0  0  0  0  0  0  0
  145.4250  134.7932  162.2203 H   0  0  0  0  0  0  0  0  0  0  0  0
  146.0838  135.8755  160.1040 H   0  0  0  0  0  0  0  0  0  0  0  0
  147.5077  134.0601  159.1232 H   0  0  0  0  0  0  0  0  0  0  0  0
  146.2198  133.4185  160.1335 H   0  0  0  0  0  0  0  0  0  0  0  0
  147.8692  133.4723  160.7452 H   0  0  0  0  0  0  0  0  0  0  0  0
  148.1252  135.9554  158.6495 H   0  0  0  0  0  0  0  0  0  0  0  0
  152.4585  140.3363  155.4835 H   0  0  0  0  0  0  0  0  0  0  0  0
  145.8649  140.3762  157.0234 H   0  0  0  0  0  0  0  0  0  0  0  0
  145.9205  139.4903  155.5080 H   0  0  0  0  0  0  0  0  0  0  0  0
  145.5807  137.8420  156.7696 H   0  0  0  0  0  0  0  0  0  0  0  0
  148.3821  143.0500  155.8349 H   0  0  0  0  0  0  0  0  0  0  0  0
  149.4192  140.3360  153.0568 H   0  0  0  0  0  0  0  0  0  0  0  0
  1  2  1  0  0  0  0
  1 30  1  0  0  0  0
  1 31  1  0  0  0  0
  1 32  1  0  0  0  0
  2  3  1  0  0  0  0
  2  4  1  0  0  0  0
  2 33  1  0  0  0  0
  3 34  1  0  0  0  0
  3 35  1  0  0  0  0
  3 36  1  0  0  0  0
  4  5  2  0  0  0  0
  4  6  1  0  0  0  0
  6 37  1  0  0  0  0
  6  7  1  0  0  0  0
  7 25  1  0  0  0  0
  7  8  2  0  0  0  0
  8  9  1  0  0  0  0
  9 13  1  0  0  0  0
  9 10  2  0  0  0  0
 10 11  1  0  0  0  0
 10 23  1  0  0  0  0
 11 12  2  0  0  0  0
 12 13  1  0  0  0  0
 12 38  1  0  0  0  0
 13 14  1  0  0  0  0
 14 26  1  0  0  0  0
 14 21  1  0  0  0  0
 14 15  1  0  0  0  0
 15 16  1  0  0  0  0
 16 27  1  0  0  0  0
 16 17  1  0  0  0  0
 16 19  1  0  0  0  0
 17 18  1  0  0  0  0
 17 39  1  0  0  0  0
 17 40  1  0  0  0  0
 18 41  1  0  0  0  0
 19 28  1  0  0  0  0
 19 20  1  0  0  0  0
 19 21  1  0  0  0  0
 20 42  1  0  0  0  0
 21 29  1  0  0  0  0
 21 22  1  0  0  0  0
 22 43  1  0  0  0  0
 23 24  2  0  0  0  0
 23 25  1  0  0  0  0
M  CHG  1  25  -1
M  END
> <s_m_source_file>
AV-unprocessed.smi

> <i_m_source_file_index>
54

> <i_lp_mmshare_version>
43012

> <i_f3d_flags>
0

> <s_epik_input>
W0NIM11bQ0hdKFtDSDNdKUMoPU8pW05IXWMobjEpW25IXWMoPU8pYyhjMTIpbltjSF1uMltDQEBIXTNPW0NASF0oW0NIMl1bT0hdKVtDQEBIXShbT0hdKVtDQEhdM1tPSF0=

> <s_epik_cmdline>
J2VwaWtfcHl0aG9uJywgJy1waCcsICc3LjAnLCAnLXRuJywgJzgnLCAnLW1hJywgJzIwMCcsICctbWV0YWxfYmluZGluZycsICctaW1hZScsICc8aW5maWxlLm1hZT4nLCAnLW9tYWUnLCAnPG91dGZpbGUubWFlPic=

> <r_lp_tautomer_probability>
0.85571

> <r_epik_Ionization_Penalty>
1.75936

> <r_epik_Ionization_Penalty_Charging>
4.55893e-11

> <r_epik_Ionization_Penalty_Neutral>
1.75936

> <r_epik_State_Penalty>
1.72072

> <r_epik_Charging_Adjusted_Penalty>
1.72072

> <i_epik_Tot_Q>
-1

> <i_epik_Tot_abs_Q>
1

> <r_epik_Metal_State_Penalty>
0.400338

> <b_epik_Metal_Only>
1

> <s_epik_Chemistry_Notes>
This compound contains an acetal/aminal-like group ( X-CH(R)-Y where X, Y are N, S, or O) that may be acid/base labile, releasing an aldehyde.

> <s_lp_Force_Field>
OPLS_2005

> <r_lp_Energy>
54.6298

> <b_lp_Chiralities_Consistent>
1

> <s_lp_Variant>
AV-unprocessed.smi:54-26

> <Gold.Version>
5.8.1

> <Gold.Id.Protein>
6NUR|6NUR_protein|mol2

> <Gold.PLP.Fitness>
49.1136

> <Gold.PLP.PLP>
-30.3314

> <Gold.PLP.part.hbond>
-6.9822

> <Gold.PLP.part.metal>
0.0000

> <Gold.PLP.part.buried>
-4.8247

> <Gold.PLP.part.nonpolar>
-19.3224

> <Gold.PLP.part.repulsive>
0.2017

> <Gold.PLP.ligand.clash>
0.0000

> <Gold.PLP.ligand.torsion>
0.5008

> <Gold.PLP.Chemscore.Hbond>
6.5690

> <Gold.PLP.Chemscore.CHOScore>
0.0000

> <Gold.PLP.Chemscore.Metal>
0.0000

> <Gold.Chemscore.Hbonds>
donor molecule, donor type, donor heavy atom, donor atom, acceptor molecule, acceptor atom, score
      L1  H    20    42       P1  8028  1.00
      L1  H    22    43       P1  7957  0.54
      P1  H  6896  6909       L1    25  1.95
      P1  H  6931  6943       L1     5  0.96
      P1  H  7989  7998       L1    22  0.04
      P1  H  7997  8008       L1    11  1.00
      P1  H  8011  8017       L1    22  1.00

> <Gold.PLP.Chemscore.Internal.Correction>
0.0769

> <Gold.Rescore>
     Score         DG    S(hbond)    S(metal)    S(lipo)     H(rot)  DE(clash)    DE(int)     intcor
     13.63     -15.77       4.96        0.00      34.24       4.02       0.01       2.14       ----

> <Gold.Chemscore.Fitness>
13.6259

> <Gold.Chemscore.DG>
-15.7697

> <Gold.Chemscore.ZeroCoef>
-5.4800

> <Gold.Chemscore.Hbond>
4.9621

> <Gold.Chemscore.Metal>
0.0000

> <Gold.Chemscore.Lipo>
34.2361

> <Gold.Chemscore.Internal_Hbond>
0.0000

> <Gold.Chemscore.DEClash>
0.0088

> <Gold.Chemscore.DEInternal>
2.1351

> <Gold.Chemscore.Rot>
4.0192

> <Gold.Chemscore.Internal.Correction>
   9.000000E+99

> <Gold.Chemscore.Hbonds>
donor molecule, donor type, donor heavy atom, donor atom, acceptor molecule, acceptor atom, score
      L1  H    20    42       P1  8028  0.91
      L1  H    22    43       P1  7957  0.54
      P1  H  6896  6909       L1    25  0.29
      P1  H  6931  6943       L1     5  0.91
      P1  H  7997  8008       L1    11  0.40
      P1  H  8011  8017       L1    22  0.58

> <Gold.Chemscore.Hbond.Weighted>
-16.5734

> <Gold.Chemscore.Metal.Weighted>
-0.0000

> <Gold.Chemscore.Lipo.Weighted>
-4.0056

> <Gold.Chemscore.Internal_Hbond.Weighted>
0.0000

> <Gold.Chemscore.DEClash.Weighted>
0.0088

> <Gold.Chemscore.DEInternal.Weighted>
2.1351

> <Gold.Chemscore.Rot.Weighted>
10.2893

> <Gold.Chemscore.Internal.Correction.Weighted>
   9.000000E+99

> <Gold.Protein.RotatedTorsions>
[ 6907 6896 6895 6894 ] final  107.76 input  -60.11 | X-H torsion
[ 7974 7965 7964 7962 ] final  126.98 input  175.53 | X-H torsion
[ 8008 7997 7996 7995 ] final  -78.46 input   59.86 | X-H torsion
[ 10167 10162 10161 10158 ] final  -56.44 input  -65.29 | X-H torsion
[ 10718 10713 10712 10709 ] final  -14.39 input   66.30 | X-H torsion
[ 10763 10752 10751 10750 ] final  -88.11 input  -60.55 | X-H torsion
[ 11005 11000 10999 10996 ] final -155.48 input  -57.11 | X-H torsion

> <Gold.Protein.ActiveResidues>
 VAL166  LYS551  ARG553  GLY616  TRP617  ASP618  TYR619  PRO620  LYS621  CYS622 
 ASP623  PHE694  ASN695  SER759  ASP760  ASP761  ALA762  ILE779  LEU786  VAL792 
 PHE793  MET794  SER795  GLU796  ALA797  LYS798  CYS799  TRP800  GLU811  SER814 

> <Gold.Protein.RotatedAtoms>
  152.5141  133.9187  159.7523 H   0  0  0  0  0  0  0  0  0  0  0  0  # atno 6907 bound_to 6896
  150.9564  133.6484  159.2769 H   0  0  0  0  0  0  0  0  0  0  0  0  # atno 6908 bound_to 6896
  151.3745  135.0934  159.9529 H   0  0  0  0  0  0  0  0  0  0  0  0  # atno 6909 bound_to 6896
  145.0556  139.3847  143.5032 H   0  0  0  0  0  0  0  0  0  0  0  0  # atno 7974 bound_to 7965
  154.5691  140.0694  156.8937 H   0  0  0  0  0  0  0  0  0  0  0  0  # atno 8008 bound_to 7997
  155.2668  140.3362  155.4250 H   0  0  0  0  0  0  0  0  0  0  0  0  # atno 8009 bound_to 7997
  156.2104  140.1757  156.7693 H   0  0  0  0  0  0  0  0  0  0  0  0  # atno 8010 bound_to 7997
  140.6317  143.2462  151.5223 H   0  0  0  0  0  0  0  0  0  0  0  0  # atno 10167 bound_to 10162
  156.6166  130.4864  149.6181 H   0  0  0  0  0  0  0  0  0  0  0  0  # atno 10718 bound_to 10713
  154.6410  135.5389  153.7789 H   0  0  0  0  0  0  0  0  0  0  0  0  # atno 10763 bound_to 10752
  153.0334  135.6459  154.1160 H   0  0  0  0  0  0  0  0  0  0  0  0  # atno 10764 bound_to 10752
  154.1084  135.2928  155.3216 H   0  0  0  0  0  0  0  0  0  0  0  0  # atno 10765 bound_to 10752
  140.6860  134.4093  157.5223 H   0  0  0  0  0  0  0  0  0  0  0  0  # atno 11005 bound_to 11000
  146.3521  140.0229  142.8657 LP  0  0  0  0  0  0  0  0  0  0  0  0  # atno 17320 bound_to 7965
  145.1472  140.9603  143.4454 LP  0  0  0  0  0  0  0  0  0  0  0  0  # atno 17321 bound_to 7965
  139.5531  144.2345  152.1565 LP  0  0  0  0  0  0  0  0  0  0  0  0  # atno 17342 bound_to 10162
  140.1591  144.5043  150.6643 LP  0  0  0  0  0  0  0  0  0  0  0  0  # atno 17343 bound_to 10162
  156.2346  130.6815  151.1497 LP  0  0  0  0  0  0  0  0  0  0  0  0  # atno 17370 bound_to 10713
  157.7239  131.0663  150.6016 LP  0  0  0  0  0  0  0  0  0  0  0  0  # atno 17371 bound_to 10713
  139.8937  134.8723  156.2209 LP  0  0  0  0  0  0  0  0  0  0  0  0  # atno 17394 bound_to 11000
  141.0280  133.7004  156.1380 LP  0  0  0  0  0  0  0  0  0  0  0  0  # atno 17395 bound_to 11000

$$$$
