AV-unprocessed.smi:15|AV-procd|sdf|83|dock6
  -GOLD-   2262015213D 1   1.00000     0.00000
 Structure written by MMmdl.
 53 56  0  0  0  0  0  0  0  0  1 V2000
  151.5180  139.6552  156.5631 C   0  0  0  0  0  0  0  0  0  0  0  0
  151.5708  141.1285  156.1371 C   0  0  0  0  0  0  0  0  0  0  0  0
  150.3886  141.8897  156.5511 N   0  0  0  0  0  0  0  0  0  0  0  0
  150.2447  142.2896  157.9536 C   0  0  0  0  0  0  0  0  0  0  0  0
  150.7180  143.7284  158.2288 C   0  0  2  0  0  0  0  0  0  0  0  0
  151.9888  144.1002  157.4711 C   0  0  0  0  0  0  0  0  0  0  0  0
  152.5444  145.2570  158.2830 C   0  0  0  0  0  0  0  0  0  0  0  0
  151.9154  145.0684  159.6672 C   0  0  0  0  0  0  0  0  0  0  0  0
  151.1358  143.8823  159.5761 O   0  0  0  0  0  0  0  0  0  0  0  0
  149.2193  141.5960  155.9239 C   0  0  0  0  0  0  0  0  0  0  0  0
  148.0732  142.2204  156.3082 N   0  0  0  0  0  0  0  0  0  0  0  0
  146.9200  141.9617  155.6852 C   0  0  0  0  0  0  0  0  0  0  0  0
  146.6894  141.1265  154.6709 N   0  0  0  0  0  0  0  0  0  0  0  0
  147.8317  140.4884  154.2868 C   0  0  0  0  0  0  0  0  0  0  0  0
  149.1267  140.6633  154.8518 C   0  0  0  0  0  0  0  0  0  0  0  0
  150.0388  139.8403  154.2011 N   0  0  0  0  0  0  0  0  0  0  0  0
  149.3270  139.2248  153.2973 C   0  0  0  0  0  0  0  0  0  0  0  0
  147.9877  139.5426  153.2882 N   0  0  0  0  0  0  0  0  0  0  0  0
  146.9711  139.0124  152.3932 C   0  0  0  0  0  0  0  0  0  0  0  0
  145.9040  138.1135  153.0704 C   0  0  1  0  0  0  0  0  0  0  0  0
  146.6224  137.1120  153.7712 O   0  0  0  0  0  0  0  0  0  0  0  0
  144.9876  138.8272  154.0543 C   0  0  0  0  0  0  0  0  0  0  0  0
  143.8147  137.8594  154.1773 C   0  0  0  0  0  0  0  0  0  0  0  0
  143.6916  137.2456  152.8990 O   0  0  0  0  0  0  0  0  0  0  0  0
  144.8682  137.4674  152.1233 C   0  0  2  0  0  0  0  0  0  0  0  0
  145.3087  136.1868  151.3971 C   0  0  0  0  0  0  0  0  0  0  0  0
  152.4534  139.1527  156.3178 H   0  0  0  0  0  0  0  0  0  0  0  0
  150.7191  139.1158  156.0545 H   0  0  0  0  0  0  0  0  0  0  0  0
  151.3623  139.5603  157.6380 H   0  0  0  0  0  0  0  0  0  0  0  0
  152.4600  141.5752  156.5846 H   0  0  0  0  0  0  0  0  0  0  0  0
  151.6962  141.2014  155.0565 H   0  0  0  0  0  0  0  0  0  0  0  0
  149.2093  142.1689  158.2710 H   0  0  0  0  0  0  0  0  0  0  0  0
  150.8130  141.6098  158.5866 H   0  0  0  0  0  0  0  0  0  0  0  0
  149.9345  144.4538  158.0019 H   0  0  0  0  0  0  0  0  0  0  0  0
  152.6938  143.2675  157.4882 H   0  0  0  0  0  0  0  0  0  0  0  0
  151.8004  144.3625  156.4296 H   0  0  0  0  0  0  0  0  0  0  0  0
  153.6341  145.2386  158.3162 H   0  0  0  0  0  0  0  0  0  0  0  0
  152.2364  146.2124  157.8563 H   0  0  0  0  0  0  0  0  0  0  0  0
  152.6642  144.9714  160.4535 H   0  0  0  0  0  0  0  0  0  0  0  0
  151.2692  145.9114  159.9147 H   0  0  0  0  0  0  0  0  0  0  0  0
  146.0594  142.5023  156.0510 H   0  0  0  0  0  0  0  0  0  0  0  0
  149.7614  138.5108  152.6124 H   0  0  0  0  0  0  0  0  0  0  0  0
  146.4866  139.8566  151.9006 H   0  0  0  0  0  0  0  0  0  0  0  0
  147.4782  138.4549  151.6045 H   0  0  0  0  0  0  0  0  0  0  0  0
  147.4673  137.0078  153.3606 H   0  0  0  0  0  0  0  0  0  0  0  0
  145.4606  139.0513  155.0111 H   0  0  0  0  0  0  0  0  0  0  0  0
  144.6195  139.7637  153.6370 H   0  0  0  0  0  0  0  0  0  0  0  0
  144.0322  137.0871  154.9160 H   0  0  0  0  0  0  0  0  0  0  0  0
  142.8908  138.3576  154.4712 H   0  0  0  0  0  0  0  0  0  0  0  0
  144.5640  138.1957  151.3731 H   0  0  0  0  0  0  0  0  0  0  0  0
  146.2120  136.3595  150.8117 H   0  0  0  0  0  0  0  0  0  0  0  0
  144.5314  135.8468  150.7127 H   0  0  0  0  0  0  0  0  0  0  0  0
  145.5075  135.3738  152.0957 H   0  0  0  0  0  0  0  0  0  0  0  0
  1  2  1  0  0  0  0
  1 27  1  0  0  0  0
  1 28  1  0  0  0  0
  1 29  1  0  0  0  0
  2  3  1  0  0  0  0
  2 30  1  0  0  0  0
  2 31  1  0  0  0  0
  3  4  1  0  0  0  0
  3 10  1  0  0  0  0
  4  5  1  0  0  0  0
  4 32  1  0  0  0  0
  4 33  1  0  0  0  0
  5  9  1  0  0  0  0
  5  6  1  0  0  0  0
  5 34  1  0  0  0  0
  6  7  1  0  0  0  0
  6 35  1  0  0  0  0
  6 36  1  0  0  0  0
  7  8  1  0  0  0  0
  7 37  1  0  0  0  0
  7 38  1  0  0  0  0
  8  9  1  0  0  0  0
  8 39  1  0  0  0  0
  8 40  1  0  0  0  0
 10 15  1  0  0  0  0
 10 11  2  0  0  0  0
 11 12  1  0  0  0  0
 12 13  2  0  0  0  0
 12 41  1  0  0  0  0
 13 14  1  0  0  0  0
 14 18  1  0  0  0  0
 14 15  2  0  0  0  0
 15 16  1  0  0  0  0
 16 17  2  0  0  0  0
 17 18  1  0  0  0  0
 17 42  1  0  0  0  0
 18 19  1  0  0  0  0
 19 20  1  0  0  0  0
 19 43  1  0  0  0  0
 19 44  1  0  0  0  0
 20 25  1  0  0  0  0
 20 21  1  0  0  0  0
 20 22  1  0  0  0  0
 21 45  1  0  0  0  0
 22 23  1  0  0  0  0
 22 46  1  0  0  0  0
 22 47  1  0  0  0  0
 23 24  1  0  0  0  0
 23 48  1  0  0  0  0
 23 49  1  0  0  0  0
 24 25  1  0  0  0  0
 25 26  1  0  0  0  0
 25 50  1  0  0  0  0
 26 51  1  0  0  0  0
 26 52  1  0  0  0  0
 26 53  1  0  0  0  0
M  END
> <s_m_source_file>
AV-unprocessed.smi

> <i_m_source_file_index>
15

> <i_lp_mmshare_version>
43012

> <i_f3d_flags>
0

> <s_epik_input>
TzFbQ0gyXVtDSDJdW0NIMl1bQ0BIXTFbQ0gyXU4oW0NIMl1bQ0gzXSljKG5bY0hdbjIpYyhjMjMpbltjSF1uM1tDSDJdW0NAQF00KFtPSF0pW0NIMl1bQ0gyXU9bQ0BIXTRbQ0gzXQ==

> <s_epik_cmdline>
J2VwaWtfcHl0aG9uJywgJy1waCcsICc3LjAnLCAnLXRuJywgJzgnLCAnLW1hJywgJzIwMCcsICctbWV0YWxfYmluZGluZycsICctaW1hZScsICc8aW5maWxlLm1hZT4nLCAnLW9tYWUnLCAnPG91dGZpbGUubWFlPic=

> <r_lp_tautomer_probability>
1

> <r_epik_Ionization_Penalty>
0.00360814

> <r_epik_Ionization_Penalty_Charging>
0

> <r_epik_Ionization_Penalty_Neutral>
0.00360814

> <r_epik_State_Penalty>
0.00237482

> <r_epik_Charging_Adjusted_Penalty>
0.00237482

> <i_epik_Tot_Q>
0

> <i_epik_Tot_abs_Q>
0

> <r_epik_Metal_State_Penalty>
-0

> <b_epik_Metal_Only>
0

> <s_lp_Force_Field>
OPLS_2005

> <r_lp_Energy>
48.2804

> <b_lp_Chiralities_Consistent>
1

> <s_lp_Variant>
AV-unprocessed.smi:15-5

> <Gold.Version>
5.8.1

> <Gold.Id.Protein>
6NUR|6NUR_protein|mol2

> <Gold.PLP.Fitness>
45.3208

> <Gold.PLP.PLP>
-37.2868

> <Gold.PLP.part.hbond>
-2.2323

> <Gold.PLP.part.metal>
0.0000

> <Gold.PLP.part.buried>
-0.0949

> <Gold.PLP.part.nonpolar>
-36.1533

> <Gold.PLP.part.repulsive>
0.4990

> <Gold.PLP.ligand.clash>
0.0000

> <Gold.PLP.ligand.torsion>
0.8352

> <Gold.PLP.Chemscore.Hbond>
2.0000

> <Gold.PLP.Chemscore.CHOScore>
0.9341

> <Gold.PLP.Chemscore.Metal>
0.0000

> <Gold.Chemscore.Hbonds>
donor molecule, donor type, donor heavy atom, donor atom, acceptor molecule, acceptor atom, score
      L1  H    21    45       P1  7948  0.46
      P1  H  7989  7998       L1    16  1.00
      L1  C    17    42       P1  7948  1.00
      L1  C    17    42       P1  7957  0.15

> <Gold.PLP.Chemscore.Internal.Correction>
0.9020

> <Gold.Rescore>
     Score         DG    S(hbond)    S(metal)    S(lipo)     H(rot)  DE(clash)    DE(int)     intcor
      9.95     -16.60       1.69        0.00     100.17       2.44       3.24       3.42       ----

> <Gold.Chemscore.Fitness>
9.9458

> <Gold.Chemscore.DG>
-16.6047

> <Gold.Chemscore.ZeroCoef>
-5.4800

> <Gold.Chemscore.Hbond>
1.6943

> <Gold.Chemscore.Metal>
0.0000

> <Gold.Chemscore.Lipo>
100.1718

> <Gold.Chemscore.Internal_Hbond>
0.0000

> <Gold.Chemscore.DEClash>
3.2371

> <Gold.Chemscore.DEInternal>
3.4218

> <Gold.Chemscore.Rot>
2.4431

> <Gold.Chemscore.Internal.Correction>
   9.000000E+99

> <Gold.Chemscore.Hbonds>
donor molecule, donor type, donor heavy atom, donor atom, acceptor molecule, acceptor atom, score
      L1  H    21    45       P1  7948  0.45
      P1  H  7989  7998       L1    16  0.68

> <Gold.Chemscore.Hbond.Weighted>
-5.6591

> <Gold.Chemscore.Metal.Weighted>
-0.0000

> <Gold.Chemscore.Lipo.Weighted>
-11.7201

> <Gold.Chemscore.Internal_Hbond.Weighted>
0.0000

> <Gold.Chemscore.DEClash.Weighted>
3.2371

> <Gold.Chemscore.DEInternal.Weighted>
3.4218

> <Gold.Chemscore.Rot.Weighted>
6.2544

> <Gold.Chemscore.Internal.Correction.Weighted>
   9.000000E+99

> <Gold.Protein.RotatedTorsions>
[ 6907 6896 6895 6894 ] final  126.84 input  -60.11 | X-H torsion
[ 7974 7965 7964 7962 ] final  -96.49 input  175.53 | X-H torsion
[ 8008 7997 7996 7995 ] final    8.80 input   59.86 | X-H torsion
[ 10167 10162 10161 10158 ] final -120.27 input  -65.29 | X-H torsion
[ 10718 10713 10712 10709 ] final   29.47 input   66.30 | X-H torsion
[ 10763 10752 10751 10750 ] final  -53.67 input  -60.55 | X-H torsion
[ 11005 11000 10999 10996 ] final  -85.31 input  -57.11 | X-H torsion

> <Gold.Protein.ActiveResidues>
 VAL166  LYS551  ARG553  GLY616  TRP617  ASP618  TYR619  PRO620  LYS621  CYS622 
 ASP623  PHE694  ASN695  SER759  ASP760  ASP761  ALA762  ILE779  LEU786  VAL792 
 PHE793  MET794  SER795  GLU796  ALA797  LYS798  CYS799  TRP800  GLU811  SER814 

> <Gold.Protein.RotatedAtoms>
  152.3867  133.6621  159.6203 H   0  0  0  0  0  0  0  0  0  0  0  0  # atno 6907 bound_to 6896
  150.7784  133.9024  159.3354 H   0  0  0  0  0  0  0  0  0  0  0  0  # atno 6908 bound_to 6896
  151.6819  135.0962  160.0269 H   0  0  0  0  0  0  0  0  0  0  0  0  # atno 6909 bound_to 6896
  145.3461  140.9468  143.2580 H   0  0  0  0  0  0  0  0  0  0  0  0  # atno 7974 bound_to 7965
  154.7717  140.2803  155.6133 H   0  0  0  0  0  0  0  0  0  0  0  0  # atno 8008 bound_to 7997
  156.2935  140.2640  156.2448 H   0  0  0  0  0  0  0  0  0  0  0  0  # atno 8009 bound_to 7997
  154.9892  140.0374  157.2302 H   0  0  0  0  0  0  0  0  0  0  0  0  # atno 8010 bound_to 7997
  140.0376  143.5185  152.2146 H   0  0  0  0  0  0  0  0  0  0  0  0  # atno 10167 bound_to 10162
  157.2470  130.7097  149.6386 H   0  0  0  0  0  0  0  0  0  0  0  0  # atno 10718 bound_to 10713
  154.1626  135.6472  153.4989 H   0  0  0  0  0  0  0  0  0  0  0  0  # atno 10763 bound_to 10752
  153.0106  135.5364  154.6695 H   0  0  0  0  0  0  0  0  0  0  0  0  # atno 10764 bound_to 10752
  154.6013  135.2944  155.0504 H   0  0  0  0  0  0  0  0  0  0  0  0  # atno 10765 bound_to 10752
  141.1642  133.7392  156.8996 H   0  0  0  0  0  0  0  0  0  0  0  0  # atno 11005 bound_to 11000
  144.8753  139.4980  143.6748 LP  0  0  0  0  0  0  0  0  0  0  0  0  # atno 17320 bound_to 7965
  146.2987  139.7358  142.9107 LP  0  0  0  0  0  0  0  0  0  0  0  0  # atno 17321 bound_to 7965
  139.6035  144.7589  151.3117 LP  0  0  0  0  0  0  0  0  0  0  0  0  # atno 17342 bound_to 10162
  140.7274  143.6963  150.7881 LP  0  0  0  0  0  0  0  0  0  0  0  0  # atno 17343 bound_to 10162
  155.9667  130.4440  150.5442 LP  0  0  0  0  0  0  0  0  0  0  0  0  # atno 17370 bound_to 10713
  157.3318  131.0701  151.1855 LP  0  0  0  0  0  0  0  0  0  0  0  0  # atno 17371 bound_to 10713
  140.1591  134.9177  157.2692 LP  0  0  0  0  0  0  0  0  0  0  0  0  # atno 17394 bound_to 11000
  140.2632  134.3547  155.7399 LP  0  0  0  0  0  0  0  0  0  0  0  0  # atno 17395 bound_to 11000

$$$$
