AV-unprocessed.smi:1|AV-procd|sdf|3|dock1
  -GOLD-   2262015 83D 1   1.00000     0.00000
 Structure written by MMmdl.
 57 62  0  0  0  0  0  0  0  0  1 V2000
  147.8119  133.2097  152.9366 O   0  0  0  0  0  0  0  0  0  0  0  0
  148.2936  132.2965  153.6077 C   0  0  0  0  0  0  0  0  0  0  0  0
  149.1191  132.5473  154.7757 N   0  0  0  0  0  0  0  0  0  0  0  0
  149.5535  133.7374  155.2521 C   0  0  0  0  0  0  0  0  0  0  0  0
  150.7396  133.8734  155.9012 N   0  0  0  0  0  0  0  0  0  0  0  0
  151.1226  135.0689  156.3576 C   0  0  0  0  0  0  0  0  0  0  0  0
  150.4809  136.2355  156.2770 N   0  0  0  0  0  0  0  0  0  0  0  0
  149.2845  136.1088  155.6312 C   0  0  0  0  0  0  0  0  0  0  0  0
  148.7565  134.9011  155.0949 C   0  0  0  0  0  0  0  0  0  0  0  0
  147.5201  135.1452  154.5118 N   0  0  0  0  0  0  0  0  0  0  0  0
  147.3279  136.4225  154.7022 C   0  0  0  0  0  0  0  0  0  0  0  0
  148.3344  137.0796  155.3743 N   0  0  0  0  0  0  0  0  0  0  0  0
  148.3745  138.5285  155.7510 C   0  0  2  0  0  0  0  0  0  0  0  0
  149.6715  138.9996  155.5485 O   0  0  0  0  0  0  0  0  0  0  0  0
  150.0612  139.8462  156.6205 C   0  0  2  0  0  0  0  0  0  0  0  0
  151.5872  139.8723  156.7681 C   0  0  0  0  0  0  0  0  0  0  0  0
  151.9674  141.0535  157.4539 O   0  0  0  0  0  0  0  0  0  0  0  0
  152.7925  140.9807  158.5162 C   0  0  0  0  0  0  0  0  0  0  0  0
  153.5654  140.0414  158.7174 O   0  0  0  0  0  0  0  0  0  0  0  0
  152.6719  142.1565  159.4257 C   0  0  0  0  0  0  0  0  0  0  0  0
  152.3305  143.4186  158.8858 C   0  0  0  0  0  0  0  0  0  0  0  0
  152.2101  144.5471  159.7197 C   0  0  0  0  0  0  0  0  0  0  0  0
  152.4302  144.4277  161.1041 C   0  0  0  0  0  0  0  0  0  0  0  0
  152.7696  143.1777  161.6538 C   0  0  0  0  0  0  0  0  0  0  0  0
  152.8900  142.0478  160.8216 C   0  0  0  0  0  0  0  0  0  0  0  0
  149.3201  139.2806  157.8300 C   0  0  2  0  0  0  0  0  0  0  0  0
  150.0044  138.1873  158.4167 O   0  0  0  0  0  0  0  0  0  0  0  0
  148.8585  137.0802  158.9125 S   0  0  0  0  0  0  0  0  0  0  0  0
  149.2930  135.7340  158.5111 O   0  0  0  0  0  0  0  0  0  0  0  0
  148.4787  137.4062  160.2957 O   0  0  0  0  0  0  0  0  0  0  0  0
  147.6144  137.5670  157.9080 O   0  0  0  0  0  0  0  0  0  0  0  0
  148.0080  138.7561  157.2329 C   0  0  2  0  0  0  0  0  0  0  0  0
  147.9836  130.8567  153.3194 C   0  0  0  0  0  0  0  0  0  0  0  0
  148.8087  129.8369  153.8449 C   0  0  0  0  0  0  0  0  0  0  0  0
  148.5175  128.4824  153.5909 C   0  0  0  0  0  0  0  0  0  0  0  0
  147.3944  128.1361  152.8164 C   0  0  0  0  0  0  0  0  0  0  0  0
  146.5599  129.1450  152.2995 C   0  0  0  0  0  0  0  0  0  0  0  0
  146.8505  130.5000  152.5522 C   0  0  0  0  0  0  0  0  0  0  0  0
  149.4119  131.7312  155.2928 H   0  0  0  0  0  0  0  0  0  0  0  0
  152.0779  135.0942  156.8607 H   0  0  0  0  0  0  0  0  0  0  0  0
  146.4329  136.9243  154.3642 H   0  0  0  0  0  0  0  0  0  0  0  0
  147.6790  139.0101  155.0625 H   0  0  0  0  0  0  0  0  0  0  0  0
  149.6825  140.8496  156.4181 H   0  0  0  0  0  0  0  0  0  0  0  0
  151.9214  139.0078  157.3428 H   0  0  0  0  0  0  0  0  0  0  0  0
  152.0652  139.8228  155.7885 H   0  0  0  0  0  0  0  0  0  0  0  0
  152.1578  143.5350  157.8254 H   0  0  0  0  0  0  0  0  0  0  0  0
  151.9489  145.5054  159.2956 H   0  0  0  0  0  0  0  0  0  0  0  0
  152.3388  145.2933  161.7435 H   0  0  0  0  0  0  0  0  0  0  0  0
  152.9383  143.0844  162.7163 H   0  0  0  0  0  0  0  0  0  0  0  0
  153.1515  141.1035  161.2764 H   0  0  0  0  0  0  0  0  0  0  0  0
  149.1511  140.0372  158.5970 H   0  0  0  0  0  0  0  0  0  0  0  0
  147.2239  139.5117  157.2871 H   0  0  0  0  0  0  0  0  0  0  0  0
  149.6743  130.0866  154.4418 H   0  0  0  0  0  0  0  0  0  0  0  0
  149.1568  127.7094  153.9912 H   0  0  0  0  0  0  0  0  0  0  0  0
  147.1710  127.0974  152.6222 H   0  0  0  0  0  0  0  0  0  0  0  0
  145.6940  128.8802  151.7108 H   0  0  0  0  0  0  0  0  0  0  0  0
  146.1919  131.2580  152.1534 H   0  0  0  0  0  0  0  0  0  0  0  0
  1  2  2  0  0  0  0
  2  3  1  0  0  0  0
  2 33  1  0  0  0  0
  3  4  1  0  0  0  0
  3 39  1  0  0  0  0
  4  9  1  0  0  0  0
  4  5  2  0  0  0  0
  5  6  1  0  0  0  0
  6  7  2  0  0  0  0
  6 40  1  0  0  0  0
  7  8  1  0  0  0  0
  8 12  1  0  0  0  0
  8  9  2  0  0  0  0
  9 10  1  0  0  0  0
 10 11  2  0  0  0  0
 11 12  1  0  0  0  0
 11 41  1  0  0  0  0
 12 13  1  0  0  0  0
 13 32  1  0  0  0  0
 13 14  1  0  0  0  0
 13 42  1  0  0  0  0
 14 15  1  0  0  0  0
 15 16  1  0  0  0  0
 15 26  1  0  0  0  0
 15 43  1  0  0  0  0
 16 17  1  0  0  0  0
 16 44  1  0  0  0  0
 16 45  1  0  0  0  0
 17 18  1  0  0  0  0
 18 19  2  0  0  0  0
 18 20  1  0  0  0  0
 20 25  1  0  0  0  0
 20 21  2  0  0  0  0
 21 22  1  0  0  0  0
 21 46  1  0  0  0  0
 22 23  2  0  0  0  0
 22 47  1  0  0  0  0
 23 24  1  0  0  0  0
 23 48  1  0  0  0  0
 24 25  2  0  0  0  0
 24 49  1  0  0  0  0
 25 50  1  0  0  0  0
 26 32  1  0  0  0  0
 26 27  1  0  0  0  0
 26 51  1  0  0  0  0
 27 28  1  0  0  0  0
 28 29  2  0  0  0  0
 28 30  2  0  0  0  0
 28 31  1  0  0  0  0
 31 32  1  0  0  0  0
 32 52  1  0  0  0  0
 33 38  1  0  0  0  0
 33 34  2  0  0  0  0
 34 35  1  0  0  0  0
 34 53  1  0  0  0  0
 35 36  2  0  0  0  0
 35 54  1  0  0  0  0
 36 37  1  0  0  0  0
 36 55  1  0  0  0  0
 37 38  2  0  0  0  0
 37 56  1  0  0  0  0
 38 57  1  0  0  0  0
M  END
> <s_m_source_file>
AV-unprocessed.smi

> <i_m_source_file_index>
1

> <i_lp_mmshare_version>
43012

> <i_f3d_flags>
0

> <s_epik_input>
W2NIXTFbY0hdW2NIXVtjSF1bY0hdYzFDKD1PKVtOSF1jKG5bY0hdbjIpYyhjMjMpbltjSF1uM1tDQEBIXShbQ0BIXShbQ0BIXTQ1KU9TKE81KSg9Tyk9TylPW0NASF00W0NIMl1PQyg9TyljNltjSF1bY0hdW2NIXVtjSF1bY0hdNg==

> <s_epik_cmdline>
J2VwaWtfcHl0aG9uJywgJy1waCcsICc3LjAnLCAnLXRuJywgJzgnLCAnLW1hJywgJzIwMCcsICctbWV0YWxfYmluZGluZycsICctaW1hZScsICc8aW5maWxlLm1hZT4nLCAnLW9tYWUnLCAnPG91dGZpbGUubWFlPic=

> <r_lp_tautomer_probability>
1

> <r_epik_Ionization_Penalty>
0.00195722

> <r_epik_Ionization_Penalty_Charging>
0

> <r_epik_Ionization_Penalty_Neutral>
0.00195722

> <r_epik_State_Penalty>
0.00633741

> <r_epik_Charging_Adjusted_Penalty>
0.00633741

> <i_epik_Tot_Q>
0

> <i_epik_Tot_abs_Q>
0

> <r_epik_Metal_State_Penalty>
0.341185

> <b_epik_Metal_Only>
0

> <s_epik_Chemistry_Notes>
This compound has an ester and may undergo hydrolysis at high or low pH. This compound contains an acetal/aminal-like group ( X-CH(R)-Y where X, Y are N, S, or O) that may be acid/base labile, releasing an aldehyde.

> <s_lp_Force_Field>
OPLS_2005

> <r_lp_Energy>
44.5828

> <b_lp_Chiralities_Consistent>
1

> <s_lp_Variant>
AV-unprocessed.smi:1-3

> <Gold.Version>
5.8.1

> <Gold.Id.Protein>
6NUR|6NUR_protein|mol2

> <Gold.PLP.Fitness>
59.4636

> <Gold.PLP.PLP>
-54.2967

> <Gold.PLP.part.hbond>
-4.0000

> <Gold.PLP.part.metal>
0.0000

> <Gold.PLP.part.buried>
-7.3374

> <Gold.PLP.part.nonpolar>
-43.3406

> <Gold.PLP.part.repulsive>
0.3124

> <Gold.PLP.ligand.clash>
0.0000

> <Gold.PLP.ligand.torsion>
2.2491

> <Gold.PLP.Chemscore.Hbond>
2.8682

> <Gold.PLP.Chemscore.CHOScore>
0.0000

> <Gold.PLP.Chemscore.Metal>
0.0000

> <Gold.Chemscore.Hbonds>
donor molecule, donor type, donor heavy atom, donor atom, acceptor molecule, acceptor atom, score
      P1  H  6896  6908       L1    29  0.83
      P1  H  6931  6943       L1    30  0.56
      P1  H  6934  6947       L1    30  0.34
      P1  H  7997  8010       L1    19  1.00

> <Gold.PLP.Chemscore.Internal.Correction>
1.0606

> <Gold.Rescore>
     Score         DG    S(hbond)    S(metal)    S(lipo)     H(rot)  DE(clash)    DE(int)     intcor
     10.71     -22.19       2.61        0.00     114.90       2.13       0.01      11.47       ----

> <Gold.Chemscore.Fitness>
10.7110

> <Gold.Chemscore.DG>
-22.1911

> <Gold.Chemscore.ZeroCoef>
-5.4800

> <Gold.Chemscore.Hbond>
2.6136

> <Gold.Chemscore.Metal>
0.0000

> <Gold.Chemscore.Lipo>
114.8975

> <Gold.Chemscore.Internal_Hbond>
0.0000

> <Gold.Chemscore.DEClash>
0.0060

> <Gold.Chemscore.DEInternal>
11.4742

> <Gold.Chemscore.Rot>
2.1333

> <Gold.Chemscore.Internal.Correction>
   9.000000E+99

> <Gold.Chemscore.Hbonds>
donor molecule, donor type, donor heavy atom, donor atom, acceptor molecule, acceptor atom, score
      P1  H  6896  6908       L1    29  0.78
      P1  H  6931  6943       L1    30  0.56
      P1  H  6934  6947       L1    30  0.33
      P1  H  7997  8010       L1    19  0.37

> <Gold.Chemscore.Hbond.Weighted>
-8.7295

> <Gold.Chemscore.Metal.Weighted>
-0.0000

> <Gold.Chemscore.Lipo.Weighted>
-13.4430

> <Gold.Chemscore.Internal_Hbond.Weighted>
0.0000

> <Gold.Chemscore.DEClash.Weighted>
0.0060

> <Gold.Chemscore.DEInternal.Weighted>
11.4742

> <Gold.Chemscore.Rot.Weighted>
5.4614

> <Gold.Chemscore.Internal.Correction.Weighted>
   9.000000E+99

> <Gold.Protein.RotatedTorsions>
[ 6907 6896 6895 6894 ] final -175.25 input  -60.11 | X-H torsion
[ 7974 7965 7964 7962 ] final  -68.40 input  175.53 | X-H torsion
[ 8008 7997 7996 7995 ] final   27.70 input   59.86 | X-H torsion
[ 10167 10162 10161 10158 ] final  137.25 input  -65.29 | X-H torsion
[ 10718 10713 10712 10709 ] final  -86.53 input   66.30 | X-H torsion
[ 10763 10752 10751 10750 ] final -112.73 input  -60.55 | X-H torsion
[ 11005 11000 10999 10996 ] final  -76.16 input  -57.11 | X-H torsion

> <Gold.Protein.ActiveResidues>
 VAL166  LYS551  ARG553  GLY616  TRP617  ASP618  TYR619  PRO620  LYS621  CYS622 
 ASP623  PHE694  ASN695  SER759  ASP760  ASP761  ALA762  ILE779  LEU786  VAL792 
 PHE793  MET794  SER795  GLU796  ALA797  LYS798  CYS799  TRP800  GLU811  SER814 

> <Gold.Protein.RotatedAtoms>
  151.5855  133.3372  159.3016 H   0  0  0  0  0  0  0  0  0  0  0  0  # atno 6907 bound_to 6896
  150.8289  134.7536  159.6848 H   0  0  0  0  0  0  0  0  0  0  0  0  # atno 6908 bound_to 6896
  152.4375  134.5663  159.9960 H   0  0  0  0  0  0  0  0  0  0  0  0  # atno 6909 bound_to 6896
  145.7170  140.9054  143.0650 H   0  0  0  0  0  0  0  0  0  0  0  0  # atno 7974 bound_to 7965
  155.0470  140.3175  155.4705 H   0  0  0  0  0  0  0  0  0  0  0  0  # atno 8008 bound_to 7997
  156.2842  140.2153  156.5539 H   0  0  0  0  0  0  0  0  0  0  0  0  # atno 8009 bound_to 7997
  154.7242  140.0487  157.0655 H   0  0  0  0  0  0  0  0  0  0  0  0  # atno 8010 bound_to 7997
  139.5151  144.6420  151.5543 H   0  0  0  0  0  0  0  0  0  0  0  0  # atno 10167 bound_to 10162
  155.9989  130.4768  150.4729 H   0  0  0  0  0  0  0  0  0  0  0  0  # atno 10718 bound_to 10713
  154.8363  135.4480  154.1239 H   0  0  0  0  0  0  0  0  0  0  0  0  # atno 10763 bound_to 10752
  153.2467  135.6922  153.7730 H   0  0  0  0  0  0  0  0  0  0  0  0  # atno 10764 bound_to 10752
  153.7057  135.3364  155.3211 H   0  0  0  0  0  0  0  0  0  0  0  0  # atno 10765 bound_to 10752
  141.1651  133.6973  156.7627 H   0  0  0  0  0  0  0  0  0  0  0  0  # atno 11005 bound_to 11000
  144.6926  139.9151  143.7465 LP  0  0  0  0  0  0  0  0  0  0  0  0  # atno 17320 bound_to 7965
  146.0660  139.3651  143.0552 LP  0  0  0  0  0  0  0  0  0  0  0  0  # atno 17321 bound_to 7965
  140.6190  143.9294  150.6511 LP  0  0  0  0  0  0  0  0  0  0  0  0  # atno 17342 bound_to 10162
  140.2561  143.3557  152.1363 LP  0  0  0  0  0  0  0  0  0  0  0  0  # atno 17343 bound_to 10162
  157.2742  131.0593  151.2240 LP  0  0  0  0  0  0  0  0  0  0  0  0  # atno 17370 bound_to 10713
  157.3309  130.6985  149.6324 LP  0  0  0  0  0  0  0  0  0  0  0  0  # atno 17371 bound_to 10713
  140.2522  134.8532  157.3678 LP  0  0  0  0  0  0  0  0  0  0  0  0  # atno 17394 bound_to 11000
  140.1692  134.4631  155.7843 LP  0  0  0  0  0  0  0  0  0  0  0  0  # atno 17395 bound_to 11000

$$$$
