AV-unprocessed.smi:2671|AV-procd|sdf|10352|dock7
  -GOLD-   2272014373D 1   1.00000     0.00000
 Structure written by MMmdl.
 29 30  0  0  0  0  0  0  0  0  1 V2000
  149.2061  140.9243  153.2133 O   0  0  0  0  0  0  0  0  0  0  0  0
  149.1642  141.2042  154.5468 C   0  0  0  0  0  0  0  0  0  0  0  0
  147.9267  141.4819  155.1644 C   0  0  0  0  0  0  0  0  0  0  0  0
  147.9584  141.7645  156.5498 C   0  0  0  0  0  0  0  0  0  0  0  0
  146.6974  142.0808  157.3395 C   0  0  0  0  0  0  0  0  0  0  0  0
  146.9839  142.4934  158.5746 F   0  0  0  0  0  0  0  0  0  0  0  0
  146.0089  143.0412  156.7225 F   0  0  0  0  0  0  0  0  0  0  0  0
  145.9346  140.9907  157.4247 F   0  0  0  0  0  0  0  0  0  0  0  0
  149.1211  141.7662  157.2423 N   0  0  0  0  0  0  0  0  0  0  0  0
  150.2246  141.4881  156.5477 C   0  0  0  0  0  0  0  0  0  0  0  0
  151.7450  141.4955  157.4600 S   0  0  0  0  0  0  0  0  0  0  0  0
  151.1026  141.9609  159.0911 C   0  0  0  0  0  0  0  0  0  0  0  0
  152.2167  142.4480  160.0274 C   0  0  2  0  0  0  0  0  0  0  0  0
  153.3043  141.4087  160.3203 C   0  0  0  0  0  0  0  0  0  0  0  0
  153.7187  141.6920  161.7582 C   0  0  0  0  0  0  0  0  0  0  0  0
  152.7937  142.8261  162.1986 C   0  0  0  0  0  0  0  0  0  0  0  0
  151.6894  142.7349  161.3130 O   0  0  0  0  0  0  0  0  0  0  0  0
  150.3190  141.2089  155.2465 N   0  0  0  0  0  0  0  0  0  0  0  0
  149.7941  140.2133  153.0094 H   0  0  0  0  0  0  0  0  0  0  0  0
  147.0055  141.4774  154.6005 H   0  0  0  0  0  0  0  0  0  0  0  0
  150.3614  142.7491  158.9563 H   0  0  0  0  0  0  0  0  0  0  0  0
  150.5823  141.1078  159.5276 H   0  0  0  0  0  0  0  0  0  0  0  0
  152.6690  143.3596  159.6324 H   0  0  0  0  0  0  0  0  0  0  0  0
  152.9062  140.3959  160.2473 H   0  0  0  0  0  0  0  0  0  0  0  0
  154.1382  141.4885  159.6222 H   0  0  0  0  0  0  0  0  0  0  0  0
  153.5597  140.8059  162.3737 H   0  0  0  0  0  0  0  0  0  0  0  0
  154.7685  141.9742  161.8418 H   0  0  0  0  0  0  0  0  0  0  0  0
  152.4827  142.7364  163.2398 H   0  0  0  0  0  0  0  0  0  0  0  0
  153.2810  143.7938  162.0696 H   0  0  0  0  0  0  0  0  0  0  0  0
  1  2  1  0  0  0  0
  1 19  1  0  0  0  0
  2 18  1  0  0  0  0
  2  3  2  0  0  0  0
  3  4  1  0  0  0  0
  3 20  1  0  0  0  0
  4  5  1  0  0  0  0
  4  9  2  0  0  0  0
  5  6  1  0  0  0  0
  5  7  1  0  0  0  0
  5  8  1  0  0  0  0
  9 10  1  0  0  0  0
 10 11  1  0  0  0  0
 10 18  2  0  0  0  0
 11 12  1  0  0  0  0
 12 13  1  0  0  0  0
 12 21  1  0  0  0  0
 12 22  1  0  0  0  0
 13 17  1  0  0  0  0
 13 14  1  0  0  0  0
 13 23  1  0  0  0  0
 14 15  1  0  0  0  0
 14 24  1  0  0  0  0
 14 25  1  0  0  0  0
 15 16  1  0  0  0  0
 15 26  1  0  0  0  0
 15 27  1  0  0  0  0
 16 17  1  0  0  0  0
 16 28  1  0  0  0  0
 16 29  1  0  0  0  0
M  END
> <s_m_source_file>
AV-unprocessed.smi

> <i_m_source_file_index>
2671

> <i_lp_mmshare_version>
43012

> <i_f3d_flags>
0

> <s_epik_input>
W09IXWMxW2NIXWMoQyhGKShGKUYpbmMobjEpU1tDSDJdW0NAQEhdMltDSDJdW0NIMl1bQ0gyXU8y

> <s_epik_cmdline>
J2VwaWtfcHl0aG9uJywgJy1waCcsICc3LjAnLCAnLXRuJywgJzgnLCAnLW1hJywgJzIwMCcsICctbWV0YWxfYmluZGluZycsICctaW1hZScsICc8aW5maWxlLm1hZT4nLCAnLW9tYWUnLCAnPG91dGZpbGUubWFlPic=

> <r_lp_tautomer_probability>
0.0660145

> <r_epik_Ionization_Penalty>
3.60098

> <r_epik_Ionization_Penalty_Charging>
0

> <r_epik_Ionization_Penalty_Neutral>
3.60098

> <r_epik_State_Penalty>
2.71709

> <r_epik_Charging_Adjusted_Penalty>
2.71709

> <i_epik_Tot_Q>
0

> <i_epik_Tot_abs_Q>
0

> <r_epik_Metal_State_Penalty>
3.44057

> <b_epik_Metal_Only>
0

> <s_lp_Force_Field>
OPLS_2005

> <r_lp_Energy>
11.8845

> <b_lp_Chiralities_Consistent>
1

> <s_lp_Variant>
AV-unprocessed.smi:2671-7

> <Gold.Version>
5.8.1

> <Gold.Id.Protein>
6NUR|6NUR_protein|mol2

> <Gold.PLP.Fitness>
39.2536

> <Gold.PLP.PLP>
-34.3492

> <Gold.PLP.part.hbond>
-4.1612

> <Gold.PLP.part.metal>
0.0000

> <Gold.PLP.part.buried>
-5.1658

> <Gold.PLP.part.nonpolar>
-26.2956

> <Gold.PLP.part.repulsive>
0.3267

> <Gold.PLP.ligand.clash>
0.0000

> <Gold.PLP.ligand.torsion>
0.2827

> <Gold.PLP.Chemscore.Hbond>
1.8211

> <Gold.PLP.Chemscore.CHOScore>
0.0000

> <Gold.PLP.Chemscore.Metal>
0.0000

> <Gold.Chemscore.Hbonds>
donor molecule, donor type, donor heavy atom, donor atom, acceptor molecule, acceptor atom, score
      L1  H     1    19       P1  7957  0.06
      P1  H  6933  6945       L1    17  0.39
      P1  H  7989  7998       L1    18  0.27
      P1  H  8011  8017       L1     1  1.00

> <Gold.PLP.Chemscore.Internal.Correction>
0.0065

> <Gold.Rescore>
     Score         DG    S(hbond)    S(metal)    S(lipo)     H(rot)  DE(clash)    DE(int)     intcor
     12.45     -12.77       1.59        0.00      66.54       2.27       0.19       0.14       ----

> <Gold.Chemscore.Fitness>
12.4450

> <Gold.Chemscore.DG>
-12.7668

> <Gold.Chemscore.ZeroCoef>
-5.4800

> <Gold.Chemscore.Hbond>
1.5868

> <Gold.Chemscore.Metal>
0.0000

> <Gold.Chemscore.Lipo>
66.5398

> <Gold.Chemscore.Internal_Hbond>
0.0000

> <Gold.Chemscore.DEClash>
0.1865

> <Gold.Chemscore.DEInternal>
0.1353

> <Gold.Chemscore.Rot>
2.2650

> <Gold.Chemscore.Internal.Correction>
   9.000000E+99

> <Gold.Chemscore.Hbonds>
donor molecule, donor type, donor heavy atom, donor atom, acceptor molecule, acceptor atom, score
      L1  H     1    19       P1  7957  0.09
      P1  H  6933  6945       L1    17  0.31
      P1  H  7989  7998       L1    18  0.03
      P1  H  8011  8017       L1     1  0.46

> <Gold.Chemscore.Hbond.Weighted>
-5.3001

> <Gold.Chemscore.Metal.Weighted>
-0.0000

> <Gold.Chemscore.Lipo.Weighted>
-7.7852

> <Gold.Chemscore.Internal_Hbond.Weighted>
0.0000

> <Gold.Chemscore.DEClash.Weighted>
0.1865

> <Gold.Chemscore.DEInternal.Weighted>
0.1353

> <Gold.Chemscore.Rot.Weighted>
5.7984

> <Gold.Chemscore.Internal.Correction.Weighted>
   9.000000E+99

> <Gold.Protein.RotatedTorsions>
[ 6907 6896 6895 6894 ] final    0.23 input  -60.11 | X-H torsion
[ 7974 7965 7964 7962 ] final  133.01 input  175.53 | X-H torsion
[ 8008 7997 7996 7995 ] final   89.45 input   59.86 | X-H torsion
[ 10167 10162 10161 10158 ] final  -15.85 input  -65.29 | X-H torsion
[ 10718 10713 10712 10709 ] final  139.82 input   66.30 | X-H torsion
[ 10763 10752 10751 10750 ] final  -14.25 input  -60.55 | X-H torsion
[ 11005 11000 10999 10996 ] final  130.61 input  -57.11 | X-H torsion

> <Gold.Protein.ActiveResidues>
 VAL166  LYS551  ARG553  GLY616  TRP617  ASP618  TYR619  PRO620  LYS621  CYS622 
 ASP623  PHE694  ASN695  SER759  ASP760  ASP761  ALA762  ILE779  LEU786  VAL792 
 PHE793  MET794  SER795  GLU796  ALA797  LYS798  CYS799  TRP800  GLU811  SER814 

> <Gold.Protein.RotatedAtoms>
  151.5730  135.1061  159.9999 H   0  0  0  0  0  0  0  0  0  0  0  0  # atno 6907 bound_to 6896
  152.4391  133.7411  159.6652 H   0  0  0  0  0  0  0  0  0  0  0  0  # atno 6908 bound_to 6896
  150.8294  133.8048  159.3128 H   0  0  0  0  0  0  0  0  0  0  0  0  # atno 6909 bound_to 6896
  144.9909  139.4407  143.5340 H   0  0  0  0  0  0  0  0  0  0  0  0  # atno 7974 bound_to 7965
  156.0001  140.3360  155.6837 H   0  0  0  0  0  0  0  0  0  0  0  0  # atno 8008 bound_to 7997
  155.6302  140.0684  157.2669 H   0  0  0  0  0  0  0  0  0  0  0  0  # atno 8009 bound_to 7997
  154.4246  140.1761  156.1452 H   0  0  0  0  0  0  0  0  0  0  0  0  # atno 8010 bound_to 7997
  140.7225  143.5176  150.9672 H   0  0  0  0  0  0  0  0  0  0  0  0  # atno 10167 bound_to 10162
  157.4102  131.1027  151.0462 H   0  0  0  0  0  0  0  0  0  0  0  0  # atno 10718 bound_to 10713
  153.5255  135.7015  153.5710 H   0  0  0  0  0  0  0  0  0  0  0  0  # atno 10763 bound_to 10752
  153.3740  135.3937  155.1809 H   0  0  0  0  0  0  0  0  0  0  0  0  # atno 10764 bound_to 10752
  154.8690  135.3819  154.4747 H   0  0  0  0  0  0  0  0  0  0  0  0  # atno 10765 bound_to 10752
  139.9682  134.9585  156.9319 H   0  0  0  0  0  0  0  0  0  0  0  0  # atno 11005 bound_to 11000
  146.3431  139.9240  142.8762 LP  0  0  0  0  0  0  0  0  0  0  0  0  # atno 17320 bound_to 7965
  145.2287  140.9964  143.4003 LP  0  0  0  0  0  0  0  0  0  0  0  0  # atno 17321 bound_to 7965
  139.8892  143.6974  152.3147 LP  0  0  0  0  0  0  0  0  0  0  0  0  # atno 17342 bound_to 10162
  139.7284  144.7588  151.0842 LP  0  0  0  0  0  0  0  0  0  0  0  0  # atno 17343 bound_to 10162
  157.1429  130.6151  149.5560 LP  0  0  0  0  0  0  0  0  0  0  0  0  # atno 17370 bound_to 10713
  155.9848  130.4875  150.7002 LP  0  0  0  0  0  0  0  0  0  0  0  0  # atno 17371 bound_to 10713
  140.5350  134.0776  155.7326 LP  0  0  0  0  0  0  0  0  0  0  0  0  # atno 17394 bound_to 11000
  141.1362  133.9218  157.2428 LP  0  0  0  0  0  0  0  0  0  0  0  0  # atno 17395 bound_to 11000

$$$$
