AV-unprocessed.smi:2198|AV-procd|sdf|8915|dock4
  -GOLD-   2272012133D 1   1.00000     0.00000
 Structure written by MMmdl.
 43 44  0  0  0  0  0  0  0  0  1 V2000
  147.3845  141.6158  153.4609 C   0  0  0  0  0  0  0  0  0  0  0  0
  148.1677  141.0915  154.6448 C   0  0  0  0  0  0  0  0  0  0  0  0
  149.3567  140.4729  154.2956 N   0  0  0  0  0  0  0  0  0  0  0  0
  150.1426  139.9603  155.3122 C   0  0  0  0  0  0  0  0  0  0  0  0
  151.4264  139.2969  154.8445 C   0  0  0  0  0  0  0  0  0  0  0  0
  149.7656  140.0640  156.6120 C   0  0  0  0  0  0  0  0  0  0  0  0
  150.6091  139.5176  157.7632 C   0  0  0  0  0  0  0  0  0  0  0  0
  151.9685  140.1895  157.9734 C   0  0  0  0  0  0  0  0  0  0  0  0
  152.9977  139.6625  157.5509 O   0  0  0  0  0  0  0  0  0  0  0  0
  151.9549  141.3574  158.6333 N   0  0  0  0  0  0  0  0  0  0  0  0
  153.1314  142.1619  158.9585 C   0  0  2  0  0  0  0  0  0  0  0  0
  153.7184  141.7240  160.3142 C   0  0  0  0  0  0  0  0  0  0  0  0
  152.8276  142.1417  161.4966 C   0  0  0  0  0  0  0  0  0  0  0  0
  152.5434  143.6514  161.4755 C   0  0  0  0  0  0  0  0  0  0  0  0
  151.9083  144.0875  160.1415 C   0  0  1  0  0  0  0  0  0  0  0  0
  151.6211  145.5956  160.1233 C   0  0  0  0  0  0  0  0  0  0  0  0
  152.8041  143.6714  158.9563 C   0  0  0  0  0  0  0  0  0  0  0  0
  148.4863  140.7440  156.9241 C   0  0  0  0  0  0  0  0  0  0  0  0
  148.0966  140.8823  158.0827 O   0  0  0  0  0  0  0  0  0  0  0  0
  147.7216  141.2390  155.8552 N   0  0  0  0  0  0  0  0  0  0  0  0
  149.6774  140.3788  153.3426 H   0  0  0  0  0  0  0  0  0  0  0  0
  146.3877  141.9385  153.7647 H   0  0  0  0  0  0  0  0  0  0  0  0
  147.2732  140.8415  152.7012 H   0  0  0  0  0  0  0  0  0  0  0  0
  147.8990  142.4678  153.0161 H   0  0  0  0  0  0  0  0  0  0  0  0
  151.4357  138.2442  155.1274 H   0  0  0  0  0  0  0  0  0  0  0  0
  152.2928  139.7832  155.2929 H   0  0  0  0  0  0  0  0  0  0  0  0
  151.5359  139.3526  153.7607 H   0  0  0  0  0  0  0  0  0  0  0  0
  150.7733  138.4535  157.5900 H   0  0  0  0  0  0  0  0  0  0  0  0
  150.0563  139.5631  158.7021 H   0  0  0  0  0  0  0  0  0  0  0  0
  151.0622  141.7161  158.9394 H   0  0  0  0  0  0  0  0  0  0  0  0
  153.8889  141.9716  158.1961 H   0  0  0  0  0  0  0  0  0  0  0  0
  153.8772  140.6450  160.3269 H   0  0  0  0  0  0  0  0  0  0  0  0
  154.7035  142.1755  160.4374 H   0  0  0  0  0  0  0  0  0  0  0  0
  151.8865  141.5914  161.4636 H   0  0  0  0  0  0  0  0  0  0  0  0
  153.3091  141.8685  162.4358 H   0  0  0  0  0  0  0  0  0  0  0  0
  151.8853  143.9102  162.3058 H   0  0  0  0  0  0  0  0  0  0  0  0
  153.4736  144.1979  161.6379 H   0  0  0  0  0  0  0  0  0  0  0  0
  150.9510  143.5742  160.0411 H   0  0  0  0  0  0  0  0  0  0  0  0
  152.5392  146.1762  160.2170 H   0  0  0  0  0  0  0  0  0  0  0  0
  150.9621  145.8797  160.9442 H   0  0  0  0  0  0  0  0  0  0  0  0
  151.1340  145.8905  159.1933 H   0  0  0  0  0  0  0  0  0  0  0  0
  153.7382  144.2329  159.0018 H   0  0  0  0  0  0  0  0  0  0  0  0
  152.3331  143.9530  158.0137 H   0  0  0  0  0  0  0  0  0  0  0  0
  1 22  1  0  0  0  0
  1 23  1  0  0  0  0
  1 24  1  0  0  0  0
  1  2  1  0  0  0  0
  2  3  1  0  0  0  0
  2 20  2  0  0  0  0
  3  4  1  0  0  0  0
  3 21  1  0  0  0  0
  4  6  2  0  0  0  0
  4  5  1  0  0  0  0
  5 25  1  0  0  0  0
  5 26  1  0  0  0  0
  5 27  1  0  0  0  0
  6 18  1  0  0  0  0
  6  7  1  0  0  0  0
  7  8  1  0  0  0  0
  7 28  1  0  0  0  0
  7 29  1  0  0  0  0
  8  9  2  0  0  0  0
  8 10  1  0  0  0  0
 10 11  1  0  0  0  0
 10 30  1  0  0  0  0
 11 17  1  0  0  0  0
 11 12  1  0  0  0  0
 11 31  1  0  0  0  0
 12 13  1  0  0  0  0
 12 32  1  0  0  0  0
 12 33  1  0  0  0  0
 13 14  1  0  0  0  0
 13 34  1  0  0  0  0
 13 35  1  0  0  0  0
 14 15  1  0  0  0  0
 14 36  1  0  0  0  0
 14 37  1  0  0  0  0
 15 16  1  0  0  0  0
 15 17  1  0  0  0  0
 15 38  1  0  0  0  0
 16 39  1  0  0  0  0
 16 40  1  0  0  0  0
 16 41  1  0  0  0  0
 17 42  1  0  0  0  0
 17 43  1  0  0  0  0
 18 19  2  0  0  0  0
 18 20  1  0  0  0  0
M  END
> <s_m_source_file>
AV-unprocessed.smi

> <i_m_source_file_index>
2198

> <i_lp_mmshare_version>
43012

> <i_f3d_flags>
0

> <s_epik_input>
W0NIM11jMW5jKFtDSDNdKWMoYyg9TylbbkhdMSlbQ0gyXUMoPU8pW05IXVtDQEBIXTJbQ0gyXVtDSDJdW0NIMl1bQ0BASF0oW0NIM10pW0NIMl0y

> <s_epik_cmdline>
J2VwaWtfcHl0aG9uJywgJy1waCcsICc3LjAnLCAnLXRuJywgJzgnLCAnLW1hJywgJzIwMCcsICctbWV0YWxfYmluZGluZycsICctaW1hZScsICc8aW5maWxlLm1hZT4nLCAnLW9tYWUnLCAnPG91dGZpbGUubWFlPic=

> <r_lp_tautomer_probability>
0.156392

> <r_epik_Ionization_Penalty>
0.0136514

> <r_epik_Ionization_Penalty_Charging>
0.0135207

> <r_epik_Ionization_Penalty_Neutral>
0.000130657

> <r_epik_State_Penalty>
1.15342

> <r_epik_Charging_Adjusted_Penalty>
1.16694

> <i_epik_Tot_Q>
0

> <i_epik_Tot_abs_Q>
0

> <r_epik_Metal_State_Penalty>
1.31404

> <b_epik_Metal_Only>
0

> <s_lp_Force_Field>
OPLS_2005

> <r_lp_Energy>
13.5111

> <b_lp_Chiralities_Consistent>
1

> <s_lp_Variant>
AV-unprocessed.smi:2198-5

> <Gold.Version>
5.8.1

> <Gold.Id.Protein>
6NUR|6NUR_protein|mol2

> <Gold.PLP.Fitness>
46.8420

> <Gold.PLP.PLP>
-43.2503

> <Gold.PLP.part.hbond>
-2.2907

> <Gold.PLP.part.metal>
0.0000

> <Gold.PLP.part.buried>
-5.3733

> <Gold.PLP.part.nonpolar>
-34.8494

> <Gold.PLP.part.repulsive>
0.3943

> <Gold.PLP.ligand.clash>
0.0000

> <Gold.PLP.ligand.torsion>
0.6836

> <Gold.PLP.Chemscore.Hbond>
1.6500

> <Gold.PLP.Chemscore.CHOScore>
0.0000

> <Gold.PLP.Chemscore.Metal>
0.0000

> <Gold.Chemscore.Hbonds>
donor molecule, donor type, donor heavy atom, donor atom, acceptor molecule, acceptor atom, score
      L1  H     3    21       P1  7957  0.55
      P1  H  7997  8009       L1     9  1.00

> <Gold.PLP.Chemscore.Internal.Correction>
0.0089

> <Gold.Rescore>
     Score         DG    S(hbond)    S(metal)    S(lipo)     H(rot)  DE(clash)    DE(int)     intcor
     19.78     -20.80       1.97        0.00     106.99       1.48       0.35       0.67       ----

> <Gold.Chemscore.Fitness>
19.7828

> <Gold.Chemscore.DG>
-20.8002

> <Gold.Chemscore.ZeroCoef>
-5.4800

> <Gold.Chemscore.Hbond>
1.9734

> <Gold.Chemscore.Metal>
0.0000

> <Gold.Chemscore.Lipo>
106.9937

> <Gold.Chemscore.Internal_Hbond>
0.0000

> <Gold.Chemscore.DEClash>
0.3508

> <Gold.Chemscore.DEInternal>
0.6666

> <Gold.Chemscore.Rot>
1.4801

> <Gold.Chemscore.Internal.Correction>
   9.000000E+99

> <Gold.Chemscore.Hbonds>
donor molecule, donor type, donor heavy atom, donor atom, acceptor molecule, acceptor atom, score
      L1  H     3    21       P1  7957  0.56
      P1  H  7997  8009       L1     9  1.00

> <Gold.Chemscore.Hbond.Weighted>
-6.5910

> <Gold.Chemscore.Metal.Weighted>
-0.0000

> <Gold.Chemscore.Lipo.Weighted>
-12.5183

> <Gold.Chemscore.Internal_Hbond.Weighted>
0.0000

> <Gold.Chemscore.DEClash.Weighted>
0.3508

> <Gold.Chemscore.DEInternal.Weighted>
0.6666

> <Gold.Chemscore.Rot.Weighted>
3.7891

> <Gold.Chemscore.Internal.Correction.Weighted>
   9.000000E+99

> <Gold.Protein.RotatedTorsions>
[ 6907 6896 6895 6894 ] final -126.02 input  -60.11 | X-H torsion
[ 7974 7965 7964 7962 ] final  116.94 input  175.53 | X-H torsion
[ 8008 7997 7996 7995 ] final  177.58 input   59.86 | X-H torsion
[ 10167 10162 10161 10158 ] final  -62.37 input  -65.29 | X-H torsion
[ 10718 10713 10712 10709 ] final -142.35 input   66.30 | X-H torsion
[ 10763 10752 10751 10750 ] final   16.07 input  -60.55 | X-H torsion
[ 11005 11000 10999 10996 ] final  141.44 input  -57.11 | X-H torsion

> <Gold.Protein.ActiveResidues>
 VAL166  LYS551  ARG553  GLY616  TRP617  ASP618  TYR619  PRO620  LYS621  CYS622 
 ASP623  PHE694  ASN695  SER759  ASP760  ASP761  ALA762  ILE779  LEU786  VAL792 
 PHE793  MET794  SER795  GLU796  ALA797  LYS798  CYS799  TRP800  GLU811  SER814 

> <Gold.Protein.RotatedAtoms>
  150.8926  133.7222  159.2900 H   0  0  0  0  0  0  0  0  0  0  0  0  # atno 6907 bound_to 6896
  151.4767  135.1048  159.9776 H   0  0  0  0  0  0  0  0  0  0  0  0  # atno 6908 bound_to 6896
  152.4829  133.8253  159.7130 H   0  0  0  0  0  0  0  0  0  0  0  0  # atno 6909 bound_to 6896
  145.1735  139.3088  143.4455 H   0  0  0  0  0  0  0  0  0  0  0  0  # atno 7974 bound_to 7965
  156.0641  140.1355  156.9907 H   0  0  0  0  0  0  0  0  0  0  0  0  # atno 8008 bound_to 7997
  154.4497  140.0985  156.6632 H   0  0  0  0  0  0  0  0  0  0  0  0  # atno 8009 bound_to 7997
  155.5332  140.3459  155.4433 H   0  0  0  0  0  0  0  0  0  0  0  0  # atno 8010 bound_to 7997
  140.5943  143.2348  151.6070 H   0  0  0  0  0  0  0  0  0  0  0  0  # atno 10167 bound_to 10162
  156.3448  130.7657  151.1799 H   0  0  0  0  0  0  0  0  0  0  0  0  # atno 10718 bound_to 10713
  153.1465  135.6770  153.8946 H   0  0  0  0  0  0  0  0  0  0  0  0  # atno 10763 bound_to 10752
  153.8387  135.3108  155.3425 H   0  0  0  0  0  0  0  0  0  0  0  0  # atno 10764 bound_to 10752
  154.7829  135.4878  153.9968 H   0  0  0  0  0  0  0  0  0  0  0  0  # atno 10765 bound_to 10752
  140.0401  134.9309  157.0828 H   0  0  0  0  0  0  0  0  0  0  0  0  # atno 11005 bound_to 11000
  146.3465  140.1889  142.8589 LP  0  0  0  0  0  0  0  0  0  0  0  0  # atno 17320 bound_to 7965
  145.0209  140.8792  143.5167 LP  0  0  0  0  0  0  0  0  0  0  0  0  # atno 17321 bound_to 7965
  139.5248  144.3093  152.1007 LP  0  0  0  0  0  0  0  0  0  0  0  0  # atno 17342 bound_to 10162
  140.2263  144.4415  150.6320 LP  0  0  0  0  0  0  0  0  0  0  0  0  # atno 17343 bound_to 10162
  157.7452  131.0444  150.4792 LP  0  0  0  0  0  0  0  0  0  0  0  0  # atno 17370 bound_to 10713
  156.4978  130.4110  149.6370 LP  0  0  0  0  0  0  0  0  0  0  0  0  # atno 17371 bound_to 10713
  140.4082  134.2009  155.7163 LP  0  0  0  0  0  0  0  0  0  0  0  0  # atno 17394 bound_to 11000
  141.1879  133.8272  157.1016 LP  0  0  0  0  0  0  0  0  0  0  0  0  # atno 17395 bound_to 11000

$$$$
