AV-unprocessed.smi:2250|AV-procd|sdf|9100|dock2
  -GOLD-   2272012303D 1   1.00000     0.00000
 Structure written by MMmdl.
 43 44  0  0  0  0  0  0  0  0  1 V2000
  151.1291  142.2024  157.9951 C   0  0  0  0  0  0  0  0  0  0  0  0
  150.5039  141.5276  156.7924 C   0  0  0  0  0  0  0  0  0  0  0  0
  149.1227  141.6243  156.5382 C   0  0  0  0  0  0  0  0  0  0  0  0
  148.5947  140.9784  155.4039 C   0  0  0  0  0  0  0  0  0  0  0  0
  149.4569  140.2511  154.5527 C   0  0  0  0  0  0  0  0  0  0  0  0
  148.8241  139.6393  153.4383 N   0  0  0  0  0  0  0  0  0  0  0  0
  147.6054  139.0743  153.3793 C   0  0  0  0  0  0  0  0  0  0  0  0
  146.8021  139.0135  154.3106 O   0  0  0  0  0  0  0  0  0  0  0  0
  147.3637  138.5788  152.1578 N   0  0  0  0  0  0  0  0  0  0  0  0
  146.1394  137.8989  151.7524 C   0  0  0  0  0  0  0  0  0  0  0  0
  146.4523  136.4529  151.3263 C   0  0  0  0  0  0  0  0  0  0  0  0
  145.2123  135.6394  150.9152 C   0  0  0  0  0  0  0  0  0  0  0  0
  144.4331  136.1162  150.0883 O   0  0  0  0  0  0  0  0  0  0  0  0
  145.0093  134.4237  151.4799 N   0  0  0  0  0  0  0  0  0  0  0  0
  143.9037  133.5088  151.1634 C   0  0  0  0  0  0  0  0  0  0  0  0
  144.4635  132.3170  150.3658 C   0  0  0  0  0  0  0  0  0  0  0  0
  145.5879  131.6132  151.1499 C   0  0  0  0  0  0  0  0  0  0  0  0
  146.6452  132.6140  151.6552 C   0  0  0  0  0  0  0  0  0  0  0  0
  145.9826  133.7977  152.3845 C   0  0  0  0  0  0  0  0  0  0  0  0
  150.7868  140.1653  154.8049 N   0  0  0  0  0  0  0  0  0  0  0  0
  151.2922  140.7854  155.8917 C   0  0  0  0  0  0  0  0  0  0  0  0
  150.3672  142.5488  158.6941 H   0  0  0  0  0  0  0  0  0  0  0  0
  151.7209  143.0616  157.6792 H   0  0  0  0  0  0  0  0  0  0  0  0
  151.7840  141.5089  158.5232 H   0  0  0  0  0  0  0  0  0  0  0  0
  148.4751  142.1826  157.1985 H   0  0  0  0  0  0  0  0  0  0  0  0
  147.5369  141.0422  155.1944 H   0  0  0  0  0  0  0  0  0  0  0  0
  149.3644  139.6283  152.5859 H   0  0  0  0  0  0  0  0  0  0  0  0
  148.0800  138.6804  151.4539 H   0  0  0  0  0  0  0  0  0  0  0  0
  145.4134  137.8946  152.5679 H   0  0  0  0  0  0  0  0  0  0  0  0
  145.6951  138.4574  150.9273 H   0  0  0  0  0  0  0  0  0  0  0  0
  147.1512  136.4643  150.4888 H   0  0  0  0  0  0  0  0  0  0  0  0
  146.9462  135.9462  152.1567 H   0  0  0  0  0  0  0  0  0  0  0  0
  143.4559  133.1551  152.0933 H   0  0  0  0  0  0  0  0  0  0  0  0
  143.0883  133.9770  150.6145 H   0  0  0  0  0  0  0  0  0  0  0  0
  143.6668  131.6081  150.1385 H   0  0  0  0  0  0  0  0  0  0  0  0
  144.8489  132.6684  149.4076 H   0  0  0  0  0  0  0  0  0  0  0  0
  145.1531  131.0945  152.0052 H   0  0  0  0  0  0  0  0  0  0  0  0
  146.0570  130.8473  150.5317 H   0  0  0  0  0  0  0  0  0  0  0  0
  147.3496  132.1106  152.3179 H   0  0  0  0  0  0  0  0  0  0  0  0
  147.2272  132.9877  150.8115 H   0  0  0  0  0  0  0  0  0  0  0  0
  146.7469  134.4933  152.7334 H   0  0  0  0  0  0  0  0  0  0  0  0
  145.4703  133.4479  153.2819 H   0  0  0  0  0  0  0  0  0  0  0  0
  152.3568  140.6858  156.0456 H   0  0  0  0  0  0  0  0  0  0  0  0
  1  2  1  0  0  0  0
  1 22  1  0  0  0  0
  1 23  1  0  0  0  0
  1 24  1  0  0  0  0
  2 21  1  0  0  0  0
  2  3  2  0  0  0  0
  3  4  1  0  0  0  0
  3 25  1  0  0  0  0
  4  5  2  0  0  0  0
  4 26  1  0  0  0  0
  5  6  1  0  0  0  0
  5 20  1  0  0  0  0
  6  7  1  0  0  0  0
  6 27  1  0  0  0  0
  7  8  2  0  0  0  0
  7  9  1  0  0  0  0
  9 10  1  0  0  0  0
  9 28  1  0  0  0  0
 10 11  1  0  0  0  0
 10 29  1  0  0  0  0
 10 30  1  0  0  0  0
 11 12  1  0  0  0  0
 11 31  1  0  0  0  0
 11 32  1  0  0  0  0
 12 13  2  0  0  0  0
 12 14  1  0  0  0  0
 14 19  1  0  0  0  0
 14 15  1  0  0  0  0
 15 16  1  0  0  0  0
 15 33  1  0  0  0  0
 15 34  1  0  0  0  0
 16 17  1  0  0  0  0
 16 35  1  0  0  0  0
 16 36  1  0  0  0  0
 17 18  1  0  0  0  0
 17 37  1  0  0  0  0
 17 38  1  0  0  0  0
 18 19  1  0  0  0  0
 18 39  1  0  0  0  0
 18 40  1  0  0  0  0
 19 41  1  0  0  0  0
 19 42  1  0  0  0  0
 20 21  2  0  0  0  0
 21 43  1  0  0  0  0
M  END
> <s_m_source_file>
AV-unprocessed.smi

> <i_m_source_file_index>
2250

> <i_lp_mmshare_version>
43012

> <i_f3d_flags>
0

> <s_epik_input>
W0NIM11jMVtjSF1bY0hdYyhuW2NIXTEpW05IXUMoPU8pW05IXVtDSDJdW0NIMl1DKD1PKU4yW0NIMl1bQ0gyXVtDSDJdW0NIMl1bQ0gyXTI=

> <s_epik_cmdline>
J2VwaWtfcHl0aG9uJywgJy1waCcsICc3LjAnLCAnLXRuJywgJzgnLCAnLW1hJywgJzIwMCcsICctbWV0YWxfYmluZGluZycsICctaW1hZScsICc8aW5maWxlLm1hZT4nLCAnLW9tYWUnLCAnPG91dGZpbGUubWFlPic=

> <r_lp_tautomer_probability>
1

> <r_epik_Ionization_Penalty>
5.00358e-05

> <r_epik_Ionization_Penalty_Charging>
0

> <r_epik_Ionization_Penalty_Neutral>
5.00358e-05

> <r_epik_State_Penalty>
-0

> <r_epik_Charging_Adjusted_Penalty>
0

> <i_epik_Tot_Q>
0

> <i_epik_Tot_abs_Q>
0

> <r_epik_Metal_State_Penalty>
-0

> <b_epik_Metal_Only>
0

> <s_lp_Force_Field>
OPLS_2005

> <r_lp_Energy>
26.56

> <b_lp_Chiralities_Consistent>
1

> <s_lp_Variant>
AV-unprocessed.smi:2250-1

> <Gold.Version>
5.8.1

> <Gold.Id.Protein>
6NUR|6NUR_protein|mol2

> <Gold.PLP.Fitness>
42.0496

> <Gold.PLP.PLP>
-34.6466

> <Gold.PLP.part.hbond>
-3.8085

> <Gold.PLP.part.metal>
0.0000

> <Gold.PLP.part.buried>
-0.7934

> <Gold.PLP.part.nonpolar>
-33.7363

> <Gold.PLP.part.repulsive>
4.1438

> <Gold.PLP.ligand.clash>
0.0000

> <Gold.PLP.ligand.torsion>
0.3482

> <Gold.PLP.Chemscore.Hbond>
2.6903

> <Gold.PLP.Chemscore.CHOScore>
0.0000

> <Gold.PLP.Chemscore.Metal>
0.0000

> <Gold.Chemscore.Hbonds>
donor molecule, donor type, donor heavy atom, donor atom, acceptor molecule, acceptor atom, score
      L1  H     6    27       P1  7957  0.93
      L1  H     9    28       P1  7957  0.70
      P1  H  7989  7998       L1    20  1.00

> <Gold.PLP.Chemscore.Internal.Correction>
0.0285

> <Gold.Rescore>
     Score         DG    S(hbond)    S(metal)    S(lipo)     H(rot)  DE(clash)    DE(int)     intcor
     14.90     -20.12       2.71        0.00      81.00       1.51       3.53       1.69       ----

> <Gold.Chemscore.Fitness>
14.9029

> <Gold.Chemscore.DG>
-20.1186

> <Gold.Chemscore.ZeroCoef>
-5.4800

> <Gold.Chemscore.Hbond>
2.7052

> <Gold.Chemscore.Metal>
0.0000

> <Gold.Chemscore.Lipo>
80.9990

> <Gold.Chemscore.Internal_Hbond>
0.0000

> <Gold.Chemscore.DEClash>
3.5256

> <Gold.Chemscore.DEInternal>
1.6901

> <Gold.Chemscore.Rot>
1.5131

> <Gold.Chemscore.Internal.Correction>
   9.000000E+99

> <Gold.Chemscore.Hbonds>
donor molecule, donor type, donor heavy atom, donor atom, acceptor molecule, acceptor atom, score
      L1  H     6    27       P1  7957  0.86
      L1  H     9    28       P1  7957  0.30
      P1  H  7989  7998       L1    20  0.29

> <Gold.Chemscore.Hbond.Weighted>
-9.0352

> <Gold.Chemscore.Metal.Weighted>
-0.0000

> <Gold.Chemscore.Lipo.Weighted>
-9.4769

> <Gold.Chemscore.Internal_Hbond.Weighted>
0.0000

> <Gold.Chemscore.DEClash.Weighted>
3.5256

> <Gold.Chemscore.DEInternal.Weighted>
1.6901

> <Gold.Chemscore.Rot.Weighted>
3.8735

> <Gold.Chemscore.Internal.Correction.Weighted>
   9.000000E+99

> <Gold.Protein.RotatedTorsions>
[ 6907 6896 6895 6894 ] final  128.77 input  -60.11 | X-H torsion
[ 7974 7965 7964 7962 ] final   32.45 input  175.53 | X-H torsion
[ 8008 7997 7996 7995 ] final  -38.59 input   59.86 | X-H torsion
[ 10167 10162 10161 10158 ] final  -45.81 input  -65.29 | X-H torsion
[ 10718 10713 10712 10709 ] final  -21.12 input   66.30 | X-H torsion
[ 10763 10752 10751 10750 ] final  162.94 input  -60.55 | X-H torsion
[ 11005 11000 10999 10996 ] final  -51.65 input  -57.11 | X-H torsion

> <Gold.Protein.ActiveResidues>
 VAL166  LYS551  ARG553  GLY616  TRP617  ASP618  TYR619  PRO620  LYS621  CYS622 
 ASP623  PHE694  ASN695  SER759  ASP760  ASP761  ALA762  ILE779  LEU786  VAL792 
 PHE793  MET794  SER795  GLU796  ALA797  LYS798  CYS799  TRP800  GLU811  SER814 

> <Gold.Protein.RotatedAtoms>
  152.3688  133.6391  159.6070 H   0  0  0  0  0  0  0  0  0  0  0  0  # atno 6907 bound_to 6896
  150.7653  133.9304  159.3434 H   0  0  0  0  0  0  0  0  0  0  0  0  # atno 6908 bound_to 6896
  151.7130  135.0910  160.0322 H   0  0  0  0  0  0  0  0  0  0  0  0  # atno 6909 bound_to 6896
  146.1485  139.6524  142.9115 H   0  0  0  0  0  0  0  0  0  0  0  0  # atno 7974 bound_to 7965
  154.4034  140.1574  156.2725 H   0  0  0  0  0  0  0  0  0  0  0  0  # atno 8008 bound_to 7997
  155.8941  140.3437  155.5955 H   0  0  0  0  0  0  0  0  0  0  0  0  # atno 8009 bound_to 7997
  155.7525  140.0807  157.2185 H   0  0  0  0  0  0  0  0  0  0  0  0  # atno 8010 bound_to 7997
  140.6843  143.2861  151.3693 H   0  0  0  0  0  0  0  0  0  0  0  0  # atno 10167 bound_to 10162
  156.5225  130.4636  149.6589 H   0  0  0  0  0  0  0  0  0  0  0  0  # atno 10718 bound_to 10713
  154.2861  135.2762  155.2675 H   0  0  0  0  0  0  0  0  0  0  0  0  # atno 10763 bound_to 10752
  154.5175  135.5765  153.6657 H   0  0  0  0  0  0  0  0  0  0  0  0  # atno 10764 bound_to 10752
  152.9921  135.6196  154.3023 H   0  0  0  0  0  0  0  0  0  0  0  0  # atno 10765 bound_to 10752
  141.0882  133.6638  156.3908 H   0  0  0  0  0  0  0  0  0  0  0  0  # atno 11005 bound_to 11000
  145.4880  141.0438  143.2609 LP  0  0  0  0  0  0  0  0  0  0  0  0  # atno 17320 bound_to 7965
  144.7875  139.6396  143.7127 LP  0  0  0  0  0  0  0  0  0  0  0  0  # atno 17321 bound_to 7965
  139.6189  144.0947  152.2372 LP  0  0  0  0  0  0  0  0  0  0  0  0  # atno 17342 bound_to 10162
  140.0385  144.6026  150.7430 LP  0  0  0  0  0  0  0  0  0  0  0  0  # atno 17343 bound_to 10162
  156.3136  130.7242  151.2140 LP  0  0  0  0  0  0  0  0  0  0  0  0  # atno 17370 bound_to 10713
  157.7434  131.0474  150.4945 LP  0  0  0  0  0  0  0  0  0  0  0  0  # atno 17371 bound_to 10713
  140.5313  134.6209  157.5351 LP  0  0  0  0  0  0  0  0  0  0  0  0  # atno 17394 bound_to 11000
  139.9704  134.7303  156.0054 LP  0  0  0  0  0  0  0  0  0  0  0  0  # atno 17395 bound_to 11000

$$$$
