AV-unprocessed.smi:257|AV-procd|sdf|1964|dock6
  -GOLD-   2262021113D 1   1.00000     0.00000
 Structure written by MMmdl.
 50 53  0  0  0  0  0  0  0  0  1 V2000
  151.5778  145.6159  159.9039 C   0  0  0  0  0  0  0  0  0  0  0  0
  152.3179  144.4057  159.5820 N   0  0  0  0  0  0  0  0  0  0  0  0
  151.7499  143.2127  159.3558 C   0  0  0  0  0  0  0  0  0  0  0  0
  150.5337  143.0249  159.4104 O   0  0  0  0  0  0  0  0  0  0  0  0
  152.7074  142.0563  159.0340 C   0  0  1  0  0  0  0  0  0  0  0  0
  153.6666  141.7620  160.1951 C   0  0  0  0  0  0  0  0  0  0  0  0
  154.0453  140.3047  159.9646 C   0  0  0  0  0  0  0  0  0  0  0  0
  152.7477  139.6952  159.4351 C   0  0  0  0  0  0  0  0  0  0  0  0
  151.9987  140.7910  158.8261 N   0  0  0  0  0  0  0  0  0  0  0  0
  151.5593  140.5797  157.5657 C   0  0  0  0  0  0  0  0  0  0  0  0
  152.3808  139.9037  156.7265 N   0  0  0  0  0  0  0  0  0  0  0  0
  151.9931  139.6527  155.4723 C   0  0  0  0  0  0  0  0  0  0  0  0
  150.8465  139.9790  154.8711 N   0  0  0  0  0  0  0  0  0  0  0  0
  150.0176  140.6561  155.7168 C   0  0  0  0  0  0  0  0  0  0  0  0
  150.2931  140.9989  157.0696 C   0  0  0  0  0  0  0  0  0  0  0  0
  149.2152  141.6853  157.6158 N   0  0  0  0  0  0  0  0  0  0  0  0
  148.3512  141.7463  156.6395 C   0  0  0  0  0  0  0  0  0  0  0  0
  148.7463  141.1426  155.4667 N   0  0  0  0  0  0  0  0  0  0  0  0
  147.9810  141.0527  154.2327 C   0  0  0  0  0  0  0  0  0  0  0  0
  147.5744  139.6076  153.8513 C   0  0  0  0  0  0  0  0  0  0  0  0
  148.7621  138.8814  153.5833 O   0  0  0  0  0  0  0  0  0  0  0  0
  146.8439  138.9269  155.0261 C   0  0  0  0  0  0  0  0  0  0  0  0
  146.2741  137.5513  154.6363 C   0  0  0  0  0  0  0  0  0  0  0  0
  145.4215  137.6808  153.5050 O   0  0  0  0  0  0  0  0  0  0  0  0
  146.1105  138.1417  152.3492 C   0  0  0  0  0  0  0  0  0  0  0  0
  146.6749  139.5520  152.5968 C   0  0  0  0  0  0  0  0  0  0  0  0
  152.2663  146.4522  160.0234 H   0  0  0  0  0  0  0  0  0  0  0  0
  151.0226  145.4954  160.8350 H   0  0  0  0  0  0  0  0  0  0  0  0
  150.8741  145.8645  159.1084 H   0  0  0  0  0  0  0  0  0  0  0  0
  153.3234  144.4791  159.5245 H   0  0  0  0  0  0  0  0  0  0  0  0
  153.2924  142.3065  158.1462 H   0  0  0  0  0  0  0  0  0  0  0  0
  154.5345  142.4221  160.2002 H   0  0  0  0  0  0  0  0  0  0  0  0
  153.1624  141.8613  161.1584 H   0  0  0  0  0  0  0  0  0  0  0  0
  154.8222  140.2436  159.2013 H   0  0  0  0  0  0  0  0  0  0  0  0
  154.4132  139.8095  160.8634 H   0  0  0  0  0  0  0  0  0  0  0  0
  152.9435  138.8619  158.7582 H   0  0  0  0  0  0  0  0  0  0  0  0
  152.1521  139.3059  160.2614 H   0  0  0  0  0  0  0  0  0  0  0  0
  152.7022  139.1104  154.8646 H   0  0  0  0  0  0  0  0  0  0  0  0
  147.3914  142.2298  156.7509 H   0  0  0  0  0  0  0  0  0  0  0  0
  147.0948  141.6809  154.3354 H   0  0  0  0  0  0  0  0  0  0  0  0
  148.5750  141.4972  153.4330 H   0  0  0  0  0  0  0  0  0  0  0  0
  149.1134  139.1771  152.7573 H   0  0  0  0  0  0  0  0  0  0  0  0
  147.5092  138.8263  155.8847 H   0  0  0  0  0  0  0  0  0  0  0  0
  146.0183  139.5606  155.3531 H   0  0  0  0  0  0  0  0  0  0  0  0
  147.0730  136.8389  154.4250 H   0  0  0  0  0  0  0  0  0  0  0  0
  145.6968  137.1397  155.4642 H   0  0  0  0  0  0  0  0  0  0  0  0
  146.9036  137.4420  152.0811 H   0  0  0  0  0  0  0  0  0  0  0  0
  145.4133  138.1624  151.5115 H   0  0  0  0  0  0  0  0  0  0  0  0
  145.8386  140.2407  152.7246 H   0  0  0  0  0  0  0  0  0  0  0  0
  147.2166  139.8884  151.7120 H   0  0  0  0  0  0  0  0  0  0  0  0
  1  2  1  0  0  0  0
  1 27  1  0  0  0  0
  1 28  1  0  0  0  0
  1 29  1  0  0  0  0
  2  3  1  0  0  0  0
  2 30  1  0  0  0  0
  3  4  2  0  0  0  0
  3  5  1  0  0  0  0
  5  9  1  0  0  0  0
  5  6  1  0  0  0  0
  5 31  1  0  0  0  0
  6  7  1  0  0  0  0
  6 32  1  0  0  0  0
  6 33  1  0  0  0  0
  7  8  1  0  0  0  0
  7 34  1  0  0  0  0
  7 35  1  0  0  0  0
  8  9  1  0  0  0  0
  8 36  1  0  0  0  0
  8 37  1  0  0  0  0
  9 10  1  0  0  0  0
 10 15  1  0  0  0  0
 10 11  2  0  0  0  0
 11 12  1  0  0  0  0
 12 13  2  0  0  0  0
 12 38  1  0  0  0  0
 13 14  1  0  0  0  0
 14 18  1  0  0  0  0
 14 15  2  0  0  0  0
 15 16  1  0  0  0  0
 16 17  2  0  0  0  0
 17 18  1  0  0  0  0
 17 39  1  0  0  0  0
 18 19  1  0  0  0  0
 19 20  1  0  0  0  0
 19 40  1  0  0  0  0
 19 41  1  0  0  0  0
 20 26  1  0  0  0  0
 20 21  1  0  0  0  0
 20 22  1  0  0  0  0
 21 42  1  0  0  0  0
 22 23  1  0  0  0  0
 22 43  1  0  0  0  0
 22 44  1  0  0  0  0
 23 24  1  0  0  0  0
 23 45  1  0  0  0  0
 23 46  1  0  0  0  0
 24 25  1  0  0  0  0
 25 26  1  0  0  0  0
 25 47  1  0  0  0  0
 25 48  1  0  0  0  0
 26 49  1  0  0  0  0
 26 50  1  0  0  0  0
M  END
> <s_m_source_file>
AV-unprocessed.smi

> <i_m_source_file_index>
257

> <i_lp_mmshare_version>
43012

> <i_f3d_flags>
0

> <s_epik_input>
W0NIM11bTkhdQyg9TylbQ0BASF0xW0NIMl1bQ0gyXVtDSDJdTjFjKG5bY0hdbjIpYyhjMjMpbltjSF1uM1tDSDJdQzQoW09IXSlbQ0gyXVtDSDJdT1tDSDJdW0NIMl00

> <s_epik_cmdline>
J2VwaWtfcHl0aG9uJywgJy1waCcsICc3LjAnLCAnLXRuJywgJzgnLCAnLW1hJywgJzIwMCcsICctbWV0YWxfYmluZGluZycsICctaW1hZScsICc8aW5maWxlLm1hZT4nLCAnLW9tYWUnLCAnPG91dGZpbGUubWFlPic=

> <r_lp_tautomer_probability>
1

> <r_epik_Ionization_Penalty>
0.000951012

> <r_epik_Ionization_Penalty_Charging>
0

> <r_epik_Ionization_Penalty_Neutral>
0.000951012

> <r_epik_State_Penalty>
0.000495984

> <r_epik_Charging_Adjusted_Penalty>
0.000495984

> <i_epik_Tot_Q>
0

> <i_epik_Tot_abs_Q>
0

> <r_epik_Metal_State_Penalty>
-0

> <b_epik_Metal_Only>
0

> <s_lp_Force_Field>
OPLS_2005

> <r_lp_Energy>
37.7708

> <b_lp_Chiralities_Consistent>
1

> <s_lp_Variant>
AV-unprocessed.smi:257-2

> <Gold.Version>
5.8.1

> <Gold.Id.Protein>
6NUR|6NUR_protein|mol2

> <Gold.PLP.Fitness>
54.4767

> <Gold.PLP.PLP>
-46.6832

> <Gold.PLP.part.hbond>
-3.9118

> <Gold.PLP.part.metal>
0.0000

> <Gold.PLP.part.buried>
-0.4418

> <Gold.PLP.part.nonpolar>
-42.6564

> <Gold.PLP.part.repulsive>
0.4967

> <Gold.PLP.ligand.clash>
0.0000

> <Gold.PLP.ligand.torsion>
0.7404

> <Gold.PLP.Chemscore.Hbond>
2.9913

> <Gold.PLP.Chemscore.CHOScore>
0.0518

> <Gold.PLP.Chemscore.Metal>
0.0000

> <Gold.Chemscore.Hbonds>
donor molecule, donor type, donor heavy atom, donor atom, acceptor molecule, acceptor atom, score
      L1  H    21    42       P1  7957  1.00
      P1  H  7989  7998       L1    13  0.75
      P1  H  7997  8008       L1    11  1.00

> <Gold.PLP.Chemscore.Internal.Correction>
0.1450

> <Gold.Rescore>
     Score         DG    S(hbond)    S(metal)    S(lipo)     H(rot)  DE(clash)    DE(int)     intcor
     11.34     -15.11       1.85        0.00      87.36       2.65       0.61       3.17       ----

> <Gold.Chemscore.Fitness>
11.3367

> <Gold.Chemscore.DG>
-15.1136

> <Gold.Chemscore.ZeroCoef>
-5.4800

> <Gold.Chemscore.Hbond>
1.8537

> <Gold.Chemscore.Metal>
0.0000

> <Gold.Chemscore.Lipo>
87.3634

> <Gold.Chemscore.Internal_Hbond>
0.0000

> <Gold.Chemscore.DEClash>
0.6117

> <Gold.Chemscore.DEInternal>
3.1653

> <Gold.Chemscore.Rot>
2.6482

> <Gold.Chemscore.Internal.Correction>
   9.000000E+99

> <Gold.Chemscore.Hbonds>
donor molecule, donor type, donor heavy atom, donor atom, acceptor molecule, acceptor atom, score
      L1  H    21    42       P1  7957  1.00
      P1  H  7989  7998       L1    13  0.09
      P1  H  7997  8008       L1    11  0.29

> <Gold.Chemscore.Hbond.Weighted>
-6.1914

> <Gold.Chemscore.Metal.Weighted>
-0.0000

> <Gold.Chemscore.Lipo.Weighted>
-10.2215

> <Gold.Chemscore.Internal_Hbond.Weighted>
0.0000

> <Gold.Chemscore.DEClash.Weighted>
0.6117

> <Gold.Chemscore.DEInternal.Weighted>
3.1653

> <Gold.Chemscore.Rot.Weighted>
6.7793

> <Gold.Chemscore.Internal.Correction.Weighted>
   9.000000E+99

> <Gold.Protein.RotatedTorsions>
[ 6907 6896 6895 6894 ] final   27.91 input  -60.11 | X-H torsion
[ 7974 7965 7964 7962 ] final   25.97 input  175.53 | X-H torsion
[ 8008 7997 7996 7995 ] final  -51.94 input   59.86 | X-H torsion
[ 10167 10162 10161 10158 ] final -151.51 input  -65.29 | X-H torsion
[ 10718 10713 10712 10709 ] final  117.93 input   66.30 | X-H torsion
[ 10763 10752 10751 10750 ] final   70.67 input  -60.55 | X-H torsion
[ 11005 11000 10999 10996 ] final  109.79 input  -57.11 | X-H torsion

> <Gold.Protein.ActiveResidues>
 VAL166  LYS551  ARG553  GLY616  TRP617  ASP618  TYR619  PRO620  LYS621  CYS622 
 ASP623  PHE694  ASN695  SER759  ASP760  ASP761  ALA762  ILE779  LEU786  VAL792 
 PHE793  MET794  SER795  GLU796  ALA797  LYS798  CYS799  TRP800  GLU811  SER814 

> <Gold.Protein.RotatedAtoms>
  152.0092  134.9886  160.0567 H   0  0  0  0  0  0  0  0  0  0  0  0  # atno 6907 bound_to 6896
  152.1445  133.4479  159.4791 H   0  0  0  0  0  0  0  0  0  0  0  0  # atno 6908 bound_to 6896
  150.6868  134.2182  159.4429 H   0  0  0  0  0  0  0  0  0  0  0  0  # atno 6909 bound_to 6896
  146.1861  139.7392  142.8865 H   0  0  0  0  0  0  0  0  0  0  0  0  # atno 7974 bound_to 7965
  154.4094  140.1236  156.4910 H   0  0  0  0  0  0  0  0  0  0  0  0  # atno 8008 bound_to 7997
  155.6990  140.3495  155.4905 H   0  0  0  0  0  0  0  0  0  0  0  0  # atno 8009 bound_to 7997
  155.9402  140.1085  157.1052 H   0  0  0  0  0  0  0  0  0  0  0  0  # atno 8010 bound_to 7997
  139.7261  143.8881  152.2519 H   0  0  0  0  0  0  0  0  0  0  0  0  # atno 10167 bound_to 10162
  157.6064  131.1042  150.7685 H   0  0  0  0  0  0  0  0  0  0  0  0  # atno 10718 bound_to 10713
  153.0355  135.5165  154.7477 H   0  0  0  0  0  0  0  0  0  0  0  0  # atno 10763 bound_to 10752
  154.6457  135.2918  155.0051 H   0  0  0  0  0  0  0  0  0  0  0  0  # atno 10764 bound_to 10752
  154.0953  135.6644  153.4911 H   0  0  0  0  0  0  0  0  0  0  0  0  # atno 10765 bound_to 10752
  139.8869  134.9467  156.6180 H   0  0  0  0  0  0  0  0  0  0  0  0  # atno 11005 bound_to 11000
  145.3933  141.0375  143.3112 LP  0  0  0  0  0  0  0  0  0  0  0  0  # atno 17320 bound_to 7965
  144.8401  139.5487  143.6904 LP  0  0  0  0  0  0  0  0  0  0  0  0  # atno 17321 bound_to 7965
  139.8791  144.7027  150.8898 LP  0  0  0  0  0  0  0  0  0  0  0  0  # atno 17342 bound_to 10162
  140.7763  143.3676  151.1710 LP  0  0  0  0  0  0  0  0  0  0  0  0  # atno 17343 bound_to 10162
  156.8072  130.4940  149.5361 LP  0  0  0  0  0  0  0  0  0  0  0  0  # atno 17370 bound_to 10713
  156.1151  130.6069  151.0108 LP  0  0  0  0  0  0  0  0  0  0  0  0  # atno 17371 bound_to 10713
  140.7761  133.8698  155.8530 LP  0  0  0  0  0  0  0  0  0  0  0  0  # atno 17394 bound_to 11000
  140.9801  134.1417  157.4502 LP  0  0  0  0  0  0  0  0  0  0  0  0  # atno 17395 bound_to 11000

$$$$
