#       Name:                AV-unprocessed.smi:49
#       Creating user name   scv26
#       Creation time:       Thu Mar 26 16:33:35 2020


#       File generated by GOLD software.
#

@<TRIPOS>MOLECULE
AV-unprocessed.smi:49
    32    33     1
SMALL
NO_CHARGES


@<TRIPOS>ATOM
      1 ****        -4.1112   1.4835   0.6397 C.3            1 S1                 0.0000
      2 ****        -3.7947  -0.0072   0.4793 C.3            1 S1                 0.0000
      3 ****        -2.3280  -0.2881   0.4974 C.2            1 S1                 0.0000
      4 ****        -1.5121  -0.1664  -0.5445 N.2            1 S1                 0.0000
      5 ****        -0.3258  -0.5273   0.0304 C.2            1 S1                 0.0000
      6 ****         0.9646  -0.5141  -0.7285 C.3            1 S1                 0.0000
      7 ****         1.7210   0.8218  -0.6347 C.3            1 S1                 0.0000
      8 ****         3.1979   0.4453  -0.4404 C.3            1 S1                 0.0000
      9 ****         4.0382   1.1120  -1.3588 O.3            1 S1                 0.0000
     10 ****         3.2544  -1.0732  -0.6293 C.3            1 S1                 0.0000
     11 ****         1.9105  -1.5474  -0.2715 N.4            1 S1                 1.0000
     12 ****        -0.3747  -0.8237   1.3299 N.2            1 S1                 0.0000
     13 ****        -1.6871  -0.6679   1.6048 N.pl3          1 S1                 0.0000
     14 ****         0.7565  -0.7227  -1.7792 H              1 S1                 0.0000
     15 ****         3.5069   0.6987   0.5747 H              1 S1                 0.0000
     16 ****        -2.0820  -0.8153   2.5232 H              1 S1                 0.0000
     17 ****        -5.1874   1.6562   0.6188 H              1 S1                 0.0000
     18 ****        -3.6642   2.0698  -0.1637 H              1 S1                 0.0000
     19 ****        -3.7302   1.8664   1.5868 H              1 S1                 0.0000
     20 ****        -4.2767  -0.5773   1.2745 H              1 S1                 0.0000
     21 ****        -4.2085  -0.3736  -0.4608 H              1 S1                 0.0000
     22 ****         1.5459   1.4273  -1.5252 H              1 S1                 0.0000
     23 ****         1.3868   1.4080   0.2227 H              1 S1                 0.0000
     24 ****         3.9854   2.0425  -1.1988 H              1 S1                 0.0000
     25 ****         3.4344  -1.3272  -1.6753 H              1 S1                 0.0000
     26 ****         4.0291  -1.5479  -0.0266 H              1 S1                 0.0000
     27 ****         1.8473  -1.6032   0.7352 H              1 S1                 0.0000
     28 ****         1.7049  -2.4483  -0.6790 H              1 S1                 0.0000
     29 ****        -1.7104   0.1111  -1.4846 LP             1 S1                 0.0000
     30 ****         3.7401   0.9138  -2.2926 LP             1 S1                 0.0000
     31 ****         4.9814   0.8028  -1.2374 LP             1 S1                 0.0000
     32 ****         0.3688  -1.0921   1.9423 LP             1 S1                 0.0000
@<TRIPOS>BOND
    1    1    2 1     
    2    1   17 1     
    3    1   18 1     
    4    1   19 1     
    5    2    3 1     
    6    2   20 1     
    7    2   21 1     
    8    3   13 1     
    9    3    4 2     
   10    4    5 1     
   11    5    6 1     
   12    5   12 2     
   13    6   14 1     
   14    6   11 1     
   15    6    7 1     
   16    7    8 1     
   17    7   22 1     
   18    7   23 1     
   19    8   15 1     
   20    8    9 1     
   21    8   10 1     
   22    9   24 1     
   23   10   11 1     
   24   10   25 1     
   25   10   26 1     
   26   11   27 1     
   27   11   28 1     
   28   12   13 1     
   29   13   16 1     
   30    4   29 1     
   31    9   30 1     
   32    9   31 1     
   33   12   32 1     
@<TRIPOS>SUBSTRUCTURE
      1 S1             1
@<TRIPOS>SET
LONE_PAIRS      STATIC     ATOMS    <user>   **** ""
4 29 30 31 32
DONOR_HYDROGENS      STATIC     ATOMS    <user>   **** ""
4 24 27 28 16
ATOM$BLUE        STATIC     ATOMS    COLORGROUP SYSTEM
4 29 30 31 32
ATOM$RED        STATIC     ATOMS    COLORGROUP SYSTEM
4 24 27 28 16
