AV-unprocessed.smi:99|AV-procd|sdf|876|dock4
  -GOLD-   2262017343D 1   1.00000     0.00000
 Structure written by MMmdl.
 53 56  0  0  0  0  0  0  0  0  1 V2000
  154.2727  141.0867  161.6162 O   0  0  0  0  0  0  0  0  0  0  0  0
  153.4526  141.2469  160.7097 C   0  0  0  0  0  0  0  0  0  0  0  0
  152.9085  140.2320  160.0097 O   0  0  0  0  0  0  0  0  0  0  0  0
  153.5287  138.9570  160.0146 C   0  0  0  0  0  0  0  0  0  0  0  0
  154.6390  138.9240  158.9527 C   0  0  1  0  0  0  0  0  0  0  0  0
  155.6291  139.8914  159.2803 O   0  0  0  0  0  0  0  0  0  0  0  0
  156.6023  139.3221  160.0983 C   0  0  2  0  0  0  0  0  0  0  0  0
  157.9368  139.9028  159.6733 N   0  0  0  0  0  0  0  0  0  0  0  0
  158.0071  140.9592  158.7720 C   0  0  0  0  0  0  0  0  0  0  0  0
  159.1652  141.5696  158.4271 C   0  0  0  0  0  0  0  0  0  0  0  0
  160.4276  141.1511  159.0249 C   0  0  0  0  0  0  0  0  0  0  0  0
  161.5292  141.6311  158.7665 O   0  0  0  0  0  0  0  0  0  0  0  0
  160.3084  140.1254  159.9663 N   0  0  0  0  0  0  0  0  0  0  0  0
  159.1178  139.4991  160.3397 C   0  0  0  0  0  0  0  0  0  0  0  0
  159.1374  138.6319  161.2124 O   0  0  0  0  0  0  0  0  0  0  0  0
  156.5242  137.7886  159.9552 C   0  0  1  0  0  0  0  0  0  0  0  0
  156.1769  137.1527  161.1694 O   0  0  0  0  0  0  0  0  0  0  0  0
  155.3965  137.5921  158.9429 C   0  0  2  0  0  0  0  0  0  0  0  0
  155.9082  137.3634  157.6357 O   0  0  0  0  0  0  0  0  0  0  0  0
  156.4281  136.1661  157.2909 C   0  0  0  0  0  0  0  0  0  0  0  0
  156.4551  135.1903  158.0431 O   0  0  0  0  0  0  0  0  0  0  0  0
  156.9765  136.1542  155.9046 C   0  0  0  0  0  0  0  0  0  0  0  0
  157.5651  134.9705  155.4016 C   0  0  0  0  0  0  0  0  0  0  0  0
  158.0942  134.9314  154.0969 C   0  0  0  0  0  0  0  0  0  0  0  0
  158.0422  136.0756  153.2796 C   0  0  0  0  0  0  0  0  0  0  0  0
  157.4608  137.2598  153.7690 C   0  0  0  0  0  0  0  0  0  0  0  0
  156.9307  137.3009  155.0733 C   0  0  0  0  0  0  0  0  0  0  0  0
  152.9591  142.5851  160.2737 C   0  0  0  0  0  0  0  0  0  0  0  0
  152.5652  143.5297  161.2502 C   0  0  0  0  0  0  0  0  0  0  0  0
  152.0946  144.8015  160.8694 C   0  0  0  0  0  0  0  0  0  0  0  0
  152.0117  145.1441  159.5073 C   0  0  0  0  0  0  0  0  0  0  0  0
  152.4011  144.2137  158.5262 C   0  0  0  0  0  0  0  0  0  0  0  0
  152.8722  142.9413  158.9052 C   0  0  0  0  0  0  0  0  0  0  0  0
  161.1544  139.8202  160.4256 H   0  0  0  0  0  0  0  0  0  0  0  0
  153.9278  138.7297  161.0040 H   0  0  0  0  0  0  0  0  0  0  0  0
  152.7760  138.2018  159.7841 H   0  0  0  0  0  0  0  0  0  0  0  0
  154.2069  139.1362  157.9735 H   0  0  0  0  0  0  0  0  0  0  0  0
  156.4246  139.6255  161.1311 H   0  0  0  0  0  0  0  0  0  0  0  0
  157.1048  141.3353  158.3179 H   0  0  0  0  0  0  0  0  0  0  0  0
  159.1560  142.3790  157.7111 H   0  0  0  0  0  0  0  0  0  0  0  0
  157.4706  137.3595  159.6266 H   0  0  0  0  0  0  0  0  0  0  0  0
  155.8540  137.8057  161.7714 H   0  0  0  0  0  0  0  0  0  0  0  0
  154.7315  136.7708  159.2164 H   0  0  0  0  0  0  0  0  0  0  0  0
  157.6164  134.0792  156.0106 H   0  0  0  0  0  0  0  0  0  0  0  0
  158.5402  134.0216  153.7230 H   0  0  0  0  0  0  0  0  0  0  0  0
  158.4477  136.0452  152.2790 H   0  0  0  0  0  0  0  0  0  0  0  0
  157.4212  138.1392  153.1430 H   0  0  0  0  0  0  0  0  0  0  0  0
  156.4934  138.2270  155.4176 H   0  0  0  0  0  0  0  0  0  0  0  0
  152.6193  143.2892  162.3021 H   0  0  0  0  0  0  0  0  0  0  0  0
  151.7965  145.5145  161.6239 H   0  0  0  0  0  0  0  0  0  0  0  0
  151.6496  146.1191  159.2157 H   0  0  0  0  0  0  0  0  0  0  0  0
  152.3382  144.4756  157.4803 H   0  0  0  0  0  0  0  0  0  0  0  0
  153.1627  142.2509  158.1267 H   0  0  0  0  0  0  0  0  0  0  0  0
  1  2  2  0  0  0  0
  2  3  1  0  0  0  0
  2 28  1  0  0  0  0
  3  4  1  0  0  0  0
  4  5  1  0  0  0  0
  4 35  1  0  0  0  0
  4 36  1  0  0  0  0
  5 18  1  0  0  0  0
  5  6  1  0  0  0  0
  5 37  1  0  0  0  0
  6  7  1  0  0  0  0
  7  8  1  0  0  0  0
  7 16  1  0  0  0  0
  7 38  1  0  0  0  0
  8 14  1  0  0  0  0
  8  9  1  0  0  0  0
  9 10  2  0  0  0  0
  9 39  1  0  0  0  0
 10 11  1  0  0  0  0
 10 40  1  0  0  0  0
 11 12  2  0  0  0  0
 11 13  1  0  0  0  0
 13 34  1  0  0  0  0
 13 14  1  0  0  0  0
 14 15  2  0  0  0  0
 16 17  1  0  0  0  0
 16 18  1  0  0  0  0
 16 41  1  0  0  0  0
 17 42  1  0  0  0  0
 18 19  1  0  0  0  0
 18 43  1  0  0  0  0
 19 20  1  0  0  0  0
 20 21  2  0  0  0  0
 20 22  1  0  0  0  0
 22 27  1  0  0  0  0
 22 23  2  0  0  0  0
 23 24  1  0  0  0  0
 23 44  1  0  0  0  0
 24 25  2  0  0  0  0
 24 45  1  0  0  0  0
 25 26  1  0  0  0  0
 25 46  1  0  0  0  0
 26 27  2  0  0  0  0
 26 47  1  0  0  0  0
 27 48  1  0  0  0  0
 28 33  1  0  0  0  0
 28 29  2  0  0  0  0
 29 30  1  0  0  0  0
 29 49  1  0  0  0  0
 30 31  2  0  0  0  0
 30 50  1  0  0  0  0
 31 32  1  0  0  0  0
 31 51  1  0  0  0  0
 32 33  2  0  0  0  0
 32 52  1  0  0  0  0
 33 53  1  0  0  0  0
M  END
> <s_m_source_file>
AV-unprocessed.smi

> <i_m_source_file_index>
99

> <i_lp_mmshare_version>
43012

> <i_f3d_flags>
0

> <s_epik_input>
W2NIXTFbY0hdW2NIXVtjSF1bY0hdYzFDKD1PKU9bQ0gyXVtDQEBIXTJPW0NAQEhdKG4zW2NIXVtjSF1jKD1PKVtuSF1jMz1PKVtDQEBIXShbT0hdKVtDQEhdMk9DKD1PKWM0W2NIXVtjSF1bY0hdW2NIXVtjSF00

> <s_epik_cmdline>
J2VwaWtfcHl0aG9uJywgJy1waCcsICc3LjAnLCAnLXRuJywgJzgnLCAnLW1hJywgJzIwMCcsICctbWV0YWxfYmluZGluZycsICctaW1hZScsICc8aW5maWxlLm1hZT4nLCAnLW9tYWUnLCAnPG91dGZpbGUubWFlPic=

> <r_lp_tautomer_probability>
1

> <r_epik_Ionization_Penalty>
0.00454555

> <r_epik_Ionization_Penalty_Charging>
0.0045191

> <r_epik_Ionization_Penalty_Neutral>
2.64449e-05

> <r_epik_State_Penalty>
-0

> <r_epik_Charging_Adjusted_Penalty>
0.0045191

> <i_epik_Tot_Q>
0

> <i_epik_Tot_abs_Q>
0

> <r_epik_Metal_State_Penalty>
1.27877

> <b_epik_Metal_Only>
0

> <s_epik_Chemistry_Notes>
This compound has an ester and may undergo hydrolysis at high or low pH. This compound contains an acetal/aminal-like group ( X-CH(R)-Y where X, Y are N, S, or O) that may be acid/base labile, releasing an aldehyde.

> <s_lp_Force_Field>
OPLS_2005

> <r_lp_Energy>
32.4523

> <b_lp_Chiralities_Consistent>
1

> <s_lp_Variant>
AV-unprocessed.smi:99-12

> <Gold.Version>
5.8.1

> <Gold.Id.Protein>
6NUR|6NUR_protein|mol2

> <Gold.PLP.Fitness>
56.3274

> <Gold.PLP.PLP>
-58.5301

> <Gold.PLP.part.hbond>
-3.4426

> <Gold.PLP.part.metal>
0.0000

> <Gold.PLP.part.buried>
-5.0083

> <Gold.PLP.part.nonpolar>
-50.3616

> <Gold.PLP.part.repulsive>
0.3682

> <Gold.PLP.ligand.clash>
0.0000

> <Gold.PLP.ligand.torsion>
1.3369

> <Gold.PLP.Chemscore.Hbond>
0.0000

> <Gold.PLP.Chemscore.CHOScore>
0.0000

> <Gold.PLP.Chemscore.Metal>
0.0000

> <Gold.PLP.Chemscore.Internal.Correction>
0.4710

> <Gold.Rescore>
     Score         DG    S(hbond)    S(metal)    S(lipo)     H(rot)  DE(clash)    DE(int)     intcor
     10.83     -16.03       0.00        0.00     159.98       3.19       2.13       3.07       ----

> <Gold.Chemscore.Fitness>
10.8276

> <Gold.Chemscore.DG>
-16.0303

> <Gold.Chemscore.ZeroCoef>
-5.4800

> <Gold.Chemscore.Hbond>
0.0000

> <Gold.Chemscore.Metal>
0.0000

> <Gold.Chemscore.Lipo>
159.9775

> <Gold.Chemscore.Internal_Hbond>
0.0000

> <Gold.Chemscore.DEClash>
2.1295

> <Gold.Chemscore.DEInternal>
3.0732

> <Gold.Chemscore.Rot>
3.1903

> <Gold.Chemscore.Internal.Correction>
   9.000000E+99

> <Gold.Chemscore.Hbond.Weighted>
-0.0000

> <Gold.Chemscore.Metal.Weighted>
-0.0000

> <Gold.Chemscore.Lipo.Weighted>
-18.7174

> <Gold.Chemscore.Internal_Hbond.Weighted>
0.0000

> <Gold.Chemscore.DEClash.Weighted>
2.1295

> <Gold.Chemscore.DEInternal.Weighted>
3.0732

> <Gold.Chemscore.Rot.Weighted>
8.1671

> <Gold.Chemscore.Internal.Correction.Weighted>
   9.000000E+99

> <Gold.Protein.RotatedTorsions>
[ 6907 6896 6895 6894 ] final  -19.02 input  -60.11 | X-H torsion
[ 7974 7965 7964 7962 ] final  121.36 input  175.53 | X-H torsion
[ 8008 7997 7996 7995 ] final   12.64 input   59.86 | X-H torsion
[ 10167 10162 10161 10158 ] final -124.17 input  -65.29 | X-H torsion
[ 10718 10713 10712 10709 ] final   78.54 input   66.30 | X-H torsion
[ 10763 10752 10751 10750 ] final   97.07 input  -60.55 | X-H torsion
[ 11005 11000 10999 10996 ] final   36.84 input  -57.11 | X-H torsion

> <Gold.Protein.ActiveResidues>
 VAL166  LYS551  ARG553  GLY616  TRP617  ASP618  TYR619  PRO620  LYS621  CYS622 
 ASP623  PHE694  ASN695  SER759  ASP760  ASP761  ALA762  ILE779  LEU786  VAL792 
 PHE793  MET794  SER795  GLU796  ALA797  LYS798  CYS799  TRP800  GLU811  SER814 

> <Gold.Protein.RotatedAtoms>
  151.2694  135.0679  159.9128 H   0  0  0  0  0  0  0  0  0  0  0  0  # atno 6907 bound_to 6896
  152.5353  134.0146  159.7964 H   0  0  0  0  0  0  0  0  0  0  0  0  # atno 6908 bound_to 6896
  151.0382  133.5679  159.2684 H   0  0  0  0  0  0  0  0  0  0  0  0  # atno 6909 bound_to 6896
  145.1202  139.3394  143.4718 H   0  0  0  0  0  0  0  0  0  0  0  0  # atno 7974 bound_to 7965
  154.8235  140.2888  155.5771 H   0  0  0  0  0  0  0  0  0  0  0  0  # atno 8008 bound_to 7997
  156.2999  140.2545  156.3077 H   0  0  0  0  0  0  0  0  0  0  0  0  # atno 8009 bound_to 7997
  154.9312  140.0383  157.2038 H   0  0  0  0  0  0  0  0  0  0  0  0  # atno 8010 bound_to 7997
  139.9957  143.5594  152.2324 H   0  0  0  0  0  0  0  0  0  0  0  0  # atno 10167 bound_to 10162
  157.6748  130.9873  150.1802 H   0  0  0  0  0  0  0  0  0  0  0  0  # atno 10718 bound_to 10713
  153.2725  135.4196  155.1001 H   0  0  0  0  0  0  0  0  0  0  0  0  # atno 10763 bound_to 10752
  154.8461  135.3475  154.6224 H   0  0  0  0  0  0  0  0  0  0  0  0  # atno 10764 bound_to 10752
  153.6644  135.7047  153.5224 H   0  0  0  0  0  0  0  0  0  0  0  0  # atno 10765 bound_to 10752
  140.2285  134.3556  155.7974 H   0  0  0  0  0  0  0  0  0  0  0  0  # atno 11005 bound_to 11000
  146.3521  140.1159  142.8602 LP  0  0  0  0  0  0  0  0  0  0  0  0  # atno 17320 bound_to 7965
  145.0748  140.9181  143.4860 LP  0  0  0  0  0  0  0  0  0  0  0  0  # atno 17321 bound_to 7965
  139.6308  144.7644  151.2541 LP  0  0  0  0  0  0  0  0  0  0  0  0  # atno 17342 bound_to 10162
  140.7438  143.6483  150.8271 LP  0  0  0  0  0  0  0  0  0  0  0  0  # atno 17343 bound_to 10162
  156.2536  130.3703  149.8206 LP  0  0  0  0  0  0  0  0  0  0  0  0  # atno 17370 bound_to 10713
  156.5971  130.8531  151.3423 LP  0  0  0  0  0  0  0  0  0  0  0  0  # atno 17371 bound_to 10713
  141.2219  133.7232  156.8692 LP  0  0  0  0  0  0  0  0  0  0  0  0  # atno 17394 bound_to 11000
  140.1775  134.9056  157.2909 LP  0  0  0  0  0  0  0  0  0  0  0  0  # atno 17395 bound_to 11000

$$$$
