AV-unprocessed.smi:529|AV-procd|sdf|2839|dock6
  -GOLD-   2262023333D 1   1.00000     0.00000
 Structure written by MMmdl.
 31 32  0  0  0  0  0  0  0  0  2 V2000
  149.4402  138.8123  153.4552 N   0  0  0  0  0  0  0  0  0  0  0  0
  148.3819  139.5146  153.8675 C   0  0  0  0  0  0  0  0  0  0  0  0
  146.7308  138.9937  153.7125 S   0  0  0  0  0  0  0  0  0  0  0  0
  146.1866  140.4646  154.4610 C   0  0  0  0  0  0  0  0  0  0  0  0
  147.2385  141.2770  154.7933 C   0  0  0  0  0  0  0  0  0  0  0  0
  148.4730  140.7268  154.4538 N   0  3  0  0  0  0  0  0  0  0  0  0
  149.7526  141.4160  154.7044 C   0  0  0  0  0  0  0  0  0  0  0  0
  150.1434  141.3636  156.1839 C   0  0  0  0  0  0  0  0  0  0  0  0
  150.2518  140.2789  156.7556 O   0  0  0  0  0  0  0  0  0  0  0  0
  150.3392  142.5434  156.7920 N   0  0  0  0  0  0  0  0  0  0  0  0
  150.6830  142.7141  158.2009 C   0  0  0  0  0  0  0  0  0  0  0  0
  149.7750  143.7685  158.8618 C   0  0  0  0  0  0  0  0  0  0  0  0
  150.7055  144.6918  159.6494 C   0  0  0  0  0  0  0  0  0  0  0  0
  152.0125  144.6669  158.8633 C   0  0  0  0  0  0  0  0  0  0  0  0
  152.1284  143.2224  158.3745 C   0  0  0  0  0  0  0  0  0  0  0  0
  150.3862  139.1496  153.5582 H   0  0  0  0  0  0  0  0  0  0  0  0
  145.1313  140.6423  154.6074 H   0  0  0  0  0  0  0  0  0  0  0  0
  147.2176  142.2507  155.2616 H   0  0  0  0  0  0  0  0  0  0  0  0
  150.5284  140.9278  154.1131 H   0  0  0  0  0  0  0  0  0  0  0  0
  149.6816  142.4432  154.3425 H   0  0  0  0  0  0  0  0  0  0  0  0
  150.2415  143.3855  156.2432 H   0  0  0  0  0  0  0  0  0  0  0  0
  150.5691  141.7629  158.7244 H   0  0  0  0  0  0  0  0  0  0  0  0
  149.2533  144.3566  158.1050 H   0  0  0  0  0  0  0  0  0  0  0  0
  149.0135  143.3168  159.4985 H   0  0  0  0  0  0  0  0  0  0  0  0
  150.3015  145.6981  159.7633 H   0  0  0  0  0  0  0  0  0  0  0  0
  150.8708  144.2838  160.6477 H   0  0  0  0  0  0  0  0  0  0  0  0
  151.9396  145.3407  158.0084 H   0  0  0  0  0  0  0  0  0  0  0  0
  152.8692  144.9783  159.4615 H   0  0  0  0  0  0  0  0  0  0  0  0
  152.6281  142.6237  159.1371 H   0  0  0  0  0  0  0  0  0  0  0  0
  152.7292  143.1468  157.4670 H   0  0  0  0  0  0  0  0  0  0  0  0
  149.3485  137.9200  152.9907 H   0  0  0  0  0  0  0  0  0  0  0  0
  1  2  1  0  0  0  0
  1 16  1  0  0  0  0
  1 31  1  0  0  0  0
  2  6  2  0  0  0  0
  2  3  1  0  0  0  0
  3  4  1  0  0  0  0
  4  5  2  0  0  0  0
  4 17  1  0  0  0  0
  5  6  1  0  0  0  0
  5 18  1  0  0  0  0
  6  7  1  0  0  0  0
  7  8  1  0  0  0  0
  7 19  1  0  0  0  0
  7 20  1  0  0  0  0
  8  9  2  0  0  0  0
  8 10  1  0  0  0  0
 10 11  1  0  0  0  0
 10 21  1  0  0  0  0
 11 15  1  0  0  0  0
 11 12  1  0  0  0  0
 11 22  1  0  0  0  0
 12 13  1  0  0  0  0
 12 23  1  0  0  0  0
 12 24  1  0  0  0  0
 13 14  1  0  0  0  0
 13 25  1  0  0  0  0
 13 26  1  0  0  0  0
 14 15  1  0  0  0  0
 14 27  1  0  0  0  0
 14 28  1  0  0  0  0
 15 29  1  0  0  0  0
 15 30  1  0  0  0  0
M  CHG  1   6   1
M  END
> <s_m_source_file>
AV-unprocessed.smi

> <i_m_source_file_index>
529

> <i_lp_mmshare_version>
43012

> <i_f3d_flags>
0

> <s_epik_input>
W0hdL049YzFcc1tjSF1bY0hdbjFbQ0gyXUMoPU8pW05IXVtDSF0yW0NIMl1bQ0gyXVtDSDJdW0NIMl0y

> <s_epik_cmdline>
J2VwaWtfcHl0aG9uJywgJy1waCcsICc3LjAnLCAnLXRuJywgJzgnLCAnLW1hJywgJzIwMCcsICctbWV0YWxfYmluZGluZycsICctaW1hZScsICc8aW5maWxlLm1hZT4nLCAnLW9tYWUnLCAnPG91dGZpbGUubWFlPic=

> <r_lp_tautomer_probability>
1

> <r_epik_Ionization_Penalty>
0.0151346

> <r_epik_Ionization_Penalty_Charging>
0

> <r_epik_Ionization_Penalty_Neutral>
0.0151346

> <r_epik_State_Penalty>
0.0235202

> <r_epik_Charging_Adjusted_Penalty>
0.0235202

> <i_epik_Tot_Q>
1

> <i_epik_Tot_abs_Q>
1

> <r_epik_Metal_State_Penalty>
0.0235202

> <b_epik_Metal_Only>
0

> <s_lp_Force_Field>
OPLS_2005

> <r_lp_Energy>
21.8229

> <b_lp_Chiralities_Consistent>
1

> <s_lp_Variant>
AV-unprocessed.smi:529-1

> <Gold.Version>
5.8.1

> <Gold.Id.Protein>
6NUR|6NUR_protein|mol2

> <Gold.PLP.Fitness>
38.5269

> <Gold.PLP.PLP>
-28.4942

> <Gold.PLP.part.hbond>
-3.0000

> <Gold.PLP.part.metal>
0.0000

> <Gold.PLP.part.buried>
-1.0346

> <Gold.PLP.part.nonpolar>
-25.1044

> <Gold.PLP.part.repulsive>
0.1351

> <Gold.PLP.ligand.clash>
0.0000

> <Gold.PLP.ligand.torsion>
0.3037

> <Gold.PLP.Chemscore.Hbond>
2.8320

> <Gold.PLP.Chemscore.CHOScore>
0.7137

> <Gold.PLP.Chemscore.Metal>
0.0000

> <Gold.Chemscore.Hbonds>
donor molecule, donor type, donor heavy atom, donor atom, acceptor molecule, acceptor atom, score
      L1  H     1    31       P1  7948  1.98
      L1  H    10    21       P1  8028  0.85
      L1  C     4    17       P1 10175  0.64

> <Gold.PLP.Chemscore.Internal.Correction>
0.0029

> <Gold.Rescore>
     Score         DG    S(hbond)    S(metal)    S(lipo)     H(rot)  DE(clash)    DE(int)     intcor
     15.43     -15.78       1.88        0.00      69.68       1.61       0.17       0.18       ----

> <Gold.Chemscore.Fitness>
15.4322

> <Gold.Chemscore.DG>
-15.7829

> <Gold.Chemscore.ZeroCoef>
-5.4800

> <Gold.Chemscore.Hbond>
1.8771

> <Gold.Chemscore.Metal>
0.0000

> <Gold.Chemscore.Lipo>
69.6767

> <Gold.Chemscore.Internal_Hbond>
0.0000

> <Gold.Chemscore.DEClash>
0.1682

> <Gold.Chemscore.DEInternal>
0.1825

> <Gold.Chemscore.Rot>
1.6089

> <Gold.Chemscore.Internal.Correction>
   9.000000E+99

> <Gold.Chemscore.Hbonds>
donor molecule, donor type, donor heavy atom, donor atom, acceptor molecule, acceptor atom, score
      L1  H     1    31       P1  7948  0.87
      L1  H    10    21       P1  8028  0.81

> <Gold.Chemscore.Hbond.Weighted>
-6.2695

> <Gold.Chemscore.Metal.Weighted>
-0.0000

> <Gold.Chemscore.Lipo.Weighted>
-8.1522

> <Gold.Chemscore.Internal_Hbond.Weighted>
0.0000

> <Gold.Chemscore.DEClash.Weighted>
0.1682

> <Gold.Chemscore.DEInternal.Weighted>
0.1825

> <Gold.Chemscore.Rot.Weighted>
4.1188

> <Gold.Chemscore.Internal.Correction.Weighted>
   9.000000E+99

> <Gold.Protein.RotatedTorsions>
[ 6907 6896 6895 6894 ] final  -53.88 input  -60.11 | X-H torsion
[ 7974 7965 7964 7962 ] final   29.14 input  175.53 | X-H torsion
[ 8008 7997 7996 7995 ] final   46.96 input   59.86 | X-H torsion
[ 10167 10162 10161 10158 ] final   -7.00 input  -65.29 | X-H torsion
[ 10718 10713 10712 10709 ] final   88.69 input   66.30 | X-H torsion
[ 10763 10752 10751 10750 ] final   90.39 input  -60.55 | X-H torsion
[ 11005 11000 10999 10996 ] final  -35.34 input  -57.11 | X-H torsion

> <Gold.Protein.ActiveResidues>
 VAL166  LYS551  ARG553  GLY616  TRP617  ASP618  TYR619  PRO620  LYS621  CYS622 
 ASP623  PHE694  ASN695  SER759  ASP760  ASP761  ALA762  ILE779  LEU786  VAL792 
 PHE793  MET794  SER795  GLU796  ALA797  LYS798  CYS799  TRP800  GLU811  SER814 

> <Gold.Protein.RotatedAtoms>
  150.8387  134.7670  159.6913 H   0  0  0  0  0  0  0  0  0  0  0  0  # atno 6907 bound_to 6896
  152.4479  134.5453  159.9861 H   0  0  0  0  0  0  0  0  0  0  0  0  # atno 6908 bound_to 6896
  151.5598  133.3367  159.3005 H   0  0  0  0  0  0  0  0  0  0  0  0  # atno 6909 bound_to 6896
  146.1688  139.6961  142.8982 H   0  0  0  0  0  0  0  0  0  0  0  0  # atno 7974 bound_to 7965
  155.3611  140.3418  155.4241 H   0  0  0  0  0  0  0  0  0  0  0  0  # atno 8008 bound_to 7997
  156.1713  140.1633  156.8476 H   0  0  0  0  0  0  0  0  0  0  0  0  # atno 8009 bound_to 7997
  154.5236  140.0761  156.8200 H   0  0  0  0  0  0  0  0  0  0  0  0  # atno 8010 bound_to 7997
  140.7015  143.6130  150.8685 H   0  0  0  0  0  0  0  0  0  0  0  0  # atno 10167 bound_to 10162
  157.6951  131.0304  150.3312 H   0  0  0  0  0  0  0  0  0  0  0  0  # atno 10718 bound_to 10713
  153.1970  135.4436  155.0220 H   0  0  0  0  0  0  0  0  0  0  0  0  # atno 10763 bound_to 10752
  154.8125  135.3300  154.7270 H   0  0  0  0  0  0  0  0  0  0  0  0  # atno 10764 bound_to 10752
  153.7718  135.6984  153.4960 H   0  0  0  0  0  0  0  0  0  0  0  0  # atno 10765 bound_to 10752
  140.9788  133.7068  156.1648 H   0  0  0  0  0  0  0  0  0  0  0  0  # atno 11005 bound_to 11000
  145.4395  141.0421  143.2865 LP  0  0  0  0  0  0  0  0  0  0  0  0  # atno 17320 bound_to 7965
  144.8132  139.5924  143.7020 LP  0  0  0  0  0  0  0  0  0  0  0  0  # atno 17321 bound_to 7965
  139.9852  143.5907  152.2929 LP  0  0  0  0  0  0  0  0  0  0  0  0  # atno 17342 bound_to 10162
  139.6542  144.7661  151.2088 LP  0  0  0  0  0  0  0  0  0  0  0  0  # atno 17343 bound_to 10162
  156.3786  130.3876  149.7119 LP  0  0  0  0  0  0  0  0  0  0  0  0  # atno 17370 bound_to 10713
  156.4510  130.7906  151.2928 LP  0  0  0  0  0  0  0  0  0  0  0  0  # atno 17371 bound_to 10713
  140.7218  134.4350  157.5574 LP  0  0  0  0  0  0  0  0  0  0  0  0  # atno 17394 bound_to 11000
  139.8941  134.8714  156.2190 LP  0  0  0  0  0  0  0  0  0  0  0  0  # atno 17395 bound_to 11000

$$$$
