AV-unprocessed.smi:1138|AV-procd|sdf|4868|dock1
  -GOLD-   22720 3433D 1   1.00000     0.00000
 Structure written by MMmdl.
 49 51  0  0  0  0  0  0  0  0  1 V2000
  143.9779  132.4067  149.5431 C   0  0  0  0  0  0  0  0  0  0  0  0
  144.6409  132.6097  150.8273 N   0  0  0  0  0  0  0  0  0  0  0  0
  145.2965  131.4869  151.4867 C   0  0  0  0  0  0  0  0  0  0  0  0
  144.8108  133.9209  151.3285 C   0  0  0  0  0  0  0  0  0  0  0  0
  145.8818  134.2477  152.1967 C   0  0  0  0  0  0  0  0  0  0  0  0
  146.0109  135.5700  152.6620 C   0  0  0  0  0  0  0  0  0  0  0  0
  145.0796  136.5416  152.2491 C   0  0  0  0  0  0  0  0  0  0  0  0
  145.2301  137.8653  152.7433 N   0  0  0  0  0  0  0  0  0  0  0  0
  146.2510  138.3816  153.4489 C   0  0  0  0  0  0  0  0  0  0  0  0
  147.2592  137.7670  153.7968 O   0  0  0  0  0  0  0  0  0  0  0  0
  146.0281  139.6680  153.7534 N   0  0  0  0  0  0  0  0  0  0  0  0
  146.9242  140.5148  154.5356 C   0  0  0  0  0  0  0  0  0  0  0  0
  148.1356  140.9278  153.6726 C   0  0  0  0  0  0  0  0  0  0  0  0
  149.1937  141.6694  154.5095 C   0  0  0  0  0  0  0  0  0  0  0  0
  149.5885  140.8144  155.6361 N   0  0  0  0  0  0  0  0  0  0  0  0
  150.8188  140.2500  155.7290 C   0  0  0  0  0  0  0  0  0  0  0  0
  151.7201  140.5058  154.9289 O   0  0  0  0  0  0  0  0  0  0  0  0
  151.0394  139.2714  156.8420 C   0  0  0  0  0  0  0  0  0  0  0  0
  150.8515  139.7870  158.2535 C   0  0  0  0  0  0  0  0  0  0  0  0
  152.2367  139.4719  157.7539 C   0  0  0  0  0  0  0  0  0  0  0  0
  148.4642  140.5950  156.5571 C   0  0  0  0  0  0  0  0  0  0  0  0
  147.3726  139.7929  155.8269 C   0  0  0  0  0  0  0  0  0  0  0  0
  144.0326  136.1221  151.3957 C   0  0  0  0  0  0  0  0  0  0  0  0
  143.9044  134.8549  150.9492 N   0  0  0  0  0  0  0  0  0  0  0  0
  142.9672  132.8153  149.5631 H   0  0  0  0  0  0  0  0  0  0  0  0
  143.9020  131.3475  149.2974 H   0  0  0  0  0  0  0  0  0  0  0  0
  144.5344  132.8977  148.7438 H   0  0  0  0  0  0  0  0  0  0  0  0
  144.9009  131.3492  152.4933 H   0  0  0  0  0  0  0  0  0  0  0  0
  146.3720  131.6548  151.5521 H   0  0  0  0  0  0  0  0  0  0  0  0
  145.1384  130.5579  150.9385 H   0  0  0  0  0  0  0  0  0  0  0  0
  146.6057  133.5132  152.5153 H   0  0  0  0  0  0  0  0  0  0  0  0
  146.8228  135.8326  153.3245 H   0  0  0  0  0  0  0  0  0  0  0  0
  144.4365  138.4728  152.6012 H   0  0  0  0  0  0  0  0  0  0  0  0
  145.1708  140.0916  153.4299 H   0  0  0  0  0  0  0  0  0  0  0  0
  146.3968  141.4281  154.8182 H   0  0  0  0  0  0  0  0  0  0  0  0
  148.5919  140.0424  153.2267 H   0  0  0  0  0  0  0  0  0  0  0  0
  147.8084  141.5573  152.8443 H   0  0  0  0  0  0  0  0  0  0  0  0
  150.0338  141.9518  153.8737 H   0  0  0  0  0  0  0  0  0  0  0  0
  148.7839  142.6061  154.8903 H   0  0  0  0  0  0  0  0  0  0  0  0
  150.7722  138.2357  156.6393 H   0  0  0  0  0  0  0  0  0  0  0  0
  150.5942  140.8367  158.3868 H   0  0  0  0  0  0  0  0  0  0  0  0
  150.3973  139.1067  158.9706 H   0  0  0  0  0  0  0  0  0  0  0  0
  152.7230  138.5756  158.1336 H   0  0  0  0  0  0  0  0  0  0  0  0
  152.9030  140.3152  157.5818 H   0  0  0  0  0  0  0  0  0  0  0  0
  148.7429  140.0968  157.4846 H   0  0  0  0  0  0  0  0  0  0  0  0
  148.0642  141.5617  156.8664 H   0  0  0  0  0  0  0  0  0  0  0  0
  146.5197  139.6411  156.4894 H   0  0  0  0  0  0  0  0  0  0  0  0
  147.7573  138.8008  155.5848 H   0  0  0  0  0  0  0  0  0  0  0  0
  143.2573  136.7954  151.0654 H   0  0  0  0  0  0  0  0  0  0  0  0
  1  2  1  0  0  0  0
  1 25  1  0  0  0  0
  1 26  1  0  0  0  0
  1 27  1  0  0  0  0
  2  3  1  0  0  0  0
  2  4  1  0  0  0  0
  3 28  1  0  0  0  0
  3 29  1  0  0  0  0
  3 30  1  0  0  0  0
  4 24  1  0  0  0  0
  4  5  2  0  0  0  0
  5  6  1  0  0  0  0
  5 31  1  0  0  0  0
  6  7  2  0  0  0  0
  6 32  1  0  0  0  0
  7  8  1  0  0  0  0
  7 23  1  0  0  0  0
  8  9  1  0  0  0  0
  8 33  1  0  0  0  0
  9 10  2  0  0  0  0
  9 11  1  0  0  0  0
 11 12  1  0  0  0  0
 11 34  1  0  0  0  0
 12 22  1  0  0  0  0
 12 13  1  0  0  0  0
 12 35  1  0  0  0  0
 13 14  1  0  0  0  0
 13 36  1  0  0  0  0
 13 37  1  0  0  0  0
 14 15  1  0  0  0  0
 14 38  1  0  0  0  0
 14 39  1  0  0  0  0
 15 16  1  0  0  0  0
 15 21  1  0  0  0  0
 16 17  2  0  0  0  0
 16 18  1  0  0  0  0
 18 20  1  0  0  0  0
 18 19  1  0  0  0  0
 18 40  1  0  0  0  0
 19 20  1  0  0  0  0
 19 41  1  0  0  0  0
 19 42  1  0  0  0  0
 20 43  1  0  0  0  0
 20 44  1  0  0  0  0
 21 22  1  0  0  0  0
 21 45  1  0  0  0  0
 21 46  1  0  0  0  0
 22 47  1  0  0  0  0
 22 48  1  0  0  0  0
 23 24  2  0  0  0  0
 23 49  1  0  0  0  0
M  END
> <s_m_source_file>
AV-unprocessed.smi

> <i_m_source_file_index>
1138

> <i_lp_mmshare_version>
43012

> <i_f3d_flags>
0

> <s_epik_input>
W0NIM11OKFtDSDNdKWMxW2NIXVtjSF1jKFtjSF1uMSlbTkhdQyg9TylbTkhdW0NIXTJbQ0gyXVtDSDJdTihbQ0gyXVtDSDJdMilDKD1PKVtDSF0zW0NIMl1bQ0gyXTM=

> <s_epik_cmdline>
J2VwaWtfcHl0aG9uJywgJy1waCcsICc3LjAnLCAnLXRuJywgJzgnLCAnLW1hJywgJzIwMCcsICctbWV0YWxfYmluZGluZycsICctaW1hZScsICc8aW5maWxlLm1hZT4nLCAnLW9tYWUnLCAnPG91dGZpbGUubWFlPic=

> <r_lp_tautomer_probability>
1

> <r_epik_Ionization_Penalty>
0.622325

> <r_epik_Ionization_Penalty_Charging>
0

> <r_epik_Ionization_Penalty_Neutral>
0.622325

> <r_epik_State_Penalty>
0.637335

> <r_epik_Charging_Adjusted_Penalty>
0.637335

> <i_epik_Tot_Q>
0

> <i_epik_Tot_abs_Q>
0

> <r_epik_Metal_State_Penalty>
0.306682

> <b_epik_Metal_Only>
0

> <s_lp_Force_Field>
OPLS_2005

> <r_lp_Energy>
33.2088

> <b_lp_Chiralities_Consistent>
1

> <s_lp_Variant>
AV-unprocessed.smi:1138-2

> <Gold.Version>
5.8.1

> <Gold.Id.Protein>
6NUR|6NUR_protein|mol2

> <Gold.PLP.Fitness>
43.1992

> <Gold.PLP.PLP>
-33.6284

> <Gold.PLP.part.hbond>
-2.9688

> <Gold.PLP.part.metal>
0.0000

> <Gold.PLP.part.buried>
-2.1902

> <Gold.PLP.part.nonpolar>
-29.1454

> <Gold.PLP.part.repulsive>
0.8430

> <Gold.PLP.ligand.clash>
0.0000

> <Gold.PLP.ligand.torsion>
0.4853

> <Gold.PLP.Chemscore.Hbond>
2.6860

> <Gold.PLP.Chemscore.CHOScore>
0.7818

> <Gold.PLP.Chemscore.Metal>
0.0000

> <Gold.Chemscore.Hbonds>
donor molecule, donor type, donor heavy atom, donor atom, acceptor molecule, acceptor atom, score
      L1  H     8    33       P1 10175  0.76
      L1  H    11    34       P1 10175  1.00
      P1  H  7989  7998       L1    17  0.68
      L1  C    23    49       P1 10171  0.78

> <Gold.PLP.Chemscore.Internal.Correction>
0.1381

> <Gold.Rescore>
     Score         DG    S(hbond)    S(metal)    S(lipo)     H(rot)  DE(clash)    DE(int)     intcor
     15.27     -20.46       2.84        0.00      73.04       1.20       1.77       3.42       ----

> <Gold.Chemscore.Fitness>
15.2736

> <Gold.Chemscore.DG>
-20.4624

> <Gold.Chemscore.ZeroCoef>
-5.4800

> <Gold.Chemscore.Hbond>
2.8447

> <Gold.Chemscore.Metal>
0.0000

> <Gold.Chemscore.Lipo>
73.0351

> <Gold.Chemscore.Internal_Hbond>
0.0000

> <Gold.Chemscore.DEClash>
1.7657

> <Gold.Chemscore.DEInternal>
3.4232

> <Gold.Chemscore.Rot>
1.1969

> <Gold.Chemscore.Internal.Correction>
   9.000000E+99

> <Gold.Chemscore.Hbonds>
donor molecule, donor type, donor heavy atom, donor atom, acceptor molecule, acceptor atom, score
      L1  H     8    33       P1 10175  0.72
      L1  H    11    34       P1 10175  1.00
      P1  H  7989  7998       L1    17  0.65

> <Gold.Chemscore.Hbond.Weighted>
-9.5014

> <Gold.Chemscore.Metal.Weighted>
-0.0000

> <Gold.Chemscore.Lipo.Weighted>
-8.5451

> <Gold.Chemscore.Internal_Hbond.Weighted>
0.0000

> <Gold.Chemscore.DEClash.Weighted>
1.7657

> <Gold.Chemscore.DEInternal.Weighted>
3.4232

> <Gold.Chemscore.Rot.Weighted>
3.0641

> <Gold.Chemscore.Internal.Correction.Weighted>
   9.000000E+99

> <Gold.Protein.RotatedTorsions>
[ 6907 6896 6895 6894 ] final  178.68 input  -60.11 | X-H torsion
[ 7974 7965 7964 7962 ] final -153.26 input  175.53 | X-H torsion
[ 8008 7997 7996 7995 ] final  118.97 input   59.86 | X-H torsion
[ 10167 10162 10161 10158 ] final -111.58 input  -65.29 | X-H torsion
[ 10718 10713 10712 10709 ] final  -79.84 input   66.30 | X-H torsion
[ 10763 10752 10751 10750 ] final   43.55 input  -60.55 | X-H torsion
[ 11005 11000 10999 10996 ] final -166.12 input  -57.11 | X-H torsion

> <Gold.Protein.ActiveResidues>
 VAL166  LYS551  ARG553  GLY616  TRP617  ASP618  TYR619  PRO620  LYS621  CYS622 
 ASP623  PHE694  ASN695  SER759  ASP760  ASP761  ALA762  ILE779  LEU786  VAL792 
 PHE793  MET794  SER795  GLU796  ALA797  LYS798  CYS799  TRP800  GLU811  SER814 

> <Gold.Protein.RotatedAtoms>
  151.6839  133.3311  159.3225 H   0  0  0  0  0  0  0  0  0  0  0  0  # atno 6907 bound_to 6896
  150.7810  134.6757  159.6425 H   0  0  0  0  0  0  0  0  0  0  0  0  # atno 6908 bound_to 6896
  152.3867  134.6509  160.0175 H   0  0  0  0  0  0  0  0  0  0  0  0  # atno 6909 bound_to 6896
  144.7750  140.4550  143.5880 H   0  0  0  0  0  0  0  0  0  0  0  0  # atno 7974 bound_to 7965
  156.2573  140.2863  156.0919 H   0  0  0  0  0  0  0  0  0  0  0  0  # atno 8008 bound_to 7997
  155.1454  140.0396  157.2826 H   0  0  0  0  0  0  0  0  0  0  0  0  # atno 8009 bound_to 7997
  154.6499  140.2542  155.7232 H   0  0  0  0  0  0  0  0  0  0  0  0  # atno 8010 bound_to 7997
  140.1321  143.4352  152.1620 H   0  0  0  0  0  0  0  0  0  0  0  0  # atno 10167 bound_to 10162
  156.0083  130.4557  150.3709 H   0  0  0  0  0  0  0  0  0  0  0  0  # atno 10718 bound_to 10713
  152.9858  135.6098  154.3131 H   0  0  0  0  0  0  0  0  0  0  0  0  # atno 10763 bound_to 10752
  154.2845  135.2776  155.2684 H   0  0  0  0  0  0  0  0  0  0  0  0  # atno 10764 bound_to 10752
  154.5008  135.5867  153.6586 H   0  0  0  0  0  0  0  0  0  0  0  0  # atno 10765 bound_to 10752
  140.5680  134.5266  157.5156 H   0  0  0  0  0  0  0  0  0  0  0  0  # atno 11005 bound_to 11000
  145.6212  139.1524  143.3021 LP  0  0  0  0  0  0  0  0  0  0  0  0  # atno 17320 bound_to 7965
  146.1923  140.6322  142.9140 LP  0  0  0  0  0  0  0  0  0  0  0  0  # atno 17321 bound_to 7965
  139.5514  144.7341  151.4422 LP  0  0  0  0  0  0  0  0  0  0  0  0  # atno 17342 bound_to 10162
  140.6811  143.8080  150.7122 LP  0  0  0  0  0  0  0  0  0  0  0  0  # atno 17343 bound_to 10162
  157.1794  131.0388  151.2756 LP  0  0  0  0  0  0  0  0  0  0  0  0  # atno 17370 bound_to 10713
  157.4159  130.7411  149.6875 LP  0  0  0  0  0  0  0  0  0  0  0  0  # atno 17371 bound_to 10713
  139.9375  134.7847  156.0764 LP  0  0  0  0  0  0  0  0  0  0  0  0  # atno 17394 bound_to 11000
  141.1074  133.6655  156.2895 LP  0  0  0  0  0  0  0  0  0  0  0  0  # atno 17395 bound_to 11000

$$$$
