AV-unprocessed.smi:2848|AV-procd|sdf|10956|dock1
  -GOLD-   2272015413D 1   1.00000     0.00000
 Structure written by MMmdl.
 26 27  0  0  0  0  0  0  0  0  1 V2000
  148.1272  141.7434  154.3672 Cl  0  0  0  0  0  0  0  0  0  0  0  0
  149.5172  140.8699  154.9104 C   0  0  0  0  0  0  0  0  0  0  0  0
  150.0101  139.7947  154.1429 C   0  0  0  0  0  0  0  0  0  0  0  0
  151.0879  139.0622  154.4938 N   0  0  0  0  0  0  0  0  0  0  0  0
  151.7186  139.3843  155.6422 C   0  0  0  0  0  0  0  0  0  0  0  0
  151.3099  140.4389  156.4829 C   0  0  0  0  0  0  0  0  0  0  0  0
  150.1802  141.2067  156.1132 C   0  0  0  0  0  0  0  0  0  0  0  0
  149.7033  142.2729  156.8909 N   0  0  0  0  0  0  0  0  0  0  0  0
  149.8708  142.2730  158.3366 C   0  0  0  0  0  0  0  0  0  0  0  0
  150.7584  143.3985  158.8310 C   0  0  0  0  0  0  0  0  0  0  0  0
  151.2664  144.3653  158.0393 C   0  0  0  0  0  0  0  0  0  0  0  0
  151.9995  145.4241  158.5120 O   0  0  0  0  0  0  0  0  0  0  0  0
  151.9353  145.5977  159.9233 C   0  0  0  0  0  0  0  0  0  0  0  0
  152.0288  144.2397  160.6378 C   0  0  0  0  0  0  0  0  0  0  0  0
  151.0099  143.3541  160.1825 O   0  0  0  0  0  0  0  0  0  0  0  0
  149.5249  139.5142  153.2196 H   0  0  0  0  0  0  0  0  0  0  0  0
  152.5766  138.7819  155.9009 H   0  0  0  0  0  0  0  0  0  0  0  0
  151.8635  140.6364  157.3884 H   0  0  0  0  0  0  0  0  0  0  0  0
  149.5210  143.1564  156.4361 H   0  0  0  0  0  0  0  0  0  0  0  0
  148.8966  142.3758  158.8152 H   0  0  0  0  0  0  0  0  0  0  0  0
  150.2939  141.3183  158.6516 H   0  0  0  0  0  0  0  0  0  0  0  0
  151.0990  144.4304  156.9742 H   0  0  0  0  0  0  0  0  0  0  0  0
  152.7467  146.2529  160.2407 H   0  0  0  0  0  0  0  0  0  0  0  0
  151.0003  146.0977  160.1801 H   0  0  0  0  0  0  0  0  0  0  0  0
  153.0026  143.7830  160.4563 H   0  0  0  0  0  0  0  0  0  0  0  0
  151.9327  144.3688  161.7158 H   0  0  0  0  0  0  0  0  0  0  0  0
  1  2  1  0  0  0  0
  2  7  1  0  0  0  0
  2  3  2  0  0  0  0
  3  4  1  0  0  0  0
  3 16  1  0  0  0  0
  4  5  2  0  0  0  0
  5  6  1  0  0  0  0
  5 17  1  0  0  0  0
  6  7  2  0  0  0  0
  6 18  1  0  0  0  0
  7  8  1  0  0  0  0
  8  9  1  0  0  0  0
  8 19  1  0  0  0  0
  9 10  1  0  0  0  0
  9 20  1  0  0  0  0
  9 21  1  0  0  0  0
 10 15  1  0  0  0  0
 10 11  2  0  0  0  0
 11 12  1  0  0  0  0
 11 22  1  0  0  0  0
 12 13  1  0  0  0  0
 13 14  1  0  0  0  0
 13 23  1  0  0  0  0
 13 24  1  0  0  0  0
 14 15  1  0  0  0  0
 14 25  1  0  0  0  0
 14 26  1  0  0  0  0
M  END
> <s_m_source_file>
AV-unprocessed.smi

> <i_m_source_file_index>
2848

> <i_lp_mmshare_version>
43012

> <i_f3d_flags>
0

> <s_epik_input>
Q2xjMVtjSF1uW2NIXVtjSF1jMVtOSF1bQ0gyXUMyPVtDSF1PW0NIMl1bQ0gyXU8y

> <s_epik_cmdline>
J2VwaWtfcHl0aG9uJywgJy1waCcsICc3LjAnLCAnLXRuJywgJzgnLCAnLW1hJywgJzIwMCcsICctbWV0YWxfYmluZGluZycsICctaW1hZScsICc8aW5maWxlLm1hZT4nLCAnLW9tYWUnLCAnPG91dGZpbGUubWFlPic=

> <r_lp_tautomer_probability>
0.999999

> <r_epik_Ionization_Penalty>
1.20444

> <r_epik_Ionization_Penalty_Charging>
0

> <r_epik_Ionization_Penalty_Neutral>
1.20444

> <r_epik_State_Penalty>
1.27033

> <r_epik_Charging_Adjusted_Penalty>
1.27033

> <i_epik_Tot_Q>
0

> <i_epik_Tot_abs_Q>
0

> <r_epik_Metal_State_Penalty>
0.00444713

> <b_epik_Metal_Only>
0

> <s_lp_Force_Field>
OPLS_2005

> <r_lp_Energy>
2.57385

> <b_lp_Chiralities_Consistent>
1

> <s_lp_Variant>
AV-unprocessed.smi:2848-2

> <Gold.Version>
5.8.1

> <Gold.Id.Protein>
6NUR|6NUR_protein|mol2

> <Gold.PLP.Fitness>
40.7909

> <Gold.PLP.PLP>
-32.2218

> <Gold.PLP.part.hbond>
-3.6096

> <Gold.PLP.part.metal>
0.0000

> <Gold.PLP.part.buried>
0.7950

> <Gold.PLP.part.nonpolar>
-30.0996

> <Gold.PLP.part.repulsive>
0.2975

> <Gold.PLP.ligand.clash>
0.0000

> <Gold.PLP.ligand.torsion>
0.2168

> <Gold.PLP.Chemscore.Hbond>
1.0000

> <Gold.PLP.Chemscore.CHOScore>
2.0000

> <Gold.PLP.Chemscore.Metal>
0.0000

> <Gold.Chemscore.Hbonds>
donor molecule, donor type, donor heavy atom, donor atom, acceptor molecule, acceptor atom, score
      L1  H     8    19       P1  8028  1.00
      L1  C     3    16       P1  7957  1.00
      L1  C    11    22       P1  8028  0.93

> <Gold.PLP.Chemscore.Internal.Correction>
0.0027

> <Gold.Rescore>
     Score         DG    S(hbond)    S(metal)    S(lipo)     H(rot)  DE(clash)    DE(int)     intcor
     15.39     -15.90       0.94        0.00      88.22       1.19       0.34       0.16       ----

> <Gold.Chemscore.Fitness>
15.3947

> <Gold.Chemscore.DG>
-15.9006

> <Gold.Chemscore.ZeroCoef>
-5.4800

> <Gold.Chemscore.Hbond>
0.9444

> <Gold.Chemscore.Metal>
0.0000

> <Gold.Chemscore.Lipo>
88.2236

> <Gold.Chemscore.Internal_Hbond>
0.0000

> <Gold.Chemscore.DEClash>
0.3412

> <Gold.Chemscore.DEInternal>
0.1647

> <Gold.Chemscore.Rot>
1.1937

> <Gold.Chemscore.Internal.Correction>
   9.000000E+99

> <Gold.Chemscore.Hbonds>
donor molecule, donor type, donor heavy atom, donor atom, acceptor molecule, acceptor atom, score
      L1  H     8    19       P1  8028  1.00

> <Gold.Chemscore.Hbond.Weighted>
-3.1542

> <Gold.Chemscore.Metal.Weighted>
-0.0000

> <Gold.Chemscore.Lipo.Weighted>
-10.3222

> <Gold.Chemscore.Internal_Hbond.Weighted>
0.0000

> <Gold.Chemscore.DEClash.Weighted>
0.3412

> <Gold.Chemscore.DEInternal.Weighted>
0.1647

> <Gold.Chemscore.Rot.Weighted>
3.0558

> <Gold.Chemscore.Internal.Correction.Weighted>
   9.000000E+99

> <Gold.Protein.RotatedTorsions>
[ 6907 6896 6895 6894 ] final  111.44 input  -60.11 | X-H torsion
[ 7974 7965 7964 7962 ] final -176.18 input  175.53 | X-H torsion
[ 8008 7997 7996 7995 ] final   94.69 input   59.86 | X-H torsion
[ 10167 10162 10161 10158 ] final  -23.88 input  -65.29 | X-H torsion
[ 10718 10713 10712 10709 ] final  -45.28 input   66.30 | X-H torsion
[ 10763 10752 10751 10750 ] final -104.18 input  -60.55 | X-H torsion
[ 11005 11000 10999 10996 ] final  125.94 input  -57.11 | X-H torsion

> <Gold.Protein.ActiveResidues>
 VAL166  LYS551  ARG553  GLY616  TRP617  ASP618  TYR619  PRO620  LYS621  CYS622 
 ASP623  PHE694  ASN695  SER759  ASP760  ASP761  ALA762  ILE779  LEU786  VAL792 
 PHE793  MET794  SER795  GLU796  ALA797  LYS798  CYS799  TRP800  GLU811  SER814 

> <Gold.Protein.RotatedAtoms>
  152.4969  133.8657  159.7272 H   0  0  0  0  0  0  0  0  0  0  0  0  # atno 6907 bound_to 6896
  150.9157  133.6933  159.2850 H   0  0  0  0  0  0  0  0  0  0  0  0  # atno 6908 bound_to 6896
  151.4327  135.1016  159.9699 H   0  0  0  0  0  0  0  0  0  0  0  0  # atno 6909 bound_to 6896
  144.7127  140.1209  143.6405 H   0  0  0  0  0  0  0  0  0  0  0  0  # atno 7974 bound_to 7965
  156.0607  140.3296  155.7458 H   0  0  0  0  0  0  0  0  0  0  0  0  # atno 8008 bound_to 7997
  155.5459  140.0606  157.2878 H   0  0  0  0  0  0  0  0  0  0  0  0  # atno 8009 bound_to 7997
  154.4480  140.1902  156.0626 H   0  0  0  0  0  0  0  0  0  0  0  0  # atno 8010 bound_to 7997
  140.7288  143.4403  151.0667 H   0  0  0  0  0  0  0  0  0  0  0  0  # atno 10167 bound_to 10162
  156.2299  130.4172  149.8888 H   0  0  0  0  0  0  0  0  0  0  0  0  # atno 10718 bound_to 10713
  154.7860  135.4796  153.9947 H   0  0  0  0  0  0  0  0  0  0  0  0  # atno 10763 bound_to 10752
  153.1561  135.6800  153.8818 H   0  0  0  0  0  0  0  0  0  0  0  0  # atno 10764 bound_to 10752
  153.8447  135.3175  155.3406 H   0  0  0  0  0  0  0  0  0  0  0  0  # atno 10765 bound_to 10752
  139.9431  134.9633  156.8633 H   0  0  0  0  0  0  0  0  0  0  0  0  # atno 11005 bound_to 11000
  145.9372  139.2645  143.1290 LP  0  0  0  0  0  0  0  0  0  0  0  0  # atno 17320 bound_to 7965
  145.9462  140.8943  143.0282 LP  0  0  0  0  0  0  0  0  0  0  0  0  # atno 17321 bound_to 7965
  139.8070  143.8004  152.3168 LP  0  0  0  0  0  0  0  0  0  0  0  0  # atno 17342 bound_to 10162
  139.8040  144.7362  150.9786 LP  0  0  0  0  0  0  0  0  0  0  0  0  # atno 17343 bound_to 10162
  156.6505  130.8742  151.3530 LP  0  0  0  0  0  0  0  0  0  0  0  0  # atno 17370 bound_to 10713
  157.7128  130.9461  150.1148 LP  0  0  0  0  0  0  0  0  0  0  0  0  # atno 17371 bound_to 10713
  140.5901  134.0270  155.7496 LP  0  0  0  0  0  0  0  0  0  0  0  0  # atno 17394 bound_to 11000
  141.1073  133.9673  157.2974 LP  0  0  0  0  0  0  0  0  0  0  0  0  # atno 17395 bound_to 11000

$$$$
