AV-unprocessed.smi:1833|AV-procd|sdf|7468|dock8
  -GOLD-   22720 9163D 1   1.00000     0.00000
 Structure written by MMmdl.
 42 43  0  0  0  0  0  0  0  0  2 V2000
  146.6632  129.1699  151.3501 C   0  0  0  0  0  0  0  0  0  0  0  0
  145.3022  129.7163  151.8054 C   0  0  0  0  0  0  0  0  0  0  0  0
  145.2443  131.2001  151.7824 N   0  3  2  0  0  0  0  0  0  0  0  0
  144.8513  131.7215  150.4469 C   0  0  0  0  0  0  0  0  0  0  0  0
  144.6679  133.2479  150.4732 C   0  0  0  0  0  0  0  0  0  0  0  0
  145.9350  133.9473  150.9805 C   0  0  0  0  0  0  0  0  0  0  0  0
  146.3373  133.3757  152.3484 C   0  0  2  0  0  0  0  0  0  0  0  0
  147.5875  133.9857  152.7947 N   0  0  0  0  0  0  0  0  0  0  0  0
  148.3405  133.5648  153.8213 C   0  0  0  0  0  0  0  0  0  0  0  0
  148.0805  132.5812  154.5143 O   0  0  0  0  0  0  0  0  0  0  0  0
  149.4083  134.3526  154.0088 N   0  0  0  0  0  0  0  0  0  0  0  0
  150.3939  134.1851  155.0705 C   0  0  0  0  0  0  0  0  0  0  0  0
  150.3771  135.3730  156.0460 C   0  0  0  0  0  0  0  0  0  0  0  0
  150.8524  136.6385  155.4150 C   0  0  0  0  0  0  0  0  0  0  0  0
  152.1062  136.8255  154.9929 N   0  0  0  0  0  0  0  0  0  0  0  0
  152.3069  138.1025  154.4633 C   0  0  0  0  0  0  0  0  0  0  0  0
  151.1866  138.8929  154.5020 C   0  0  0  0  0  0  0  0  0  0  0  0
  149.8317  138.0582  155.2119 S   0  0  0  0  0  0  0  0  0  0  0  0
  146.4925  131.8445  152.2734 C   0  0  0  0  0  0  0  0  0  0  0  0
  146.6993  128.0869  151.4704 H   0  0  0  0  0  0  0  0  0  0  0  0
  147.4764  129.5934  151.9402 H   0  0  0  0  0  0  0  0  0  0  0  0
  146.8610  129.3823  150.2999 H   0  0  0  0  0  0  0  0  0  0  0  0
  144.4972  129.2996  151.1983 H   0  0  0  0  0  0  0  0  0  0  0  0
  145.1312  129.3667  152.8245 H   0  0  0  0  0  0  0  0  0  0  0  0
  145.6078  131.4461  149.7102 H   0  0  0  0  0  0  0  0  0  0  0  0
  143.9166  131.2571  150.1302 H   0  0  0  0  0  0  0  0  0  0  0  0
  144.4167  133.6105  149.4759 H   0  0  0  0  0  0  0  0  0  0  0  0
  143.8251  133.5049  151.1164 H   0  0  0  0  0  0  0  0  0  0  0  0
  146.7435  133.8058  150.2614 H   0  0  0  0  0  0  0  0  0  0  0  0
  145.7641  135.0222  151.0533 H   0  0  0  0  0  0  0  0  0  0  0  0
  145.5361  133.5996  153.0554 H   0  0  0  0  0  0  0  0  0  0  0  0
  147.8944  134.8073  152.2943 H   0  0  0  0  0  0  0  0  0  0  0  0
  149.5404  135.1371  153.3871 H   0  0  0  0  0  0  0  0  0  0  0  0
  150.2192  133.2487  155.6031 H   0  0  0  0  0  0  0  0  0  0  0  0
  151.3771  134.1000  154.6070 H   0  0  0  0  0  0  0  0  0  0  0  0
  149.3680  135.5312  156.4288 H   0  0  0  0  0  0  0  0  0  0  0  0
  151.0081  135.1627  156.9103 H   0  0  0  0  0  0  0  0  0  0  0  0
  153.2821  138.3659  154.0815 H   0  0  0  0  0  0  0  0  0  0  0  0
  151.0774  139.9117  154.1609 H   0  0  0  0  0  0  0  0  0  0  0  0
  146.7437  131.4676  153.2645 H   0  0  0  0  0  0  0  0  0  0  0  0
  147.3209  131.5774  151.6147 H   0  0  0  0  0  0  0  0  0  0  0  0
  144.5052  131.4671  152.4172 H   0  0  0  0  0  0  0  0  0  0  0  0
  1  2  1  0  0  0  0
  1 20  1  0  0  0  0
  1 21  1  0  0  0  0
  1 22  1  0  0  0  0
  2  3  1  0  0  0  0
  2 23  1  0  0  0  0
  2 24  1  0  0  0  0
  3 19  1  0  0  0  0
  3  4  1  0  0  0  0
  3 42  1  0  0  0  0
  4  5  1  0  0  0  0
  4 25  1  0  0  0  0
  4 26  1  0  0  0  0
  5  6  1  0  0  0  0
  5 27  1  0  0  0  0
  5 28  1  0  0  0  0
  6  7  1  0  0  0  0
  6 29  1  0  0  0  0
  6 30  1  0  0  0  0
  7  8  1  0  0  0  0
  7 19  1  0  0  0  0
  7 31  1  0  0  0  0
  8  9  1  0  0  0  0
  8 32  1  0  0  0  0
  9 10  2  0  0  0  0
  9 11  1  0  0  0  0
 11 12  1  0  0  0  0
 11 33  1  0  0  0  0
 12 13  1  0  0  0  0
 12 34  1  0  0  0  0
 12 35  1  0  0  0  0
 13 14  1  0  0  0  0
 13 36  1  0  0  0  0
 13 37  1  0  0  0  0
 14 18  1  0  0  0  0
 14 15  2  0  0  0  0
 15 16  1  0  0  0  0
 16 17  2  0  0  0  0
 16 38  1  0  0  0  0
 17 18  1  0  0  0  0
 17 39  1  0  0  0  0
 19 40  1  0  0  0  0
 19 41  1  0  0  0  0
M  CHG  1   3   1
M  END
> <s_m_source_file>
AV-unprocessed.smi

> <i_m_source_file_index>
1833

> <i_lp_mmshare_version>
43012

> <i_f3d_flags>
0

> <s_epik_input>
W0NIM11bQ0gyXU4xW0NIMl1bQ0gyXVtDSDJdW0NASF0oW0NIMl0xKVtOSF1DKD1PKVtOSF1bQ0gyXVtDSDJdYzJuW2NIXVtjSF1zMg==

> <s_epik_cmdline>
J2VwaWtfcHl0aG9uJywgJy1waCcsICc3LjAnLCAnLXRuJywgJzgnLCAnLW1hJywgJzIwMCcsICctbWV0YWxfYmluZGluZycsICctaW1hZScsICc8aW5maWxlLm1hZT4nLCAnLW9tYWUnLCAnPG91dGZpbGUubWFlPic=

> <r_lp_tautomer_probability>
1

> <r_epik_Ionization_Penalty>
0.00269629

> <r_epik_Ionization_Penalty_Charging>
0.00233899

> <r_epik_Ionization_Penalty_Neutral>
0.000357304

> <r_epik_State_Penalty>
-0

> <r_epik_Charging_Adjusted_Penalty>
0.00233899

> <i_epik_Tot_Q>
1

> <i_epik_Tot_abs_Q>
1

> <r_epik_Metal_State_Penalty>
-0

> <b_epik_Metal_Only>
0

> <s_lp_Force_Field>
OPLS_2005

> <r_lp_Energy>
7.34013

> <b_lp_Chiralities_Consistent>
1

> <s_lp_Variant>
AV-unprocessed.smi:1833-4

> <Gold.Version>
5.8.1

> <Gold.Id.Protein>
6NUR|6NUR_protein|mol2

> <Gold.PLP.Fitness>
42.4297

> <Gold.PLP.PLP>
-35.0242

> <Gold.PLP.part.hbond>
-3.0000

> <Gold.PLP.part.metal>
0.0000

> <Gold.PLP.part.buried>
-4.6836

> <Gold.PLP.part.nonpolar>
-27.8827

> <Gold.PLP.part.repulsive>
0.1728

> <Gold.PLP.ligand.clash>
0.0000

> <Gold.PLP.ligand.torsion>
0.4414

> <Gold.PLP.Chemscore.Hbond>
2.7500

> <Gold.PLP.Chemscore.CHOScore>
0.0000

> <Gold.PLP.Chemscore.Metal>
0.0000

> <Gold.Chemscore.Hbonds>
donor molecule, donor type, donor heavy atom, donor atom, acceptor molecule, acceptor atom, score
      L1  H     8    32       P1  7948  1.00
      L1  H    11    33       P1  7948  0.50
      P1  H 10752 10765       L1    15  0.98

> <Gold.PLP.Chemscore.Internal.Correction>
0.0384

> <Gold.Rescore>
     Score         DG    S(hbond)    S(metal)    S(lipo)     H(rot)  DE(clash)    DE(int)     intcor
     16.08     -18.09       2.08        0.00      85.97       1.71       0.52       1.50       ----

> <Gold.Chemscore.Fitness>
16.0753

> <Gold.Chemscore.DG>
-18.0885

> <Gold.Chemscore.ZeroCoef>
-5.4800

> <Gold.Chemscore.Hbond>
2.0776

> <Gold.Chemscore.Metal>
0.0000

> <Gold.Chemscore.Lipo>
85.9733

> <Gold.Chemscore.Internal_Hbond>
0.0000

> <Gold.Chemscore.DEClash>
0.5155

> <Gold.Chemscore.DEInternal>
1.4976

> <Gold.Chemscore.Rot>
1.7147

> <Gold.Chemscore.Internal.Correction>
   9.000000E+99

> <Gold.Chemscore.Hbonds>
donor molecule, donor type, donor heavy atom, donor atom, acceptor molecule, acceptor atom, score
      L1  H     8    32       P1  7948  0.69
      L1  H    11    33       P1  7948  0.02
      P1  H 10752 10765       L1    15  0.84

> <Gold.Chemscore.Hbond.Weighted>
-6.9392

> <Gold.Chemscore.Metal.Weighted>
-0.0000

> <Gold.Chemscore.Lipo.Weighted>
-10.0589

> <Gold.Chemscore.Internal_Hbond.Weighted>
0.0000

> <Gold.Chemscore.DEClash.Weighted>
0.5155

> <Gold.Chemscore.DEInternal.Weighted>
1.4976

> <Gold.Chemscore.Rot.Weighted>
4.3896

> <Gold.Chemscore.Internal.Correction.Weighted>
   9.000000E+99

> <Gold.Protein.RotatedTorsions>
[ 6907 6896 6895 6894 ] final   23.22 input  -60.11 | X-H torsion
[ 7974 7965 7964 7962 ] final  136.19 input  175.53 | X-H torsion
[ 8008 7997 7996 7995 ] final -152.54 input   59.86 | X-H torsion
[ 10167 10162 10161 10158 ] final  -57.28 input  -65.29 | X-H torsion
[ 10718 10713 10712 10709 ] final   52.34 input   66.30 | X-H torsion
[ 10763 10752 10751 10750 ] final -173.33 input  -60.55 | X-H torsion
[ 11005 11000 10999 10996 ] final   31.22 input  -57.11 | X-H torsion

> <Gold.Protein.ActiveResidues>
 VAL166  LYS551  ARG553  GLY616  TRP617  ASP618  TYR619  PRO620  LYS621  CYS622 
 ASP623  PHE694  ASN695  SER759  ASP760  ASP761  ALA762  ILE779  LEU786  VAL792 
 PHE793  MET794  SER795  GLU796  ALA797  LYS798  CYS799  TRP800  GLU811  SER814 

> <Gold.Protein.RotatedAtoms>
  151.9390  135.0222  160.0534 H   0  0  0  0  0  0  0  0  0  0  0  0  # atno 6907 bound_to 6896
  152.2053  133.4866  159.5088 H   0  0  0  0  0  0  0  0  0  0  0  0  # atno 6908 bound_to 6896
  150.6963  134.1455  159.4163 H   0  0  0  0  0  0  0  0  0  0  0  0  # atno 6909 bound_to 6896
  144.9589  139.4733  143.5489 H   0  0  0  0  0  0  0  0  0  0  0  0  # atno 7974 bound_to 7965
  155.6567  140.0718  157.2568 H   0  0  0  0  0  0  0  0  0  0  0  0  # atno 8008 bound_to 7997
  154.4151  140.1723  156.1783 H   0  0  0  0  0  0  0  0  0  0  0  0  # atno 8009 bound_to 7997
  155.9731  140.3360  155.6597 H   0  0  0  0  0  0  0  0  0  0  0  0  # atno 8010 bound_to 7997
  140.6267  143.2441  151.5344 H   0  0  0  0  0  0  0  0  0  0  0  0  # atno 10167 bound_to 10162
  157.5066  130.8473  149.8382 H   0  0  0  0  0  0  0  0  0  0  0  0  # atno 10718 bound_to 10713
  154.6091  135.2862  155.0451 H   0  0  0  0  0  0  0  0  0  0  0  0  # atno 10763 bound_to 10752
  154.1688  135.6476  153.5008 H   0  0  0  0  0  0  0  0  0  0  0  0  # atno 10764 bound_to 10752
  153.0188  135.5396  154.6838 H   0  0  0  0  0  0  0  0  0  0  0  0  # atno 10765 bound_to 10752
  140.2861  134.2917  155.7788 H   0  0  0  0  0  0  0  0  0  0  0  0  # atno 11005 bound_to 11000
  146.3346  139.8725  142.8837 LP  0  0  0  0  0  0  0  0  0  0  0  0  # atno 17320 bound_to 7965
  145.2730  141.0115  143.3761 LP  0  0  0  0  0  0  0  0  0  0  0  0  # atno 17321 bound_to 7965
  139.5487  144.2453  152.1490 LP  0  0  0  0  0  0  0  0  0  0  0  0  # atno 17342 bound_to 10162
  140.1686  144.4957  150.6592 LP  0  0  0  0  0  0  0  0  0  0  0  0  # atno 17343 bound_to 10162
  156.0262  130.3779  150.1817 LP  0  0  0  0  0  0  0  0  0  0  0  0  # atno 17370 bound_to 10713
  157.0007  130.9921  151.3391 LP  0  0  0  0  0  0  0  0  0  0  0  0  # atno 17371 bound_to 10713
  141.2154  133.7556  156.9554 LP  0  0  0  0  0  0  0  0  0  0  0  0  # atno 17394 bound_to 11000
  140.1238  134.9400  157.2241 LP  0  0  0  0  0  0  0  0  0  0  0  0  # atno 17395 bound_to 11000

$$$$
