AV-unprocessed.smi:1481|AV-procd|sdf|5987|dock6
  -GOLD-   22720 6 83D 1   1.00000     0.00000
 Structure written by MMmdl.
 39 40  0  0  0  0  0  0  0  0  1 V2000
  149.4269  137.6260  156.1342 O   0  0  0  0  0  0  0  0  0  0  0  0
  149.3123  137.2764  154.9592 C   0  0  0  0  0  0  0  0  0  0  0  0
  148.8344  138.0637  153.9851 N   0  0  0  0  0  0  0  0  0  0  0  0
  148.4014  139.4455  154.1706 C   0  0  0  0  0  0  0  0  0  0  0  0
  149.2126  140.2261  155.1956 C   0  0  0  0  0  0  0  0  0  0  0  0
  150.6233  140.2288  155.1908 C   0  0  0  0  0  0  0  0  0  0  0  0
  151.3093  140.9727  156.1694 C   0  0  0  0  0  0  0  0  0  0  0  0
  150.5678  141.7001  157.1307 C   0  0  0  0  0  0  0  0  0  0  0  0
  151.2350  142.4457  158.1273 N   0  0  0  0  0  0  0  0  0  0  0  0
  152.1405  141.7312  159.0256 C   0  0  0  0  0  0  0  0  0  0  0  0
  152.5487  142.6313  160.2039 C   0  0  0  0  0  0  0  0  0  0  0  0
  153.1097  143.8427  159.7097 O   0  0  0  0  0  0  0  0  0  0  0  0
  152.1741  144.5780  158.9284 C   0  0  0  0  0  0  0  0  0  0  0  0
  151.7475  143.7475  157.7054 C   0  0  0  0  0  0  0  0  0  0  0  0
  149.2118  141.7085  157.1205 N   0  0  0  0  0  0  0  0  0  0  0  0
  148.5591  140.9920  156.1815 C   0  0  0  0  0  0  0  0  0  0  0  0
  149.6611  136.0684  154.4970 N   0  0  0  0  0  0  0  0  0  0  0  0
  150.2595  135.0070  155.3001 C   0  0  0  0  0  0  0  0  0  0  0  0
  149.5629  133.6540  155.0755 C   0  0  0  0  0  0  0  0  0  0  0  0
  148.2991  133.7395  155.4884 F   0  0  0  0  0  0  0  0  0  0  0  0
  149.5680  133.3436  153.7790 F   0  0  0  0  0  0  0  0  0  0  0  0
  150.1691  132.6846  155.7607 F   0  0  0  0  0  0  0  0  0  0  0  0
  148.7770  137.6883  153.0498 H   0  0  0  0  0  0  0  0  0  0  0  0
  148.4802  139.9578  153.2114 H   0  0  0  0  0  0  0  0  0  0  0  0
  147.3449  139.4637  154.4442 H   0  0  0  0  0  0  0  0  0  0  0  0
  151.1796  139.6734  154.4506 H   0  0  0  0  0  0  0  0  0  0  0  0
  152.3887  140.9866  156.1623 H   0  0  0  0  0  0  0  0  0  0  0  0
  151.6592  140.8310  159.4098 H   0  0  0  0  0  0  0  0  0  0  0  0
  153.0265  141.4177  158.4713 H   0  0  0  0  0  0  0  0  0  0  0  0
  151.6914  142.8483  160.8432 H   0  0  0  0  0  0  0  0  0  0  0  0
  153.2880  142.1248  160.8245 H   0  0  0  0  0  0  0  0  0  0  0  0
  151.3085  144.8474  159.5361 H   0  0  0  0  0  0  0  0  0  0  0  0
  152.6373  145.5101  158.6050 H   0  0  0  0  0  0  0  0  0  0  0  0
  152.6014  143.5915  157.0448 H   0  0  0  0  0  0  0  0  0  0  0  0
  151.0074  144.3098  157.1380 H   0  0  0  0  0  0  0  0  0  0  0  0
  147.4805  141.0302  156.2220 H   0  0  0  0  0  0  0  0  0  0  0  0
  149.5309  135.8768  153.5144 H   0  0  0  0  0  0  0  0  0  0  0  0
  151.3279  134.9244  155.0930 H   0  0  0  0  0  0  0  0  0  0  0  0
  150.1731  135.2936  156.3485 H   0  0  0  0  0  0  0  0  0  0  0  0
  1  2  2  0  0  0  0
  2  3  1  0  0  0  0
  2 17  1  0  0  0  0
  3  4  1  0  0  0  0
  3 23  1  0  0  0  0
  4  5  1  0  0  0  0
  4 24  1  0  0  0  0
  4 25  1  0  0  0  0
  5 16  1  0  0  0  0
  5  6  2  0  0  0  0
  6  7  1  0  0  0  0
  6 26  1  0  0  0  0
  7  8  2  0  0  0  0
  7 27  1  0  0  0  0
  8  9  1  0  0  0  0
  8 15  1  0  0  0  0
  9 14  1  0  0  0  0
  9 10  1  0  0  0  0
 10 11  1  0  0  0  0
 10 28  1  0  0  0  0
 10 29  1  0  0  0  0
 11 12  1  0  0  0  0
 11 30  1  0  0  0  0
 11 31  1  0  0  0  0
 12 13  1  0  0  0  0
 13 14  1  0  0  0  0
 13 32  1  0  0  0  0
 13 33  1  0  0  0  0
 14 34  1  0  0  0  0
 14 35  1  0  0  0  0
 15 16  2  0  0  0  0
 16 36  1  0  0  0  0
 17 18  1  0  0  0  0
 17 37  1  0  0  0  0
 18 19  1  0  0  0  0
 18 38  1  0  0  0  0
 18 39  1  0  0  0  0
 19 20  1  0  0  0  0
 19 21  1  0  0  0  0
 19 22  1  0  0  0  0
M  END
> <s_m_source_file>
AV-unprocessed.smi

> <i_m_source_file_index>
1481

> <i_lp_mmshare_version>
43012

> <i_f3d_flags>
0

> <s_epik_input>
RkMoRikoRilbQ0gyXVtOSF1DKD1PKVtOSF1bQ0gyXWMxW2NIXVtjSF1jKG5bY0hdMSlOMltDSDJdW0NIMl1PW0NIMl1bQ0gyXTI=

> <s_epik_cmdline>
J2VwaWtfcHl0aG9uJywgJy1waCcsICc3LjAnLCAnLXRuJywgJzgnLCAnLW1hJywgJzIwMCcsICctbWV0YWxfYmluZGluZycsICctaW1hZScsICc8aW5maWxlLm1hZT4nLCAnLW9tYWUnLCAnPG91dGZpbGUubWFlPic=

> <r_lp_tautomer_probability>
1

> <r_epik_Ionization_Penalty>
0.00288034

> <r_epik_Ionization_Penalty_Charging>
0

> <r_epik_Ionization_Penalty_Neutral>
0.00288034

> <r_epik_State_Penalty>
0.00199456

> <r_epik_Charging_Adjusted_Penalty>
0.00199456

> <i_epik_Tot_Q>
0

> <i_epik_Tot_abs_Q>
0

> <r_epik_Metal_State_Penalty>
-0

> <b_epik_Metal_Only>
0

> <s_lp_Force_Field>
OPLS_2005

> <r_lp_Energy>
12.6538

> <b_lp_Chiralities_Consistent>
1

> <s_lp_Variant>
AV-unprocessed.smi:1481-1

> <Gold.Version>
5.8.1

> <Gold.Id.Protein>
6NUR|6NUR_protein|mol2

> <Gold.PLP.Fitness>
43.0228

> <Gold.PLP.PLP>
-38.0124

> <Gold.PLP.part.hbond>
-2.0000

> <Gold.PLP.part.metal>
0.0000

> <Gold.PLP.part.buried>
-2.4927

> <Gold.PLP.part.nonpolar>
-32.7704

> <Gold.PLP.part.repulsive>
0.2425

> <Gold.PLP.ligand.clash>
0.0000

> <Gold.PLP.ligand.torsion>
0.6669

> <Gold.PLP.Chemscore.Hbond>
2.0000

> <Gold.PLP.Chemscore.CHOScore>
0.0000

> <Gold.PLP.Chemscore.Metal>
0.0000

> <Gold.Chemscore.Hbonds>
donor molecule, donor type, donor heavy atom, donor atom, acceptor molecule, acceptor atom, score
      L1  H     3    23       P1  7948  1.00
      L1  H    17    37       P1  7948  1.00

> <Gold.PLP.Chemscore.Internal.Correction>
0.3441

> <Gold.Rescore>
     Score         DG    S(hbond)    S(metal)    S(lipo)     H(rot)  DE(clash)    DE(int)     intcor
     13.79     -15.86       1.89        0.00      80.62       2.09       0.02       2.05       ----

> <Gold.Chemscore.Fitness>
13.7933

> <Gold.Chemscore.DG>
-15.8614

> <Gold.Chemscore.ZeroCoef>
-5.4800

> <Gold.Chemscore.Hbond>
1.8858

> <Gold.Chemscore.Metal>
0.0000

> <Gold.Chemscore.Lipo>
80.6246

> <Gold.Chemscore.Internal_Hbond>
0.0000

> <Gold.Chemscore.DEClash>
0.0162

> <Gold.Chemscore.DEInternal>
2.0519

> <Gold.Chemscore.Rot>
2.0899

> <Gold.Chemscore.Internal.Correction>
   9.000000E+99

> <Gold.Chemscore.Hbonds>
donor molecule, donor type, donor heavy atom, donor atom, acceptor molecule, acceptor atom, score
      L1  H     3    23       P1  7948  0.94
      L1  H    17    37       P1  7948  0.30

> <Gold.Chemscore.Hbond.Weighted>
-6.2985

> <Gold.Chemscore.Metal.Weighted>
-0.0000

> <Gold.Chemscore.Lipo.Weighted>
-9.4331

> <Gold.Chemscore.Internal_Hbond.Weighted>
0.0000

> <Gold.Chemscore.DEClash.Weighted>
0.0162

> <Gold.Chemscore.DEInternal.Weighted>
2.0519

> <Gold.Chemscore.Rot.Weighted>
5.3502

> <Gold.Chemscore.Internal.Correction.Weighted>
   9.000000E+99

> <Gold.Protein.RotatedTorsions>
[ 6907 6896 6895 6894 ] final  -93.46 input  -60.11 | X-H torsion
[ 7974 7965 7964 7962 ] final -142.92 input  175.53 | X-H torsion
[ 8008 7997 7996 7995 ] final    5.30 input   59.86 | X-H torsion
[ 10167 10162 10161 10158 ] final   61.40 input  -65.29 | X-H torsion
[ 10718 10713 10712 10709 ] final -112.26 input   66.30 | X-H torsion
[ 10763 10752 10751 10750 ] final   59.33 input  -60.55 | X-H torsion
[ 11005 11000 10999 10996 ] final   -3.77 input  -57.11 | X-H torsion

> <Gold.Protein.ActiveResidues>
 VAL166  LYS551  ARG553  GLY616  TRP617  ASP618  TYR619  PRO620  LYS621  CYS622 
 ASP623  PHE694  ASN695  SER759  ASP760  ASP761  ALA762  ILE779  LEU786  VAL792 
 PHE793  MET794  SER795  GLU796  ALA797  LYS798  CYS799  TRP800  GLU811  SER814 

> <Gold.Protein.RotatedAtoms>
  150.6923  134.1964  159.4304 H   0  0  0  0  0  0  0  0  0  0  0  0  # atno 6907 bound_to 6896
  151.9932  134.9965  160.0571 H   0  0  0  0  0  0  0  0  0  0  0  0  # atno 6908 bound_to 6896
  152.1648  133.4570  159.4916 H   0  0  0  0  0  0  0  0  0  0  0  0  # atno 6909 bound_to 6896
  144.8407  140.5898  143.5454 H   0  0  0  0  0  0  0  0  0  0  0  0  # atno 7974 bound_to 7965
  154.7267  140.2722  155.6493 H   0  0  0  0  0  0  0  0  0  0  0  0  # atno 8008 bound_to 7997
  156.2838  140.2724  156.1880 H   0  0  0  0  0  0  0  0  0  0  0  0  # atno 8009 bound_to 7997
  155.0436  140.0371  157.2508 H   0  0  0  0  0  0  0  0  0  0  0  0  # atno 8010 bound_to 7997
  140.1551  144.4425  150.6738 H   0  0  0  0  0  0  0  0  0  0  0  0  # atno 10167 bound_to 10162
  156.0695  130.5910  150.8484 H   0  0  0  0  0  0  0  0  0  0  0  0  # atno 10718 bound_to 10713
  152.9892  135.5575  154.5696 H   0  0  0  0  0  0  0  0  0  0  0  0  # atno 10763 bound_to 10752
  154.5099  135.2802  155.1353 H   0  0  0  0  0  0  0  0  0  0  0  0  # atno 10764 bound_to 10752
  154.2749  135.6356  153.5377 H   0  0  0  0  0  0  0  0  0  0  0  0  # atno 10765 bound_to 10752
  140.6730  133.9220  155.8506 H   0  0  0  0  0  0  0  0  0  0  0  0  # atno 11005 bound_to 11000
  145.4700  139.1504  143.3819 LP  0  0  0  0  0  0  0  0  0  0  0  0  # atno 17320 bound_to 7965
  146.2700  140.4833  142.8818 LP  0  0  0  0  0  0  0  0  0  0  0  0  # atno 17321 bound_to 7965
  140.6678  143.2274  151.5700 LP  0  0  0  0  0  0  0  0  0  0  0  0  # atno 17342 bound_to 10162
  139.5407  144.2655  152.1345 LP  0  0  0  0  0  0  0  0  0  0  0  0  # atno 17343 bound_to 10162
  157.5757  131.0946  150.9349 LP  0  0  0  0  0  0  0  0  0  0  0  0  # atno 17370 bound_to 10713
  156.9555  130.5436  149.5284 LP  0  0  0  0  0  0  0  0  0  0  0  0  # atno 17371 bound_to 10713
  141.0377  134.0665  157.3939 LP  0  0  0  0  0  0  0  0  0  0  0  0  # atno 17394 bound_to 11000
  139.8975  135.0151  156.7106 LP  0  0  0  0  0  0  0  0  0  0  0  0  # atno 17395 bound_to 11000

$$$$
