#       Name:                AV-unprocessed.smi:2137
#       Creating user name   scv26
#       Creation time:       Fri Mar 27 11:47:06 2020


#       File generated by GOLD software.
#

@<TRIPOS>MOLECULE
AV-unprocessed.smi:2137
    56    57     1
SMALL
NO_CHARGES


@<TRIPOS>ATOM
      1 ****        -5.0352   0.7176  -0.6157 C.3            1 S1                 0.0000
      2 ****        -4.5714   1.9817   0.1296 C.3            1 S1                 0.0000
      3 ****        -5.1296   3.2779  -0.4866 C.3            1 S1                 0.0000
      4 ****        -4.4192   3.6201  -1.8037 C.3            1 S1                 0.0000
      5 ****        -2.8944   3.6563  -1.6147 C.3            1 S1                 0.0000
      6 ****        -2.3941   2.3728  -1.0581 N.4            1 S1                 1.0000
      7 ****        -0.9110   2.3190  -1.0083 C.3            1 S1                 0.0000
      8 ****        -0.3769   0.8765  -1.0357 C.3            1 S1                 0.0000
      9 ****         1.1566   0.8234  -1.0281 C.3            1 S1                 0.0000
     10 ****         1.6199  -0.5578  -1.0524 N.am           1 S1                 0.0000
     11 ****         2.8161  -0.9712  -0.6098 C.2            1 S1                 0.0000
     12 ****         3.6684  -0.2077  -0.1544 O.2            1 S1                 0.0000
     13 ****         3.0968  -2.4754  -0.7215 C.3            1 S1                 0.0000
     14 ****         3.9072  -2.9827   0.3931 N.am           1 S1                 0.0000
     15 ****         5.2645  -3.1824   0.2200 C.2            1 S1                 0.0000
     16 ****         6.0793  -3.6437   1.1938 C.2            1 S1                 0.0000
     17 ****         5.5583  -3.9608   2.5179 C.2            1 S1                 0.0000
     18 ****         6.2592  -4.4068   3.4273 O.2            1 S1                 0.0000
     19 ****         4.1710  -3.7294   2.6741 N.am           1 S1                 0.0000
     20 ****         3.5699  -4.0360   3.9558 C.3            1 S1                 0.0000
     21 ****         3.3201  -3.2649   1.6457 C.2            1 S1                 0.0000
     22 ****         2.1080  -3.1121   1.8174 O.2            1 S1                 0.0000
     23 ****        -3.0351   2.0572   0.2481 C.3            1 S1                 0.0000
     24 ****        -4.6482   0.6791  -1.6339 H              1 S1                 0.0000
     25 ****        -6.1233   0.6732  -0.6724 H              1 S1                 0.0000
     26 ****        -4.6987  -0.1839  -0.1025 H              1 S1                 0.0000
     27 ****        -4.9739   1.9054   1.1407 H              1 S1                 0.0000
     28 ****        -6.2054   3.1956  -0.6458 H              1 S1                 0.0000
     29 ****        -4.9874   4.0994   0.2170 H              1 S1                 0.0000
     30 ****        -4.6784   2.8879  -2.5692 H              1 S1                 0.0000
     31 ****        -4.7701   4.5842  -2.1732 H              1 S1                 0.0000
     32 ****        -2.4231   3.8516  -2.5788 H              1 S1                 0.0000
     33 ****        -2.6140   4.4766  -0.9520 H              1 S1                 0.0000
     34 ****        -0.5021   2.8421  -1.8738 H              1 S1                 0.0000
     35 ****        -0.5494   2.8528  -0.1280 H              1 S1                 0.0000
     36 ****        -0.7494   0.3169  -0.1779 H              1 S1                 0.0000
     37 ****        -0.7541   0.3675  -1.9240 H              1 S1                 0.0000
     38 ****         1.5608   1.3458  -1.8961 H              1 S1                 0.0000
     39 ****         1.5343   1.3339  -0.1403 H              1 S1                 0.0000
     40 ****         0.9844  -1.2508  -1.4206 H              1 S1                 0.0000
     41 ****         2.1589  -3.0305  -0.7841 H              1 S1                 0.0000
     42 ****         3.6086  -2.6549  -1.6679 H              1 S1                 0.0000
     43 ****         5.6997  -2.9596  -0.7434 H              1 S1                 0.0000
     44 ****         7.1311  -3.7813   0.9899 H              1 S1                 0.0000
     45 ****         2.7544  -3.3370   4.1483 H              1 S1                 0.0000
     46 ****         4.3082  -3.9152   4.7496 H              1 S1                 0.0000
     47 ****         3.2107  -5.0644   3.8988 H              1 S1                 0.0000
     48 ****        -2.7601   2.8257   0.9724 H              1 S1                 0.0000
     49 ****        -2.6595   1.1143   0.6442 H              1 S1                 0.0000
     50 ****        -2.6828   1.6563  -1.7088 H              1 S1                 0.0000
     51 ****         3.4836   0.7736  -0.1014 LP             1 S1                 0.0000
     52 ****         4.5454  -0.5692   0.1623 LP             1 S1                 0.0000
     53 ****         7.2343  -4.5674   3.2742 LP             1 S1                 0.0000
     54 ****         5.8532  -4.6084   4.3186 LP             1 S1                 0.0000
     55 ****         1.5338  -2.7862   1.0663 LP             1 S1                 0.0000
     56 ****         1.6998  -3.3142   2.7076 LP             1 S1                 0.0000
@<TRIPOS>BOND
    1    1    2 1     
    2    1   24 1     
    3    1   25 1     
    4    1   26 1     
    5    2   23 1     
    6    2    3 1     
    7    2   27 1     
    8    3    4 1     
    9    3   28 1     
   10    3   29 1     
   11    4    5 1     
   12    4   30 1     
   13    4   31 1     
   14    5    6 1     
   15    5   32 1     
   16    5   33 1     
   17    6    7 1     
   18    6   23 1     
   19    6   50 1     
   20    7    8 1     
   21    7   34 1     
   22    7   35 1     
   23    8    9 1     
   24    8   36 1     
   25    8   37 1     
   26    9   10 1     
   27    9   38 1     
   28    9   39 1     
   29   10   11 am    
   30   10   40 1     
   31   11   12 2     
   32   11   13 1     
   33   13   14 1     
   34   13   41 1     
   35   13   42 1     
   36   14   21 am    
   37   14   15 1     
   38   15   16 2     
   39   15   43 1     
   40   16   17 1     
   41   16   44 1     
   42   17   18 2     
   43   17   19 am    
   44   19   20 1     
   45   19   21 am    
   46   20   45 1     
   47   20   46 1     
   48   20   47 1     
   49   21   22 2     
   50   23   48 1     
   51   23   49 1     
   52   12   51 1     
   53   12   52 1     
   54   18   53 1     
   55   18   54 1     
   56   22   55 1     
   57   22   56 1     
@<TRIPOS>SUBSTRUCTURE
      1 S1             1
@<TRIPOS>SET
LONE_PAIRS      STATIC     ATOMS    <user>   **** ""
6 51 52 53 54 55 56
DONOR_HYDROGENS      STATIC     ATOMS    <user>   **** ""
2 50 40
ATOM$BLUE        STATIC     ATOMS    COLORGROUP SYSTEM
6 51 52 53 54 55 56
ATOM$RED        STATIC     ATOMS    COLORGROUP SYSTEM
2 50 40
