AV-unprocessed.smi:166|AV-procd|sdf|1389|dock9
  -GOLD-   2262019123D 1   1.00000     0.00000
 Structure written by MMmdl.
 54 58  0  0  0  0  0  0  0  0  1 V2000
  151.1457  142.0457  159.4319 O   0  0  0  0  0  0  0  0  0  0  0  0
  152.1561  143.0331  159.3143 C   0  0  2  0  0  0  0  0  0  0  0  0
  153.5233  142.3383  159.1107 C   0  0  0  0  0  0  0  0  0  0  0  0
  153.7661  141.2385  160.0327 N   0  0  0  0  0  0  0  0  0  0  0  0
  154.0794  141.3403  161.3696 C   0  0  0  0  0  0  0  0  0  0  0  0
  154.2628  140.2057  161.9872 N   0  0  0  0  0  0  0  0  0  0  0  0
  154.0699  139.2464  161.0002 C   0  0  0  0  0  0  0  0  0  0  0  0
  154.1304  137.8244  160.9758 C   0  0  0  0  0  0  0  0  0  0  0  0
  154.4104  137.0843  162.0783 N   0  0  0  0  0  0  0  0  0  0  0  0
  153.5196  137.3135  163.2151 C   0  0  0  0  0  0  0  0  0  0  0  0
  154.1446  136.7807  164.5144 C   0  0  0  0  0  0  0  0  0  0  0  0
  154.5540  135.3080  164.3632 C   0  0  0  0  0  0  0  0  0  0  0  0
  155.4886  135.1307  163.1552 C   0  0  1  0  0  0  0  0  0  0  0  0
  155.7572  133.7414  163.0236 O   0  0  0  0  0  0  0  0  0  0  0  0
  154.6004  132.9152  163.0091 C   0  0  0  0  0  0  0  0  0  0  0  0
  154.4502  132.1585  164.3163 C   0  0  0  0  0  0  0  0  0  0  0  0
  153.1561  131.4522  164.6650 C   0  0  0  0  0  0  0  0  0  0  0  0
  153.5632  132.6851  165.4259 C   0  0  0  0  0  0  0  0  0  0  0  0
  154.8271  135.6949  161.8800 C   0  0  0  0  0  0  0  0  0  0  0  0
  153.8990  137.2093  159.7849 N   0  0  0  0  0  0  0  0  0  0  0  0
  153.6228  137.9310  158.6947 C   0  0  0  0  0  0  0  0  0  0  0  0
  153.5328  139.2566  158.5722 N   0  0  0  0  0  0  0  0  0  0  0  0
  153.7659  139.8807  159.7621 C   0  0  0  0  0  0  0  0  0  0  0  0
  152.1187  143.9036  160.5649 C   0  0  0  0  0  0  0  0  0  0  0  0
  151.1153  144.9866  160.1928 C   0  0  0  0  0  0  0  0  0  0  0  0
  151.4257  145.2472  158.8349 O   0  0  0  0  0  0  0  0  0  0  0  0
  151.7525  144.0169  158.1956 C   0  0  0  0  0  0  0  0  0  0  0  0
  151.2398  141.6212  160.2707 H   0  0  0  0  0  0  0  0  0  0  0  0
  153.6013  141.9556  158.0923 H   0  0  0  0  0  0  0  0  0  0  0  0
  154.3317  143.0616  159.2257 H   0  0  0  0  0  0  0  0  0  0  0  0
  154.1685  142.2903  161.8768 H   0  0  0  0  0  0  0  0  0  0  0  0
  153.2873  138.3712  163.3342 H   0  0  0  0  0  0  0  0  0  0  0  0
  152.5731  136.8061  163.0236 H   0  0  0  0  0  0  0  0  0  0  0  0
  155.0195  137.3796  164.7701 H   0  0  0  0  0  0  0  0  0  0  0  0
  153.4407  136.8911  165.3395 H   0  0  0  0  0  0  0  0  0  0  0  0
  155.0454  134.9608  165.2726 H   0  0  0  0  0  0  0  0  0  0  0  0
  153.6629  134.6920  164.2348 H   0  0  0  0  0  0  0  0  0  0  0  0
  156.4163  135.6691  163.3581 H   0  0  0  0  0  0  0  0  0  0  0  0
  153.7014  133.5107  162.8513 H   0  0  0  0  0  0  0  0  0  0  0  0
  154.6652  132.1907  162.1961 H   0  0  0  0  0  0  0  0  0  0  0  0
  155.3638  131.6615  164.6372 H   0  0  0  0  0  0  0  0  0  0  0  0
  152.3196  131.5419  163.9746 H   0  0  0  0  0  0  0  0  0  0  0  0
  153.2307  130.4970  165.1807 H   0  0  0  0  0  0  0  0  0  0  0  0
  153.9091  132.5517  166.4489 H   0  0  0  0  0  0  0  0  0  0  0  0
  152.9990  133.5974  165.2426 H   0  0  0  0  0  0  0  0  0  0  0  0
  153.9565  135.0934  161.6148 H   0  0  0  0  0  0  0  0  0  0  0  0
  155.5249  135.6418  161.0439 H   0  0  0  0  0  0  0  0  0  0  0  0
  153.4498  137.3651  157.7912 H   0  0  0  0  0  0  0  0  0  0  0  0
  151.8482  143.3609  161.4715 H   0  0  0  0  0  0  0  0  0  0  0  0
  153.0921  144.3664  160.7337 H   0  0  0  0  0  0  0  0  0  0  0  0
  150.0912  144.6185  160.2723 H   0  0  0  0  0  0  0  0  0  0  0  0
  151.2107  145.8820  160.8073 H   0  0  0  0  0  0  0  0  0  0  0  0
  152.5639  144.2068  157.4946 H   0  0  0  0  0  0  0  0  0  0  0  0
  150.8994  143.6585  157.6178 H   0  0  0  0  0  0  0  0  0  0  0  0
  1  2  1  0  0  0  0
  1 28  1  0  0  0  0
  2 27  1  0  0  0  0
  2  3  1  0  0  0  0
  2 24  1  0  0  0  0
  3  4  1  0  0  0  0
  3 29  1  0  0  0  0
  3 30  1  0  0  0  0
  4 23  1  0  0  0  0
  4  5  1  0  0  0  0
  5  6  2  0  0  0  0
  5 31  1  0  0  0  0
  6  7  1  0  0  0  0
  7 23  2  0  0  0  0
  7  8  1  0  0  0  0
  8  9  1  0  0  0  0
  8 20  2  0  0  0  0
  9 19  1  0  0  0  0
  9 10  1  0  0  0  0
 10 11  1  0  0  0  0
 10 32  1  0  0  0  0
 10 33  1  0  0  0  0
 11 12  1  0  0  0  0
 11 34  1  0  0  0  0
 11 35  1  0  0  0  0
 12 13  1  0  0  0  0
 12 36  1  0  0  0  0
 12 37  1  0  0  0  0
 13 14  1  0  0  0  0
 13 19  1  0  0  0  0
 13 38  1  0  0  0  0
 14 15  1  0  0  0  0
 15 16  1  0  0  0  0
 15 39  1  0  0  0  0
 15 40  1  0  0  0  0
 16 18  1  0  0  0  0
 16 17  1  0  0  0  0
 16 41  1  0  0  0  0
 17 18  1  0  0  0  0
 17 42  1  0  0  0  0
 17 43  1  0  0  0  0
 18 44  1  0  0  0  0
 18 45  1  0  0  0  0
 19 46  1  0  0  0  0
 19 47  1  0  0  0  0
 20 21  1  0  0  0  0
 21 22  2  0  0  0  0
 21 48  1  0  0  0  0
 22 23  1  0  0  0  0
 24 25  1  0  0  0  0
 24 49  1  0  0  0  0
 24 50  1  0  0  0  0
 25 26  1  0  0  0  0
 25 51  1  0  0  0  0
 25 52  1  0  0  0  0
 26 27  1  0  0  0  0
 27 53  1  0  0  0  0
 27 54  1  0  0  0  0
M  END
> <s_m_source_file>
AV-unprocessed.smi

> <i_m_source_file_index>
166

> <i_lp_mmshare_version>
43012

> <i_f3d_flags>
0

> <s_epik_input>
W0NIMl0xT1tDSDJdW0NIMl1bQ0BAXTEoW09IXSlbQ0gyXW4oW2NIXW4yKWMoYzIzKW5bY0hdbmMzTjRbQ0gyXVtDSDJdW0NIMl1bQ0BIXShbQ0gyXTQpT1tDSDJdW0NIXTVbQ0gyXVtDSDJdNQ==

> <s_epik_cmdline>
J2VwaWtfcHl0aG9uJywgJy1waCcsICc3LjAnLCAnLXRuJywgJzgnLCAnLW1hJywgJzIwMCcsICctbWV0YWxfYmluZGluZycsICctaW1hZScsICc8aW5maWxlLm1hZT4nLCAnLW9tYWUnLCAnPG91dGZpbGUubWFlPic=

> <r_lp_tautomer_probability>
1

> <r_epik_Ionization_Penalty>
0.00342552

> <r_epik_Ionization_Penalty_Charging>
0

> <r_epik_Ionization_Penalty_Neutral>
0.00342552

> <r_epik_State_Penalty>
0.0022204

> <r_epik_Charging_Adjusted_Penalty>
0.0022204

> <i_epik_Tot_Q>
0

> <i_epik_Tot_abs_Q>
0

> <r_epik_Metal_State_Penalty>
-0

> <b_epik_Metal_Only>
0

> <s_lp_Force_Field>
OPLS_2005

> <r_lp_Energy>
44.6649

> <b_lp_Chiralities_Consistent>
1

> <s_lp_Variant>
AV-unprocessed.smi:166-2

> <Gold.Version>
5.8.1

> <Gold.Id.Protein>
6NUR|6NUR_protein|mol2

> <Gold.PLP.Fitness>
55.8325

> <Gold.PLP.PLP>
-54.2781

> <Gold.PLP.part.hbond>
-2.1346

> <Gold.PLP.part.metal>
0.0000

> <Gold.PLP.part.buried>
-6.5224

> <Gold.PLP.part.nonpolar>
-45.2697

> <Gold.PLP.part.repulsive>
0.1089

> <Gold.PLP.ligand.clash>
0.0597

> <Gold.PLP.ligand.torsion>
1.1786

> <Gold.PLP.Chemscore.Hbond>
1.0000

> <Gold.PLP.Chemscore.CHOScore>
0.0000

> <Gold.PLP.Chemscore.Metal>
0.0000

> <Gold.Chemscore.Hbonds>
donor molecule, donor type, donor heavy atom, donor atom, acceptor molecule, acceptor atom, score
      P1  H  7997  8009       L1    22  0.98

> <Gold.PLP.Chemscore.Internal.Correction>
0.9715

> <Gold.Rescore>
     Score         DG    S(hbond)    S(metal)    S(lipo)     H(rot)  DE(clash)    DE(int)     intcor
     13.50     -16.13       0.90        0.00     124.12       2.68       1.40       1.23       ----

> <Gold.Chemscore.Fitness>
13.5007

> <Gold.Chemscore.DG>
-16.1294

> <Gold.Chemscore.ZeroCoef>
-5.4800

> <Gold.Chemscore.Hbond>
0.8959

> <Gold.Chemscore.Metal>
0.0000

> <Gold.Chemscore.Lipo>
124.1213

> <Gold.Chemscore.Internal_Hbond>
0.0000

> <Gold.Chemscore.DEClash>
1.3998

> <Gold.Chemscore.DEInternal>
1.2289

> <Gold.Chemscore.Rot>
2.6817

> <Gold.Chemscore.Internal.Correction>
   9.000000E+99

> <Gold.Chemscore.Hbonds>
donor molecule, donor type, donor heavy atom, donor atom, acceptor molecule, acceptor atom, score
      P1  H  7997  8009       L1    22  0.73

> <Gold.Chemscore.Hbond.Weighted>
-2.9923

> <Gold.Chemscore.Metal.Weighted>
-0.0000

> <Gold.Chemscore.Lipo.Weighted>
-14.5222

> <Gold.Chemscore.Internal_Hbond.Weighted>
0.0000

> <Gold.Chemscore.DEClash.Weighted>
1.3998

> <Gold.Chemscore.DEInternal.Weighted>
1.2289

> <Gold.Chemscore.Rot.Weighted>
6.8651

> <Gold.Chemscore.Internal.Correction.Weighted>
   9.000000E+99

> <Gold.Protein.RotatedTorsions>
[ 6907 6896 6895 6894 ] final -127.48 input  -60.11 | X-H torsion
[ 7974 7965 7964 7962 ] final   47.99 input  175.53 | X-H torsion
[ 8008 7997 7996 7995 ] final  158.52 input   59.86 | X-H torsion
[ 10167 10162 10161 10158 ] final  -29.36 input  -65.29 | X-H torsion
[ 10718 10713 10712 10709 ] final -160.29 input   66.30 | X-H torsion
[ 10763 10752 10751 10750 ] final    8.11 input  -60.55 | X-H torsion
[ 11005 11000 10999 10996 ] final   -5.28 input  -57.11 | X-H torsion

> <Gold.Protein.ActiveResidues>
 VAL166  LYS551  ARG553  GLY616  TRP617  ASP618  TYR619  PRO620  LYS621  CYS622 
 ASP623  PHE694  ASN695  SER759  ASP760  ASP761  ALA762  ILE779  LEU786  VAL792 
 PHE793  MET794  SER795  GLU796  ALA797  LYS798  CYS799  TRP800  GLU811  SER814 

> <Gold.Protein.RotatedAtoms>
  150.9077  133.7037  159.2862 H   0  0  0  0  0  0  0  0  0  0  0  0  # atno 6907 bound_to 6896
  151.4534  135.1030  159.9714 H   0  0  0  0  0  0  0  0  0  0  0  0  # atno 6908 bound_to 6896
  152.4913  133.8458  159.7231 H   0  0  0  0  0  0  0  0  0  0  0  0  # atno 6909 bound_to 6896
  146.0246  139.4691  142.9875 H   0  0  0  0  0  0  0  0  0  0  0  0  # atno 7974 bound_to 7965
  156.2297  140.1856  156.7273 H   0  0  0  0  0  0  0  0  0  0  0  0  # atno 8008 bound_to 7997
  154.6001  140.0637  156.9385 H   0  0  0  0  0  0  0  0  0  0  0  0  # atno 8009 bound_to 7997
  155.2188  140.3306  155.4321 H   0  0  0  0  0  0  0  0  0  0  0  0  # atno 8010 bound_to 7997
  140.7261  143.3935  151.1388 H   0  0  0  0  0  0  0  0  0  0  0  0  # atno 10167 bound_to 10162
  156.5800  130.8725  151.2862 H   0  0  0  0  0  0  0  0  0  0  0  0  # atno 10718 bound_to 10713
  153.2287  135.6890  153.7915 H   0  0  0  0  0  0  0  0  0  0  0  0  # atno 10763 bound_to 10752
  153.7088  135.3285  155.3242 H   0  0  0  0  0  0  0  0  0  0  0  0  # atno 10764 bound_to 10752
  154.8304  135.4585  154.1163 H   0  0  0  0  0  0  0  0  0  0  0  0  # atno 10765 bound_to 10752
  140.6894  133.9084  155.8608 H   0  0  0  0  0  0  0  0  0  0  0  0  # atno 11005 bound_to 11000
  145.7138  141.0097  143.1439 LP  0  0  0  0  0  0  0  0  0  0  0  0  # atno 17320 bound_to 7965
  144.7004  139.8789  143.7446 LP  0  0  0  0  0  0  0  0  0  0  0  0  # atno 17321 bound_to 7965
  139.7544  143.8730  152.3085 LP  0  0  0  0  0  0  0  0  0  0  0  0  # atno 17342 bound_to 10162
  139.8594  144.7124  150.9117 LP  0  0  0  0  0  0  0  0  0  0  0  0  # atno 17343 bound_to 10162
  157.7328  130.9721  150.1949 LP  0  0  0  0  0  0  0  0  0  0  0  0  # atno 17370 bound_to 10713
  156.2640  130.3714  149.8101 LP  0  0  0  0  0  0  0  0  0  0  0  0  # atno 17371 bound_to 10713
  141.0253  134.0831  157.4075 LP  0  0  0  0  0  0  0  0  0  0  0  0  # atno 17394 bound_to 11000
  139.8928  135.0126  156.6864 LP  0  0  0  0  0  0  0  0  0  0  0  0  # atno 17395 bound_to 11000

$$$$
