#       Name:                AV-unprocessed.smi:1072
#       Creating user name   scv26
#       Creation time:       Fri Mar 27 03:20:21 2020


#       File generated by GOLD software.
#

@<TRIPOS>MOLECULE
AV-unprocessed.smi:1072
    51    52     1
SMALL
NO_CHARGES


@<TRIPOS>ATOM
      1 ****        -4.5512   5.0677   0.5608 C.3            1 S1                 0.0000
      2 ****        -3.9620   3.6784   0.4367 C.2            1 S1                 0.0000
      3 ****        -3.4945   3.1891  -0.6645 N.2            1 S1                 0.0000
      4 ****        -2.9738   1.8876  -0.6559 C.2            1 S1                 0.0000
      5 ****        -2.4380   1.3866  -1.9864 C.3            1 S1                 0.0000
      6 ****        -2.9534   1.1322   0.4816 C.2            1 S1                 0.0000
      7 ****        -2.3887  -0.2872   0.5216 C.3            1 S1                 0.0000
      8 ****        -0.8624  -0.3929   0.5675 C.2            1 S1                 0.0000
      9 ****        -0.2022   0.4744   1.1390 O.2            1 S1                 0.0000
     10 ****        -0.3308  -1.4589  -0.0575 N.am           1 S1                 0.0000
     11 ****         1.0806  -1.8201  -0.2508 C.3            1 S1                 0.0000
     12 ****         1.0549  -3.1441  -1.0443 C.3            1 S1                 0.0000
     13 ****         1.8094  -0.7177  -1.0674 C.3            1 S1                 0.0000
     14 ****         3.3262  -0.9523  -1.1819 C.3            1 S1                 0.0000
     15 ****         3.9829  -1.1177   0.2005 C.3            1 S1                 0.0000
     16 ****         5.4963  -1.3458   0.0777 C.3            1 S1                 0.0000
     17 ****         3.3036  -2.2539   0.9867 C.3            1 S1                 0.0000
     18 ****         1.7860  -2.0292   1.1177 C.3            1 S1                 0.0000
     19 ****        -3.4910   1.7009   1.7329 C.2            1 S1                 0.0000
     20 ****        -3.5190   1.1118   2.8124 O.2            1 S1                 0.0000
     21 ****        -3.9699   2.9610   1.6315 N.am           1 S1                 0.0000
     22 ****        -4.3466   3.3956   2.4612 H              1 S1                 0.0000
     23 ****        -3.8012   5.8176   0.3082 H              1 S1                 0.0000
     24 ****        -4.9051   5.2663   1.5734 H              1 S1                 0.0000
     25 ****        -5.3929   5.1804  -0.1230 H              1 S1                 0.0000
     26 ****        -2.9985   0.5135  -2.3211 H              1 S1                 0.0000
     27 ****        -1.3860   1.1137  -1.9013 H              1 S1                 0.0000
     28 ****        -2.5199   2.1519  -2.7591 H              1 S1                 0.0000
     29 ****        -2.7910  -0.8404   1.3707 H              1 S1                 0.0000
     30 ****        -2.7534  -0.8231  -0.3554 H              1 S1                 0.0000
     31 ****        -0.9919  -2.0948  -0.4796 H              1 S1                 0.0000
     32 ****         2.0525  -3.5224  -1.2619 H              1 S1                 0.0000
     33 ****         0.5441  -3.0217  -2.0003 H              1 S1                 0.0000
     34 ****         0.5300  -3.9247  -0.4923 H              1 S1                 0.0000
     35 ****         1.3733  -0.6371  -2.0639 H              1 S1                 0.0000
     36 ****         1.6670   0.2578  -0.6031 H              1 S1                 0.0000
     37 ****         3.5246  -1.8302  -1.7972 H              1 S1                 0.0000
     38 ****         3.7800  -0.1108  -1.7065 H              1 S1                 0.0000
     39 ****         3.8346  -0.1903   0.7558 H              1 S1                 0.0000
     40 ****         5.7162  -2.2612  -0.4727 H              1 S1                 0.0000
     41 ****         5.9623  -1.4280   1.0599 H              1 S1                 0.0000
     42 ****         5.9766  -0.5188  -0.4460 H              1 S1                 0.0000
     43 ****         3.5007  -3.2112   0.5038 H              1 S1                 0.0000
     44 ****         3.7423  -2.3253   1.9827 H              1 S1                 0.0000
     45 ****         1.6427  -1.1600   1.7585 H              1 S1                 0.0000
     46 ****         1.3345  -2.8673   1.6503 H              1 S1                 0.0000
     47 ****        -3.5040   3.7286  -1.5064 LP             1 S1                 0.0000
     48 ****        -0.6629   1.2483   1.5735 LP             1 S1                 0.0000
     49 ****         0.7950   0.4052   1.1689 LP             1 S1                 0.0000
     50 ****        -3.1607   0.1809   2.8834 LP             1 S1                 0.0000
     51 ****        -3.9000   1.5638   3.6190 LP             1 S1                 0.0000
@<TRIPOS>BOND
    1    1    2 1     
    2    1   23 1     
    3    1   24 1     
    4    1   25 1     
    5    2   21 1     
    6    2    3 2     
    7    3    4 1     
    8    4    5 1     
    9    4    6 2     
   10    5   26 1     
   11    5   27 1     
   12    5   28 1     
   13    6    7 1     
   14    6   19 1     
   15    7    8 1     
   16    7   29 1     
   17    7   30 1     
   18    8    9 2     
   19    8   10 am    
   20   10   11 1     
   21   10   31 1     
   22   11   18 1     
   23   11   12 1     
   24   11   13 1     
   25   12   32 1     
   26   12   33 1     
   27   12   34 1     
   28   13   14 1     
   29   13   35 1     
   30   13   36 1     
   31   14   15 1     
   32   14   37 1     
   33   14   38 1     
   34   15   16 1     
   35   15   17 1     
   36   15   39 1     
   37   16   40 1     
   38   16   41 1     
   39   16   42 1     
   40   17   18 1     
   41   17   43 1     
   42   17   44 1     
   43   18   45 1     
   44   18   46 1     
   45   19   20 2     
   46   19   21 am    
   47   21   22 1     
   48    3   47 1     
   49    9   48 1     
   50    9   49 1     
   51   20   50 1     
   52   20   51 1     
@<TRIPOS>SUBSTRUCTURE
      1 S1             1
@<TRIPOS>SET
LONE_PAIRS      STATIC     ATOMS    <user>   **** ""
5 47 48 49 50 51
DONOR_HYDROGENS      STATIC     ATOMS    <user>   **** ""
2 31 22
ATOM$BLUE        STATIC     ATOMS    COLORGROUP SYSTEM
5 47 48 49 50 51
ATOM$RED        STATIC     ATOMS    COLORGROUP SYSTEM
2 31 22
