AV-unprocessed.smi:2822|AV-procd|sdf|10878|dock6
  -GOLD-   2272015323D 1   1.00000     0.00000
 Structure written by MMmdl.
 40 42  0  0  0  0  0  0  0  0  2 V2000
  149.7395  138.6589  154.9015 Cl  0  0  0  0  0  0  0  0  0  0  0  0
  148.6096  139.9396  154.6310 C   0  0  0  0  0  0  0  0  0  0  0  0
  148.8329  141.1939  155.2357 C   0  0  0  0  0  0  0  0  0  0  0  0
  147.9615  142.2053  155.0361 N   0  3  0  0  0  0  0  0  0  0  0  0
  146.8597  142.0767  154.2673 C   0  0  0  0  0  0  0  0  0  0  0  0
  146.5826  140.8477  153.6356 C   0  0  0  0  0  0  0  0  0  0  0  0
  147.4656  139.7536  153.8162 C   0  0  0  0  0  0  0  0  0  0  0  0
  147.2446  138.5049  153.2158 N   0  0  0  0  0  0  0  0  0  0  0  0
  145.9608  138.1772  152.6149 C   0  0  0  0  0  0  0  0  0  0  0  0
  145.1916  137.1444  153.4597 C   0  0  2  0  0  0  0  0  0  0  0  0
  145.8860  135.7701  153.5022 C   0  0  0  0  0  0  0  0  0  0  0  0
  145.7966  135.0534  152.2356 N   0  0  0  0  0  0  0  0  0  0  0  0
  146.4490  133.7472  152.3254 C   0  0  0  0  0  0  0  0  0  0  0  0
  146.3982  132.9700  151.0009 C   0  0  0  0  0  0  0  0  0  0  0  0
  144.9449  132.8080  150.5343 C   0  0  0  0  0  0  0  0  0  0  0  0
  144.2523  134.1782  150.4873 C   0  0  0  0  0  0  0  0  0  0  0  0
  144.3933  134.9156  151.8354 C   0  0  2  0  0  0  0  0  0  0  0  0
  143.6988  136.2904  151.7716 C   0  0  0  0  0  0  0  0  0  0  0  0
  143.8452  136.9822  153.0094 O   0  0  0  0  0  0  0  0  0  0  0  0
  149.6784  141.4169  155.8700 H   0  0  0  0  0  0  0  0  0  0  0  0
  146.2367  142.9551  154.1799 H   0  0  0  0  0  0  0  0  0  0  0  0
  145.6982  140.7648  153.0215 H   0  0  0  0  0  0  0  0  0  0  0  0
  147.8953  137.7517  153.3911 H   0  0  0  0  0  0  0  0  0  0  0  0
  145.3700  139.0826  152.4764 H   0  0  0  0  0  0  0  0  0  0  0  0
  146.1433  137.7643  151.6220 H   0  0  0  0  0  0  0  0  0  0  0  0
  145.1421  137.5216  154.4820 H   0  0  0  0  0  0  0  0  0  0  0  0
  146.9317  135.8968  153.7847 H   0  0  0  0  0  0  0  0  0  0  0  0
  145.4266  135.1707  154.2899 H   0  0  0  0  0  0  0  0  0  0  0  0
  147.4911  133.8785  152.6194 H   0  0  0  0  0  0  0  0  0  0  0  0
  145.9802  133.1525  153.1111 H   0  0  0  0  0  0  0  0  0  0  0  0
  146.9730  133.5013  150.2412 H   0  0  0  0  0  0  0  0  0  0  0  0
  146.8659  131.9924  151.1201 H   0  0  0  0  0  0  0  0  0  0  0  0
  144.9114  132.3310  149.5546 H   0  0  0  0  0  0  0  0  0  0  0  0
  144.4102  132.1514  151.2216 H   0  0  0  0  0  0  0  0  0  0  0  0
  144.6923  134.7789  149.6900 H   0  0  0  0  0  0  0  0  0  0  0  0
  143.1993  134.0503  150.2344 H   0  0  0  0  0  0  0  0  0  0  0  0
  143.8762  134.3235  152.5927 H   0  0  0  0  0  0  0  0  0  0  0  0
  144.0966  136.8926  150.9545 H   0  0  0  0  0  0  0  0  0  0  0  0
  142.6342  136.1655  151.5731 H   0  0  0  0  0  0  0  0  0  0  0  0
  148.1439  143.1037  155.4845 H   0  0  0  0  0  0  0  0  0  0  0  0
  1  2  1  0  0  0  0
  2  7  1  0  0  0  0
  2  3  2  0  0  0  0
  3  4  1  0  0  0  0
  3 20  1  0  0  0  0
  4  5  2  0  0  0  0
  4 40  1  0  0  0  0
  5  6  1  0  0  0  0
  5 21  1  0  0  0  0
  6  7  2  0  0  0  0
  6 22  1  0  0  0  0
  7  8  1  0  0  0  0
  8  9  1  0  0  0  0
  8 23  1  0  0  0  0
  9 10  1  0  0  0  0
  9 24  1  0  0  0  0
  9 25  1  0  0  0  0
 10 19  1  0  0  0  0
 10 11  1  0  0  0  0
 10 26  1  0  0  0  0
 11 12  1  0  0  0  0
 11 27  1  0  0  0  0
 11 28  1  0  0  0  0
 12 17  1  0  0  0  0
 12 13  1  0  0  0  0
 13 14  1  0  0  0  0
 13 29  1  0  0  0  0
 13 30  1  0  0  0  0
 14 15  1  0  0  0  0
 14 31  1  0  0  0  0
 14 32  1  0  0  0  0
 15 16  1  0  0  0  0
 15 33  1  0  0  0  0
 15 34  1  0  0  0  0
 16 17  1  0  0  0  0
 16 35  1  0  0  0  0
 16 36  1  0  0  0  0
 17 18  1  0  0  0  0
 17 37  1  0  0  0  0
 18 19  1  0  0  0  0
 18 38  1  0  0  0  0
 18 39  1  0  0  0  0
M  CHG  1   4   1
M  END
> <s_m_source_file>
AV-unprocessed.smi

> <i_m_source_file_index>
2822

> <i_lp_mmshare_version>
43012

> <i_f3d_flags>
0

> <s_epik_input>
Q2xjMVtjSF1uW2NIXVtjSF1jMVtOSF1bQ0gyXVtDQEhdKFtDSDJdMilPW0NIMl1bQ0BASF0oTjIzKVtDSDJdW0NIMl1bQ0gyXVtDSDJdMw==

> <s_epik_cmdline>
J2VwaWtfcHl0aG9uJywgJy1waCcsICc3LjAnLCAnLXRuJywgJzgnLCAnLW1hJywgJzIwMCcsICctbWV0YWxfYmluZGluZycsICctaW1hZScsICc8aW5maWxlLm1hZT4nLCAnLW9tYWUnLCAnPG91dGZpbGUubWFlPic=

> <r_epik_Ionization_Penalty>
1.37653

> <r_epik_Ionization_Penalty_Charging>
0.152973

> <r_epik_Ionization_Penalty_Neutral>
1.22356

> <r_epik_State_Penalty>
1.42693

> <r_epik_Charging_Adjusted_Penalty>
1.5799

> <i_epik_Tot_Q>
1

> <i_epik_Tot_abs_Q>
1

> <r_epik_Metal_State_Penalty>
4.59822

> <b_epik_Metal_Only>
0

> <s_lp_Force_Field>
OPLS_2005

> <r_lp_Energy>
45.685

> <b_lp_Chiralities_Consistent>
1

> <s_lp_Variant>
AV-unprocessed.smi:2822-19

> <Gold.Version>
5.8.1

> <Gold.Id.Protein>
6NUR|6NUR_protein|mol2

> <Gold.PLP.Fitness>
41.9865

> <Gold.PLP.PLP>
-33.9458

> <Gold.PLP.part.hbond>
-2.6836

> <Gold.PLP.part.metal>
0.0000

> <Gold.PLP.part.buried>
-1.6345

> <Gold.PLP.part.nonpolar>
-30.5605

> <Gold.PLP.part.repulsive>
0.5260

> <Gold.PLP.ligand.clash>
0.0000

> <Gold.PLP.ligand.torsion>
0.1339

> <Gold.PLP.Chemscore.Hbond>
2.7680

> <Gold.PLP.Chemscore.CHOScore>
0.0000

> <Gold.PLP.Chemscore.Metal>
0.0000

> <Gold.Chemscore.Hbonds>
donor molecule, donor type, donor heavy atom, donor atom, acceptor molecule, acceptor atom, score
      L1  H     4    40       P1  8028  2.00
      L1  H     8    23       P1  7948  0.05

> <Gold.PLP.Chemscore.Internal.Correction>
0.0045

> <Gold.Rescore>
     Score         DG    S(hbond)    S(metal)    S(lipo)     H(rot)  DE(clash)    DE(int)     intcor
     17.44     -18.13       1.57        0.00      88.98       1.18       0.51       0.17       ----

> <Gold.Chemscore.Fitness>
17.4428

> <Gold.Chemscore.DG>
-18.1267

> <Gold.Chemscore.ZeroCoef>
-5.4800

> <Gold.Chemscore.Hbond>
1.5731

> <Gold.Chemscore.Metal>
0.0000

> <Gold.Chemscore.Lipo>
88.9778

> <Gold.Chemscore.Internal_Hbond>
0.0000

> <Gold.Chemscore.DEClash>
0.5101

> <Gold.Chemscore.DEInternal>
0.1738

> <Gold.Chemscore.Rot>
1.1788

> <Gold.Chemscore.Internal.Correction>
   9.000000E+99

> <Gold.Chemscore.Hbonds>
donor molecule, donor type, donor heavy atom, donor atom, acceptor molecule, acceptor atom, score
      L1  H     4    40       P1  8028  0.89
      L1  H     8    23       P1  7948  0.08

> <Gold.Chemscore.Hbond.Weighted>
-5.2540

> <Gold.Chemscore.Metal.Weighted>
-0.0000

> <Gold.Chemscore.Lipo.Weighted>
-10.4104

> <Gold.Chemscore.Internal_Hbond.Weighted>
0.0000

> <Gold.Chemscore.DEClash.Weighted>
0.5101

> <Gold.Chemscore.DEInternal.Weighted>
0.1738

> <Gold.Chemscore.Rot.Weighted>
3.0177

> <Gold.Chemscore.Internal.Correction.Weighted>
   9.000000E+99

> <Gold.Protein.RotatedTorsions>
[ 6907 6896 6895 6894 ] final  121.49 input  -60.11 | X-H torsion
[ 7974 7965 7964 7962 ] final  151.50 input  175.53 | X-H torsion
[ 8008 7997 7996 7995 ] final  -41.05 input   59.86 | X-H torsion
[ 10167 10162 10161 10158 ] final  167.17 input  -65.29 | X-H torsion
[ 10718 10713 10712 10709 ] final -105.47 input   66.30 | X-H torsion
[ 10763 10752 10751 10750 ] final   -4.99 input  -60.55 | X-H torsion
[ 11005 11000 10999 10996 ] final   15.21 input  -57.11 | X-H torsion

> <Gold.Protein.ActiveResidues>
 VAL166  LYS551  ARG553  GLY616  TRP617  ASP618  TYR619  PRO620  LYS621  CYS622 
 ASP623  PHE694  ASN695  SER759  ASP760  ASP761  ALA762  ILE779  LEU786  VAL792 
 PHE793  MET794  SER795  GLU796  ALA797  LYS798  CYS799  TRP800  GLU811  SER814 

> <Gold.Protein.RotatedAtoms>
  152.4317  133.7289  159.6575 H   0  0  0  0  0  0  0  0  0  0  0  0  # atno 6907 bound_to 6896
  150.8197  133.8264  159.3150 H   0  0  0  0  0  0  0  0  0  0  0  0  # atno 6908 bound_to 6896
  151.5950  135.1053  160.0099 H   0  0  0  0  0  0  0  0  0  0  0  0  # atno 6909 bound_to 6896
  144.8288  139.6545  143.6068 H   0  0  0  0  0  0  0  0  0  0  0  0  # atno 7974 bound_to 7965
  154.4007  140.1509  156.3127 H   0  0  0  0  0  0  0  0  0  0  0  0  # atno 8008 bound_to 7997
  155.8600  140.3454  155.5729 H   0  0  0  0  0  0  0  0  0  0  0  0  # atno 8009 bound_to 7997
  155.7890  140.0854  157.2009 H   0  0  0  0  0  0  0  0  0  0  0  0  # atno 8010 bound_to 7997
  139.4940  144.3949  151.9475 H   0  0  0  0  0  0  0  0  0  0  0  0  # atno 10167 bound_to 10162
  156.0347  130.5565  150.7544 H   0  0  0  0  0  0  0  0  0  0  0  0  # atno 10718 bound_to 10713
  153.3924  135.7002  153.6485 H   0  0  0  0  0  0  0  0  0  0  0  0  # atno 10763 bound_to 10752
  153.5052  135.3644  155.2560 H   0  0  0  0  0  0  0  0  0  0  0  0  # atno 10764 bound_to 10752
  154.8703  135.4121  154.3244 H   0  0  0  0  0  0  0  0  0  0  0  0  # atno 10765 bound_to 10752
  140.4608  134.1129  155.7716 H   0  0  0  0  0  0  0  0  0  0  0  0  # atno 11005 bound_to 11000
  146.2592  139.6372  142.9373 LP  0  0  0  0  0  0  0  0  0  0  0  0  # atno 17320 bound_to 7965
  145.4941  141.0438  143.2577 LP  0  0  0  0  0  0  0  0  0  0  0  0  # atno 17321 bound_to 7965
  140.3388  144.3229  150.5971 LP  0  0  0  0  0  0  0  0  0  0  0  0  # atno 17342 bound_to 10162
  140.5584  143.2195  151.7808 LP  0  0  0  0  0  0  0  0  0  0  0  0  # atno 17343 bound_to 10162
  157.5080  131.0923  151.0234 LP  0  0  0  0  0  0  0  0  0  0  0  0  # atno 17370 bound_to 10713
  157.0597  130.5820  149.5384 LP  0  0  0  0  0  0  0  0  0  0  0  0  # atno 17371 bound_to 10713
  141.1622  133.8771  157.1816 LP  0  0  0  0  0  0  0  0  0  0  0  0  # atno 17394 bound_to 11000
  139.9946  135.0051  157.0054 LP  0  0  0  0  0  0  0  0  0  0  0  0  # atno 17395 bound_to 11000

$$$$
