AV-unprocessed.smi:178|AV-procd|sdf|1446|dock7
  -GOLD-   2262019243D 1   1.00000     0.00000
 Structure written by MMmdl.
 50 52  0  0  0  0  0  0  0  0  1 V2000
  151.5193  144.2391  160.1645 C   0  0  0  0  0  0  0  0  0  0  0  0
  152.4584  143.1846  160.0505 O   0  0  0  0  0  0  0  0  0  0  0  0
  151.8994  142.0210  159.4661 C   0  0  0  0  0  0  0  0  0  0  0  0
  152.9799  140.9297  159.4159 C   0  0  0  0  0  0  0  0  0  0  0  0
  152.5277  139.7144  158.7340 N   0  0  0  0  0  0  0  0  0  0  0  0
  152.7340  138.4275  159.3938 C   0  0  0  0  0  0  0  0  0  0  0  0
  154.2186  138.1101  159.6171 C   0  0  0  0  0  0  0  0  0  0  0  0
  154.4413  136.7046  159.9854 C   0  0  0  0  0  0  0  0  0  0  0  0
  154.6167  135.5984  160.2752 N   0  0  0  0  0  0  0  0  0  0  0  0
  152.0652  139.7863  157.4513 C   0  0  0  0  0  0  0  0  0  0  0  0
  152.8092  139.2027  156.4732 N   0  0  0  0  0  0  0  0  0  0  0  0
  152.4222  139.2431  155.1964 C   0  0  0  0  0  0  0  0  0  0  0  0
  151.3342  139.8077  154.6745 N   0  0  0  0  0  0  0  0  0  0  0  0
  150.5710  140.3910  155.6412 C   0  0  0  0  0  0  0  0  0  0  0  0
  150.8551  140.4288  157.0389 C   0  0  0  0  0  0  0  0  0  0  0  0
  149.8301  141.1059  157.6936 N   0  0  0  0  0  0  0  0  0  0  0  0
  149.0049  141.4544  156.7462 C   0  0  0  0  0  0  0  0  0  0  0  0
  149.3710  141.0616  155.4810 N   0  0  0  0  0  0  0  0  0  0  0  0
  148.6416  141.3140  154.2478 C   0  0  0  0  0  0  0  0  0  0  0  0
  147.2274  140.6872  154.2293 C   0  0  2  0  0  0  0  0  0  0  0  0
  146.6774  140.8526  152.9315 O   0  0  0  0  0  0  0  0  0  0  0  0
  146.2669  141.2922  155.2422 C   0  0  0  0  0  0  0  0  0  0  0  0
  145.2497  140.1756  155.4400 C   0  0  0  0  0  0  0  0  0  0  0  0
  146.0099  138.9766  155.3678 O   0  0  0  0  0  0  0  0  0  0  0  0
  147.2182  139.1981  154.6413 C   0  0  1  0  0  0  0  0  0  0  0  0
  147.3721  138.1686  153.5101 C   0  0  0  0  0  0  0  0  0  0  0  0
  151.9981  145.1093  160.6131 H   0  0  0  0  0  0  0  0  0  0  0  0
  150.6797  143.9522  160.7992 H   0  0  0  0  0  0  0  0  0  0  0  0
  151.1351  144.5332  159.1870 H   0  0  0  0  0  0  0  0  0  0  0  0
  151.0437  141.6855  160.0536 H   0  0  0  0  0  0  0  0  0  0  0  0
  151.5388  142.2488  158.4627 H   0  0  0  0  0  0  0  0  0  0  0  0
  153.8518  141.3218  158.8916 H   0  0  0  0  0  0  0  0  0  0  0  0
  153.3280  140.6938  160.4220 H   0  0  0  0  0  0  0  0  0  0  0  0
  152.2277  138.4503  160.3592 H   0  0  0  0  0  0  0  0  0  0  0  0
  152.2422  137.6284  158.8405 H   0  0  0  0  0  0  0  0  0  0  0  0
  154.8025  138.3145  158.7201 H   0  0  0  0  0  0  0  0  0  0  0  0
  154.6269  138.7269  160.4170 H   0  0  0  0  0  0  0  0  0  0  0  0
  153.0796  138.7540  154.4928 H   0  0  0  0  0  0  0  0  0  0  0  0
  148.0975  142.0060  156.9457 H   0  0  0  0  0  0  0  0  0  0  0  0
  148.5769  142.3931  154.1025 H   0  0  0  0  0  0  0  0  0  0  0  0
  149.2361  140.9308  153.4175 H   0  0  0  0  0  0  0  0  0  0  0  0
  145.7866  140.5364  152.9434 H   0  0  0  0  0  0  0  0  0  0  0  0
  146.7823  141.4753  156.1859 H   0  0  0  0  0  0  0  0  0  0  0  0
  145.8176  142.2321  154.9180 H   0  0  0  0  0  0  0  0  0  0  0  0
  144.7158  140.2548  156.3871 H   0  0  0  0  0  0  0  0  0  0  0  0
  144.5152  140.1778  154.6336 H   0  0  0  0  0  0  0  0  0  0  0  0
  148.0210  139.0320  155.3610 H   0  0  0  0  0  0  0  0  0  0  0  0
  148.2894  138.3395  152.9464 H   0  0  0  0  0  0  0  0  0  0  0  0
  146.5345  138.2054  152.8134 H   0  0  0  0  0  0  0  0  0  0  0  0
  147.4150  137.1570  153.9144 H   0  0  0  0  0  0  0  0  0  0  0  0
  1  2  1  0  0  0  0
  1 27  1  0  0  0  0
  1 28  1  0  0  0  0
  1 29  1  0  0  0  0
  2  3  1  0  0  0  0
  3  4  1  0  0  0  0
  3 30  1  0  0  0  0
  3 31  1  0  0  0  0
  4  5  1  0  0  0  0
  4 32  1  0  0  0  0
  4 33  1  0  0  0  0
  5  6  1  0  0  0  0
  5 10  1  0  0  0  0
  6  7  1  0  0  0  0
  6 34  1  0  0  0  0
  6 35  1  0  0  0  0
  7  8  1  0  0  0  0
  7 36  1  0  0  0  0
  7 37  1  0  0  0  0
  8  9  3  0  0  0  0
 10 15  1  0  0  0  0
 10 11  2  0  0  0  0
 11 12  1  0  0  0  0
 12 13  2  0  0  0  0
 12 38  1  0  0  0  0
 13 14  1  0  0  0  0
 14 18  1  0  0  0  0
 14 15  2  0  0  0  0
 15 16  1  0  0  0  0
 16 17  2  0  0  0  0
 17 18  1  0  0  0  0
 17 39  1  0  0  0  0
 18 19  1  0  0  0  0
 19 20  1  0  0  0  0
 19 40  1  0  0  0  0
 19 41  1  0  0  0  0
 20 25  1  0  0  0  0
 20 21  1  0  0  0  0
 20 22  1  0  0  0  0
 21 42  1  0  0  0  0
 22 23  1  0  0  0  0
 22 43  1  0  0  0  0
 22 44  1  0  0  0  0
 23 24  1  0  0  0  0
 23 45  1  0  0  0  0
 23 46  1  0  0  0  0
 24 25  1  0  0  0  0
 25 26  1  0  0  0  0
 25 47  1  0  0  0  0
 26 48  1  0  0  0  0
 26 49  1  0  0  0  0
 26 50  1  0  0  0  0
M  END
> <s_m_source_file>
AV-unprocessed.smi

> <i_m_source_file_index>
178

> <i_lp_mmshare_version>
43012

> <i_f3d_flags>
0

> <s_epik_input>
W0NIM11PW0NIMl1bQ0gyXU4oW0NIMl1bQ0gyXUMjTiljKG5bY0hdbjEpYyhjMTIpbltjSF1uMltDSDJdW0NAQF0zKFtPSF0pW0NIMl1bQ0gyXU9bQ0BIXTNbQ0gzXQ==

> <s_epik_cmdline>
J2VwaWtfcHl0aG9uJywgJy1waCcsICc3LjAnLCAnLXRuJywgJzgnLCAnLW1hJywgJzIwMCcsICctbWV0YWxfYmluZGluZycsICctaW1hZScsICc8aW5maWxlLm1hZT4nLCAnLW9tYWUnLCAnPG91dGZpbGUubWFlPic=

> <r_lp_tautomer_probability>
1

> <r_epik_Ionization_Penalty>
0.000885317

> <r_epik_Ionization_Penalty_Charging>
0

> <r_epik_Ionization_Penalty_Neutral>
0.000885317

> <r_epik_State_Penalty>
0.00047273

> <r_epik_Charging_Adjusted_Penalty>
0.00047273

> <i_epik_Tot_Q>
0

> <i_epik_Tot_abs_Q>
0

> <r_epik_Metal_State_Penalty>
-0

> <b_epik_Metal_Only>
0

> <s_lp_Force_Field>
OPLS_2005

> <r_lp_Energy>
29.3608

> <b_lp_Chiralities_Consistent>
1

> <s_lp_Variant>
AV-unprocessed.smi:178-2

> <Gold.Version>
5.8.1

> <Gold.Id.Protein>
6NUR|6NUR_protein|mol2

> <Gold.PLP.Fitness>
50.1818

> <Gold.PLP.PLP>
-40.1976

> <Gold.PLP.part.hbond>
-4.0000

> <Gold.PLP.part.metal>
0.0000

> <Gold.PLP.part.buried>
-5.1403

> <Gold.PLP.part.nonpolar>
-31.8390

> <Gold.PLP.part.repulsive>
0.2066

> <Gold.PLP.ligand.clash>
0.0000

> <Gold.PLP.ligand.torsion>
1.4075

> <Gold.PLP.Chemscore.Hbond>
3.6850

> <Gold.PLP.Chemscore.CHOScore>
0.4783

> <Gold.PLP.Chemscore.Metal>
0.0000

> <Gold.Chemscore.Hbonds>
donor molecule, donor type, donor heavy atom, donor atom, acceptor molecule, acceptor atom, score
      L1  H    21    42       P1 10175  0.70
      P1  H  6896  6907       L1     9  0.13
      P1  H  7989  7998       L1    13  1.00
      P1  H  7997  8009       L1    11  0.95

> <Gold.PLP.Chemscore.Internal.Correction>
0.3094

> <Gold.Rescore>
     Score         DG    S(hbond)    S(metal)    S(lipo)     H(rot)  DE(clash)    DE(int)     intcor
      8.28     -11.10       1.78        0.00      71.15       3.37       0.25       2.57       ----

> <Gold.Chemscore.Fitness>
8.2842

> <Gold.Chemscore.DG>
-11.1040

> <Gold.Chemscore.ZeroCoef>
-5.4800

> <Gold.Chemscore.Hbond>
1.7770

> <Gold.Chemscore.Metal>
0.0000

> <Gold.Chemscore.Lipo>
71.1457

> <Gold.Chemscore.Internal_Hbond>
0.0000

> <Gold.Chemscore.DEClash>
0.2467

> <Gold.Chemscore.DEInternal>
2.5732

> <Gold.Chemscore.Rot>
3.3732

> <Gold.Chemscore.Internal.Correction>
   9.000000E+99

> <Gold.Chemscore.Hbonds>
donor molecule, donor type, donor heavy atom, donor atom, acceptor molecule, acceptor atom, score
      L1  H    21    42       P1 10175  0.55
      P1  H  6896  6907       L1     9  0.10
      P1  H  7989  7998       L1    13  0.65
      P1  H  7997  8009       L1    11  0.14

> <Gold.Chemscore.Hbond.Weighted>
-5.9353

> <Gold.Chemscore.Metal.Weighted>
-0.0000

> <Gold.Chemscore.Lipo.Weighted>
-8.3241

> <Gold.Chemscore.Internal_Hbond.Weighted>
0.0000

> <Gold.Chemscore.DEClash.Weighted>
0.2467

> <Gold.Chemscore.DEInternal.Weighted>
2.5732

> <Gold.Chemscore.Rot.Weighted>
8.6354

> <Gold.Chemscore.Internal.Correction.Weighted>
   9.000000E+99

> <Gold.Protein.RotatedTorsions>
[ 6907 6896 6895 6894 ] final   75.88 input  -60.11 | X-H torsion
[ 7974 7965 7964 7962 ] final  -80.69 input  175.53 | X-H torsion
[ 8008 7997 7996 7995 ] final -161.64 input   59.86 | X-H torsion
[ 10167 10162 10161 10158 ] final   26.75 input  -65.29 | X-H torsion
[ 10718 10713 10712 10709 ] final  -44.99 input   66.30 | X-H torsion
[ 10763 10752 10751 10750 ] final  110.26 input  -60.55 | X-H torsion
[ 11005 11000 10999 10996 ] final   67.93 input  -57.11 | X-H torsion

> <Gold.Protein.ActiveResidues>
 VAL166  LYS551  ARG553  GLY616  TRP617  ASP618  TYR619  PRO620  LYS621  CYS622 
 ASP623  PHE694  ASN695  SER759  ASP760  ASP761  ALA762  ILE779  LEU786  VAL792 
 PHE793  MET794  SER795  GLU796  ALA797  LYS798  CYS799  TRP800  GLU811  SER814 

> <Gold.Protein.RotatedAtoms>
  152.5047  134.4053  159.9430 H   0  0  0  0  0  0  0  0  0  0  0  0  # atno 6907 bound_to 6896
  151.4019  133.3748  159.2741 H   0  0  0  0  0  0  0  0  0  0  0  0  # atno 6908 bound_to 6896
  150.9355  134.8789  159.7638 H   0  0  0  0  0  0  0  0  0  0  0  0  # atno 6909 bound_to 6896
  145.5566  140.9488  143.1470 H   0  0  0  0  0  0  0  0  0  0  0  0  # atno 7974 bound_to 7965
  155.7952  140.0884  157.1987 H   0  0  0  0  0  0  0  0  0  0  0  0  # atno 8008 bound_to 7997
  154.3984  140.1482  156.3268 H   0  0  0  0  0  0  0  0  0  0  0  0  # atno 8009 bound_to 7997
  155.8518  140.3434  155.5701 H   0  0  0  0  0  0  0  0  0  0  0  0  # atno 8010 bound_to 7997
  140.4997  144.0335  150.6328 H   0  0  0  0  0  0  0  0  0  0  0  0  # atno 10167 bound_to 10162
  156.2329  130.4174  149.8853 H   0  0  0  0  0  0  0  0  0  0  0  0  # atno 10718 bound_to 10713
  153.4465  135.3754  155.2259 H   0  0  0  0  0  0  0  0  0  0  0  0  # atno 10763 bound_to 10752
  154.8755  135.3875  154.4090 H   0  0  0  0  0  0  0  0  0  0  0  0  # atno 10764 bound_to 10752
  153.4643  135.7087  153.6095 H   0  0  0  0  0  0  0  0  0  0  0  0  # atno 10765 bound_to 10752
  139.9741  134.6851  156.0388 H   0  0  0  0  0  0  0  0  0  0  0  0  # atno 11005 bound_to 11000
  144.7503  139.7210  143.7275 LP  0  0  0  0  0  0  0  0  0  0  0  0  # atno 17320 bound_to 7965
  146.1880  139.5106  142.9823 LP  0  0  0  0  0  0  0  0  0  0  0  0  # atno 17321 bound_to 7965
  140.3628  143.2898  152.0365 LP  0  0  0  0  0  0  0  0  0  0  0  0  # atno 17342 bound_to 10162
  139.4869  144.6290  151.7107 LP  0  0  0  0  0  0  0  0  0  0  0  0  # atno 17343 bound_to 10162
  156.6460  130.8724  151.3523 LP  0  0  0  0  0  0  0  0  0  0  0  0  # atno 17370 bound_to 10713
  157.7141  130.9476  150.1193 LP  0  0  0  0  0  0  0  0  0  0  0  0  # atno 17371 bound_to 10713
  141.1419  133.6563  156.3755 LP  0  0  0  0  0  0  0  0  0  0  0  0  # atno 17394 bound_to 11000
  140.5231  134.6285  157.5325 LP  0  0  0  0  0  0  0  0  0  0  0  0  # atno 17395 bound_to 11000

$$$$
