AV-unprocessed.smi:3|AV-procd|sdf|28|dock2
  -GOLD-   2262015143D 1   1.00000     0.00000
 Structure written by MMmdl.
 33 35  0  0  0  0  0  0  0  0  1 V2000
  150.5011  142.1368  157.1711 C   0  0  0  0  0  0  0  0  0  0  0  0
  151.6095  141.1937  157.1979 N   0  0  0  0  0  0  0  0  0  0  0  0
  152.4588  141.1759  158.3911 C   0  0  0  0  0  0  0  0  0  0  0  0
  151.9055  142.0593  159.5089 C   0  0  1  0  0  0  0  0  0  0  0  0
  152.6841  142.2232  160.8232 C   0  0  0  0  0  0  0  0  0  0  0  0
  152.2880  143.7021  160.8518 C   0  0  2  0  0  0  0  0  0  0  0  0
  151.2254  144.0655  161.7067 O   0  0  0  0  0  0  0  0  0  0  0  0
  151.9695  143.5854  159.3578 C   0  0  0  0  0  0  0  0  0  0  0  0
  151.6593  140.1335  156.2580 C   0  0  0  0  0  0  0  0  0  0  0  0
  152.7846  139.3715  156.2331 N   0  0  0  0  0  0  0  0  0  0  0  0
  152.9002  138.3556  155.3760 C   0  0  0  0  0  0  0  0  0  0  0  0
  152.0251  137.9332  154.4641 N   0  0  0  0  0  0  0  0  0  0  0  0
  150.8964  138.6948  154.4741 C   0  0  0  0  0  0  0  0  0  0  0  0
  149.7956  138.5381  153.6593 N   0  0  0  0  0  0  0  0  0  0  0  0
  148.8418  139.4933  153.9530 C   0  0  0  0  0  0  0  0  0  0  0  0
  149.3077  140.2906  154.9664 C   0  0  0  0  0  0  0  0  0  0  0  0
  150.6222  139.8081  155.3257 C   0  0  0  0  0  0  0  0  0  0  0  0
  150.8737  141.7919  159.7457 H   0  0  0  0  0  0  0  0  0  0  0  0
  153.1397  144.3562  161.0414 H   0  0  0  0  0  0  0  0  0  0  0  0
  149.6788  137.8349  152.9440 H   0  0  0  0  0  0  0  0  0  0  0  0
  150.4901  142.6885  156.2311 H   0  0  0  0  0  0  0  0  0  0  0  0
  150.5895  142.8664  157.9766 H   0  0  0  0  0  0  0  0  0  0  0  0
  149.5502  141.6189  157.2997 H   0  0  0  0  0  0  0  0  0  0  0  0
  152.6317  140.1608  158.7480 H   0  0  0  0  0  0  0  0  0  0  0  0
  153.4460  141.5359  158.1003 H   0  0  0  0  0  0  0  0  0  0  0  0
  152.2957  141.6244  161.6477 H   0  0  0  0  0  0  0  0  0  0  0  0
  153.7599  142.0875  160.7057 H   0  0  0  0  0  0  0  0  0  0  0  0
  151.5074  144.8278  162.1891 H   0  0  0  0  0  0  0  0  0  0  0  0
  152.7965  143.9176  158.7279 H   0  0  0  0  0  0  0  0  0  0  0  0
  151.0284  144.0436  159.0519 H   0  0  0  0  0  0  0  0  0  0  0  0
  153.8262  137.8024  155.4281 H   0  0  0  0  0  0  0  0  0  0  0  0
  147.9057  139.5286  153.4152 H   0  0  0  0  0  0  0  0  0  0  0  0
  148.7781  141.1216  155.4049 H   0  0  0  0  0  0  0  0  0  0  0  0
  1  2  1  0  0  0  0
  1 21  1  0  0  0  0
  1 22  1  0  0  0  0
  1 23  1  0  0  0  0
  2  3  1  0  0  0  0
  2  9  1  0  0  0  0
  3  4  1  0  0  0  0
  3 24  1  0  0  0  0
  3 25  1  0  0  0  0
  4 18  1  0  0  0  0
  4  8  1  0  0  0  0
  4  5  1  0  0  0  0
  5  6  1  0  0  0  0
  5 26  1  0  0  0  0
  5 27  1  0  0  0  0
  6 19  1  0  0  0  0
  6  7  1  0  0  0  0
  6  8  1  0  0  0  0
  7 28  1  0  0  0  0
  8 29  1  0  0  0  0
  8 30  1  0  0  0  0
  9 17  1  0  0  0  0
  9 10  2  0  0  0  0
 10 11  1  0  0  0  0
 11 12  2  0  0  0  0
 11 31  1  0  0  0  0
 12 13  1  0  0  0  0
 13 17  2  0  0  0  0
 13 14  1  0  0  0  0
 14 20  1  0  0  0  0
 14 15  1  0  0  0  0
 15 16  2  0  0  0  0
 15 32  1  0  0  0  0
 16 17  1  0  0  0  0
 16 33  1  0  0  0  0
M  END
> <s_m_source_file>
AV-unprocessed.smi

> <i_m_source_file_index>
3

> <i_lp_mmshare_version>
43012

> <i_f3d_flags>
0

> <s_epik_input>
W25IXTFbY0hdW2NIXWMoYzEyKWMobltjSF1uMilOKFtDSDNdKVtDSDJdW0NASF0zW0NIMl1bQ0BASF0oW09IXSlbQ0gyXTM=

> <s_epik_cmdline>
J2VwaWtfcHl0aG9uJywgJy1waCcsICc3LjAnLCAnLXRuJywgJzgnLCAnLW1hJywgJzIwMCcsICctbWV0YWxfYmluZGluZycsICctaW1hZScsICc8aW5maWxlLm1hZT4nLCAnLW9tYWUnLCAnPG91dGZpbGUubWFlPic=

> <r_lp_tautomer_probability>
0.999998

> <r_epik_Ionization_Penalty>
0.0134605

> <r_epik_Ionization_Penalty_Charging>
0

> <r_epik_Ionization_Penalty_Neutral>
0.0134605

> <r_epik_State_Penalty>
0.00982199

> <r_epik_Charging_Adjusted_Penalty>
0.00982199

> <i_epik_Tot_Q>
0

> <i_epik_Tot_abs_Q>
0

> <r_epik_Metal_State_Penalty>
0.00963912

> <b_epik_Metal_Only>
0

> <s_lp_Force_Field>
OPLS_2005

> <r_lp_Energy>
12.0979

> <b_lp_Chiralities_Consistent>
1

> <s_lp_Variant>
AV-unprocessed.smi:3-2

> <Gold.Version>
5.8.1

> <Gold.Id.Protein>
6NUR|6NUR_protein|mol2

> <Gold.PLP.Fitness>
45.5518

> <Gold.PLP.PLP>
-40.7104

> <Gold.PLP.part.hbond>
-5.2156

> <Gold.PLP.part.metal>
0.0000

> <Gold.PLP.part.buried>
-3.7182

> <Gold.PLP.part.nonpolar>
-31.2486

> <Gold.PLP.part.repulsive>
0.2124

> <Gold.PLP.ligand.clash>
0.7868

> <Gold.PLP.ligand.torsion>
0.3356

> <Gold.PLP.Chemscore.Hbond>
2.0000

> <Gold.PLP.Chemscore.CHOScore>
0.0239

> <Gold.PLP.Chemscore.Metal>
0.0000

> <Gold.Chemscore.Hbonds>
donor molecule, donor type, donor heavy atom, donor atom, acceptor molecule, acceptor atom, score
      L1  H    14    20       P1  7948  1.00
      P1  H  7997  8009       L1    10  1.00
      L1  C    15    32       P1  7957  0.01

> <Gold.PLP.Chemscore.Internal.Correction>
0.2278

> <Gold.Rescore>
     Score         DG    S(hbond)    S(metal)    S(lipo)     H(rot)  DE(clash)    DE(int)     intcor
     15.76     -16.22       1.87        0.00      78.76       1.84       0.08       0.37       ----

> <Gold.Chemscore.Fitness>
15.7646

> <Gold.Chemscore.DG>
-16.2183

> <Gold.Chemscore.ZeroCoef>
-5.4800

> <Gold.Chemscore.Hbond>
1.8662

> <Gold.Chemscore.Metal>
0.0000

> <Gold.Chemscore.Lipo>
78.7574

> <Gold.Chemscore.Internal_Hbond>
0.0000

> <Gold.Chemscore.DEClash>
0.0820

> <Gold.Chemscore.DEInternal>
0.3717

> <Gold.Chemscore.Rot>
1.8396

> <Gold.Chemscore.Internal.Correction>
   9.000000E+99

> <Gold.Chemscore.Hbonds>
donor molecule, donor type, donor heavy atom, donor atom, acceptor molecule, acceptor atom, score
      L1  H    14    20       P1  7948  0.62
      P1  H  7997  8009       L1    10  0.49

> <Gold.Chemscore.Hbond.Weighted>
-6.2332

> <Gold.Chemscore.Metal.Weighted>
-0.0000

> <Gold.Chemscore.Lipo.Weighted>
-9.2146

> <Gold.Chemscore.Internal_Hbond.Weighted>
0.0000

> <Gold.Chemscore.DEClash.Weighted>
0.0820

> <Gold.Chemscore.DEInternal.Weighted>
0.3717

> <Gold.Chemscore.Rot.Weighted>
4.7095

> <Gold.Chemscore.Internal.Correction.Weighted>
   9.000000E+99

> <Gold.Protein.RotatedTorsions>
[ 6907 6896 6895 6894 ] final   47.92 input  -60.11 | X-H torsion
[ 7974 7965 7964 7962 ] final   89.22 input  175.53 | X-H torsion
[ 8008 7997 7996 7995 ] final -155.81 input   59.86 | X-H torsion
[ 10167 10162 10161 10158 ] final    3.19 input  -65.29 | X-H torsion
[ 10718 10713 10712 10709 ] final  -91.91 input   66.30 | X-H torsion
[ 10763 10752 10751 10750 ] final  -90.13 input  -60.55 | X-H torsion
[ 11005 11000 10999 10996 ] final   86.18 input  -57.11 | X-H torsion

> <Gold.Protein.ActiveResidues>
 VAL166  LYS551  ARG553  GLY616  TRP617  ASP618  TYR619  PRO620  LYS621  CYS622 
 ASP623  PHE694  ASN695  SER759  ASP760  ASP761  ALA762  ILE779  LEU786  VAL792 
 PHE793  MET794  SER795  GLU796  ALA797  LYS798  CYS799  TRP800  GLU811  SER814 

> <Gold.Protein.RotatedAtoms>
  152.2736  134.7905  160.0409 H   0  0  0  0  0  0  0  0  0  0  0  0  # atno 6907 bound_to 6896
  151.8509  133.3434  159.3681 H   0  0  0  0  0  0  0  0  0  0  0  0  # atno 6908 bound_to 6896
  150.7161  134.5228  159.5706 H   0  0  0  0  0  0  0  0  0  0  0  0  # atno 6909 bound_to 6896
  145.5352  139.2285  143.2596 H   0  0  0  0  0  0  0  0  0  0  0  0  # atno 7974 bound_to 7965
  155.7076  140.0774  157.2384 H   0  0  0  0  0  0  0  0  0  0  0  0  # atno 8008 bound_to 7997
  154.4063  140.1636  156.2314 H   0  0  0  0  0  0  0  0  0  0  0  0  # atno 8009 bound_to 7997
  155.9312  140.3391  155.6253 H   0  0  0  0  0  0  0  0  0  0  0  0  # atno 8010 bound_to 7997
  140.6598  143.7333  150.7718 H   0  0  0  0  0  0  0  0  0  0  0  0  # atno 10167 bound_to 10162
  155.9997  130.4966  150.5546 H   0  0  0  0  0  0  0  0  0  0  0  0  # atno 10718 bound_to 10713
  154.6626  135.5315  153.8037 H   0  0  0  0  0  0  0  0  0  0  0  0  # atno 10763 bound_to 10752
  153.0451  135.6509  154.0848 H   0  0  0  0  0  0  0  0  0  0  0  0  # atno 10764 bound_to 10752
  154.0755  135.2951  155.3280 H   0  0  0  0  0  0  0  0  0  0  0  0  # atno 10765 bound_to 10752
  139.8951  134.8338  156.2685 H   0  0  0  0  0  0  0  0  0  0  0  0  # atno 11005 bound_to 11000
  146.2018  140.6170  142.9099 LP  0  0  0  0  0  0  0  0  0  0  0  0  # atno 17320 bound_to 7965
  144.7605  140.5410  143.6739 LP  0  0  0  0  0  0  0  0  0  0  0  0  # atno 17321 bound_to 7965
  140.1000  143.4797  152.2431 LP  0  0  0  0  0  0  0  0  0  0  0  0  # atno 17342 bound_to 10162
  139.5829  144.7518  151.3593 LP  0  0  0  0  0  0  0  0  0  0  0  0  # atno 17343 bound_to 10162
  157.3464  131.0726  151.1748 LP  0  0  0  0  0  0  0  0  0  0  0  0  # atno 17370 bound_to 10713
  157.2579  130.6645  149.5961 LP  0  0  0  0  0  0  0  0  0  0  0  0  # atno 17371 bound_to 10713
  141.0116  133.7092  156.1121 LP  0  0  0  0  0  0  0  0  0  0  0  0  # atno 17394 bound_to 11000
  140.7359  134.4203  157.5560 LP  0  0  0  0  0  0  0  0  0  0  0  0  # atno 17395 bound_to 11000

$$$$
