#       Name:                AV-unprocessed.smi:691
#       Creating user name   scv26
#       Creation time:       Fri Mar 27 00:34:44 2020


#       File generated by GOLD software.
#

@<TRIPOS>MOLECULE
AV-unprocessed.smi:691
    42    43     1
SMALL
NO_CHARGES


@<TRIPOS>ATOM
      1 ****         1.3871   1.3657  -1.7228 C.3            1 S1                 0.0000
      2 ****         1.7589  -0.1361  -1.7321 C.3            1 S1                 0.0000
      3 ****         3.2995  -0.2824  -1.8546 C.3            1 S1                 0.0000
      4 ****         3.9795   0.3280  -0.7758 O.3            1 S1                 0.0000
      5 ****         1.0915  -0.8554  -2.9185 C.3            1 S1                 0.0000
      6 ****         1.0379  -2.3401  -2.5432 C.3            1 S1                 0.0000
      7 ****         1.0953  -2.3954  -1.0108 C.3            1 S1                 0.0000
      8 ****         1.2182  -0.9423  -0.5191 C.3            1 S1                 0.0000
      9 ****        -0.0978  -0.4722  -0.0776 N.am           1 S1                 0.0000
     10 ****        -0.3932   0.0334   1.1287 C.2            1 S1                 0.0000
     11 ****         0.4266   0.1579   2.0379 O.2            1 S1                 0.0000
     12 ****        -1.6941   0.3627   1.2059 N.am           1 S1                 0.0000
     13 ****        -2.4019   0.9305   2.2999 C.ar           1 S1                 0.0000
     14 ****        -3.8057   0.7987   2.3173 C.ar           1 S1                 0.0000
     15 ****        -4.5359   1.3659   3.3789 C.ar           1 S1                 0.0000
     16 ****        -3.8302   2.0553   4.3836 C.ar           1 S1                 0.0000
     17 ****        -2.4889   2.2045   4.3756 N.ar           1 S1                 0.0000
     18 ****        -1.7942   1.6559   3.3551 C.ar           1 S1                 0.0000
     19 ****         1.8300   1.8840  -2.5738 H              1 S1                 0.0000
     20 ****         1.7413   1.8577  -0.8163 H              1 S1                 0.0000
     21 ****         0.3101   1.5254  -1.7796 H              1 S1                 0.0000
     22 ****         3.5982  -1.3302  -1.8933 H              1 S1                 0.0000
     23 ****         3.6527   0.1754  -2.7793 H              1 S1                 0.0000
     24 ****         4.9092   0.2162  -0.9039 H              1 S1                 0.0000
     25 ****         0.0703  -0.4924  -3.0444 H              1 S1                 0.0000
     26 ****         1.6059  -0.6857  -3.8651 H              1 S1                 0.0000
     27 ****         0.1382  -2.8163  -2.9342 H              1 S1                 0.0000
     28 ****         1.8940  -2.8681  -2.9651 H              1 S1                 0.0000
     29 ****         0.2274  -2.9059  -0.5903 H              1 S1                 0.0000
     30 ****         1.9729  -2.9652  -0.7024 H              1 S1                 0.0000
     31 ****         1.9185  -0.9011   0.3166 H              1 S1                 0.0000
     32 ****        -0.8436  -0.5352  -0.7548 H              1 S1                 0.0000
     33 ****        -2.2580   0.1282   0.4021 H              1 S1                 0.0000
     34 ****        -4.3193   0.2665   1.5298 H              1 S1                 0.0000
     35 ****        -5.6113   1.2758   3.4217 H              1 S1                 0.0000
     36 ****        -4.3578   2.5036   5.2125 H              1 S1                 0.0000
     37 ****        -0.7304   1.8309   3.3912 H              1 S1                 0.0000
     38 ****         3.7035  -0.1026   0.0835 LP             1 S1                 0.0000
     39 ****         3.7582   1.3028  -0.7462 LP             1 S1                 0.0000
     40 ****         1.3752  -0.1257   1.8981 LP             1 S1                 0.0000
     41 ****         0.1441   0.5428   2.9166 LP             1 S1                 0.0000
     42 ****        -2.0228   2.7067   5.1040 LP             1 S1                 0.0000
@<TRIPOS>BOND
    1    1    2 1     
    2    1   19 1     
    3    1   20 1     
    4    1   21 1     
    5    2    8 1     
    6    2    3 1     
    7    2    5 1     
    8    3    4 1     
    9    3   22 1     
   10    3   23 1     
   11    4   24 1     
   12    5    6 1     
   13    5   25 1     
   14    5   26 1     
   15    6    7 1     
   16    6   27 1     
   17    6   28 1     
   18    7    8 1     
   19    7   29 1     
   20    7   30 1     
   21    8    9 1     
   22    8   31 1     
   23    9   10 am    
   24    9   32 1     
   25   10   11 2     
   26   10   12 am    
   27   12   13 1     
   28   12   33 1     
   29   13   18 ar    
   30   13   14 ar    
   31   14   15 ar    
   32   14   34 1     
   33   15   16 ar    
   34   15   35 1     
   35   16   17 ar    
   36   16   36 1     
   37   17   18 ar    
   38   18   37 1     
   39    4   38 1     
   40    4   39 1     
   41   11   40 1     
   42   11   41 1     
   43   17   42 1     
@<TRIPOS>SUBSTRUCTURE
      1 S1             1
@<TRIPOS>SET
LONE_PAIRS      STATIC     ATOMS    <user>   **** ""
5 38 39 40 41 42
DONOR_HYDROGENS      STATIC     ATOMS    <user>   **** ""
3 24 32 33
ATOM$BLUE        STATIC     ATOMS    COLORGROUP SYSTEM
5 38 39 40 41 42
ATOM$RED        STATIC     ATOMS    COLORGROUP SYSTEM
3 24 32 33
