AV-unprocessed.smi:715|AV-procd|sdf|3484|dock3
  -GOLD-   22720 0473D 1   1.00000     0.00000
 Structure written by MMmdl.
 39 40  0  0  0  0  0  0  0  0  1 V2000
  143.9548  132.6753  150.2978 C   0  0  0  0  0  0  0  0  0  0  0  0
  144.1309  133.9266  151.0032 N   0  0  0  0  0  0  0  0  0  0  0  0
  145.1091  134.8818  150.8300 C   0  0  0  0  0  0  0  0  0  0  0  0
  144.8663  135.8871  151.7235 C   0  0  0  0  0  0  0  0  0  0  0  0
  145.6415  137.1619  151.9281 C   0  0  2  0  0  0  0  0  0  0  0  0
  146.7995  137.1869  151.1176 O   0  0  0  0  0  0  0  0  0  0  0  0
  146.0763  137.3004  153.3975 C   0  0  0  0  0  0  0  0  0  0  0  0
  147.3525  137.9964  153.5033 N   0  0  0  0  0  0  0  0  0  0  0  0
  147.5314  139.1624  154.1399 C   0  0  0  0  0  0  0  0  0  0  0  0
  146.6203  139.7692  154.7032 O   0  0  0  0  0  0  0  0  0  0  0  0
  148.9569  139.7250  154.1447 C   0  0  0  0  0  0  0  0  0  0  0  0
  149.4825  140.0552  155.5575 C   0  0  0  0  0  0  0  0  0  0  0  0
  148.9050  141.3338  156.1761 C   0  0  0  0  0  0  0  0  0  0  0  0
  149.8975  141.7300  157.2751 C   0  0  0  0  0  0  0  0  0  0  0  0
  151.2317  141.0584  156.9146 C   0  0  0  0  0  0  0  0  0  0  0  0
  150.9919  140.3037  155.6026 C   0  0  0  0  0  0  0  0  0  0  0  0
  143.6948  135.4439  152.4044 C   0  0  0  0  0  0  0  0  0  0  0  0
  143.2602  134.2708  151.9736 N   0  0  0  0  0  0  0  0  0  0  0  0
  144.6689  132.6046  149.4769 H   0  0  0  0  0  0  0  0  0  0  0  0
  142.9438  132.6170  149.8931 H   0  0  0  0  0  0  0  0  0  0  0  0
  144.1163  131.8418  150.9820 H   0  0  0  0  0  0  0  0  0  0  0  0
  145.8895  134.7701  150.0916 H   0  0  0  0  0  0  0  0  0  0  0  0
  145.0258  138.0193  151.6524 H   0  0  0  0  0  0  0  0  0  0  0  0
  147.4403  136.6016  151.4917 H   0  0  0  0  0  0  0  0  0  0  0  0
  145.3302  137.8858  153.9383 H   0  0  0  0  0  0  0  0  0  0  0  0
  146.1300  136.3262  153.8867 H   0  0  0  0  0  0  0  0  0  0  0  0
  148.1527  137.5544  153.0742 H   0  0  0  0  0  0  0  0  0  0  0  0
  149.6087  138.9873  153.6759 H   0  0  0  0  0  0  0  0  0  0  0  0
  149.0008  140.6168  153.5172 H   0  0  0  0  0  0  0  0  0  0  0  0
  149.2643  139.2217  156.2280 H   0  0  0  0  0  0  0  0  0  0  0  0
  148.8634  142.1233  155.4241 H   0  0  0  0  0  0  0  0  0  0  0  0
  147.8950  141.1943  156.5631 H   0  0  0  0  0  0  0  0  0  0  0  0
  149.9933  142.8139  157.3502 H   0  0  0  0  0  0  0  0  0  0  0  0
  149.5513  141.3655  158.2431 H   0  0  0  0  0  0  0  0  0  0  0  0
  152.0414  141.7823  156.8158 H   0  0  0  0  0  0  0  0  0  0  0  0
  151.5151  140.3587  157.7021 H   0  0  0  0  0  0  0  0  0  0  0  0
  151.5693  139.3805  155.5427 H   0  0  0  0  0  0  0  0  0  0  0  0
  151.2904  140.9340  154.7635 H   0  0  0  0  0  0  0  0  0  0  0  0
  143.1508  135.9392  153.1952 H   0  0  0  0  0  0  0  0  0  0  0  0
  1  2  1  0  0  0  0
  1 19  1  0  0  0  0
  1 20  1  0  0  0  0
  1 21  1  0  0  0  0
  2 18  1  0  0  0  0
  2  3  1  0  0  0  0
  3  4  2  0  0  0  0
  3 22  1  0  0  0  0
  4  5  1  0  0  0  0
  4 17  1  0  0  0  0
  5  6  1  0  0  0  0
  5  7  1  0  0  0  0
  5 23  1  0  0  0  0
  6 24  1  0  0  0  0
  7  8  1  0  0  0  0
  7 25  1  0  0  0  0
  7 26  1  0  0  0  0
  8  9  1  0  0  0  0
  8 27  1  0  0  0  0
  9 10  2  0  0  0  0
  9 11  1  0  0  0  0
 11 12  1  0  0  0  0
 11 28  1  0  0  0  0
 11 29  1  0  0  0  0
 12 16  1  0  0  0  0
 12 13  1  0  0  0  0
 12 30  1  0  0  0  0
 13 14  1  0  0  0  0
 13 31  1  0  0  0  0
 13 32  1  0  0  0  0
 14 15  1  0  0  0  0
 14 33  1  0  0  0  0
 14 34  1  0  0  0  0
 15 16  1  0  0  0  0
 15 35  1  0  0  0  0
 15 36  1  0  0  0  0
 16 37  1  0  0  0  0
 16 38  1  0  0  0  0
 17 18  2  0  0  0  0
 17 39  1  0  0  0  0
M  END
> <s_m_source_file>
AV-unprocessed.smi

> <i_m_source_file_index>
715

> <i_lp_mmshare_version>
43012

> <i_f3d_flags>
0

> <s_epik_input>
W0NIM11uMVtjSF1jKFtjSF1uMSlbQ0BIXShbT0hdKVtDSDJdW05IXUMoPU8pW0NIMl1bQ0hdMltDSDJdW0NIMl1bQ0gyXVtDSDJdMg==

> <s_epik_cmdline>
J2VwaWtfcHl0aG9uJywgJy1waCcsICc3LjAnLCAnLXRuJywgJzgnLCAnLW1hJywgJzIwMCcsICctbWV0YWxfYmluZGluZycsICctaW1hZScsICc8aW5maWxlLm1hZT4nLCAnLW9tYWUnLCAnPG91dGZpbGUubWFlPic=

> <r_lp_tautomer_probability>
1

> <r_epik_Ionization_Penalty>
4.45533e-05

> <r_epik_Ionization_Penalty_Charging>
0

> <r_epik_Ionization_Penalty_Neutral>
4.45533e-05

> <r_epik_State_Penalty>
-0

> <r_epik_Charging_Adjusted_Penalty>
0

> <i_epik_Tot_Q>
0

> <i_epik_Tot_abs_Q>
0

> <r_epik_Metal_State_Penalty>
-0

> <b_epik_Metal_Only>
0

> <s_lp_Force_Field>
OPLS_2005

> <r_lp_Energy>
19.3798

> <b_lp_Chiralities_Consistent>
1

> <s_lp_Variant>
AV-unprocessed.smi:715-1

> <Gold.Version>
5.8.1

> <Gold.Id.Protein>
6NUR|6NUR_protein|mol2

> <Gold.PLP.Fitness>
38.8943

> <Gold.PLP.PLP>
-29.6036

> <Gold.PLP.part.hbond>
-2.7007

> <Gold.PLP.part.metal>
0.0000

> <Gold.PLP.part.buried>
-2.3400

> <Gold.PLP.part.nonpolar>
-25.2201

> <Gold.PLP.part.repulsive>
0.3019

> <Gold.PLP.ligand.clash>
0.0000

> <Gold.PLP.ligand.torsion>
0.6272

> <Gold.PLP.Chemscore.Hbond>
2.4920

> <Gold.PLP.Chemscore.CHOScore>
1.0000

> <Gold.PLP.Chemscore.Metal>
0.0000

> <Gold.Chemscore.Hbonds>
donor molecule, donor type, donor heavy atom, donor atom, acceptor molecule, acceptor atom, score
      L1  H     6    24       P1  7948  1.00
      L1  H     8    27       P1  7948  1.00
      P1  H  7954  7966       L1     6  0.45
      L1  C     3    22       P1  7921  1.00

> <Gold.PLP.Chemscore.Internal.Correction>
0.0690

> <Gold.Rescore>
     Score         DG    S(hbond)    S(metal)    S(lipo)     H(rot)  DE(clash)    DE(int)     intcor
     13.31     -14.25       1.96        0.00      69.11       2.29       0.23       0.71       ----

> <Gold.Chemscore.Fitness>
13.3071

> <Gold.Chemscore.DG>
-14.2499

> <Gold.Chemscore.ZeroCoef>
-5.4800

> <Gold.Chemscore.Hbond>
1.9576

> <Gold.Chemscore.Metal>
0.0000

> <Gold.Chemscore.Lipo>
69.1057

> <Gold.Chemscore.Internal_Hbond>
0.0000

> <Gold.Chemscore.DEClash>
0.2326

> <Gold.Chemscore.DEInternal>
0.7102

> <Gold.Chemscore.Rot>
2.2866

> <Gold.Chemscore.Internal.Correction>
   9.000000E+99

> <Gold.Chemscore.Hbonds>
donor molecule, donor type, donor heavy atom, donor atom, acceptor molecule, acceptor atom, score
      L1  H     6    24       P1  7948  0.91
      L1  H     8    27       P1  7948  0.95
      P1  H  7954  7966       L1     6  0.02

> <Gold.Chemscore.Hbond.Weighted>
-6.5383

> <Gold.Chemscore.Metal.Weighted>
-0.0000

> <Gold.Chemscore.Lipo.Weighted>
-8.0854

> <Gold.Chemscore.Internal_Hbond.Weighted>
0.0000

> <Gold.Chemscore.DEClash.Weighted>
0.2326

> <Gold.Chemscore.DEInternal.Weighted>
0.7102

> <Gold.Chemscore.Rot.Weighted>
5.8538

> <Gold.Chemscore.Internal.Correction.Weighted>
   9.000000E+99

> <Gold.Protein.RotatedTorsions>
[ 6907 6896 6895 6894 ] final  105.02 input  -60.11 | X-H torsion
[ 7974 7965 7964 7962 ] final -109.45 input  175.53 | X-H torsion
[ 8008 7997 7996 7995 ] final -144.91 input   59.86 | X-H torsion
[ 10167 10162 10161 10158 ] final  -47.49 input  -65.29 | X-H torsion
[ 10718 10713 10712 10709 ] final   62.64 input   66.30 | X-H torsion
[ 10763 10752 10751 10750 ] final  -11.07 input  -60.55 | X-H torsion
[ 11005 11000 10999 10996 ] final   87.81 input  -57.11 | X-H torsion

> <Gold.Protein.ActiveResidues>
 VAL166  LYS551  ARG553  GLY616  TRP617  ASP618  TYR619  PRO620  LYS621  CYS622 
 ASP623  PHE694  ASN695  SER759  ASP760  ASP761  ALA762  ILE779  LEU786  VAL792 
 PHE793  MET794  SER795  GLU796  ALA797  LYS798  CYS799  TRP800  GLU811  SER814 

> <Gold.Protein.RotatedAtoms>
  152.5245  133.9591  159.7708 H   0  0  0  0  0  0  0  0  0  0  0  0  # atno 6907 bound_to 6896
  150.9885  133.6165  159.2719 H   0  0  0  0  0  0  0  0  0  0  0  0  # atno 6908 bound_to 6896
  151.3317  135.0849  159.9394 H   0  0  0  0  0  0  0  0  0  0  0  0  # atno 6909 bound_to 6896
  145.1803  140.8968  143.3484 H   0  0  0  0  0  0  0  0  0  0  0  0  # atno 7974 bound_to 7965
  155.5346  140.0602  157.2882 H   0  0  0  0  0  0  0  0  0  0  0  0  # atno 8008 bound_to 7997
  154.4472  140.1930  156.0574 H   0  0  0  0  0  0  0  0  0  0  0  0  # atno 8009 bound_to 7997
  156.0628  140.3270  155.7485 H   0  0  0  0  0  0  0  0  0  0  0  0  # atno 8010 bound_to 7997
  140.6772  143.2782  151.3935 H   0  0  0  0  0  0  0  0  0  0  0  0  # atno 10167 bound_to 10162
  157.5915  130.9061  149.9613 H   0  0  0  0  0  0  0  0  0  0  0  0  # atno 10718 bound_to 10713
  153.4783  135.7017  153.5953 H   0  0  0  0  0  0  0  0  0  0  0  0  # atno 10763 bound_to 10752
  153.4177  135.3833  155.2091 H   0  0  0  0  0  0  0  0  0  0  0  0  # atno 10764 bound_to 10752
  154.8722  135.3920  154.4230 H   0  0  0  0  0  0  0  0  0  0  0  0  # atno 10765 bound_to 10752
  139.8911  134.8447  156.2912 H   0  0  0  0  0  0  0  0  0  0  0  0  # atno 11005 bound_to 11000
  145.0143  139.3482  143.6104 LP  0  0  0  0  0  0  0  0  0  0  0  0  # atno 17320 bound_to 7965
  146.3454  139.9418  142.8740 LP  0  0  0  0  0  0  0  0  0  0  0  0  # atno 17321 bound_to 7965
  139.6072  144.1172  152.2261 LP  0  0  0  0  0  0  0  0  0  0  0  0  # atno 17342 bound_to 10162
  140.0575  144.5883  150.7288 LP  0  0  0  0  0  0  0  0  0  0  0  0  # atno 17343 bound_to 10162
  156.0970  130.3658  150.0287 LP  0  0  0  0  0  0  0  0  0  0  0  0  # atno 17370 bound_to 10713
  156.8409  130.9425  151.3632 LP  0  0  0  0  0  0  0  0  0  0  0  0  # atno 17371 bound_to 10713
  140.9975  133.7171  156.0908 LP  0  0  0  0  0  0  0  0  0  0  0  0  # atno 17394 bound_to 11000
  140.7543  134.4010  157.5536 LP  0  0  0  0  0  0  0  0  0  0  0  0  # atno 17395 bound_to 11000

$$$$
