#       Name:                AV-unprocessed.smi:1019
#       Creating user name   scv26
#       Creation time:       Fri Mar 27 02:41:53 2020


#       File generated by GOLD software.
#

@<TRIPOS>MOLECULE
AV-unprocessed.smi:1019
    47    49     1
SMALL
NO_CHARGES


@<TRIPOS>ATOM
      1 ****        -1.7321   1.9991   0.0598 C.3            1 S1                 0.0000
      2 ****        -1.3480   0.8258   0.8446 N.3            1 S1                 0.0000
      3 ****        -1.9138   0.8908   2.1931 C.3            1 S1                 0.0000
      4 ****        -3.4314   0.8194   2.2318 C.ar           1 S1                 0.0000
      5 ****        -4.1013  -0.3139   1.7238 C.ar           1 S1                 0.0000
      6 ****        -5.5079  -0.3799   1.7598 C.ar           1 S1                 0.0000
      7 ****        -6.2495   0.6857   2.3060 C.ar           1 S1                 0.0000
      8 ****        -5.5842   1.8173   2.8160 C.ar           1 S1                 0.0000
      9 ****        -4.1777   1.8841   2.7800 C.ar           1 S1                 0.0000
     10 ****         0.1078   0.6706   0.9117 C.3            1 S1                 0.0000
     11 ****         0.8093   0.3028  -0.4126 C.3            1 S1                 0.0000
     12 ****         0.4359  -1.0131  -0.7742 O.3            1 S1                 0.0000
     13 ****         2.3420   0.3745  -0.2733 C.3            1 S1                 0.0000
     14 ****         3.0322   0.0311  -1.5043 N.pl3          1 S1                 0.0000
     15 ****         3.1953   0.8173  -2.5857 C.2            1 S1                 0.0000
     16 ****         3.8686   0.3090  -3.6137 N.2            1 S1                 0.0000
     17 ****         4.1790  -0.9563  -3.1455 C.ar           1 S1                 0.0000
     18 ****         4.8924  -2.0110  -3.7589 C.ar           1 S1                 0.0000
     19 ****         5.0891  -3.2309  -3.0789 C.ar           1 S1                 0.0000
     20 ****         4.5760  -3.4153  -1.7786 C.ar           1 S1                 0.0000
     21 ****         3.8621  -2.3789  -1.1467 C.ar           1 S1                 0.0000
     22 ****         3.6692  -1.1624  -1.8278 C.ar           1 S1                 0.0000
     23 ****        -1.3916   1.9205  -0.9713 H              1 S1                 0.0000
     24 ****        -1.3180   2.9127   0.4883 H              1 S1                 0.0000
     25 ****        -2.8159   2.1085   0.0183 H              1 S1                 0.0000
     26 ****        -1.5468   0.0523   2.7865 H              1 S1                 0.0000
     27 ****        -1.5738   1.7956   2.6994 H              1 S1                 0.0000
     28 ****        -3.5369  -1.1334   1.3030 H              1 S1                 0.0000
     29 ****        -6.0173  -1.2482   1.3685 H              1 S1                 0.0000
     30 ****        -7.3280   0.6352   2.3339 H              1 S1                 0.0000
     31 ****        -6.1523   2.6350   3.2348 H              1 S1                 0.0000
     32 ****        -3.6748   2.7561   3.1718 H              1 S1                 0.0000
     33 ****         0.5419   1.5928   1.3012 H              1 S1                 0.0000
     34 ****         0.3564  -0.1001   1.6431 H              1 S1                 0.0000
     35 ****         0.5097   0.9767  -1.2139 H              1 S1                 0.0000
     36 ****         0.6823  -1.5991  -0.0751 H              1 S1                 0.0000
     37 ****         2.6451   1.3824   0.0133 H              1 S1                 0.0000
     38 ****         2.6868  -0.2897   0.5202 H              1 S1                 0.0000
     39 ****         2.7961   1.8206  -2.6196 H              1 S1                 0.0000
     40 ****         5.2892  -1.8811  -4.7549 H              1 S1                 0.0000
     41 ****         5.6364  -4.0295  -3.5579 H              1 S1                 0.0000
     42 ****         4.7309  -4.3536  -1.2663 H              1 S1                 0.0000
     43 ****         3.4673  -2.5179  -0.1514 H              1 S1                 0.0000
     44 ****        -1.7209   0.0236   0.3783 LP             1 S1                 0.0000
     45 ****         0.9057  -1.2772  -1.6165 LP             1 S1                 0.0000
     46 ****        -0.5530  -1.0556  -0.9167 LP             1 S1                 0.0000
     47 ****         4.0918   0.7297  -4.4929 LP             1 S1                 0.0000
@<TRIPOS>BOND
    1    1    2 1     
    2    1   23 1     
    3    1   24 1     
    4    1   25 1     
    5    2    3 1     
    6    2   10 1     
    7    3    4 1     
    8    3   26 1     
    9    3   27 1     
   10    4    9 ar    
   11    4    5 ar    
   12    5    6 ar    
   13    5   28 1     
   14    6    7 ar    
   15    6   29 1     
   16    7    8 ar    
   17    7   30 1     
   18    8    9 ar    
   19    8   31 1     
   20    9   32 1     
   21   10   11 1     
   22   10   33 1     
   23   10   34 1     
   24   11   12 1     
   25   11   13 1     
   26   11   35 1     
   27   12   36 1     
   28   13   14 1     
   29   13   37 1     
   30   13   38 1     
   31   14   22 1     
   32   14   15 1     
   33   15   16 2     
   34   15   39 1     
   35   16   17 1     
   36   17   22 ar    
   37   17   18 ar    
   38   18   19 ar    
   39   18   40 1     
   40   19   20 ar    
   41   19   41 1     
   42   20   21 ar    
   43   20   42 1     
   44   21   22 ar    
   45   21   43 1     
   46    2   44 1     
   47   12   45 1     
   48   12   46 1     
   49   16   47 1     
@<TRIPOS>SUBSTRUCTURE
      1 S1             1
@<TRIPOS>SET
LONE_PAIRS      STATIC     ATOMS    <user>   **** ""
4 44 45 46 47
DONOR_HYDROGENS      STATIC     ATOMS    <user>   **** ""
1 36
ATOM$BLUE        STATIC     ATOMS    COLORGROUP SYSTEM
4 44 45 46 47
ATOM$RED        STATIC     ATOMS    COLORGROUP SYSTEM
1 36
