AV-unprocessed.smi:2789|AV-procd|sdf|10765|dock2
  -GOLD-   2272015203D 1   1.00000     0.00000
 Structure written by MMmdl.
 35 36  0  0  0  0  0  0  0  0  1 V2000
  149.8544  139.0862  154.5800 C   0  0  0  0  0  0  0  0  0  0  0  0
  148.5508  139.5240  154.2321 O   0  0  0  0  0  0  0  0  0  0  0  0
  148.3866  140.9339  154.2962 C   0  0  1  0  0  0  0  0  0  0  0  0
  147.1227  141.4014  153.5641 C   0  0  0  0  0  0  0  0  0  0  0  0
  146.6991  142.6603  154.3120 C   0  0  0  0  0  0  0  0  0  0  0  0
  146.9970  142.3367  155.7761 C   0  0  0  0  0  0  0  0  0  0  0  0
  148.2070  141.3839  155.7640 C   0  0  2  0  0  0  0  0  0  0  0  0
  149.3968  142.0655  156.2672 N   0  0  0  0  0  0  0  0  0  0  0  0
  150.1553  141.6282  157.2828 C   0  0  0  0  0  0  0  0  0  0  0  0
  149.9173  140.5960  157.9103 O   0  0  0  0  0  0  0  0  0  0  0  0
  151.1924  142.4541  157.5058 N   0  0  0  0  0  0  0  0  0  0  0  0
  152.1762  142.3475  158.4383 C   0  0  0  0  0  0  0  0  0  0  0  0
  152.4475  141.3092  159.2874 C   0  0  0  0  0  0  0  0  0  0  0  0
  153.5747  141.7908  160.0127 C   0  0  0  0  0  0  0  0  0  0  0  0
  153.9509  143.0083  159.6410 N   0  0  0  0  0  0  0  0  0  0  0  0
  153.0843  143.3587  158.6657 N   0  0  0  0  0  0  0  0  0  0  0  0
  153.2024  144.6513  158.0198 C   0  0  0  0  0  0  0  0  0  0  0  0
  149.8992  137.9986  154.5263 H   0  0  0  0  0  0  0  0  0  0  0  0
  150.1097  139.3816  155.5984 H   0  0  0  0  0  0  0  0  0  0  0  0
  150.6070  139.4856  153.8996 H   0  0  0  0  0  0  0  0  0  0  0  0
  149.2541  141.4372  153.8634 H   0  0  0  0  0  0  0  0  0  0  0  0
  147.2919  141.5803  152.5020 H   0  0  0  0  0  0  0  0  0  0  0  0
  146.3397  140.6470  153.6549 H   0  0  0  0  0  0  0  0  0  0  0  0
  147.3095  143.5042  153.9882 H   0  0  0  0  0  0  0  0  0  0  0  0
  145.6532  142.9185  154.1431 H   0  0  0  0  0  0  0  0  0  0  0  0
  147.1591  143.2377  156.3695 H   0  0  0  0  0  0  0  0  0  0  0  0
  146.1390  141.8204  156.2094 H   0  0  0  0  0  0  0  0  0  0  0  0
  147.9821  140.5292  156.4052 H   0  0  0  0  0  0  0  0  0  0  0  0
  149.6617  142.9224  155.8042 H   0  0  0  0  0  0  0  0  0  0  0  0
  151.2656  143.2520  156.8920 H   0  0  0  0  0  0  0  0  0  0  0  0
  151.9400  140.3618  159.3906 H   0  0  0  0  0  0  0  0  0  0  0  0
  154.1281  141.2951  160.7966 H   0  0  0  0  0  0  0  0  0  0  0  0
  153.3885  144.5119  156.9548 H   0  0  0  0  0  0  0  0  0  0  0  0
  154.0256  145.2232  158.4503 H   0  0  0  0  0  0  0  0  0  0  0  0
  152.2765  145.2117  158.1507 H   0  0  0  0  0  0  0  0  0  0  0  0
  1  2  1  0  0  0  0
  1 18  1  0  0  0  0
  1 19  1  0  0  0  0
  1 20  1  0  0  0  0
  2  3  1  0  0  0  0
  3  7  1  0  0  0  0
  3  4  1  0  0  0  0
  3 21  1  0  0  0  0
  4  5  1  0  0  0  0
  4 22  1  0  0  0  0
  4 23  1  0  0  0  0
  5  6  1  0  0  0  0
  5 24  1  0  0  0  0
  5 25  1  0  0  0  0
  6  7  1  0  0  0  0
  6 26  1  0  0  0  0
  6 27  1  0  0  0  0
  7  8  1  0  0  0  0
  7 28  1  0  0  0  0
  8  9  1  0  0  0  0
  8 29  1  0  0  0  0
  9 10  2  0  0  0  0
  9 11  1  0  0  0  0
 11 12  1  0  0  0  0
 11 30  1  0  0  0  0
 12 16  1  0  0  0  0
 12 13  2  0  0  0  0
 13 14  1  0  0  0  0
 13 31  1  0  0  0  0
 14 15  2  0  0  0  0
 14 32  1  0  0  0  0
 15 16  1  0  0  0  0
 16 17  1  0  0  0  0
 17 33  1  0  0  0  0
 17 34  1  0  0  0  0
 17 35  1  0  0  0  0
M  END
> <s_m_source_file>
AV-unprocessed.smi

> <i_m_source_file_index>
2789

> <i_lp_mmshare_version>
43012

> <i_f3d_flags>
0

> <s_epik_input>
W0NIM11PW0NAQEhdMVtDSDJdW0NIMl1bQ0gyXVtDQEhdMVtOSF1DKD1PKVtOSF1jMltjSF1bY0hdbm4yW0NIM10=

> <s_epik_cmdline>
J2VwaWtfcHl0aG9uJywgJy1waCcsICc3LjAnLCAnLXRuJywgJzgnLCAnLW1hJywgJzIwMCcsICctbWV0YWxfYmluZGluZycsICctaW1hZScsICc8aW5maWxlLm1hZT4nLCAnLW9tYWUnLCAnPG91dGZpbGUubWFlPic=

> <r_lp_tautomer_probability>
1

> <r_epik_Ionization_Penalty>
4.40608e-05

> <r_epik_Ionization_Penalty_Charging>
0

> <r_epik_Ionization_Penalty_Neutral>
4.40608e-05

> <r_epik_State_Penalty>
-0

> <r_epik_Charging_Adjusted_Penalty>
0

> <i_epik_Tot_Q>
0

> <i_epik_Tot_abs_Q>
0

> <r_epik_Metal_State_Penalty>
-0

> <b_epik_Metal_Only>
0

> <s_lp_Force_Field>
OPLS_2005

> <r_lp_Energy>
20.286

> <b_lp_Chiralities_Consistent>
1

> <s_lp_Variant>
AV-unprocessed.smi:2789-4

> <Gold.Version>
5.8.1

> <Gold.Id.Protein>
6NUR|6NUR_protein|mol2

> <Gold.PLP.Fitness>
38.5397

> <Gold.PLP.PLP>
-35.8693

> <Gold.PLP.part.hbond>
-1.0000

> <Gold.PLP.part.metal>
0.0000

> <Gold.PLP.part.buried>
-6.2165

> <Gold.PLP.part.nonpolar>
-29.4831

> <Gold.PLP.part.repulsive>
0.9717

> <Gold.PLP.ligand.clash>
0.0000

> <Gold.PLP.ligand.torsion>
0.1680

> <Gold.PLP.Chemscore.Hbond>
1.0000

> <Gold.PLP.Chemscore.CHOScore>
0.0000

> <Gold.PLP.Chemscore.Metal>
0.0000

> <Gold.Chemscore.Hbonds>
donor molecule, donor type, donor heavy atom, donor atom, acceptor molecule, acceptor atom, score
      L1  H     8    29       P1  8028  0.70

> <Gold.PLP.Chemscore.Internal.Correction>
0.0065

> <Gold.Rescore>
     Score         DG    S(hbond)    S(metal)    S(lipo)     H(rot)  DE(clash)    DE(int)     intcor
     12.29     -13.54       1.00        0.00      68.14       1.27       0.01       1.24       ----

> <Gold.Chemscore.Fitness>
12.2869

> <Gold.Chemscore.DG>
-13.5377

> <Gold.Chemscore.ZeroCoef>
-5.4800

> <Gold.Chemscore.Hbond>
1.0000

> <Gold.Chemscore.Metal>
0.0000

> <Gold.Chemscore.Lipo>
68.1383

> <Gold.Chemscore.Internal_Hbond>
0.0000

> <Gold.Chemscore.DEClash>
0.0067

> <Gold.Chemscore.DEInternal>
1.2441

> <Gold.Chemscore.Rot>
1.2712

> <Gold.Chemscore.Internal.Correction>
   9.000000E+99

> <Gold.Chemscore.Hbonds>
donor molecule, donor type, donor heavy atom, donor atom, acceptor molecule, acceptor atom, score
      L1  H     8    29       P1  8028  0.69

> <Gold.Chemscore.Hbond.Weighted>
-3.3399

> <Gold.Chemscore.Metal.Weighted>
-0.0000

> <Gold.Chemscore.Lipo.Weighted>
-7.9722

> <Gold.Chemscore.Internal_Hbond.Weighted>
0.0000

> <Gold.Chemscore.DEClash.Weighted>
0.0067

> <Gold.Chemscore.DEInternal.Weighted>
1.2441

> <Gold.Chemscore.Rot.Weighted>
3.2544

> <Gold.Chemscore.Internal.Correction.Weighted>
   9.000000E+99

> <Gold.Protein.RotatedTorsions>
[ 6907 6896 6895 6894 ] final  139.93 input  -60.11 | X-H torsion
[ 7974 7965 7964 7962 ] final  102.91 input  175.53 | X-H torsion
[ 8008 7997 7996 7995 ] final   35.63 input   59.86 | X-H torsion
[ 10167 10162 10161 10158 ] final  -79.00 input  -65.29 | X-H torsion
[ 10718 10713 10712 10709 ] final   27.41 input   66.30 | X-H torsion
[ 10763 10752 10751 10750 ] final  -92.01 input  -60.55 | X-H torsion
[ 11005 11000 10999 10996 ] final -110.77 input  -57.11 | X-H torsion

> <Gold.Protein.ActiveResidues>
 VAL166  LYS551  ARG553  GLY616  TRP617  ASP618  TYR619  PRO620  LYS621  CYS622 
 ASP623  PHE694  ASN695  SER759  ASP760  ASP761  ALA762  ILE779  LEU786  VAL792 
 PHE793  MET794  SER795  GLU796  ALA797  LYS798  CYS799  TRP800  GLU811  SER814 

> <Gold.Protein.RotatedAtoms>
  152.2491  133.5200  159.5314 H   0  0  0  0  0  0  0  0  0  0  0  0  # atno 6907 bound_to 6896
  150.7088  134.0984  159.3966 H   0  0  0  0  0  0  0  0  0  0  0  0  # atno 6908 bound_to 6896
  151.8904  135.0418  160.0548 H   0  0  0  0  0  0  0  0  0  0  0  0  # atno 6909 bound_to 6896
  145.3528  139.2435  143.3548 H   0  0  0  0  0  0  0  0  0  0  0  0  # atno 7974 bound_to 7965
  155.1743  140.3294  155.4387 H   0  0  0  0  0  0  0  0  0  0  0  0  # atno 8008 bound_to 7997
  156.2499  140.1938  156.6795 H   0  0  0  0  0  0  0  0  0  0  0  0  # atno 8009 bound_to 7997
  154.6316  140.0582  156.9724 H   0  0  0  0  0  0  0  0  0  0  0  0  # atno 8010 bound_to 7997
  140.4632  143.2447  151.8317 H   0  0  0  0  0  0  0  0  0  0  0  0  # atno 10167 bound_to 10162
  157.2199  130.6974  149.6265 H   0  0  0  0  0  0  0  0  0  0  0  0  # atno 10718 bound_to 10713
  154.6818  135.5247  153.8273 H   0  0  0  0  0  0  0  0  0  0  0  0  # atno 10763 bound_to 10752
  153.0570  135.6554  154.0563 H   0  0  0  0  0  0  0  0  0  0  0  0  # atno 10764 bound_to 10752
  154.0450  135.2974  155.3329 H   0  0  0  0  0  0  0  0  0  0  0  0  # atno 10765 bound_to 10752
  141.0772  133.9280  157.2364 H   0  0  0  0  0  0  0  0  0  0  0  0  # atno 11005 bound_to 11000
  146.2960  140.4148  142.8721 LP  0  0  0  0  0  0  0  0  0  0  0  0  # atno 17320 bound_to 7965
  144.8704  140.7265  143.6050 LP  0  0  0  0  0  0  0  0  0  0  0  0  # atno 17321 bound_to 7965
  139.4809  144.4982  151.9096 LP  0  0  0  0  0  0  0  0  0  0  0  0  # atno 17342 bound_to 10162
  140.4067  144.2422  150.5890 LP  0  0  0  0  0  0  0  0  0  0  0  0  # atno 17343 bound_to 10162
  155.9683  130.4523  150.5770 LP  0  0  0  0  0  0  0  0  0  0  0  0  # atno 17370 bound_to 10713
  157.3587  131.0746  151.1654 LP  0  0  0  0  0  0  0  0  0  0  0  0  # atno 17371 bound_to 10713
  139.9585  135.0160  156.9195 LP  0  0  0  0  0  0  0  0  0  0  0  0  # atno 17394 bound_to 11000
  140.5546  134.0593  155.7380 LP  0  0  0  0  0  0  0  0  0  0  0  0  # atno 17395 bound_to 11000

$$$$
