AV-unprocessed.smi:48|AV-procd|sdf|461|dock1
  -GOLD-   2262016333D 1   1.00000     0.00000
 Structure written by MMmdl.
 30 32  0  0  0  0  0  0  0  0  1 V2000
  150.4755  136.7603  154.5357 O   0  0  0  0  0  0  0  0  0  0  0  0
  151.0700  137.9961  154.2002 C   0  0  0  0  0  0  0  0  0  0  0  0
  150.6695  139.0684  155.2284 C   0  0  1  0  0  0  0  0  0  0  0  0
  151.3972  140.2763  155.0303 O   0  0  0  0  0  0  0  0  0  0  0  0
  150.7569  141.3213  155.7001 C   0  0  2  0  0  0  0  0  0  0  0  0
  151.4139  141.4989  157.0344 N   0  0  0  0  0  0  0  0  0  0  0  0
  152.3189  140.7141  157.6590 C   0  0  0  0  0  0  0  0  0  0  0  0
  152.7591  141.1158  158.8514 N   0  0  0  0  0  0  0  0  0  0  0  0
  152.0702  142.3064  159.0143 C   0  0  0  0  0  0  0  0  0  0  0  0
  152.0496  143.2732  160.0489 C   0  0  0  0  0  0  0  0  0  0  0  0
  153.0165  143.0812  161.4652 Cl  0  0  0  0  0  0  0  0  0  0  0  0
  151.2511  144.3577  159.9016 N   0  0  0  0  0  0  0  0  0  0  0  0
  150.5123  144.4833  158.7919 C   0  0  0  0  0  0  0  0  0  0  0  0
  150.4270  143.6597  157.7404 N   0  0  0  0  0  0  0  0  0  0  0  0
  151.2326  142.5674  157.8939 C   0  0  0  0  0  0  0  0  0  0  0  0
  149.2887  140.8951  155.8907 C   0  0  1  0  0  0  0  0  0  0  0  0
  148.3616  141.8451  155.4008 O   0  0  0  0  0  0  0  0  0  0  0  0
  149.2202  139.5614  155.1465 C   0  0  1  0  0  0  0  0  0  0  0  0
  148.8220  139.7108  153.7932 O   0  0  0  0  0  0  0  0  0  0  0  0
  150.8489  138.7006  156.2406 H   0  0  0  0  0  0  0  0  0  0  0  0
  150.9006  142.2732  155.1871 H   0  0  0  0  0  0  0  0  0  0  0  0
  149.0925  140.7249  156.9507 H   0  0  0  0  0  0  0  0  0  0  0  0
  148.5296  138.8688  155.6287 H   0  0  0  0  0  0  0  0  0  0  0  0
  149.8977  136.5052  153.8327 H   0  0  0  0  0  0  0  0  0  0  0  0
  152.1534  137.8889  154.1359 H   0  0  0  0  0  0  0  0  0  0  0  0
  150.7099  138.2731  153.2090 H   0  0  0  0  0  0  0  0  0  0  0  0
  152.6768  139.7944  157.2195 H   0  0  0  0  0  0  0  0  0  0  0  0
  149.9011  145.3723  158.7377 H   0  0  0  0  0  0  0  0  0  0  0  0
  148.6636  142.7081  155.6412 H   0  0  0  0  0  0  0  0  0  0  0  0
  149.6000  139.7339  153.2566 H   0  0  0  0  0  0  0  0  0  0  0  0
  1  2  1  0  0  0  0
  1 24  1  0  0  0  0
  2  3  1  0  0  0  0
  2 25  1  0  0  0  0
  2 26  1  0  0  0  0
  3 20  1  0  0  0  0
  3 18  1  0  0  0  0
  3  4  1  0  0  0  0
  4  5  1  0  0  0  0
  5 21  1  0  0  0  0
  5  6  1  0  0  0  0
  5 16  1  0  0  0  0
  6 15  1  0  0  0  0
  6  7  1  0  0  0  0
  7  8  2  0  0  0  0
  7 27  1  0  0  0  0
  8  9  1  0  0  0  0
  9 15  2  0  0  0  0
  9 10  1  0  0  0  0
 10 11  1  0  0  0  0
 10 12  2  0  0  0  0
 12 13  1  0  0  0  0
 13 14  2  0  0  0  0
 13 28  1  0  0  0  0
 14 15  1  0  0  0  0
 16 22  1  0  0  0  0
 16 17  1  0  0  0  0
 16 18  1  0  0  0  0
 17 29  1  0  0  0  0
 18 23  1  0  0  0  0
 18 19  1  0  0  0  0
 19 30  1  0  0  0  0
M  END
> <s_m_source_file>
AV-unprocessed.smi

> <i_m_source_file_index>
48

> <i_lp_mmshare_version>
43012

> <i_f3d_flags>
0

> <s_epik_input>
W09IXVtDSDJdW0NASF0xT1tDQEhdKFtDQEhdKFtPSF0pW0NAQEhdMVtPSF0pbihbY0hdbjIpYyhjMjMpbltjSF1uYzNDbA==

> <s_epik_cmdline>
J2VwaWtfcHl0aG9uJywgJy1waCcsICc3LjAnLCAnLXRuJywgJzgnLCAnLW1hJywgJzIwMCcsICctbWV0YWxfYmluZGluZycsICctaW1hZScsICc8aW5maWxlLm1hZT4nLCAnLW9tYWUnLCAnPG91dGZpbGUubWFlPic=

> <r_lp_tautomer_probability>
1

> <r_epik_Ionization_Penalty>
3.45505e-06

> <r_epik_Ionization_Penalty_Charging>
0

> <r_epik_Ionization_Penalty_Neutral>
3.45505e-06

> <r_epik_State_Penalty>
-0

> <r_epik_Charging_Adjusted_Penalty>
0

> <i_epik_Tot_Q>
0

> <i_epik_Tot_abs_Q>
0

> <r_epik_Metal_State_Penalty>
-0

> <b_epik_Metal_Only>
0

> <s_epik_Chemistry_Notes>
This compound contains an acetal/aminal-like group ( X-CH(R)-Y where X, Y are N, S, or O) that may be acid/base labile, releasing an aldehyde.

> <s_lp_Force_Field>
OPLS_2005

> <r_lp_Energy>
38.2719

> <b_lp_Chiralities_Consistent>
1

> <s_lp_Variant>
AV-unprocessed.smi:48-15

> <Gold.Version>
5.8.1

> <Gold.Id.Protein>
6NUR|6NUR_protein|mol2

> <Gold.PLP.Fitness>
45.6141

> <Gold.PLP.PLP>
-32.9402

> <Gold.PLP.part.hbond>
-4.7038

> <Gold.PLP.part.metal>
0.0000

> <Gold.PLP.part.buried>
-6.7705

> <Gold.PLP.part.nonpolar>
-23.3460

> <Gold.PLP.part.repulsive>
2.4030

> <Gold.PLP.ligand.clash>
0.0000

> <Gold.PLP.ligand.torsion>
0.3519

> <Gold.PLP.Chemscore.Hbond>
3.4758

> <Gold.PLP.Chemscore.CHOScore>
0.9759

> <Gold.PLP.Chemscore.Metal>
0.0000

> <Gold.Chemscore.Hbonds>
donor molecule, donor type, donor heavy atom, donor atom, acceptor molecule, acceptor atom, score
      L1  H     1    24       P1  7948  0.67
      L1  H    17    29       P1  8028  1.00
      L1  H    19    30       P1  7957  0.39
      P1  H  7989  7998       L1     4  1.00
      L1  C    13    28       P1  8029  0.99

> <Gold.PLP.Chemscore.Internal.Correction>
0.0227

> <Gold.Rescore>
     Score         DG    S(hbond)    S(metal)    S(lipo)     H(rot)  DE(clash)    DE(int)     intcor
     13.18     -13.73       3.39        0.00      56.89       3.80       0.07       0.48       ----

> <Gold.Chemscore.Fitness>
13.1765

> <Gold.Chemscore.DG>
-13.7308

> <Gold.Chemscore.ZeroCoef>
-5.4800

> <Gold.Chemscore.Hbond>
3.3914

> <Gold.Chemscore.Metal>
0.0000

> <Gold.Chemscore.Lipo>
56.8887

> <Gold.Chemscore.Internal_Hbond>
0.0000

> <Gold.Chemscore.DEClash>
0.0717

> <Gold.Chemscore.DEInternal>
0.4826

> <Gold.Chemscore.Rot>
3.8017

> <Gold.Chemscore.Internal.Correction>
   9.000000E+99

> <Gold.Chemscore.Hbonds>
donor molecule, donor type, donor heavy atom, donor atom, acceptor molecule, acceptor atom, score
      L1  H     1    24       P1  7948  0.23
      L1  H    17    29       P1  8028  0.94
      L1  H    19    30       P1  7957  0.38
      P1  H  7989  7998       L1     4  0.42

> <Gold.Chemscore.Hbond.Weighted>
-11.3272

> <Gold.Chemscore.Metal.Weighted>
-0.0000

> <Gold.Chemscore.Lipo.Weighted>
-6.6560

> <Gold.Chemscore.Internal_Hbond.Weighted>
0.0000

> <Gold.Chemscore.DEClash.Weighted>
0.0717

> <Gold.Chemscore.DEInternal.Weighted>
0.4826

> <Gold.Chemscore.Rot.Weighted>
9.7324

> <Gold.Chemscore.Internal.Correction.Weighted>
   9.000000E+99

> <Gold.Protein.RotatedTorsions>
[ 6907 6896 6895 6894 ] final  179.45 input  -60.11 | X-H torsion
[ 7974 7965 7964 7962 ] final -139.72 input  175.53 | X-H torsion
[ 8008 7997 7996 7995 ] final   23.77 input   59.86 | X-H torsion
[ 10167 10162 10161 10158 ] final  -35.48 input  -65.29 | X-H torsion
[ 10718 10713 10712 10709 ] final   87.77 input   66.30 | X-H torsion
[ 10763 10752 10751 10750 ] final  151.73 input  -60.55 | X-H torsion
[ 11005 11000 10999 10996 ] final -122.92 input  -57.11 | X-H torsion

> <Gold.Protein.ActiveResidues>
 VAL166  LYS551  ARG553  GLY616  TRP617  ASP618  TYR619  PRO620  LYS621  CYS622 
 ASP623  PHE694  ASN695  SER759  ASP760  ASP761  ALA762  ILE779  LEU786  VAL792 
 PHE793  MET794  SER795  GLU796  ALA797  LYS798  CYS799  TRP800  GLU811  SER814 

> <Gold.Protein.RotatedAtoms>
  151.6714  133.3314  159.3197 H   0  0  0  0  0  0  0  0  0  0  0  0  # atno 6907 bound_to 6896
  150.7866  134.6859  159.6479 H   0  0  0  0  0  0  0  0  0  0  0  0  # atno 6908 bound_to 6896
  152.3937  134.6404  160.0150 H   0  0  0  0  0  0  0  0  0  0  0  0  # atno 6909 bound_to 6896
  144.8654  140.6286  143.5301 H   0  0  0  0  0  0  0  0  0  0  0  0  # atno 7974 bound_to 7965
  154.9861  140.3108  155.4926 H   0  0  0  0  0  0  0  0  0  0  0  0  # atno 8008 bound_to 7997
  156.2946  140.2257  156.4903 H   0  0  0  0  0  0  0  0  0  0  0  0  # atno 8009 bound_to 7997
  154.7745  140.0450  157.1066 H   0  0  0  0  0  0  0  0  0  0  0  0  # atno 8010 bound_to 7997
  140.7164  143.3474  151.2227 H   0  0  0  0  0  0  0  0  0  0  0  0  # atno 10167 bound_to 10162
  157.6943  131.0268  150.3174 H   0  0  0  0  0  0  0  0  0  0  0  0  # atno 10718 bound_to 10713
  154.1085  135.2841  155.3236 H   0  0  0  0  0  0  0  0  0  0  0  0  # atno 10763 bound_to 10752
  154.6506  135.5370  153.7901 H   0  0  0  0  0  0  0  0  0  0  0  0  # atno 10764 bound_to 10752
  153.0354  135.6509  154.1245 H   0  0  0  0  0  0  0  0  0  0  0  0  # atno 10765 bound_to 10752
  140.9959  134.0473  157.3598 H   0  0  0  0  0  0  0  0  0  0  0  0  # atno 11005 bound_to 11000
  145.4231  139.1561  143.4063 LP  0  0  0  0  0  0  0  0  0  0  0  0  # atno 17320 bound_to 7965
  146.2892  140.4342  142.8746 LP  0  0  0  0  0  0  0  0  0  0  0  0  # atno 17321 bound_to 7965
  139.6997  143.9553  152.2899 LP  0  0  0  0  0  0  0  0  0  0  0  0  # atno 17342 bound_to 10162
  139.9242  144.6781  150.8429 LP  0  0  0  0  0  0  0  0  0  0  0  0  # atno 17343 bound_to 10162
  156.3666  130.3856  149.7208 LP  0  0  0  0  0  0  0  0  0  0  0  0  # atno 17370 bound_to 10713
  156.4637  130.7964  151.2983 LP  0  0  0  0  0  0  0  0  0  0  0  0  # atno 17371 bound_to 10713
  139.9014  135.0166  156.7287 LP  0  0  0  0  0  0  0  0  0  0  0  0  # atno 17394 bound_to 11000
  140.6967  133.9342  155.7999 LP  0  0  0  0  0  0  0  0  0  0  0  0  # atno 17395 bound_to 11000

$$$$
