#       Name:                AV-unprocessed.smi:3277
#       Creating user name   scv26
#       Creation time:       Fri Mar 27 18:45:35 2020


#       File generated by GOLD software.
#

@<TRIPOS>MOLECULE
AV-unprocessed.smi:3277
    38    40     1
SMALL
NO_CHARGES


@<TRIPOS>ATOM
      1 ****        -4.8343  -1.4666  -2.7671 C.3            1 S1                 0.0000
      2 ****        -3.6067  -2.0924  -2.3001 N.am           1 S1                 0.0000
      3 ****        -2.3818  -1.5745  -2.4743 C.2            1 S1                 0.0000
      4 ****        -2.1739  -0.5135  -3.0628 O.2            1 S1                 0.0000
      5 ****        -1.2120  -2.3727  -1.8960 C.3            1 S1                 0.0000
      6 ****        -0.9299  -1.8467  -0.5255 C.2            1 S1                 0.0000
      7 ****         0.0222  -0.9479  -0.2622 N.2            1 S1                 0.0000
      8 ****         0.0891  -0.6041   1.0928 C.2            1 S1                 0.0000
      9 ****         1.0942   0.4027   1.5876 C.3            1 S1                 0.0000
     10 ****         2.5718   0.0166   1.3616 C.3            1 S1                 0.0000
     11 ****         3.1583   1.2947   0.7304 C.3            1 S1                 0.0000
     12 ****         3.1613   2.4392   1.7637 C.3            1 S1                 0.0000
     13 ****         1.6703   2.8239   1.8562 C.3            1 S1                 0.0000
     14 ****         1.0010   1.7967   0.9227 C.3            1 S1                 0.0000
     15 ****         2.0318   1.7202  -0.2024 C.3            1 S1                 0.0000
     16 ****        -0.8309  -1.2758   1.8597 C.2            1 S1                 0.0000
     17 ****        -1.8123  -2.3570   0.9095 S.3            1 S1                 0.0000
     18 ****        -5.6902  -2.0914  -2.5122 H              1 S1                 0.0000
     19 ****        -4.8172  -1.3358  -3.8499 H              1 S1                 0.0000
     20 ****        -4.9741  -0.4907  -2.3004 H              1 S1                 0.0000
     21 ****        -3.6931  -2.9689  -1.8061 H              1 S1                 0.0000
     22 ****        -1.4512  -3.4355  -1.8410 H              1 S1                 0.0000
     23 ****        -0.3290  -2.2625  -2.5274 H              1 S1                 0.0000
     24 ****         0.9339   0.5227   2.6604 H              1 S1                 0.0000
     25 ****         3.0755  -0.2708   2.2853 H              1 S1                 0.0000
     26 ****         2.6646  -0.8158   0.6624 H              1 S1                 0.0000
     27 ****         4.1224   1.1385   0.2459 H              1 S1                 0.0000
     28 ****         3.5688   2.1221   2.7244 H              1 S1                 0.0000
     29 ****         3.7536   3.2842   1.4105 H              1 S1                 0.0000
     30 ****         1.2887   2.7815   2.8770 H              1 S1                 0.0000
     31 ****         1.5133   3.8382   1.4869 H              1 S1                 0.0000
     32 ****        -0.0075   2.0841   0.6224 H              1 S1                 0.0000
     33 ****         2.2129   2.6798  -0.6898 H              1 S1                 0.0000
     34 ****         1.7992   0.9769  -0.9656 H              1 S1                 0.0000
     35 ****        -0.9896  -1.2000   2.9251 H              1 S1                 0.0000
     36 ****        -2.9397   0.0078  -3.4394 LP             1 S1                 0.0000
     37 ****        -1.2392  -0.1729  -3.1644 LP             1 S1                 0.0000
     38 ****         0.6245  -0.5609  -0.9605 LP             1 S1                 0.0000
@<TRIPOS>BOND
    1    1    2 1     
    2    1   18 1     
    3    1   19 1     
    4    1   20 1     
    5    2    3 am    
    6    2   21 1     
    7    3    4 2     
    8    3    5 1     
    9    5    6 1     
   10    5   22 1     
   11    5   23 1     
   12    6   17 1     
   13    6    7 2     
   14    7    8 1     
   15    8    9 1     
   16    8   16 2     
   17    9   14 1     
   18    9   10 1     
   19    9   24 1     
   20   10   11 1     
   21   10   25 1     
   22   10   26 1     
   23   11   15 1     
   24   11   12 1     
   25   11   27 1     
   26   12   13 1     
   27   12   28 1     
   28   12   29 1     
   29   13   14 1     
   30   13   30 1     
   31   13   31 1     
   32   14   15 1     
   33   14   32 1     
   34   15   33 1     
   35   15   34 1     
   36   16   17 1     
   37   16   35 1     
   38    4   36 1     
   39    4   37 1     
   40    7   38 1     
@<TRIPOS>SUBSTRUCTURE
      1 S1             1
@<TRIPOS>SET
LONE_PAIRS      STATIC     ATOMS    <user>   **** ""
3 36 37 38
DONOR_HYDROGENS      STATIC     ATOMS    <user>   **** ""
1 21
ATOM$BLUE        STATIC     ATOMS    COLORGROUP SYSTEM
3 36 37 38
ATOM$RED        STATIC     ATOMS    COLORGROUP SYSTEM
1 21
