AV-unprocessed.smi:3229|AV-procd|sdf|12328|dock8
  -GOLD-   2272018183D 1   1.00000     0.00000
 Structure written by MMmdl.
 35 36  0  0  0  0  0  0  0  0  1 V2000
  151.3050  145.6294  159.9776 C   0  0  0  0  0  0  0  0  0  0  0  0
  151.2587  144.7939  158.6935 C   0  0  0  0  0  0  0  0  0  0  0  0
  151.8798  143.4445  158.8459 C   0  0  0  0  0  0  0  0  0  0  0  0
  151.7324  142.3562  158.0215 C   0  0  0  0  0  0  0  0  0  0  0  0
  152.4465  141.2306  158.4382 N   0  0  0  0  0  0  0  0  0  0  0  0
  153.1403  141.4524  159.5578 C   0  0  0  0  0  0  0  0  0  0  0  0
  153.9669  140.4115  160.2420 C   0  0  0  0  0  0  0  0  0  0  0  0
  153.3179  139.0176  160.2535 C   0  0  0  0  0  0  0  0  0  0  0  0
  153.8397  138.1895  161.3335 N   0  0  0  0  0  0  0  0  0  0  0  0
  153.9690  136.8568  161.2754 C   0  0  0  0  0  0  0  0  0  0  0  0
  153.6592  136.1931  160.2854 O   0  0  0  0  0  0  0  0  0  0  0  0
  154.5468  136.1781  162.5217 C   0  0  1  0  0  0  0  0  0  0  0  0
  153.6686  136.2898  163.7718 C   0  0  0  0  0  0  0  0  0  0  0  0
  154.0890  135.0599  164.5443 C   0  0  0  0  0  0  0  0  0  0  0  0
  154.2895  134.0369  163.4299 C   0  0  0  0  0  0  0  0  0  0  0  0
  154.6694  134.7797  162.2741 O   0  0  0  0  0  0  0  0  0  0  0  0
  152.9317  143.0809  160.1901 S   0  0  0  0  0  0  0  0  0  0  0  0
  150.8355  146.6014  159.8258 H   0  0  0  0  0  0  0  0  0  0  0  0
  152.3323  145.8031  160.2997 H   0  0  0  0  0  0  0  0  0  0  0  0
  150.7789  145.1286  160.7910 H   0  0  0  0  0  0  0  0  0  0  0  0
  150.2218  144.6836  158.3742 H   0  0  0  0  0  0  0  0  0  0  0  0
  151.7641  145.3347  157.8929 H   0  0  0  0  0  0  0  0  0  0  0  0
  151.1386  142.2950  157.1214 H   0  0  0  0  0  0  0  0  0  0  0  0
  154.9414  140.3626  159.7543 H   0  0  0  0  0  0  0  0  0  0  0  0
  154.1535  140.7366  161.2657 H   0  0  0  0  0  0  0  0  0  0  0  0
  152.2365  139.1146  160.3604 H   0  0  0  0  0  0  0  0  0  0  0  0
  153.5019  138.5188  159.3006 H   0  0  0  0  0  0  0  0  0  0  0  0
  154.1301  138.6629  162.1772 H   0  0  0  0  0  0  0  0  0  0  0  0
  155.5424  136.5673  162.7425 H   0  0  0  0  0  0  0  0  0  0  0  0
  153.8431  137.2115  164.3277 H   0  0  0  0  0  0  0  0  0  0  0  0
  152.6056  136.2306  163.5325 H   0  0  0  0  0  0  0  0  0  0  0  0
  155.0336  135.2467  165.0570 H   0  0  0  0  0  0  0  0  0  0  0  0
  153.3540  134.7455  165.2856 H   0  0  0  0  0  0  0  0  0  0  0  0
  155.0384  133.2869  163.6851 H   0  0  0  0  0  0  0  0  0  0  0  0
  153.3532  133.5208  163.2148 H   0  0  0  0  0  0  0  0  0  0  0  0
  1  2  1  0  0  0  0
  1 18  1  0  0  0  0
  1 19  1  0  0  0  0
  1 20  1  0  0  0  0
  2  3  1  0  0  0  0
  2 21  1  0  0  0  0
  2 22  1  0  0  0  0
  3 17  1  0  0  0  0
  3  4  2  0  0  0  0
  4  5  1  0  0  0  0
  4 23  1  0  0  0  0
  5  6  2  0  0  0  0
  6  7  1  0  0  0  0
  6 17  1  0  0  0  0
  7  8  1  0  0  0  0
  7 24  1  0  0  0  0
  7 25  1  0  0  0  0
  8  9  1  0  0  0  0
  8 26  1  0  0  0  0
  8 27  1  0  0  0  0
  9 10  1  0  0  0  0
  9 28  1  0  0  0  0
 10 11  2  0  0  0  0
 10 12  1  0  0  0  0
 12 16  1  0  0  0  0
 12 13  1  0  0  0  0
 12 29  1  0  0  0  0
 13 14  1  0  0  0  0
 13 30  1  0  0  0  0
 13 31  1  0  0  0  0
 14 15  1  0  0  0  0
 14 32  1  0  0  0  0
 14 33  1  0  0  0  0
 15 16  1  0  0  0  0
 15 34  1  0  0  0  0
 15 35  1  0  0  0  0
M  END
> <s_m_source_file>
AV-unprocessed.smi

> <i_m_source_file_index>
3229

> <i_lp_mmshare_version>
43012

> <i_f3d_flags>
0

> <s_epik_input>
W0NIM11bQ0gyXWMxW2NIXW5jKHMxKVtDSDJdW0NIMl1bTkhdQyg9TylbQ0BASF0yW0NIMl1bQ0gyXVtDSDJdTzI=

> <s_epik_cmdline>
J2VwaWtfcHl0aG9uJywgJy1waCcsICc3LjAnLCAnLXRuJywgJzgnLCAnLW1hJywgJzIwMCcsICctbWV0YWxfYmluZGluZycsICctaW1hZScsICc8aW5maWxlLm1hZT4nLCAnLW9tYWUnLCAnPG91dGZpbGUubWFlPic=

> <r_epik_Ionization_Penalty>
0.000508191

> <r_epik_Ionization_Penalty_Charging>
0

> <r_epik_Ionization_Penalty_Neutral>
0.000508191

> <r_epik_State_Penalty>
0.000316483

> <r_epik_Charging_Adjusted_Penalty>
0.000316483

> <i_epik_Tot_Q>
0

> <i_epik_Tot_abs_Q>
0

> <r_epik_Metal_State_Penalty>
-0

> <b_epik_Metal_Only>
0

> <s_lp_Force_Field>
OPLS_2005

> <r_lp_Energy>
10.5911

> <b_lp_Chiralities_Consistent>
1

> <s_lp_Variant>
AV-unprocessed.smi:3229-2

> <Gold.Version>
5.8.1

> <Gold.Id.Protein>
6NUR|6NUR_protein|mol2

> <Gold.PLP.Fitness>
40.0811

> <Gold.PLP.PLP>
-38.6633

> <Gold.PLP.part.hbond>
-1.0000

> <Gold.PLP.part.metal>
0.0000

> <Gold.PLP.part.buried>
-4.6587

> <Gold.PLP.part.nonpolar>
-33.6648

> <Gold.PLP.part.repulsive>
0.0153

> <Gold.PLP.ligand.clash>
0.0000

> <Gold.PLP.ligand.torsion>
0.8102

> <Gold.PLP.Chemscore.Hbond>
1.0000

> <Gold.PLP.Chemscore.CHOScore>
0.0000

> <Gold.PLP.Chemscore.Metal>
0.0000

> <Gold.Chemscore.Hbonds>
donor molecule, donor type, donor heavy atom, donor atom, acceptor molecule, acceptor atom, score
      P1  H  6896  6908       L1    11  1.00

> <Gold.PLP.Chemscore.Internal.Correction>
0.0382

> <Gold.Rescore>
     Score         DG    S(hbond)    S(metal)    S(lipo)     H(rot)  DE(clash)    DE(int)     intcor
     17.38     -18.04       1.00        0.00     113.87       1.60       0.00       0.65       ----

> <Gold.Chemscore.Fitness>
17.3779

> <Gold.Chemscore.DG>
-18.0369

> <Gold.Chemscore.ZeroCoef>
-5.4800

> <Gold.Chemscore.Hbond>
1.0000

> <Gold.Chemscore.Metal>
0.0000

> <Gold.Chemscore.Lipo>
113.8733

> <Gold.Chemscore.Internal_Hbond>
0.0000

> <Gold.Chemscore.DEClash>
0.0042

> <Gold.Chemscore.DEInternal>
0.6549

> <Gold.Chemscore.Rot>
1.6040

> <Gold.Chemscore.Internal.Correction>
   9.000000E+99

> <Gold.Chemscore.Hbonds>
donor molecule, donor type, donor heavy atom, donor atom, acceptor molecule, acceptor atom, score
      P1  H  6896  6908       L1    11  1.00

> <Gold.Chemscore.Hbond.Weighted>
-3.3400

> <Gold.Chemscore.Metal.Weighted>
-0.0000

> <Gold.Chemscore.Lipo.Weighted>
-13.3232

> <Gold.Chemscore.Internal_Hbond.Weighted>
0.0000

> <Gold.Chemscore.DEClash.Weighted>
0.0042

> <Gold.Chemscore.DEInternal.Weighted>
0.6549

> <Gold.Chemscore.Rot.Weighted>
4.1062

> <Gold.Chemscore.Internal.Correction.Weighted>
   9.000000E+99

> <Gold.Protein.RotatedTorsions>
[ 6907 6896 6895 6894 ] final  -80.73 input  -60.11 | X-H torsion
[ 7974 7965 7964 7962 ] final  -81.13 input  175.53 | X-H torsion
[ 8008 7997 7996 7995 ] final   40.62 input   59.86 | X-H torsion
[ 10167 10162 10161 10158 ] final -146.54 input  -65.29 | X-H torsion
[ 10718 10713 10712 10709 ] final   98.15 input   66.30 | X-H torsion
[ 10763 10752 10751 10750 ] final   50.94 input  -60.55 | X-H torsion
[ 11005 11000 10999 10996 ] final  174.17 input  -57.11 | X-H torsion

> <Gold.Protein.ActiveResidues>
 VAL166  LYS551  ARG553  GLY616  TRP617  ASP618  TYR619  PRO620  LYS621  CYS622 
 ASP623  PHE694  ASN695  SER759  ASP760  ASP761  ALA762  ILE779  LEU786  VAL792 
 PHE793  MET794  SER795  GLU796  ALA797  LYS798  CYS799  TRP800  GLU811  SER814 

> <Gold.Protein.RotatedAtoms>
  150.6924  134.3925  159.5082 H   0  0  0  0  0  0  0  0  0  0  0  0  # atno 6907 bound_to 6896
  152.1711  134.8830  160.0543 H   0  0  0  0  0  0  0  0  0  0  0  0  # atno 6908 bound_to 6896
  151.9856  133.3738  159.4161 H   0  0  0  0  0  0  0  0  0  0  0  0  # atno 6909 bound_to 6896
  145.5508  140.9497  143.1500 H   0  0  0  0  0  0  0  0  0  0  0  0  # atno 7974 bound_to 7965
  155.2561  140.3356  155.4277 H   0  0  0  0  0  0  0  0  0  0  0  0  # atno 8008 bound_to 7997
  156.2195  140.1803  156.7554 H   0  0  0  0  0  0  0  0  0  0  0  0  # atno 8009 bound_to 7997
  154.5803  140.0655  156.9079 H   0  0  0  0  0  0  0  0  0  0  0  0  # atno 8010 bound_to 7997
  139.7704  143.8246  152.2623 H   0  0  0  0  0  0  0  0  0  0  0  0  # atno 10167 bound_to 10162
  157.6900  131.0631  150.4752 H   0  0  0  0  0  0  0  0  0  0  0  0  # atno 10718 bound_to 10713
  152.9784  135.5862  154.4334 H   0  0  0  0  0  0  0  0  0  0  0  0  # atno 10763 bound_to 10752
  154.3944  135.2768  155.2137 H   0  0  0  0  0  0  0  0  0  0  0  0  # atno 10764 bound_to 10752
  154.3995  135.6107  153.5943 H   0  0  0  0  0  0  0  0  0  0  0  0  # atno 10765 bound_to 10752
  140.3484  134.7216  157.4251 H   0  0  0  0  0  0  0  0  0  0  0  0  # atno 11005 bound_to 11000
  144.7530  139.7144  143.7265 LP  0  0  0  0  0  0  0  0  0  0  0  0  # atno 17320 bound_to 7965
  146.1918  139.5163  142.9800 LP  0  0  0  0  0  0  0  0  0  0  0  0  # atno 17321 bound_to 7965
  139.8279  144.7267  150.9488 LP  0  0  0  0  0  0  0  0  0  0  0  0  # atno 17342 bound_to 10162
  140.7813  143.4097  151.1012 LP  0  0  0  0  0  0  0  0  0  0  0  0  # atno 17343 bound_to 10162
  156.5087  130.4134  149.6313 LP  0  0  0  0  0  0  0  0  0  0  0  0  # atno 17370 bound_to 10713
  156.3261  130.7306  151.2227 LP  0  0  0  0  0  0  0  0  0  0  0  0  # atno 17371 bound_to 10713
  140.0723  134.5845  155.8628 LP  0  0  0  0  0  0  0  0  0  0  0  0  # atno 17394 bound_to 11000
  141.2019  133.6621  156.5977 LP  0  0  0  0  0  0  0  0  0  0  0  0  # atno 17395 bound_to 11000

$$$$
