AV-unprocessed.smi:511|AV-procd|sdf|2765|dock3
  -GOLD-   2262023233D 1   1.00000     0.00000
 Structure written by MMmdl.
 45 47  0  0  0  0  0  0  0  0  1 V2000
  144.0997  145.1226  153.9655 C   0  0  0  0  0  0  0  0  0  0  0  0
  144.2311  144.4569  155.2082 O   0  0  0  0  0  0  0  0  0  0  0  0
  145.3011  143.5260  155.2188 C   0  0  0  0  0  0  0  0  0  0  0  0
  145.2331  142.6810  156.4983 C   0  0  0  0  0  0  0  0  0  0  0  0
  146.5589  142.4554  157.0717 N   0  0  0  0  0  0  0  0  0  0  0  0
  147.0438  142.8126  158.2945 C   0  0  0  0  0  0  0  0  0  0  0  0
  146.2610  143.4517  159.2569 N   0  0  0  0  0  0  0  0  0  0  0  0
  146.5051  143.5195  160.6961 C   0  0  0  0  0  0  0  0  0  0  0  0
  145.2330  143.1562  161.4869 C   0  0  0  0  0  0  0  0  0  0  0  0
  144.1798  144.1202  161.1697 N   0  0  0  0  0  0  0  0  0  0  0  0
  142.9704  143.7824  161.9058 C   0  0  0  0  0  0  0  0  0  0  0  0
  143.9129  144.0665  159.7323 C   0  0  0  0  0  0  0  0  0  0  0  0
  145.1993  144.4069  158.9532 C   0  0  0  0  0  0  0  0  0  0  0  0
  148.3400  142.5436  158.4781 N   0  0  0  0  0  0  0  0  0  0  0  0
  148.7059  141.9371  157.2877 C   0  0  0  0  0  0  0  0  0  0  0  0
  147.6560  141.8764  156.4315 C   0  0  0  0  0  0  0  0  0  0  0  0
  147.7760  141.3107  155.0816 C   0  0  0  0  0  0  0  0  0  0  0  0
  146.8445  141.2600  154.2814 O   0  0  0  0  0  0  0  0  0  0  0  0
  149.0219  140.8535  154.8062 N   0  0  0  0  0  0  0  0  0  0  0  0
  150.1190  140.8815  155.6235 C   0  0  0  0  0  0  0  0  0  0  0  0
  151.1897  140.4266  155.2218 O   0  0  0  0  0  0  0  0  0  0  0  0
  149.9679  141.4285  156.8737 N   0  0  0  0  0  0  0  0  0  0  0  0
  151.0811  141.5191  157.8206 C   0  0  0  0  0  0  0  0  0  0  0  0
  149.1577  140.4495  153.8911 H   0  0  0  0  0  0  0  0  0  0  0  0
  143.2644  145.8213  154.0116 H   0  0  0  0  0  0  0  0  0  0  0  0
  143.9037  144.4159  153.1579 H   0  0  0  0  0  0  0  0  0  0  0  0
  145.0005  145.6892  153.7253 H   0  0  0  0  0  0  0  0  0  0  0  0
  145.2394  142.8773  154.3438 H   0  0  0  0  0  0  0  0  0  0  0  0
  146.2552  144.0528  155.1677 H   0  0  0  0  0  0  0  0  0  0  0  0
  144.5827  143.1690  157.2161 H   0  0  0  0  0  0  0  0  0  0  0  0
  144.7616  141.7199  156.2970 H   0  0  0  0  0  0  0  0  0  0  0  0
  147.3338  142.8697  160.9738 H   0  0  0  0  0  0  0  0  0  0  0  0
  146.8290  144.5287  160.9555 H   0  0  0  0  0  0  0  0  0  0  0  0
  144.9081  142.1420  161.2489 H   0  0  0  0  0  0  0  0  0  0  0  0
  145.4426  143.1863  162.5568 H   0  0  0  0  0  0  0  0  0  0  0  0
  142.1749  144.4935  161.6808 H   0  0  0  0  0  0  0  0  0  0  0  0
  143.1553  143.8190  162.9799 H   0  0  0  0  0  0  0  0  0  0  0  0
  142.6162  142.7817  161.6537 H   0  0  0  0  0  0  0  0  0  0  0  0
  143.5476  143.0784  159.4477 H   0  0  0  0  0  0  0  0  0  0  0  0
  143.1306  144.7838  159.4814 H   0  0  0  0  0  0  0  0  0  0  0  0
  145.5355  145.4183  159.1864 H   0  0  0  0  0  0  0  0  0  0  0  0
  144.9894  144.3869  157.8833 H   0  0  0  0  0  0  0  0  0  0  0  0
  152.0118  141.0831  157.4561 H   0  0  0  0  0  0  0  0  0  0  0  0
  150.8238  141.0076  158.7484 H   0  0  0  0  0  0  0  0  0  0  0  0
  151.2811  142.5643  158.0588 H   0  0  0  0  0  0  0  0  0  0  0  0
  1  2  1  0  0  0  0
  1 25  1  0  0  0  0
  1 26  1  0  0  0  0
  1 27  1  0  0  0  0
  2  3  1  0  0  0  0
  3  4  1  0  0  0  0
  3 28  1  0  0  0  0
  3 29  1  0  0  0  0
  4  5  1  0  0  0  0
  4 30  1  0  0  0  0
  4 31  1  0  0  0  0
  5 16  1  0  0  0  0
  5  6  1  0  0  0  0
  6  7  1  0  0  0  0
  6 14  2  0  0  0  0
  7 13  1  0  0  0  0
  7  8  1  0  0  0  0
  8  9  1  0  0  0  0
  8 32  1  0  0  0  0
  8 33  1  0  0  0  0
  9 10  1  0  0  0  0
  9 34  1  0  0  0  0
  9 35  1  0  0  0  0
 10 11  1  0  0  0  0
 10 12  1  0  0  0  0
 11 36  1  0  0  0  0
 11 37  1  0  0  0  0
 11 38  1  0  0  0  0
 12 13  1  0  0  0  0
 12 39  1  0  0  0  0
 12 40  1  0  0  0  0
 13 41  1  0  0  0  0
 13 42  1  0  0  0  0
 14 15  1  0  0  0  0
 15 22  1  0  0  0  0
 15 16  2  0  0  0  0
 16 17  1  0  0  0  0
 17 18  2  0  0  0  0
 17 19  1  0  0  0  0
 19 24  1  0  0  0  0
 19 20  1  0  0  0  0
 20 21  2  0  0  0  0
 20 22  1  0  0  0  0
 22 23  1  0  0  0  0
 23 43  1  0  0  0  0
 23 44  1  0  0  0  0
 23 45  1  0  0  0  0
M  END
> <s_m_source_file>
AV-unprocessed.smi

> <i_m_source_file_index>
511

> <i_lp_mmshare_version>
43012

> <i_f3d_flags>
0

> <s_epik_input>
W0NIM11uMWMoPU8pW25IXWMoPU8pYyhjMTIpbihbQ0gyXVtDSDJdT1tDSDNdKWMobjIpTjNbQ0gyXVtDSDJdTihbQ0gzXSlbQ0gyXVtDSDJdMw==

> <s_epik_cmdline>
J2VwaWtfcHl0aG9uJywgJy1waCcsICc3LjAnLCAnLXRuJywgJzgnLCAnLW1hJywgJzIwMCcsICctbWV0YWxfYmluZGluZycsICctaW1hZScsICc8aW5maWxlLm1hZT4nLCAnLW9tYWUnLCAnPG91dGZpbGUubWFlPic=

> <r_epik_Ionization_Penalty>
1.34394

> <r_epik_Ionization_Penalty_Charging>
1.59275e-05

> <r_epik_Ionization_Penalty_Neutral>
1.34392

> <r_epik_State_Penalty>
1.4212

> <r_epik_Charging_Adjusted_Penalty>
1.42122

> <i_epik_Tot_Q>
0

> <i_epik_Tot_abs_Q>
0

> <r_epik_Metal_State_Penalty>
1.44789

> <b_epik_Metal_Only>
0

> <s_lp_Force_Field>
OPLS_2005

> <r_lp_Energy>
49.2822

> <b_lp_Chiralities_Consistent>
1

> <s_lp_Variant>
AV-unprocessed.smi:511-2

> <Gold.Version>
5.8.1

> <Gold.Id.Protein>
6NUR|6NUR_protein|mol2

> <Gold.PLP.Fitness>
32.8529

> <Gold.PLP.PLP>
-30.9209

> <Gold.PLP.part.hbond>
-1.0000

> <Gold.PLP.part.metal>
0.0000

> <Gold.PLP.part.buried>
-7.2091

> <Gold.PLP.part.nonpolar>
-23.3245

> <Gold.PLP.part.repulsive>
0.6561

> <Gold.PLP.ligand.clash>
0.0000

> <Gold.PLP.ligand.torsion>
0.6656

> <Gold.PLP.Chemscore.Hbond>
0.9920

> <Gold.PLP.Chemscore.CHOScore>
0.0000

> <Gold.PLP.Chemscore.Metal>
0.0000

> <Gold.Chemscore.Hbonds>
donor molecule, donor type, donor heavy atom, donor atom, acceptor molecule, acceptor atom, score
      P1  H  7989  7998       L1    21  0.99

> <Gold.PLP.Chemscore.Internal.Correction>
0.2872

> <Gold.Rescore>
     Score         DG    S(hbond)    S(metal)    S(lipo)     H(rot)  DE(clash)    DE(int)     intcor
      9.62     -11.76       1.45        0.00      44.90       1.49       0.43       1.71       ----

> <Gold.Chemscore.Fitness>
9.6195

> <Gold.Chemscore.DG>
-11.7647

> <Gold.Chemscore.ZeroCoef>
-5.4800

> <Gold.Chemscore.Hbond>
1.4522

> <Gold.Chemscore.Metal>
0.0000

> <Gold.Chemscore.Lipo>
44.8958

> <Gold.Chemscore.Internal_Hbond>
0.0000

> <Gold.Chemscore.DEClash>
0.4342

> <Gold.Chemscore.DEInternal>
1.7110

> <Gold.Chemscore.Rot>
1.4915

> <Gold.Chemscore.Internal.Correction>
   9.000000E+99

> <Gold.Chemscore.Hbonds>
donor molecule, donor type, donor heavy atom, donor atom, acceptor molecule, acceptor atom, score
      P1  H  7989  7998       L1    21  0.85

> <Gold.Chemscore.Hbond.Weighted>
-4.8502

> <Gold.Chemscore.Metal.Weighted>
-0.0000

> <Gold.Chemscore.Lipo.Weighted>
-5.2528

> <Gold.Chemscore.Internal_Hbond.Weighted>
0.0000

> <Gold.Chemscore.DEClash.Weighted>
0.4342

> <Gold.Chemscore.DEInternal.Weighted>
1.7110

> <Gold.Chemscore.Rot.Weighted>
3.8183

> <Gold.Chemscore.Internal.Correction.Weighted>
   9.000000E+99

> <Gold.Protein.RotatedTorsions>
[ 6907 6896 6895 6894 ] final   51.77 input  -60.11 | X-H torsion
[ 7974 7965 7964 7962 ] final  -70.46 input  175.53 | X-H torsion
[ 8008 7997 7996 7995 ] final  115.91 input   59.86 | X-H torsion
[ 10167 10162 10161 10158 ] final -152.48 input  -65.29 | X-H torsion
[ 10718 10713 10712 10709 ] final   70.68 input   66.30 | X-H torsion
[ 10763 10752 10751 10750 ] final   -5.61 input  -60.55 | X-H torsion
[ 11005 11000 10999 10996 ] final   22.29 input  -57.11 | X-H torsion

> <Gold.Protein.ActiveResidues>
 VAL166  LYS551  ARG553  GLY616  TRP617  ASP618  TYR619  PRO620  LYS621  CYS622 
 ASP623  PHE694  ASN695  SER759  ASP760  ASP761  ALA762  ILE779  LEU786  VAL792 
 PHE793  MET794  SER795  GLU796  ALA797  LYS798  CYS799  TRP800  GLU811  SER814 

> <Gold.Protein.RotatedAtoms>
  152.3162  134.7436  160.0324 H   0  0  0  0  0  0  0  0  0  0  0  0  # atno 6907 bound_to 6896
  151.7900  133.3353  159.3504 H   0  0  0  0  0  0  0  0  0  0  0  0  # atno 6908 bound_to 6896
  150.7346  134.5782  159.5969 H   0  0  0  0  0  0  0  0  0  0  0  0  # atno 6909 bound_to 6896
  145.6907  140.9154  143.0783 H   0  0  0  0  0  0  0  0  0  0  0  0  # atno 7974 bound_to 7965
  156.2409  140.2928  156.0442 H   0  0  0  0  0  0  0  0  0  0  0  0  # atno 8008 bound_to 7997
  155.1953  140.0408  157.2925 H   0  0  0  0  0  0  0  0  0  0  0  0  # atno 8009 bound_to 7997
  154.6167  140.2465  155.7608 H   0  0  0  0  0  0  0  0  0  0  0  0  # atno 8010 bound_to 7997
  139.7178  143.9005  152.2492 H   0  0  0  0  0  0  0  0  0  0  0  0  # atno 10167 bound_to 10162
  157.6412  130.9489  150.0684 H   0  0  0  0  0  0  0  0  0  0  0  0  # atno 10718 bound_to 10713
  153.4009  135.7005  153.6427 H   0  0  0  0  0  0  0  0  0  0  0  0  # atno 10763 bound_to 10752
  153.4960  135.3662  155.2516 H   0  0  0  0  0  0  0  0  0  0  0  0  # atno 10764 bound_to 10752
  154.8710  135.4100  154.3344 H   0  0  0  0  0  0  0  0  0  0  0  0  # atno 10765 bound_to 10752
  140.3822  134.1908  155.7663 H   0  0  0  0  0  0  0  0  0  0  0  0  # atno 11005 bound_to 11000
  144.6997  139.8817  143.7447 LP  0  0  0  0  0  0  0  0  0  0  0  0  # atno 17320 bound_to 7965
  146.0884  139.3873  143.0421 LP  0  0  0  0  0  0  0  0  0  0  0  0  # atno 17321 bound_to 7965
  139.8893  144.6974  150.8789 LP  0  0  0  0  0  0  0  0  0  0  0  0  # atno 17342 bound_to 10162
  140.7747  143.3599  151.1848 LP  0  0  0  0  0  0  0  0  0  0  0  0  # atno 17343 bound_to 10162
  156.1695  130.3646  149.9185 LP  0  0  0  0  0  0  0  0  0  0  0  0  # atno 17370 bound_to 10713
  156.7163  130.8990  151.3614 LP  0  0  0  0  0  0  0  0  0  0  0  0  # atno 17371 bound_to 10713
  141.1919  133.8184  157.0859 LP  0  0  0  0  0  0  0  0  0  0  0  0  # atno 17394 bound_to 11000
  140.0470  134.9825  157.1066 LP  0  0  0  0  0  0  0  0  0  0  0  0  # atno 17395 bound_to 11000

$$$$
