AV-unprocessed.smi:910|AV-procd|sdf|4128|dock4
  -GOLD-   22720 2 33D 1   1.00000     0.00000
 Structure written by MMmdl.
 47 48  0  0  0  0  0  0  0  0  2 V2000
  148.3895  132.0437  153.0783 C   0  0  0  0  0  0  0  0  0  0  0  0
  149.1378  133.0193  153.9312 C   0  0  0  0  0  0  0  0  0  0  0  0
  149.3660  134.3577  153.7115 N   0  3  0  0  0  0  0  0  0  0  0  0
  150.0826  134.8570  154.7156 C   0  0  0  0  0  0  0  0  0  0  0  0
  150.4925  136.2071  154.8048 N   0  0  0  0  0  0  0  0  0  0  0  0
  151.4557  136.6759  155.6123 C   0  0  0  0  0  0  0  0  0  0  0  0
  152.1413  135.9764  156.3586 O   0  0  0  0  0  0  0  0  0  0  0  0
  151.5839  138.0077  155.5127 N   0  0  0  0  0  0  0  0  0  0  0  0
  152.5116  138.8178  156.2967 C   0  0  0  0  0  0  0  0  0  0  0  0
  151.7802  139.9384  157.0497 C   0  0  0  0  0  0  0  0  0  0  0  0
  152.7148  140.6682  157.8289 O   0  0  0  0  0  0  0  0  0  0  0  0
  152.1312  141.6434  158.6805 C   0  0  2  0  0  0  0  0  0  0  0  0
  151.4989  142.7196  157.7805 C   0  0  0  0  0  0  0  0  0  0  0  0
  150.9459  143.8893  158.6077 C   0  0  0  0  0  0  0  0  0  0  0  0
  152.0375  144.4926  159.5040 C   0  0  0  0  0  0  0  0  0  0  0  0
  152.6740  143.4209  160.4033 C   0  0  0  0  0  0  0  0  0  0  0  0
  153.2346  142.2427  159.5813 C   0  0  1  0  0  0  0  0  0  0  0  0
  153.8633  141.1847  160.5026 C   0  0  0  0  0  0  0  0  0  0  0  0
  150.3560  133.8918  155.6342 O   0  0  0  0  0  0  0  0  0  0  0  0
  149.7603  132.7533  155.1316 C   0  0  0  0  0  0  0  0  0  0  0  0
  149.8927  131.5034  155.9350 C   0  0  0  0  0  0  0  0  0  0  0  0
  149.0555  131.2748  152.6859 H   0  0  0  0  0  0  0  0  0  0  0  0
  147.9179  132.5379  152.2287 H   0  0  0  0  0  0  0  0  0  0  0  0
  147.6050  131.5437  153.6468 H   0  0  0  0  0  0  0  0  0  0  0  0
  149.0251  134.8494  152.8949 H   0  0  0  0  0  0  0  0  0  0  0  0
  150.9824  138.5032  154.8709 H   0  0  0  0  0  0  0  0  0  0  0  0
  153.0852  138.1994  156.9892 H   0  0  0  0  0  0  0  0  0  0  0  0
  153.2324  139.2569  155.6068 H   0  0  0  0  0  0  0  0  0  0  0  0
  151.2989  140.6120  156.3394 H   0  0  0  0  0  0  0  0  0  0  0  0
  150.9986  139.5163  157.6838 H   0  0  0  0  0  0  0  0  0  0  0  0
  151.3501  141.2120  159.3109 H   0  0  0  0  0  0  0  0  0  0  0  0
  152.2445  143.0945  157.0778 H   0  0  0  0  0  0  0  0  0  0  0  0
  150.7019  142.2804  157.1793 H   0  0  0  0  0  0  0  0  0  0  0  0
  150.5425  144.6557  157.9451 H   0  0  0  0  0  0  0  0  0  0  0  0
  150.1149  143.5427  159.2233 H   0  0  0  0  0  0  0  0  0  0  0  0
  152.8073  144.9530  158.8834 H   0  0  0  0  0  0  0  0  0  0  0  0
  151.6162  145.2903  160.1166 H   0  0  0  0  0  0  0  0  0  0  0  0
  153.4687  143.8718  160.9987 H   0  0  0  0  0  0  0  0  0  0  0  0
  151.9293  143.0545  161.1117 H   0  0  0  0  0  0  0  0  0  0  0  0
  154.0249  142.6307  158.9368 H   0  0  0  0  0  0  0  0  0  0  0  0
  153.1157  140.7337  161.1560 H   0  0  0  0  0  0  0  0  0  0  0  0
  154.6360  141.6236  161.1342 H   0  0  0  0  0  0  0  0  0  0  0  0
  154.3295  140.3846  159.9277 H   0  0  0  0  0  0  0  0  0  0  0  0
  148.9133  131.0731  156.1445 H   0  0  0  0  0  0  0  0  0  0  0  0
  150.3856  131.6981  156.8879 H   0  0  0  0  0  0  0  0  0  0  0  0
  150.4809  130.7599  155.3966 H   0  0  0  0  0  0  0  0  0  0  0  0
  150.0053  136.8690  154.2191 H   0  0  0  0  0  0  0  0  0  0  0  0
  1 22  1  0  0  0  0
  1 23  1  0  0  0  0
  1 24  1  0  0  0  0
  1  2  1  0  0  0  0
  2  3  1  0  0  0  0
  2 20  2  0  0  0  0
  3 25  1  0  0  0  0
  3  4  2  0  0  0  0
  4 19  1  0  0  0  0
  4  5  1  0  0  0  0
  5  6  1  0  0  0  0
  5 47  1  0  0  0  0
  6  8  1  0  0  0  0
  6  7  2  0  0  0  0
  8  9  1  0  0  0  0
  8 26  1  0  0  0  0
  9 10  1  0  0  0  0
  9 27  1  0  0  0  0
  9 28  1  0  0  0  0
 10 11  1  0  0  0  0
 10 29  1  0  0  0  0
 10 30  1  0  0  0  0
 11 12  1  0  0  0  0
 12 17  1  0  0  0  0
 12 13  1  0  0  0  0
 12 31  1  0  0  0  0
 13 14  1  0  0  0  0
 13 32  1  0  0  0  0
 13 33  1  0  0  0  0
 14 15  1  0  0  0  0
 14 34  1  0  0  0  0
 14 35  1  0  0  0  0
 15 16  1  0  0  0  0
 15 36  1  0  0  0  0
 15 37  1  0  0  0  0
 16 17  1  0  0  0  0
 16 38  1  0  0  0  0
 16 39  1  0  0  0  0
 17 18  1  0  0  0  0
 17 40  1  0  0  0  0
 18 41  1  0  0  0  0
 18 42  1  0  0  0  0
 18 43  1  0  0  0  0
 19 20  1  0  0  0  0
 20 21  1  0  0  0  0
 21 44  1  0  0  0  0
 21 45  1  0  0  0  0
 21 46  1  0  0  0  0
M  CHG  1   3   1
M  END
> <s_m_source_file>
AV-unprocessed.smi

> <i_m_source_file_index>
910

> <i_lp_mmshare_version>
43012

> <i_f3d_flags>
0

> <s_epik_input>
W0NIM11jMW5jKG9jMVtDSDNdKVtOSF1DKD1PKVtOSF1bQ0gyXVtDSDJdT1tDQEBIXTJbQ0gyXVtDSDJdW0NIMl1bQ0gyXVtDQEhdMltDSDNd

> <s_epik_cmdline>
J2VwaWtfcHl0aG9uJywgJy1waCcsICc3LjAnLCAnLXRuJywgJzgnLCAnLW1hJywgJzIwMCcsICctbWV0YWxfYmluZGluZycsICctaW1hZScsICc8aW5maWxlLm1hZT4nLCAnLW9tYWUnLCAnPG91dGZpbGUubWFlPic=

> <r_epik_Ionization_Penalty>
7.32931

> <r_epik_Ionization_Penalty_Charging>
7.12214

> <r_epik_Ionization_Penalty_Neutral>
0.207166

> <r_epik_State_Penalty>
2.61278

> <r_epik_Charging_Adjusted_Penalty>
9.73492

> <i_epik_Tot_Q>
1

> <i_epik_Tot_abs_Q>
1

> <r_epik_Metal_State_Penalty>
2.64585

> <b_epik_Metal_Only>
0

> <s_lp_Force_Field>
OPLS_2005

> <r_lp_Energy>
16.0479

> <b_lp_Chiralities_Consistent>
1

> <s_lp_Variant>
AV-unprocessed.smi:910-13

> <Gold.Version>
5.8.1

> <Gold.Id.Protein>
6NUR|6NUR_protein|mol2

> <Gold.PLP.Fitness>
49.0596

> <Gold.PLP.PLP>
-39.0523

> <Gold.PLP.part.hbond>
-3.3108

> <Gold.PLP.part.metal>
0.0000

> <Gold.PLP.part.buried>
-0.2602

> <Gold.PLP.part.nonpolar>
-34.7506

> <Gold.PLP.part.repulsive>
0.2055

> <Gold.PLP.ligand.clash>
0.0000

> <Gold.PLP.ligand.torsion>
0.1033

> <Gold.PLP.Chemscore.Hbond>
3.3914

> <Gold.PLP.Chemscore.CHOScore>
0.0000

> <Gold.PLP.Chemscore.Metal>
0.0000

> <Gold.Chemscore.Hbonds>
donor molecule, donor type, donor heavy atom, donor atom, acceptor molecule, acceptor atom, score
      L1  H     3    25       P1  7948  1.10
      P1  H  7997  8009       L1    11  0.58
      P1  H 10752 10763       L1     7  1.00

> <Gold.PLP.Chemscore.Internal.Correction>
0.0398

> <Gold.Rescore>
     Score         DG    S(hbond)    S(metal)    S(lipo)     H(rot)  DE(clash)    DE(int)     intcor
     18.86     -20.61       2.20        0.00     103.47       1.69       0.28       1.46       ----

> <Gold.Chemscore.Fitness>
18.8647

> <Gold.Chemscore.DG>
-20.6079

> <Gold.Chemscore.ZeroCoef>
-5.4800

> <Gold.Chemscore.Hbond>
2.2038

> <Gold.Chemscore.Metal>
0.0000

> <Gold.Chemscore.Lipo>
103.4728

> <Gold.Chemscore.Internal_Hbond>
0.0000

> <Gold.Chemscore.DEClash>
0.2834

> <Gold.Chemscore.DEInternal>
1.4599

> <Gold.Chemscore.Rot>
1.6949

> <Gold.Chemscore.Internal.Correction>
   9.000000E+99

> <Gold.Chemscore.Hbonds>
donor molecule, donor type, donor heavy atom, donor atom, acceptor molecule, acceptor atom, score
      L1  H     3    25       P1  7948  0.03
      P1  H  7997  8009       L1    11  0.20
      P1  H 10752 10763       L1     7  0.30

> <Gold.Chemscore.Hbond.Weighted>
-7.3606

> <Gold.Chemscore.Metal.Weighted>
-0.0000

> <Gold.Chemscore.Lipo.Weighted>
-12.1063

> <Gold.Chemscore.Internal_Hbond.Weighted>
0.0000

> <Gold.Chemscore.DEClash.Weighted>
0.2834

> <Gold.Chemscore.DEInternal.Weighted>
1.4599

> <Gold.Chemscore.Rot.Weighted>
4.3390

> <Gold.Chemscore.Internal.Correction.Weighted>
   9.000000E+99

> <Gold.Protein.RotatedTorsions>
[ 6907 6896 6895 6894 ] final   65.17 input  -60.11 | X-H torsion
[ 7974 7965 7964 7962 ] final  103.44 input  175.53 | X-H torsion
[ 8008 7997 7996 7995 ] final  158.42 input   59.86 | X-H torsion
[ 10167 10162 10161 10158 ] final -109.00 input  -65.29 | X-H torsion
[ 10718 10713 10712 10709 ] final   63.38 input   66.30 | X-H torsion
[ 10763 10752 10751 10750 ] final  108.07 input  -60.55 | X-H torsion
[ 11005 11000 10999 10996 ] final  138.32 input  -57.11 | X-H torsion

> <Gold.Protein.ActiveResidues>
 VAL166  LYS551  ARG553  GLY616  TRP617  ASP618  TYR619  PRO620  LYS621  CYS622 
 ASP623  PHE694  ASN695  SER759  ASP760  ASP761  ALA762  ILE779  LEU786  VAL792 
 PHE793  MET794  SER795  GLU796  ALA797  LYS798  CYS799  TRP800  GLU811  SER814 

> <Gold.Protein.RotatedAtoms>
  152.4387  134.5635  159.9900 H   0  0  0  0  0  0  0  0  0  0  0  0  # atno 6907 bound_to 6896
  151.5738  133.3381  159.3003 H   0  0  0  0  0  0  0  0  0  0  0  0  # atno 6908 bound_to 6896
  150.8289  134.7568  159.6901 H   0  0  0  0  0  0  0  0  0  0  0  0  # atno 6909 bound_to 6896
  145.3458  139.2451  143.3585 H   0  0  0  0  0  0  0  0  0  0  0  0  # atno 7974 bound_to 7965
  156.2304  140.1859  156.7257 H   0  0  0  0  0  0  0  0  0  0  0  0  # atno 8008 bound_to 7997
  154.6012  140.0635  156.9399 H   0  0  0  0  0  0  0  0  0  0  0  0  # atno 8009 bound_to 7997
  155.2171  140.3304  155.4323 H   0  0  0  0  0  0  0  0  0  0  0  0  # atno 8010 bound_to 7997
  140.1601  143.4127  152.1432 H   0  0  0  0  0  0  0  0  0  0  0  0  # atno 10167 bound_to 10162
  157.5967  130.9102  149.9709 H   0  0  0  0  0  0  0  0  0  0  0  0  # atno 10718 bound_to 10713
  153.4155  135.3824  155.2078 H   0  0  0  0  0  0  0  0  0  0  0  0  # atno 10763 bound_to 10752
  154.8741  135.3804  154.4448 H   0  0  0  0  0  0  0  0  0  0  0  0  # atno 10764 bound_to 10752
  153.4962  135.7088  153.5919 H   0  0  0  0  0  0  0  0  0  0  0  0  # atno 10765 bound_to 10752
  140.0175  134.9411  157.0407 H   0  0  0  0  0  0  0  0  0  0  0  0  # atno 11005 bound_to 11000
  146.2988  140.4065  142.8711 LP  0  0  0  0  0  0  0  0  0  0  0  0  # atno 17320 bound_to 7965
  144.8755  140.7330  143.6020 LP  0  0  0  0  0  0  0  0  0  0  0  0  # atno 17321 bound_to 7965
  139.5385  144.7233  151.4812 LP  0  0  0  0  0  0  0  0  0  0  0  0  # atno 17342 bound_to 10162
  140.6648  143.8421  150.6929 LP  0  0  0  0  0  0  0  0  0  0  0  0  # atno 17343 bound_to 10162
  156.1031  130.3654  150.0181 LP  0  0  0  0  0  0  0  0  0  0  0  0  # atno 17370 bound_to 10713
  156.8293  130.9386  151.3638 LP  0  0  0  0  0  0  0  0  0  0  0  0  # atno 17371 bound_to 10713
  140.4445  134.1647  155.7176 LP  0  0  0  0  0  0  0  0  0  0  0  0  # atno 17394 bound_to 11000
  141.1752  133.8527  157.1442 LP  0  0  0  0  0  0  0  0  0  0  0  0  # atno 17395 bound_to 11000

$$$$
