AV-unprocessed.smi:883|AV-procd|sdf|4040|dock4
  -GOLD-   22720 1533D 1   1.00000     0.00000
 Structure written by MMmdl.
 29 31  0  0  0  0  0  0  0  0  1 V2000
  152.1289  137.3768  153.3757 N   0  0  0  0  0  0  0  0  0  0  0  0
  151.8361  138.2903  154.0224 C   0  0  0  0  0  0  0  0  0  0  0  0
  151.4688  139.4374  154.8347 C   0  0  0  0  0  0  0  0  0  0  0  0
  152.0350  139.6303  156.1102 C   0  0  0  0  0  0  0  0  0  0  0  0
  151.6434  140.7552  156.8624 C   0  0  0  0  0  0  0  0  0  0  0  0
  150.6996  141.6482  156.3121 C   0  0  0  0  0  0  0  0  0  0  0  0
  150.3142  142.7644  157.0679 N   0  0  0  0  0  0  0  0  0  0  0  0
  150.5358  142.8186  158.5099 C   0  0  2  0  0  0  0  0  0  0  0  0
  149.9681  144.0842  159.1568 C   0  0  0  0  0  0  0  0  0  0  0  0
  151.1890  144.6264  159.9135 C   0  0  2  0  0  0  0  0  0  0  0  0
  152.2036  145.2683  158.9588 C   0  0  0  0  0  0  0  0  0  0  0  0
  152.7959  144.0426  158.2662 C   0  0  0  0  0  0  0  0  0  0  0  0
  152.0177  142.8938  158.9304 C   0  0  1  0  0  0  0  0  0  0  0  0
  151.8655  143.4230  160.2368 O   0  0  0  0  0  0  0  0  0  0  0  0
  150.1590  141.4662  155.0835 N   0  0  0  0  0  0  0  0  0  0  0  0
  150.5363  140.3853  154.3671 C   0  0  0  0  0  0  0  0  0  0  0  0
  152.7554  138.9316  156.5110 H   0  0  0  0  0  0  0  0  0  0  0  0
  152.0610  140.9246  157.8442 H   0  0  0  0  0  0  0  0  0  0  0  0
  150.0449  143.6131  156.5919 H   0  0  0  0  0  0  0  0  0  0  0  0
  150.0684  141.9514  158.9790 H   0  0  0  0  0  0  0  0  0  0  0  0
  149.5784  144.8092  158.4406 H   0  0  0  0  0  0  0  0  0  0  0  0
  149.1642  143.8267  159.8472 H   0  0  0  0  0  0  0  0  0  0  0  0
  150.9372  145.2476  160.7734 H   0  0  0  0  0  0  0  0  0  0  0  0
  151.7368  145.9657  158.2627 H   0  0  0  0  0  0  0  0  0  0  0  0
  152.9753  145.8036  159.5134 H   0  0  0  0  0  0  0  0  0  0  0  0
  152.6816  144.0676  157.1825 H   0  0  0  0  0  0  0  0  0  0  0  0
  153.8605  143.9613  158.4885 H   0  0  0  0  0  0  0  0  0  0  0  0
  152.5371  141.9357  158.8995 H   0  0  0  0  0  0  0  0  0  0  0  0
  150.0771  140.2785  153.3948 H   0  0  0  0  0  0  0  0  0  0  0  0
  1  2  3  0  0  0  0
  2  3  1  0  0  0  0
  3 16  1  0  0  0  0
  3  4  2  0  0  0  0
  4  5  1  0  0  0  0
  4 17  1  0  0  0  0
  5  6  2  0  0  0  0
  5 18  1  0  0  0  0
  6  7  1  0  0  0  0
  6 15  1  0  0  0  0
  7  8  1  0  0  0  0
  7 19  1  0  0  0  0
  8 13  1  0  0  0  0
  8  9  1  0  0  0  0
  8 20  1  0  0  0  0
  9 10  1  0  0  0  0
  9 21  1  0  0  0  0
  9 22  1  0  0  0  0
 10 14  1  0  0  0  0
 10 11  1  0  0  0  0
 10 23  1  0  0  0  0
 11 12  1  0  0  0  0
 11 24  1  0  0  0  0
 11 25  1  0  0  0  0
 12 13  1  0  0  0  0
 12 26  1  0  0  0  0
 12 27  1  0  0  0  0
 13 14  1  0  0  0  0
 13 28  1  0  0  0  0
 15 16  2  0  0  0  0
 16 29  1  0  0  0  0
M  END
> <s_m_source_file>
AV-unprocessed.smi

> <i_m_source_file_index>
883

> <i_lp_mmshare_version>
43012

> <i_f3d_flags>
0

> <s_epik_input>
TiNDYzFbY0hdW2NIXWMobltjSF0xKVtOSF1bQ0BIXShbQ0gyXVtDQEBIXTIzKVtDQEBIXShPMylbQ0gyXVtDSDJdMg==

> <s_epik_cmdline>
J2VwaWtfcHl0aG9uJywgJy1waCcsICc3LjAnLCAnLXRuJywgJzgnLCAnLW1hJywgJzIwMCcsICctbWV0YWxfYmluZGluZycsICctaW1hZScsICc8aW5maWxlLm1hZT4nLCAnLW9tYWUnLCAnPG91dGZpbGUubWFlPic=

> <r_lp_tautomer_probability>
1

> <r_epik_Ionization_Penalty>
1.50983e-05

> <r_epik_Ionization_Penalty_Charging>
0

> <r_epik_Ionization_Penalty_Neutral>
1.50983e-05

> <r_epik_State_Penalty>
-0

> <r_epik_Charging_Adjusted_Penalty>
0

> <i_epik_Tot_Q>
0

> <i_epik_Tot_abs_Q>
0

> <r_epik_Metal_State_Penalty>
-0

> <b_epik_Metal_Only>
0

> <s_lp_Force_Field>
OPLS_2005

> <r_lp_Energy>
39.3985

> <b_lp_Chiralities_Consistent>
1

> <s_lp_Variant>
AV-unprocessed.smi:883-3

> <Gold.Version>
5.8.1

> <Gold.Id.Protein>
6NUR|6NUR_protein|mol2

> <Gold.PLP.Fitness>
43.6367

> <Gold.PLP.PLP>
-34.9308

> <Gold.PLP.part.hbond>
-2.9066

> <Gold.PLP.part.metal>
0.0000

> <Gold.PLP.part.buried>
-2.0440

> <Gold.PLP.part.nonpolar>
-32.1568

> <Gold.PLP.part.repulsive>
2.5834

> <Gold.PLP.ligand.clash>
0.0551

> <Gold.PLP.ligand.torsion>
0.1098

> <Gold.PLP.Chemscore.Hbond>
2.0000

> <Gold.PLP.Chemscore.CHOScore>
0.9905

> <Gold.PLP.Chemscore.Metal>
0.0000

> <Gold.Chemscore.Hbonds>
donor molecule, donor type, donor heavy atom, donor atom, acceptor molecule, acceptor atom, score
      L1  H     7    19       P1  8028  1.00
      P1  H 10752 10764       L1     1  1.00
      L1  C    16    29       P1  7957  1.00

> <Gold.PLP.Chemscore.Internal.Correction>
0.0091

> <Gold.Rescore>
     Score         DG    S(hbond)    S(metal)    S(lipo)     H(rot)  DE(clash)    DE(int)     intcor
     18.72     -19.76       2.00        0.00      86.93       1.00       0.01       1.02       ----

> <Gold.Chemscore.Fitness>
18.7230

> <Gold.Chemscore.DG>
-19.7572

> <Gold.Chemscore.ZeroCoef>
-5.4800

> <Gold.Chemscore.Hbond>
1.9960

> <Gold.Chemscore.Metal>
0.0000

> <Gold.Chemscore.Lipo>
86.9269

> <Gold.Chemscore.Internal_Hbond>
0.0000

> <Gold.Chemscore.DEClash>
0.0109

> <Gold.Chemscore.DEInternal>
1.0233

> <Gold.Chemscore.Rot>
1.0000

> <Gold.Chemscore.Internal.Correction>
   9.000000E+99

> <Gold.Chemscore.Hbonds>
donor molecule, donor type, donor heavy atom, donor atom, acceptor molecule, acceptor atom, score
      L1  H     7    19       P1  8028  0.98
      P1  H 10752 10764       L1     1  0.93

> <Gold.Chemscore.Hbond.Weighted>
-6.6668

> <Gold.Chemscore.Metal.Weighted>
-0.0000

> <Gold.Chemscore.Lipo.Weighted>
-10.1705

> <Gold.Chemscore.Internal_Hbond.Weighted>
0.0000

> <Gold.Chemscore.DEClash.Weighted>
0.0109

> <Gold.Chemscore.DEInternal.Weighted>
1.0233

> <Gold.Chemscore.Rot.Weighted>
2.5600

> <Gold.Chemscore.Internal.Correction.Weighted>
   9.000000E+99

> <Gold.Protein.RotatedTorsions>
[ 6907 6896 6895 6894 ] final  114.85 input  -60.11 | X-H torsion
[ 7974 7965 7964 7962 ] final  -74.03 input  175.53 | X-H torsion
[ 8008 7997 7996 7995 ] final -155.44 input   59.86 | X-H torsion
[ 10167 10162 10161 10158 ] final    1.74 input  -65.29 | X-H torsion
[ 10718 10713 10712 10709 ] final  129.75 input   66.30 | X-H torsion
[ 10763 10752 10751 10750 ] final  -95.31 input  -60.55 | X-H torsion
[ 11005 11000 10999 10996 ] final   84.32 input  -57.11 | X-H torsion

> <Gold.Protein.ActiveResidues>
 VAL166  LYS551  ARG553  GLY616  TRP617  ASP618  TYR619  PRO620  LYS621  CYS622 
 ASP623  PHE694  ASN695  SER759  ASP760  ASP761  ALA762  ILE779  LEU786  VAL792 
 PHE793  MET794  SER795  GLU796  ALA797  LYS798  CYS799  TRP800  GLU811  SER814 

> <Gold.Protein.RotatedAtoms>
  152.4777  133.8179  159.7037 H   0  0  0  0  0  0  0  0  0  0  0  0  # atno 6907 bound_to 6896
  150.8805  133.7369  159.2940 H   0  0  0  0  0  0  0  0  0  0  0  0  # atno 6908 bound_to 6896
  151.4874  135.1059  159.9846 H   0  0  0  0  0  0  0  0  0  0  0  0  # atno 6909 bound_to 6896
  145.6445  140.9301  143.1018 H   0  0  0  0  0  0  0  0  0  0  0  0  # atno 7974 bound_to 7965
  155.7019  140.0768  157.2407 H   0  0  0  0  0  0  0  0  0  0  0  0  # atno 8008 bound_to 7997
  154.4072  140.1646  156.2253 H   0  0  0  0  0  0  0  0  0  0  0  0  # atno 8009 bound_to 7997
  155.9360  140.3388  155.6291 H   0  0  0  0  0  0  0  0  0  0  0  0  # atno 8010 bound_to 7997
  140.6668  143.7156  150.7844 H   0  0  0  0  0  0  0  0  0  0  0  0  # atno 10167 bound_to 10162
  157.5126  131.1097  150.9271 H   0  0  0  0  0  0  0  0  0  0  0  0  # atno 10718 bound_to 10713
  154.7136  135.5125  153.8704 H   0  0  0  0  0  0  0  0  0  0  0  0  # atno 10763 bound_to 10752
  153.0801  135.6629  154.0071 H   0  0  0  0  0  0  0  0  0  0  0  0  # atno 10764 bound_to 10752
  153.9908  135.3020  155.3391 H   0  0  0  0  0  0  0  0  0  0  0  0  # atno 10765 bound_to 10752
  139.9004  134.8208  156.2429 H   0  0  0  0  0  0  0  0  0  0  0  0  # atno 11005 bound_to 11000
  144.7145  139.8247  143.7403 LP  0  0  0  0  0  0  0  0  0  0  0  0  # atno 17320 bound_to 7965
  146.1254  139.4279  143.0202 LP  0  0  0  0  0  0  0  0  0  0  0  0  # atno 17321 bound_to 7965
  140.0835  143.4946  152.2517 LP  0  0  0  0  0  0  0  0  0  0  0  0  # atno 17342 bound_to 10162
  139.5920  144.7553  151.3376 LP  0  0  0  0  0  0  0  0  0  0  0  0  # atno 17343 bound_to 10162
  156.9907  130.5562  149.5303 LP  0  0  0  0  0  0  0  0  0  0  0  0  # atno 17370 bound_to 10713
  156.0299  130.5391  150.8506 LP  0  0  0  0  0  0  0  0  0  0  0  0  # atno 17371 bound_to 10713
  141.0273  133.7008  156.1369 LP  0  0  0  0  0  0  0  0  0  0  0  0  # atno 17394 bound_to 11000
  140.7147  134.4423  157.5579 LP  0  0  0  0  0  0  0  0  0  0  0  0  # atno 17395 bound_to 11000

$$$$
