#       Name:                AV-unprocessed.smi:1729
#       Creating user name   scv26
#       Creation time:       Fri Mar 27 08:18:30 2020


#       File generated by GOLD software.
#

@<TRIPOS>MOLECULE
AV-unprocessed.smi:1729
    40    41     1
SMALL
NO_CHARGES


@<TRIPOS>ATOM
      1 ****        -3.4956  -3.2369  -1.5570 C.3            1 S1                 0.0000
      2 ****        -3.3688  -2.7281  -0.1192 C.2            1 S1                 0.0000
      3 ****        -3.6037  -3.5171   0.7962 O.2            1 S1                 0.0000
      4 ****        -3.0028  -1.4420   0.0986 N.am           1 S1                 0.0000
      5 ****        -2.7811  -0.8968   1.4428 C.3            1 S1                 0.0000
      6 ****        -1.2728  -0.6597   1.6392 C.3            1 S1                 0.0000
      7 ****        -0.7002   0.2595   0.5388 C.3            1 S1                 0.0000
      8 ****         0.7542   0.3127   0.6533 N.am           1 S1                 0.0000
      9 ****         1.5293   1.3095   0.2024 C.2            1 S1                 0.0000
     10 ****         1.0916   2.3060  -0.3733 O.2            1 S1                 0.0000
     11 ****         2.8261   1.0737   0.4601 N.am           1 S1                 0.0000
     12 ****         3.9327   1.8961   0.1290 C.2            1 S1                 0.0000
     13 ****         5.2872   1.5921   0.4338 C.2            1 S1                 0.0000
     14 ****         6.1052   2.5416   0.0024 N.2            1 S1                 0.0000
     15 ****         5.2855   3.4483  -0.5758 N.pl3          1 S1                 0.0000
     16 ****         3.9547   3.0973  -0.5224 C.2            1 S1                 0.0000
     17 ****        -1.1215  -0.2176  -0.8708 C.3            1 S1                 0.0000
     18 ****        -2.6372  -0.4745  -0.9432 C.3            1 S1                 0.0000
     19 ****         5.6453   4.2920  -0.9990 H              1 S1                 0.0000
     20 ****        -2.5513  -3.1279  -2.0912 H              1 S1                 0.0000
     21 ****        -4.2725  -2.6911  -2.0928 H              1 S1                 0.0000
     22 ****        -3.7633  -4.2941  -1.5685 H              1 S1                 0.0000
     23 ****        -3.3258   0.0425   1.5477 H              1 S1                 0.0000
     24 ****        -3.1601  -1.5484   2.2313 H              1 S1                 0.0000
     25 ****        -1.0895  -0.2258   2.6227 H              1 S1                 0.0000
     26 ****        -0.7575  -1.6214   1.6245 H              1 S1                 0.0000
     27 ****        -1.1073   1.2596   0.7002 H              1 S1                 0.0000
     28 ****         1.2020  -0.4664   1.1134 H              1 S1                 0.0000
     29 ****         3.0459   0.2148   0.9429 H              1 S1                 0.0000
     30 ****         5.6960   0.7318   0.9427 H              1 S1                 0.0000
     31 ****         3.1757   3.7170  -0.9410 H              1 S1                 0.0000
     32 ****        -0.8366   0.5217  -1.6201 H              1 S1                 0.0000
     33 ****        -0.5905  -1.1362  -1.1255 H              1 S1                 0.0000
     34 ****        -2.9131  -0.7888  -1.9486 H              1 S1                 0.0000
     35 ****        -3.1793   0.4568  -0.7726 H              1 S1                 0.0000
     36 ****        -3.8683  -4.4589   0.5889 LP             1 S1                 0.0000
     37 ****        -3.5299  -3.2162   1.7470 LP             1 S1                 0.0000
     38 ****         0.1082   2.4034  -0.5265 LP             1 S1                 0.0000
     39 ****         1.7195   3.0180  -0.6877 LP             1 S1                 0.0000
     40 ****         7.1010   2.5789   0.0855 LP             1 S1                 0.0000
@<TRIPOS>BOND
    1    1    2 1     
    2    1   20 1     
    3    1   21 1     
    4    1   22 1     
    5    2    3 2     
    6    2    4 am    
    7    4   18 1     
    8    4    5 1     
    9    5    6 1     
   10    5   23 1     
   11    5   24 1     
   12    6    7 1     
   13    6   25 1     
   14    6   26 1     
   15    7    8 1     
   16    7   17 1     
   17    7   27 1     
   18    8    9 am    
   19    8   28 1     
   20    9   10 2     
   21    9   11 am    
   22   11   12 1     
   23   11   29 1     
   24   12   16 2     
   25   12   13 1     
   26   13   14 2     
   27   13   30 1     
   28   14   15 1     
   29   15   19 1     
   30   15   16 1     
   31   16   31 1     
   32   17   18 1     
   33   17   32 1     
   34   17   33 1     
   35   18   34 1     
   36   18   35 1     
   37    3   36 1     
   38    3   37 1     
   39   10   38 1     
   40   10   39 1     
   41   14   40 1     
@<TRIPOS>SUBSTRUCTURE
      1 S1             1
@<TRIPOS>SET
LONE_PAIRS      STATIC     ATOMS    <user>   **** ""
5 36 37 38 39 40
DONOR_HYDROGENS      STATIC     ATOMS    <user>   **** ""
3 28 29 19
ATOM$BLUE        STATIC     ATOMS    COLORGROUP SYSTEM
5 36 37 38 39 40
ATOM$RED        STATIC     ATOMS    COLORGROUP SYSTEM
3 28 29 19
