AV-unprocessed.smi:261|AV-procd|sdf|1996|dock5
  -GOLD-   2262021183D 1   1.00000     0.00000
 Structure written by MMmdl.
 51 54  0  0  0  0  0  0  0  0  1 V2000
  144.3509  135.0201  151.1245 C   0  0  0  0  0  0  0  0  0  0  0  0
  145.6216  135.1750  151.7351 O   0  0  0  0  0  0  0  0  0  0  0  0
  145.5968  135.9938  152.8951 C   0  0  2  0  0  0  0  0  0  0  0  0
  145.2550  137.4575  152.5995 C   0  0  0  0  0  0  0  0  0  0  0  0
  145.8901  138.2403  153.7611 C   0  0  1  0  0  0  0  0  0  0  0  0
  144.9100  138.4198  154.9341 C   0  0  0  0  0  0  0  0  0  0  0  0
  143.7880  139.0968  154.6800 N   0  0  0  0  0  0  0  0  0  0  0  0
  145.1500  137.9487  156.0447 O   0  0  0  0  0  0  0  0  0  0  0  0
  147.0426  137.4153  154.1314 N   0  0  0  0  0  0  0  0  0  0  0  0
  148.1327  137.8942  154.7921 C   0  0  0  0  0  0  0  0  0  0  0  0
  148.9540  137.0047  155.4117 N   0  0  0  0  0  0  0  0  0  0  0  0
  150.0398  137.4185  156.0696 C   0  0  0  0  0  0  0  0  0  0  0  0
  150.4897  138.6623  156.2344 N   0  0  0  0  0  0  0  0  0  0  0  0
  149.6746  139.5648  155.6191 C   0  0  0  0  0  0  0  0  0  0  0  0
  148.4876  139.2743  154.8846 C   0  0  0  0  0  0  0  0  0  0  0  0
  147.9374  140.4622  154.4120 N   0  0  0  0  0  0  0  0  0  0  0  0
  148.7470  141.3920  154.8374 C   0  0  0  0  0  0  0  0  0  0  0  0
  149.8207  140.9389  155.5668 N   0  0  0  0  0  0  0  0  0  0  0  0
  150.8781  141.7424  156.1552 C   0  0  0  0  0  0  0  0  0  0  0  0
  150.9073  141.6424  157.6957 C   0  0  1  0  0  0  0  0  0  0  0  0
  151.4564  140.3853  158.0428 O   0  0  0  0  0  0  0  0  0  0  0  0
  151.7703  142.7358  158.3565 C   0  0  1  0  0  0  0  0  0  0  0  0
  151.3841  144.1692  157.9847 C   0  0  0  0  0  0  0  0  0  0  0  0
  151.8891  144.9937  159.1572 C   0  0  0  0  0  0  0  0  0  0  0  0
  152.0824  143.9645  160.2728 C   0  0  0  0  0  0  0  0  0  0  0  0
  151.5430  142.7549  159.7582 O   0  0  0  0  0  0  0  0  0  0  0  0
  146.9906  136.0958  153.5163 C   0  0  0  0  0  0  0  0  0  0  0  0
  144.9062  135.5912  153.6387 H   0  0  0  0  0  0  0  0  0  0  0  0
  146.2116  139.2192  153.4003 H   0  0  0  0  0  0  0  0  0  0  0  0
  144.4396  134.3592  150.2625 H   0  0  0  0  0  0  0  0  0  0  0  0
  143.9552  135.9736  150.7735 H   0  0  0  0  0  0  0  0  0  0  0  0
  143.6331  134.5752  151.8148 H   0  0  0  0  0  0  0  0  0  0  0  0
  145.7233  137.7611  151.6620 H   0  0  0  0  0  0  0  0  0  0  0  0
  144.1822  137.6266  152.4967 H   0  0  0  0  0  0  0  0  0  0  0  0
  143.1081  139.2393  155.4125 H   0  0  0  0  0  0  0  0  0  0  0  0
  143.6217  139.4598  153.7526 H   0  0  0  0  0  0  0  0  0  0  0  0
  150.6331  136.6415  156.5284 H   0  0  0  0  0  0  0  0  0  0  0  0
  148.5852  142.4387  154.6236 H   0  0  0  0  0  0  0  0  0  0  0  0
  151.8335  141.4254  155.7344 H   0  0  0  0  0  0  0  0  0  0  0  0
  150.7250  142.7742  155.8380 H   0  0  0  0  0  0  0  0  0  0  0  0
  149.8886  141.6988  158.0814 H   0  0  0  0  0  0  0  0  0  0  0  0
  150.8528  139.7109  157.7704 H   0  0  0  0  0  0  0  0  0  0  0  0
  152.8316  142.5763  158.1544 H   0  0  0  0  0  0  0  0  0  0  0  0
  151.8078  144.4881  157.0319 H   0  0  0  0  0  0  0  0  0  0  0  0
  150.2988  144.2597  157.9184 H   0  0  0  0  0  0  0  0  0  0  0  0
  152.8353  145.4817  158.9207 H   0  0  0  0  0  0  0  0  0  0  0  0
  151.1708  145.7663  159.4331 H   0  0  0  0  0  0  0  0  0  0  0  0
  153.1429  143.8242  160.4870 H   0  0  0  0  0  0  0  0  0  0  0  0
  151.5825  144.2511  161.1983 H   0  0  0  0  0  0  0  0  0  0  0  0
  147.1496  135.2980  154.2420 H   0  0  0  0  0  0  0  0  0  0  0  0
  147.7631  136.0309  152.7486 H   0  0  0  0  0  0  0  0  0  0  0  0
  1  2  1  0  0  0  0
  1 30  1  0  0  0  0
  1 31  1  0  0  0  0
  1 32  1  0  0  0  0
  2  3  1  0  0  0  0
  3 28  1  0  0  0  0
  3 27  1  0  0  0  0
  3  4  1  0  0  0  0
  4  5  1  0  0  0  0
  4 33  1  0  0  0  0
  4 34  1  0  0  0  0
  5 29  1  0  0  0  0
  5  6  1  0  0  0  0
  5  9  1  0  0  0  0
  6  7  1  0  0  0  0
  6  8  2  0  0  0  0
  7 35  1  0  0  0  0
  7 36  1  0  0  0  0
  9 10  1  0  0  0  0
  9 27  1  0  0  0  0
 10 15  1  0  0  0  0
 10 11  2  0  0  0  0
 11 12  1  0  0  0  0
 12 13  2  0  0  0  0
 12 37  1  0  0  0  0
 13 14  1  0  0  0  0
 14 18  1  0  0  0  0
 14 15  2  0  0  0  0
 15 16  1  0  0  0  0
 16 17  2  0  0  0  0
 17 18  1  0  0  0  0
 17 38  1  0  0  0  0
 18 19  1  0  0  0  0
 19 20  1  0  0  0  0
 19 39  1  0  0  0  0
 19 40  1  0  0  0  0
 20 21  1  0  0  0  0
 20 22  1  0  0  0  0
 20 41  1  0  0  0  0
 21 42  1  0  0  0  0
 22 26  1  0  0  0  0
 22 23  1  0  0  0  0
 22 43  1  0  0  0  0
 23 24  1  0  0  0  0
 23 44  1  0  0  0  0
 23 45  1  0  0  0  0
 24 25  1  0  0  0  0
 24 46  1  0  0  0  0
 24 47  1  0  0  0  0
 25 26  1  0  0  0  0
 25 48  1  0  0  0  0
 25 49  1  0  0  0  0
 27 50  1  0  0  0  0
 27 51  1  0  0  0  0
M  END
> <s_m_source_file>
AV-unprocessed.smi

> <i_m_source_file_index>
261

> <i_lp_mmshare_version>
43012

> <i_f3d_flags>
0

> <s_epik_input>
W0NIM11PW0NASF0xW0NIMl1bQ0BASF0oQyg9TylbTkgyXSlOKFtDSDJdMSljKG5bY0hdbjIpYyhjMjMpbltjSF1uM1tDSDJdW0NASF0oW09IXSlbQ0BASF00W0NIMl1bQ0gyXVtDSDJdTzQ=

> <s_epik_cmdline>
J2VwaWtfcHl0aG9uJywgJy1waCcsICc3LjAnLCAnLXRuJywgJzgnLCAnLW1hJywgJzIwMCcsICctbWV0YWxfYmluZGluZycsICctaW1hZScsICc8aW5maWxlLm1hZT4nLCAnLW9tYWUnLCAnPG91dGZpbGUubWFlPic=

> <r_lp_tautomer_probability>
1

> <r_epik_Ionization_Penalty>
0.000713824

> <r_epik_Ionization_Penalty_Charging>
0

> <r_epik_Ionization_Penalty_Neutral>
0.000713824

> <r_epik_State_Penalty>
0.000402132

> <r_epik_Charging_Adjusted_Penalty>
0.000402132

> <i_epik_Tot_Q>
0

> <i_epik_Tot_abs_Q>
0

> <r_epik_Metal_State_Penalty>
-0

> <b_epik_Metal_Only>
0

> <s_lp_Force_Field>
OPLS_2005

> <r_lp_Energy>
41.8336

> <b_lp_Chiralities_Consistent>
1

> <s_lp_Variant>
AV-unprocessed.smi:261-14

> <Gold.Version>
5.8.1

> <Gold.Id.Protein>
6NUR|6NUR_protein|mol2

> <Gold.PLP.Fitness>
38.4339

> <Gold.PLP.PLP>
-33.2619

> <Gold.PLP.part.hbond>
-0.9531

> <Gold.PLP.part.metal>
0.0000

> <Gold.PLP.part.buried>
-4.3143

> <Gold.PLP.part.nonpolar>
-29.1744

> <Gold.PLP.part.repulsive>
0.3404

> <Gold.PLP.ligand.clash>
0.0000

> <Gold.PLP.ligand.torsion>
0.4721

> <Gold.PLP.Chemscore.Hbond>
1.0000

> <Gold.PLP.Chemscore.CHOScore>
0.9992

> <Gold.PLP.Chemscore.Metal>
0.0000

> <Gold.Chemscore.Hbonds>
donor molecule, donor type, donor heavy atom, donor atom, acceptor molecule, acceptor atom, score
      L1  H     7    36       P1 10175  1.00
      L1  C    17    38       P1  8028  1.00

> <Gold.PLP.Chemscore.Internal.Correction>
0.1186

> <Gold.Rescore>
     Score         DG    S(hbond)    S(metal)    S(lipo)     H(rot)  DE(clash)    DE(int)     intcor
      9.43     -10.04       0.99        0.00      80.29       3.18       0.03       0.59       ----

> <Gold.Chemscore.Fitness>
9.4331

> <Gold.Chemscore.DG>
-10.0443

> <Gold.Chemscore.ZeroCoef>
-5.4800

> <Gold.Chemscore.Hbond>
0.9937

> <Gold.Chemscore.Metal>
0.0000

> <Gold.Chemscore.Lipo>
80.2901

> <Gold.Chemscore.Internal_Hbond>
0.0000

> <Gold.Chemscore.DEClash>
0.0253

> <Gold.Chemscore.DEInternal>
0.5860

> <Gold.Chemscore.Rot>
3.1831

> <Gold.Chemscore.Internal.Correction>
   9.000000E+99

> <Gold.Chemscore.Hbonds>
donor molecule, donor type, donor heavy atom, donor atom, acceptor molecule, acceptor atom, score
      L1  H     7    36       P1 10175  0.98

> <Gold.Chemscore.Hbond.Weighted>
-3.3190

> <Gold.Chemscore.Metal.Weighted>
-0.0000

> <Gold.Chemscore.Lipo.Weighted>
-9.3939

> <Gold.Chemscore.Internal_Hbond.Weighted>
0.0000

> <Gold.Chemscore.DEClash.Weighted>
0.0253

> <Gold.Chemscore.DEInternal.Weighted>
0.5860

> <Gold.Chemscore.Rot.Weighted>
8.1486

> <Gold.Chemscore.Internal.Correction.Weighted>
   9.000000E+99

> <Gold.Protein.RotatedTorsions>
[ 6907 6896 6895 6894 ] final  -53.19 input  -60.11 | X-H torsion
[ 7974 7965 7964 7962 ] final  157.20 input  175.53 | X-H torsion
[ 8008 7997 7996 7995 ] final -115.17 input   59.86 | X-H torsion
[ 10167 10162 10161 10158 ] final    0.12 input  -65.29 | X-H torsion
[ 10718 10713 10712 10709 ] final  -22.01 input   66.30 | X-H torsion
[ 10763 10752 10751 10750 ] final   -6.09 input  -60.55 | X-H torsion
[ 11005 11000 10999 10996 ] final  -62.72 input  -57.11 | X-H torsion

> <Gold.Protein.ActiveResidues>
 VAL166  LYS551  ARG553  GLY616  TRP617  ASP618  TYR619  PRO620  LYS621  CYS622 
 ASP623  PHE694  ASN695  SER759  ASP760  ASP761  ALA762  ILE779  LEU786  VAL792 
 PHE793  MET794  SER795  GLU796  ALA797  LYS798  CYS799  TRP800  GLU811  SER814 

> <Gold.Protein.RotatedAtoms>
  150.8449  134.7755  159.6962 H   0  0  0  0  0  0  0  0  0  0  0  0  # atno 6907 bound_to 6896
  152.4528  134.5353  159.9833 H   0  0  0  0  0  0  0  0  0  0  0  0  # atno 6908 bound_to 6896
  151.5485  133.3383  159.2984 H   0  0  0  0  0  0  0  0  0  0  0  0  # atno 6909 bound_to 6896
  144.7917  139.7308  143.6218 H   0  0  0  0  0  0  0  0  0  0  0  0  # atno 7974 bound_to 7965
  155.0479  140.0392  157.2533 H   0  0  0  0  0  0  0  0  0  0  0  0  # atno 8008 bound_to 7997
  154.7162  140.2702  155.6559 H   0  0  0  0  0  0  0  0  0  0  0  0  # atno 8009 bound_to 7997
  156.2804  140.2712  156.1819 H   0  0  0  0  0  0  0  0  0  0  0  0  # atno 8010 bound_to 7997
  140.6743  143.6961  150.7989 H   0  0  0  0  0  0  0  0  0  0  0  0  # atno 10167 bound_to 10162
  156.5103  130.4608  149.6651 H   0  0  0  0  0  0  0  0  0  0  0  0  # atno 10718 bound_to 10713
  153.4076  135.7007  153.6382 H   0  0  0  0  0  0  0  0  0  0  0  0  # atno 10763 bound_to 10752
  153.4889  135.3677  155.2482 H   0  0  0  0  0  0  0  0  0  0  0  0  # atno 10764 bound_to 10752
  154.8715  135.4084  154.3422 H   0  0  0  0  0  0  0  0  0  0  0  0  # atno 10765 bound_to 10752
  141.1369  133.6643  156.5571 H   0  0  0  0  0  0  0  0  0  0  0  0  # atno 11005 bound_to 11000
  146.2171  139.5570  142.9642 LP  0  0  0  0  0  0  0  0  0  0  0  0  # atno 17320 bound_to 7965
  145.5777  141.0386  143.2139 LP  0  0  0  0  0  0  0  0  0  0  0  0  # atno 17321 bound_to 7965
  140.0651  143.5116  152.2608 LP  0  0  0  0  0  0  0  0  0  0  0  0  # atno 17342 bound_to 10162
  139.6027  144.7587  151.3135 LP  0  0  0  0  0  0  0  0  0  0  0  0  # atno 17343 bound_to 10162
  156.3246  130.7299  151.2217 LP  0  0  0  0  0  0  0  0  0  0  0  0  # atno 17370 bound_to 10713
  157.7451  131.0446  150.4802 LP  0  0  0  0  0  0  0  0  0  0  0  0  # atno 17371 bound_to 10713
  140.4017  134.7350  157.4784 LP  0  0  0  0  0  0  0  0  0  0  0  0  # atno 17394 bound_to 11000
  140.0491  134.6157  155.8884 LP  0  0  0  0  0  0  0  0  0  0  0  0  # atno 17395 bound_to 11000

$$$$
