AV-unprocessed.smi:2895|AV-procd|sdf|11134|dock4
  -GOLD-   2272016 13D 1   1.00000     0.00000
 Structure written by MMmdl.
 54 57  0  0  0  0  0  0  0  0  3 V2000
  148.4164  133.6474  156.2469 O   0  0  0  0  0  0  0  0  0  0  0  0
  148.5665  134.5670  155.4415 C   0  0  0  0  0  0  0  0  0  0  0  0
  148.2681  134.4277  154.1383 N   0  0  0  0  0  0  0  0  0  0  0  0
  147.7567  133.2099  153.5194 C   0  0  0  0  0  0  0  0  0  0  0  0
  147.7191  133.3230  151.9863 C   0  0  0  0  0  0  0  0  0  0  0  0
  146.3258  133.6283  151.4709 C   0  0  0  0  0  0  0  0  0  0  0  0
  145.4883  132.5854  151.0171 C   0  0  0  0  0  0  0  0  0  0  0  0
  144.1958  132.8956  150.5469 C   0  0  0  0  0  0  0  0  0  0  0  0
  143.7744  134.1795  150.5353 N   0  3  0  0  0  0  0  0  0  0  0  0
  144.5433  135.2060  150.9607 C   0  0  0  0  0  0  0  0  0  0  0  0
  145.8448  134.9560  151.4426 C   0  0  0  0  0  0  0  0  0  0  0  0
  148.9809  135.8083  155.8005 N   0  0  0  0  0  0  0  0  0  0  0  0
  148.9723  137.0034  154.9422 C   0  0  0  0  0  0  0  0  0  0  0  0
  150.4235  137.3836  154.5760 C   0  0  0  0  0  0  0  0  0  0  0  0
  151.2828  137.5786  155.7827 N   0  3  0  0  0  0  0  0  0  0  0  0
  151.0707  138.9014  156.4543 C   0  0  2  0  0  0  0  0  0  0  0  0
  149.6418  139.0427  157.0474 C   0  0  0  0  0  0  0  0  0  0  0  0
  149.1285  140.3665  156.4599 C   0  0  1  0  0  0  0  0  0  0  0  0
  149.9139  141.5425  157.0643 C   0  0  0  0  0  0  0  0  0  0  0  0
  151.2887  141.4077  156.3867 C   0  0  0  0  0  0  0  0  0  0  0  0
  151.1239  140.1445  155.5185 C   0  0  2  0  0  0  0  0  0  0  0  0
  149.6827  140.2944  155.0448 C   0  0  0  0  0  0  0  0  0  0  0  0
  151.1947  136.3885  156.6790 C   0  0  0  0  0  0  0  0  0  0  0  0
  149.7360  136.0442  157.0357 C   0  0  0  0  0  0  0  0  0  0  0  0
  148.3868  135.2298  153.5364 H   0  0  0  0  0  0  0  0  0  0  0  0
  148.3620  132.3551  153.8264 H   0  0  0  0  0  0  0  0  0  0  0  0
  146.7519  133.0315  153.9035 H   0  0  0  0  0  0  0  0  0  0  0  0
  148.4042  134.1032  151.6516 H   0  0  0  0  0  0  0  0  0  0  0  0
  148.0642  132.3953  151.5280 H   0  0  0  0  0  0  0  0  0  0  0  0
  145.8302  131.5603  151.0309 H   0  0  0  0  0  0  0  0  0  0  0  0
  143.4917  132.1613  150.1835 H   0  0  0  0  0  0  0  0  0  0  0  0
  144.0972  136.1883  150.9039 H   0  0  0  0  0  0  0  0  0  0  0  0
  146.4625  135.7731  151.7863 H   0  0  0  0  0  0  0  0  0  0  0  0
  148.3980  136.8825  154.0240 H   0  0  0  0  0  0  0  0  0  0  0  0
  148.4861  137.8195  155.4774 H   0  0  0  0  0  0  0  0  0  0  0  0
  150.8597  136.5790  153.9824 H   0  0  0  0  0  0  0  0  0  0  0  0
  150.4238  138.2564  153.9252 H   0  0  0  0  0  0  0  0  0  0  0  0
  151.8145  139.0109  157.2438 H   0  0  0  0  0  0  0  0  0  0  0  0
  148.9800  138.2412  156.7168 H   0  0  0  0  0  0  0  0  0  0  0  0
  149.6425  139.0428  158.1381 H   0  0  0  0  0  0  0  0  0  0  0  0
  148.0463  140.4829  156.5252 H   0  0  0  0  0  0  0  0  0  0  0  0
  149.4507  142.4958  156.8066 H   0  0  0  0  0  0  0  0  0  0  0  0
  149.9762  141.4818  158.1515 H   0  0  0  0  0  0  0  0  0  0  0  0
  151.4920  142.2799  155.7641 H   0  0  0  0  0  0  0  0  0  0  0  0
  152.1033  141.3194  157.1067 H   0  0  0  0  0  0  0  0  0  0  0  0
  151.8579  140.1227  154.7173 H   0  0  0  0  0  0  0  0  0  0  0  0
  149.3212  139.4345  154.4783 H   0  0  0  0  0  0  0  0  0  0  0  0
  149.5090  141.2036  154.4660 H   0  0  0  0  0  0  0  0  0  0  0  0
  151.6318  135.5428  156.1460 H   0  0  0  0  0  0  0  0  0  0  0  0
  151.7963  136.4866  157.5779 H   0  0  0  0  0  0  0  0  0  0  0  0
  149.2734  136.8604  157.5918 H   0  0  0  0  0  0  0  0  0  0  0  0
  149.7160  135.1872  157.7103 H   0  0  0  0  0  0  0  0  0  0  0  0
  152.2363  137.6063  155.4503 H   0  0  0  0  0  0  0  0  0  0  0  0
  142.8354  134.3822  150.1910 H   0  0  0  0  0  0  0  0  0  0  0  0
  1  2  2  0  0  0  0
  2  3  1  0  0  0  0
  2 12  1  0  0  0  0
  3  4  1  0  0  0  0
  3 25  1  0  0  0  0
  4  5  1  0  0  0  0
  4 26  1  0  0  0  0
  4 27  1  0  0  0  0
  5  6  1  0  0  0  0
  5 28  1  0  0  0  0
  5 29  1  0  0  0  0
  6 11  1  0  0  0  0
  6  7  2  0  0  0  0
  7  8  1  0  0  0  0
  7 30  1  0  0  0  0
  8  9  2  0  0  0  0
  8 31  1  0  0  0  0
  9 10  1  0  0  0  0
  9 54  1  0  0  0  0
 10 11  2  0  0  0  0
 10 32  1  0  0  0  0
 11 33  1  0  0  0  0
 12 24  1  0  0  0  0
 12 13  1  0  0  0  0
 13 14  1  0  0  0  0
 13 34  1  0  0  0  0
 13 35  1  0  0  0  0
 14 15  1  0  0  0  0
 14 36  1  0  0  0  0
 14 37  1  0  0  0  0
 15 16  1  0  0  0  0
 15 23  1  0  0  0  0
 15 53  1  0  0  0  0
 16 21  1  0  0  0  0
 16 17  1  0  0  0  0
 16 38  1  0  0  0  0
 17 18  1  0  0  0  0
 17 39  1  0  0  0  0
 17 40  1  0  0  0  0
 18 22  1  0  0  0  0
 18 19  1  0  0  0  0
 18 41  1  0  0  0  0
 19 20  1  0  0  0  0
 19 42  1  0  0  0  0
 19 43  1  0  0  0  0
 20 21  1  0  0  0  0
 20 44  1  0  0  0  0
 20 45  1  0  0  0  0
 21 22  1  0  0  0  0
 21 46  1  0  0  0  0
 22 47  1  0  0  0  0
 22 48  1  0  0  0  0
 23 24  1  0  0  0  0
 23 49  1  0  0  0  0
 23 50  1  0  0  0  0
 24 51  1  0  0  0  0
 24 52  1  0  0  0  0
M  CHG  1   9   1
M  CHG  1  15   1
M  END
> <s_m_source_file>
AV-unprocessed.smi

> <i_m_source_file_index>
2895

> <i_lp_mmshare_version>
43012

> <i_f3d_flags>
0

> <s_epik_input>
W0NIMl0xW0NIMl1bQ0BASF0oW0NIMl0yKVtDQEBIXShbQ0gyXVtDQEhdMTIpTihbQ0gyXVtDSDJdMylbQ0gyXVtDSDJdTjNDKD1PKVtOSF1bQ0gyXVtDSDJdYzRbY0hdW2NIXW5bY0hdW2NIXTQ=

> <s_epik_cmdline>
J2VwaWtfcHl0aG9uJywgJy1waCcsICc3LjAnLCAnLXRuJywgJzgnLCAnLW1hJywgJzIwMCcsICctbWV0YWxfYmluZGluZycsICctaW1hZScsICc8aW5maWxlLm1hZT4nLCAnLW9tYWUnLCAnPG91dGZpbGUubWFlPic=

> <r_epik_Ionization_Penalty>
1.44916

> <r_epik_Ionization_Penalty_Charging>
1.44913

> <r_epik_Ionization_Penalty_Neutral>
2.64641e-05

> <r_epik_State_Penalty>
1.53218

> <r_epik_Charging_Adjusted_Penalty>
2.98131

> <i_epik_Tot_Q>
2

> <i_epik_Tot_abs_Q>
2

> <r_epik_Metal_State_Penalty>
1.58241

> <b_epik_Metal_Only>
0

> <s_lp_Force_Field>
OPLS_2005

> <r_lp_Energy>
108.082

> <b_lp_Chiralities_Consistent>
1

> <s_lp_Variant>
AV-unprocessed.smi:2895-7

> <Gold.Version>
5.8.1

> <Gold.Id.Protein>
6NUR|6NUR_protein|mol2

> <Gold.PLP.Fitness>
40.4421

> <Gold.PLP.PLP>
-32.9463

> <Gold.PLP.part.hbond>
-2.0000

> <Gold.PLP.part.metal>
0.0000

> <Gold.PLP.part.buried>
-2.9918

> <Gold.PLP.part.nonpolar>
-26.9134

> <Gold.PLP.part.repulsive>
0.0699

> <Gold.PLP.ligand.clash>
0.0007

> <Gold.PLP.ligand.torsion>
0.8055

> <Gold.PLP.Chemscore.Hbond>
3.0000

> <Gold.PLP.Chemscore.CHOScore>
0.0000

> <Gold.PLP.Chemscore.Metal>
0.0000

> <Gold.Chemscore.Hbonds>
donor molecule, donor type, donor heavy atom, donor atom, acceptor molecule, acceptor atom, score
      L1  H     3    25       P1  7948  1.00
      L1  H     9    54       P1 10186  2.00

> <Gold.PLP.Chemscore.Internal.Correction>
0.1075

> <Gold.Rescore>
     Score         DG    S(hbond)    S(metal)    S(lipo)     H(rot)  DE(clash)    DE(int)     intcor
     15.40     -19.13       1.87        0.00      95.03       1.46       0.18       3.55       ----

> <Gold.Chemscore.Fitness>
15.3981

> <Gold.Chemscore.DG>
-19.1270

> <Gold.Chemscore.ZeroCoef>
-5.4800

> <Gold.Chemscore.Hbond>
1.8740

> <Gold.Chemscore.Metal>
0.0000

> <Gold.Chemscore.Lipo>
95.0293

> <Gold.Chemscore.Internal_Hbond>
0.0000

> <Gold.Chemscore.DEClash>
0.1834

> <Gold.Chemscore.DEInternal>
3.5455

> <Gold.Chemscore.Rot>
1.4572

> <Gold.Chemscore.Internal.Correction>
   9.000000E+99

> <Gold.Chemscore.Hbonds>
donor molecule, donor type, donor heavy atom, donor atom, acceptor molecule, acceptor atom, score
      L1  H     3    25       P1  7948  0.91
      L1  H     9    54       P1 10186  0.82

> <Gold.Chemscore.Hbond.Weighted>
-6.2591

> <Gold.Chemscore.Metal.Weighted>
-0.0000

> <Gold.Chemscore.Lipo.Weighted>
-11.1184

> <Gold.Chemscore.Internal_Hbond.Weighted>
0.0000

> <Gold.Chemscore.DEClash.Weighted>
0.1834

> <Gold.Chemscore.DEInternal.Weighted>
3.5455

> <Gold.Chemscore.Rot.Weighted>
3.7305

> <Gold.Chemscore.Internal.Correction.Weighted>
   9.000000E+99

> <Gold.Protein.RotatedTorsions>
[ 6907 6896 6895 6894 ] final  146.36 input  -60.11 | X-H torsion
[ 7974 7965 7964 7962 ] final   99.89 input  175.53 | X-H torsion
[ 8008 7997 7996 7995 ] final  131.01 input   59.86 | X-H torsion
[ 10167 10162 10161 10158 ] final   86.73 input  -65.29 | X-H torsion
[ 10718 10713 10712 10709 ] final   52.08 input   66.30 | X-H torsion
[ 10763 10752 10751 10750 ] final  111.62 input  -60.55 | X-H torsion
[ 11005 11000 10999 10996 ] final  101.08 input  -57.11 | X-H torsion

> <Gold.Protein.ActiveResidues>
 VAL166  LYS551  ARG553  GLY616  TRP617  ASP618  TYR619  PRO620  LYS621  CYS622 
 ASP623  PHE694  ASN695  SER759  ASP760  ASP761  ALA762  ILE779  LEU786  VAL792 
 PHE793  MET794  SER795  GLU796  ALA797  LYS798  CYS799  TRP800  GLU811  SER814 

> <Gold.Protein.RotatedAtoms>
  152.1689  133.4630  159.4898 H   0  0  0  0  0  0  0  0  0  0  0  0  # atno 6907 bound_to 6896
  150.6917  134.1978  159.4319 H   0  0  0  0  0  0  0  0  0  0  0  0  # atno 6908 bound_to 6896
  151.9884  134.9992  160.0611 H   0  0  0  0  0  0  0  0  0  0  0  0  # atno 6909 bound_to 6896
  145.3929  139.2360  143.3342 H   0  0  0  0  0  0  0  0  0  0  0  0  # atno 7974 bound_to 7965
  156.2963  140.2582  156.2856 H   0  0  0  0  0  0  0  0  0  0  0  0  # atno 8008 bound_to 7997
  154.9559  140.0393  157.2185 H   0  0  0  0  0  0  0  0  0  0  0  0  # atno 8009 bound_to 7997
  154.7992  140.2825  155.5939 H   0  0  0  0  0  0  0  0  0  0  0  0  # atno 8010 bound_to 7997
  139.8845  144.6421  150.8806 H   0  0  0  0  0  0  0  0  0  0  0  0  # atno 10167 bound_to 10162
  157.5041  130.8457  149.8353 H   0  0  0  0  0  0  0  0  0  0  0  0  # atno 10718 bound_to 10713
  153.4659  135.3711  155.2364 H   0  0  0  0  0  0  0  0  0  0  0  0  # atno 10763 bound_to 10752
  154.8757  135.3920  154.3869 H   0  0  0  0  0  0  0  0  0  0  0  0  # atno 10764 bound_to 10752
  153.4450  135.7084  153.6209 H   0  0  0  0  0  0  0  0  0  0  0  0  # atno 10765 bound_to 10752
  139.8772  134.9168  156.4853 H   0  0  0  0  0  0  0  0  0  0  0  0  # atno 11005 bound_to 11000
  146.2789  140.4614  142.8784 LP  0  0  0  0  0  0  0  0  0  0  0  0  # atno 17320 bound_to 7965
  144.8428  140.6883  143.6219 LP  0  0  0  0  0  0  0  0  0  0  0  0  # atno 17321 bound_to 7965
  140.7738  143.3559  151.1923 LP  0  0  0  0  0  0  0  0  0  0  0  0  # atno 17342 bound_to 10162
  139.7165  143.9292  152.2969 LP  0  0  0  0  0  0  0  0  0  0  0  0  # atno 17343 bound_to 10162
  156.0247  130.3783  150.1857 LP  0  0  0  0  0  0  0  0  0  0  0  0  # atno 17370 bound_to 10713
  157.0047  130.9933  151.3382 LP  0  0  0  0  0  0  0  0  0  0  0  0  # atno 17371 bound_to 10713
  140.8697  133.7997  155.9352 LP  0  0  0  0  0  0  0  0  0  0  0  0  # atno 17394 bound_to 11000
  140.8965  134.2431  157.5066 LP  0  0  0  0  0  0  0  0  0  0  0  0  # atno 17395 bound_to 11000

$$$$
