AV-unprocessed.smi:2749|AV-procd|sdf|10585|dock4
  -GOLD-   2272015 33D 1   1.00000     0.00000
 Structure written by MMmdl.
 32 34  0  0  0  0  0  0  0  0  1 V2000
  149.5613  140.7924  157.2691 O   0  0  0  0  0  0  0  0  0  0  0  0
  149.4999  141.9279  156.8007 C   0  0  0  0  0  0  0  0  0  0  0  0
  148.9020  142.1552  155.6111 N   0  0  0  0  0  0  0  0  0  0  0  0
  148.2593  141.2764  154.6893 C   0  0  0  0  0  0  0  0  0  0  0  0
  148.7503  139.9506  154.7067 C   0  0  0  0  0  0  0  0  0  0  0  0
  148.1909  138.9885  153.8433 C   0  0  0  0  0  0  0  0  0  0  0  0
  147.1496  139.3778  152.9825 C   0  0  0  0  0  0  0  0  0  0  0  0
  146.5798  138.4889  152.1348 F   0  0  0  0  0  0  0  0  0  0  0  0
  146.7150  140.7148  153.0259 C   0  0  0  0  0  0  0  0  0  0  0  0
  147.2518  141.6369  153.8531 N   0  0  0  0  0  0  0  0  0  0  0  0
  150.0148  143.0014  157.4216 N   0  0  0  0  0  0  0  0  0  0  0  0
  150.7024  143.0072  158.7094 C   0  0  2  0  0  0  0  0  0  0  0  0
  150.2583  144.1818  159.5874 C   0  0  0  0  0  0  0  0  0  0  0  0
  151.5821  144.9248  159.8135 C   0  0  1  0  0  0  0  0  0  0  0  0
  152.5389  144.1391  160.7224 C   0  0  0  0  0  0  0  0  0  0  0  0
  152.9935  143.0086  159.7988 C   0  0  0  0  0  0  0  0  0  0  0  0
  152.1982  143.3124  158.5223 C   0  0  2  0  0  0  0  0  0  0  0  0
  152.2000  144.7304  158.5543 O   0  0  0  0  0  0  0  0  0  0  0  0
  148.9297  143.1192  155.3127 H   0  0  0  0  0  0  0  0  0  0  0  0
  149.5507  139.6676  155.3753 H   0  0  0  0  0  0  0  0  0  0  0  0
  148.5542  137.9715  153.8430 H   0  0  0  0  0  0  0  0  0  0  0  0
  145.9168  141.0541  152.3821 H   0  0  0  0  0  0  0  0  0  0  0  0
  149.9180  143.8952  156.9602 H   0  0  0  0  0  0  0  0  0  0  0  0
  150.5734  142.0572  159.2310 H   0  0  0  0  0  0  0  0  0  0  0  0
  149.5467  144.8257  159.0682 H   0  0  0  0  0  0  0  0  0  0  0  0
  149.7992  143.8586  160.5223 H   0  0  0  0  0  0  0  0  0  0  0  0
  151.4596  145.9703  160.0977 H   0  0  0  0  0  0  0  0  0  0  0  0
  153.3885  144.7554  161.0184 H   0  0  0  0  0  0  0  0  0  0  0  0
  152.0477  143.7769  161.6262 H   0  0  0  0  0  0  0  0  0  0  0  0
  154.0657  143.0766  159.6117 H   0  0  0  0  0  0  0  0  0  0  0  0
  152.7791  142.0178  160.2007 H   0  0  0  0  0  0  0  0  0  0  0  0
  152.6373  142.8805  157.6219 H   0  0  0  0  0  0  0  0  0  0  0  0
  1  2  2  0  0  0  0
  2  3  1  0  0  0  0
  2 11  1  0  0  0  0
  3  4  1  0  0  0  0
  3 19  1  0  0  0  0
  4 10  1  0  0  0  0
  4  5  2  0  0  0  0
  5  6  1  0  0  0  0
  5 20  1  0  0  0  0
  6  7  2  0  0  0  0
  6 21  1  0  0  0  0
  7  8  1  0  0  0  0
  7  9  1  0  0  0  0
  9 10  2  0  0  0  0
  9 22  1  0  0  0  0
 11 12  1  0  0  0  0
 11 23  1  0  0  0  0
 12 17  1  0  0  0  0
 12 13  1  0  0  0  0
 12 24  1  0  0  0  0
 13 14  1  0  0  0  0
 13 25  1  0  0  0  0
 13 26  1  0  0  0  0
 14 18  1  0  0  0  0
 14 15  1  0  0  0  0
 14 27  1  0  0  0  0
 15 16  1  0  0  0  0
 15 28  1  0  0  0  0
 15 29  1  0  0  0  0
 16 17  1  0  0  0  0
 16 30  1  0  0  0  0
 16 31  1  0  0  0  0
 17 18  1  0  0  0  0
 17 32  1  0  0  0  0
M  END
> <s_m_source_file>
AV-unprocessed.smi

> <i_m_source_file_index>
2749

> <i_lp_mmshare_version>
43012

> <i_f3d_flags>
0

> <s_epik_input>
W0NIMl0xW0NIMl1bQ0BIXShPMilbQ0BASF0oW0NIMl1bQ0BASF0xMilbTkhdQyg9TylbTkhdYzNbY0hdW2NIXWMoRilbY0hdbjM=

> <s_epik_cmdline>
J2VwaWtfcHl0aG9uJywgJy1waCcsICc3LjAnLCAnLXRuJywgJzgnLCAnLW1hJywgJzIwMCcsICctbWV0YWxfYmluZGluZycsICctaW1hZScsICc8aW5maWxlLm1hZT4nLCAnLW9tYWUnLCAnPG91dGZpbGUubWFlPic=

> <r_lp_tautomer_probability>
1

> <r_epik_Ionization_Penalty>
3.37159e-05

> <r_epik_Ionization_Penalty_Charging>
0

> <r_epik_Ionization_Penalty_Neutral>
3.37159e-05

> <r_epik_State_Penalty>
-0

> <r_epik_Charging_Adjusted_Penalty>
0

> <i_epik_Tot_Q>
0

> <i_epik_Tot_abs_Q>
0

> <r_epik_Metal_State_Penalty>
-0

> <b_epik_Metal_Only>
0

> <s_lp_Force_Field>
OPLS_2005

> <r_lp_Energy>
42.1362

> <b_lp_Chiralities_Consistent>
1

> <s_lp_Variant>
AV-unprocessed.smi:2749-1

> <Gold.Version>
5.8.1

> <Gold.Id.Protein>
6NUR|6NUR_protein|mol2

> <Gold.PLP.Fitness>
41.4345

> <Gold.PLP.PLP>
-34.8649

> <Gold.PLP.part.hbond>
-2.0000

> <Gold.PLP.part.metal>
0.0000

> <Gold.PLP.part.buried>
-2.0822

> <Gold.PLP.part.nonpolar>
-31.0246

> <Gold.PLP.part.repulsive>
0.4093

> <Gold.PLP.ligand.clash>
0.0000

> <Gold.PLP.ligand.torsion>
0.3282

> <Gold.PLP.Chemscore.Hbond>
1.8320

> <Gold.PLP.Chemscore.CHOScore>
0.5667

> <Gold.PLP.Chemscore.Metal>
0.0000

> <Gold.Chemscore.Hbonds>
donor molecule, donor type, donor heavy atom, donor atom, acceptor molecule, acceptor atom, score
      L1  H     3    19       P1  8028  1.00
      L1  H    11    23       P1  8028  0.83
      L1  C     9    22       P1 10175  0.59

> <Gold.PLP.Chemscore.Internal.Correction>
0.0300

> <Gold.Rescore>
     Score         DG    S(hbond)    S(metal)    S(lipo)     H(rot)  DE(clash)    DE(int)     intcor
     17.79     -19.66       1.85        0.00      90.34       1.00       0.15       1.71       ----

> <Gold.Chemscore.Fitness>
17.7914

> <Gold.Chemscore.DG>
-19.6572

> <Gold.Chemscore.ZeroCoef>
-5.4800

> <Gold.Chemscore.Hbond>
1.8464

> <Gold.Chemscore.Metal>
0.0000

> <Gold.Chemscore.Lipo>
90.3432

> <Gold.Chemscore.Internal_Hbond>
0.0000

> <Gold.Chemscore.DEClash>
0.1530

> <Gold.Chemscore.DEInternal>
1.7128

> <Gold.Chemscore.Rot>
1.0000

> <Gold.Chemscore.Internal.Correction>
   9.000000E+99

> <Gold.Chemscore.Hbonds>
donor molecule, donor type, donor heavy atom, donor atom, acceptor molecule, acceptor atom, score
      L1  H     3    19       P1  8028  0.95
      L1  H    11    23       P1  8028  0.78

> <Gold.Chemscore.Hbond.Weighted>
-6.1670

> <Gold.Chemscore.Metal.Weighted>
-0.0000

> <Gold.Chemscore.Lipo.Weighted>
-10.5701

> <Gold.Chemscore.Internal_Hbond.Weighted>
0.0000

> <Gold.Chemscore.DEClash.Weighted>
0.1530

> <Gold.Chemscore.DEInternal.Weighted>
1.7128

> <Gold.Chemscore.Rot.Weighted>
2.5600

> <Gold.Chemscore.Internal.Correction.Weighted>
   9.000000E+99

> <Gold.Protein.RotatedTorsions>
[ 6907 6896 6895 6894 ] final -130.37 input  -60.11 | X-H torsion
[ 7974 7965 7964 7962 ] final   56.40 input  175.53 | X-H torsion
[ 8008 7997 7996 7995 ] final   68.70 input   59.86 | X-H torsion
[ 10167 10162 10161 10158 ] final  146.37 input  -65.29 | X-H torsion
[ 10718 10713 10712 10709 ] final  -47.31 input   66.30 | X-H torsion
[ 10763 10752 10751 10750 ] final -142.99 input  -60.55 | X-H torsion
[ 11005 11000 10999 10996 ] final  177.86 input  -57.11 | X-H torsion

> <Gold.Protein.ActiveResidues>
 VAL166  LYS551  ARG553  GLY616  TRP617  ASP618  TYR619  PRO620  LYS621  CYS622 
 ASP623  PHE694  ASN695  SER759  ASP760  ASP761  ALA762  ILE779  LEU786  VAL792 
 PHE793  MET794  SER795  GLU796  ALA797  LYS798  CYS799  TRP800  GLU811  SER814 

> <Gold.Protein.RotatedAtoms>
  150.9390  133.6679  159.2794 H   0  0  0  0  0  0  0  0  0  0  0  0  # atno 6907 bound_to 6896
  151.4074  135.0979  159.9584 H   0  0  0  0  0  0  0  0  0  0  0  0  # atno 6908 bound_to 6896
  152.5060  133.8870  159.7430 H   0  0  0  0  0  0  0  0  0  0  0  0  # atno 6909 bound_to 6896
  145.9402  139.3882  143.0368 H   0  0  0  0  0  0  0  0  0  0  0  0  # atno 7974 bound_to 7965
  155.7123  140.3494  155.4979 H   0  0  0  0  0  0  0  0  0  0  0  0  # atno 8008 bound_to 7997
  155.9345  140.1090  157.1128 H   0  0  0  0  0  0  0  0  0  0  0  0  # atno 8009 bound_to 7997
  154.4091  140.1225  156.4832 H   0  0  0  0  0  0  0  0  0  0  0  0  # atno 8010 bound_to 7997
  139.4908  144.5834  151.6826 H   0  0  0  0  0  0  0  0  0  0  0  0  # atno 10167 bound_to 10162
  156.2097  130.4160  149.9131 H   0  0  0  0  0  0  0  0  0  0  0  0  # atno 10718 bound_to 10713
  154.8487  135.3480  154.6116 H   0  0  0  0  0  0  0  0  0  0  0  0  # atno 10763 bound_to 10752
  153.6725  135.6984  153.5147 H   0  0  0  0  0  0  0  0  0  0  0  0  # atno 10764 bound_to 10752
  153.2731  135.4286  155.0964 H   0  0  0  0  0  0  0  0  0  0  0  0  # atno 10765 bound_to 10752
  140.3887  134.6881  157.4495 H   0  0  0  0  0  0  0  0  0  0  0  0  # atno 11005 bound_to 11000
  145.8310  140.9631  143.0849 LP  0  0  0  0  0  0  0  0  0  0  0  0  # atno 17320 bound_to 7965
  144.6778  140.0162  143.7484 LP  0  0  0  0  0  0  0  0  0  0  0  0  # atno 17321 bound_to 7965
  140.5445  144.0526  150.6101 LP  0  0  0  0  0  0  0  0  0  0  0  0  # atno 17342 bound_to 10162
  140.3559  143.2936  152.0437 LP  0  0  0  0  0  0  0  0  0  0  0  0  # atno 17343 bound_to 10162
  156.6813  130.8859  151.3576 LP  0  0  0  0  0  0  0  0  0  0  0  0  # atno 17370 bound_to 10713
  157.7032  130.9355  150.0848 LP  0  0  0  0  0  0  0  0  0  0  0  0  # atno 17371 bound_to 10713
  140.0423  134.6250  155.8965 LP  0  0  0  0  0  0  0  0  0  0  0  0  # atno 17394 bound_to 11000
  141.1898  133.6566  156.5385 LP  0  0  0  0  0  0  0  0  0  0  0  0  # atno 17395 bound_to 11000

$$$$
