AV-unprocessed.smi:1396|AV-procd|sdf|5676|dock4
  -GOLD-   22720 5303D 1   1.00000     0.00000
 Structure written by MMmdl.
 47 48  0  0  0  0  0  0  0  0  2 V2000
  142.1640  138.1708  154.4539 C   0  0  0  0  0  0  0  0  0  0  0  0
  142.8985  139.4012  154.7068 N   0  0  0  0  0  0  0  0  0  0  0  0
  142.8962  140.0522  155.8784 C   0  0  0  0  0  0  0  0  0  0  0  0
  142.2755  139.6602  156.8671 O   0  0  0  0  0  0  0  0  0  0  0  0
  143.7364  141.3316  155.9462 C   0  0  0  0  0  0  0  0  0  0  0  0
  144.8454  141.3498  154.9578 N   0  3  2  0  0  0  0  0  0  0  0  0
  145.9292  140.3832  155.2799 C   0  0  0  0  0  0  0  0  0  0  0  0
  146.9800  140.3364  154.1576 C   0  0  0  0  0  0  0  0  0  0  0  0
  147.5700  141.7303  153.8621 C   0  0  2  0  0  0  0  0  0  0  0  0
  148.4260  142.2073  154.9484 N   0  0  0  0  0  0  0  0  0  0  0  0
  149.4257  141.5130  155.5111 C   0  0  0  0  0  0  0  0  0  0  0  0
  149.7328  140.3703  155.1731 O   0  0  0  0  0  0  0  0  0  0  0  0
  150.0442  142.2344  156.4612 N   0  0  0  0  0  0  0  0  0  0  0  0
  151.1113  141.8342  157.3088 C   0  0  0  0  0  0  0  0  0  0  0  0
  151.4222  142.6474  158.4170 C   0  0  0  0  0  0  0  0  0  0  0  0
  152.4614  142.2591  159.2831 C   0  0  0  0  0  0  0  0  0  0  0  0
  153.1522  141.0596  159.0196 C   0  0  0  0  0  0  0  0  0  0  0  0
  154.1694  140.6825  159.8724 O   0  0  0  0  0  0  0  0  0  0  0  0
  154.1101  141.1151  161.2270 C   0  0  0  0  0  0  0  0  0  0  0  0
  152.8506  140.2623  157.9652 N   0  0  0  0  0  0  0  0  0  0  0  0
  151.8551  140.6416  157.1363 C   0  0  0  0  0  0  0  0  0  0  0  0
  146.4278  142.7279  153.6023 C   0  0  0  0  0  0  0  0  0  0  0  0
  145.3810  142.7167  154.7323 C   0  0  0  0  0  0  0  0  0  0  0  0
  142.3102  137.8558  153.4205 H   0  0  0  0  0  0  0  0  0  0  0  0
  141.0953  138.3151  154.6175 H   0  0  0  0  0  0  0  0  0  0  0  0
  142.5114  137.3693  155.1070 H   0  0  0  0  0  0  0  0  0  0  0  0
  143.4393  139.7801  153.9425 H   0  0  0  0  0  0  0  0  0  0  0  0
  143.0553  142.1607  155.7494 H   0  0  0  0  0  0  0  0  0  0  0  0
  144.1301  141.4812  156.9531 H   0  0  0  0  0  0  0  0  0  0  0  0
  146.3980  140.6592  156.2256 H   0  0  0  0  0  0  0  0  0  0  0  0
  145.5145  139.3844  155.4174 H   0  0  0  0  0  0  0  0  0  0  0  0
  147.7683  139.6276  154.4133 H   0  0  0  0  0  0  0  0  0  0  0  0
  146.5132  139.9480  153.2515 H   0  0  0  0  0  0  0  0  0  0  0  0
  148.1810  141.6703  152.9594 H   0  0  0  0  0  0  0  0  0  0  0  0
  148.2567  143.1438  155.2846 H   0  0  0  0  0  0  0  0  0  0  0  0
  149.7512  143.1955  156.5572 H   0  0  0  0  0  0  0  0  0  0  0  0
  150.8762  143.5612  158.6015 H   0  0  0  0  0  0  0  0  0  0  0  0
  152.7231  142.8696  160.1348 H   0  0  0  0  0  0  0  0  0  0  0  0
  154.9814  140.7404  161.7635 H   0  0  0  0  0  0  0  0  0  0  0  0
  153.2215  140.7309  161.7299 H   0  0  0  0  0  0  0  0  0  0  0  0
  154.1202  142.2036  161.2997 H   0  0  0  0  0  0  0  0  0  0  0  0
  151.6464  139.9504  156.3344 H   0  0  0  0  0  0  0  0  0  0  0  0
  146.8267  143.7345  153.4695 H   0  0  0  0  0  0  0  0  0  0  0  0
  145.9372  142.4718  152.6624 H   0  0  0  0  0  0  0  0  0  0  0  0
  144.5661  143.3914  154.4673 H   0  0  0  0  0  0  0  0  0  0  0  0
  145.8151  143.0958  155.6586 H   0  0  0  0  0  0  0  0  0  0  0  0
  144.4404  141.0551  154.0801 H   0  0  0  0  0  0  0  0  0  0  0  0
  1  2  1  0  0  0  0
  1 24  1  0  0  0  0
  1 25  1  0  0  0  0
  1 26  1  0  0  0  0
  2  3  1  0  0  0  0
  2 27  1  0  0  0  0
  3  4  2  0  0  0  0
  3  5  1  0  0  0  0
  5  6  1  0  0  0  0
  5 28  1  0  0  0  0
  5 29  1  0  0  0  0
  6 23  1  0  0  0  0
  6  7  1  0  0  0  0
  6 47  1  0  0  0  0
  7  8  1  0  0  0  0
  7 30  1  0  0  0  0
  7 31  1  0  0  0  0
  8  9  1  0  0  0  0
  8 32  1  0  0  0  0
  8 33  1  0  0  0  0
  9 10  1  0  0  0  0
  9 22  1  0  0  0  0
  9 34  1  0  0  0  0
 10 11  1  0  0  0  0
 10 35  1  0  0  0  0
 11 12  2  0  0  0  0
 11 13  1  0  0  0  0
 13 14  1  0  0  0  0
 13 36  1  0  0  0  0
 14 21  1  0  0  0  0
 14 15  2  0  0  0  0
 15 16  1  0  0  0  0
 15 37  1  0  0  0  0
 16 17  2  0  0  0  0
 16 38  1  0  0  0  0
 17 18  1  0  0  0  0
 17 20  1  0  0  0  0
 18 19  1  0  0  0  0
 19 39  1  0  0  0  0
 19 40  1  0  0  0  0
 19 41  1  0  0  0  0
 20 21  2  0  0  0  0
 21 42  1  0  0  0  0
 22 23  1  0  0  0  0
 22 43  1  0  0  0  0
 22 44  1  0  0  0  0
 23 45  1  0  0  0  0
 23 46  1  0  0  0  0
M  CHG  1   6   1
M  END
> <s_m_source_file>
AV-unprocessed.smi

> <i_m_source_file_index>
1396

> <i_lp_mmshare_version>
43012

> <i_f3d_flags>
0

> <s_epik_input>
W0NIM11bTkhdQyg9TylbQ0gyXU4xW0NIMl1bQ0gyXVtDSF0oW0NIMl1bQ0gyXTEpW05IXUMoPU8pW05IXWMyW2NIXVtjSF1jKE9bQ0gzXSluW2NIXTI=

> <s_epik_cmdline>
J2VwaWtfcHl0aG9uJywgJy1waCcsICc3LjAnLCAnLXRuJywgJzgnLCAnLW1hJywgJzIwMCcsICctbWV0YWxfYmluZGluZycsICctaW1hZScsICc8aW5maWxlLm1hZT4nLCAnLW9tYWUnLCAnPG91dGZpbGUubWFlPic=

> <r_lp_tautomer_probability>
1

> <r_epik_Ionization_Penalty>
0.838943

> <r_epik_Ionization_Penalty_Charging>
0.838844

> <r_epik_Ionization_Penalty_Neutral>
9.87511e-05

> <r_epik_State_Penalty>
0.8734

> <r_epik_Charging_Adjusted_Penalty>
1.71224

> <i_epik_Tot_Q>
1

> <i_epik_Tot_abs_Q>
1

> <r_epik_Metal_State_Penalty>
0.877926

> <b_epik_Metal_Only>
0

> <s_lp_Force_Field>
OPLS_2005

> <r_lp_Energy>
16.6272

> <b_lp_Chiralities_Consistent>
1

> <s_lp_Variant>
AV-unprocessed.smi:1396-3

> <Gold.Version>
5.8.1

> <Gold.Id.Protein>
6NUR|6NUR_protein|mol2

> <Gold.PLP.Fitness>
51.3323

> <Gold.PLP.PLP>
-35.4647

> <Gold.PLP.part.hbond>
-5.0000

> <Gold.PLP.part.metal>
0.0000

> <Gold.PLP.part.buried>
-6.6028

> <Gold.PLP.part.nonpolar>
-23.7906

> <Gold.PLP.part.repulsive>
0.3389

> <Gold.PLP.ligand.clash>
0.0000

> <Gold.PLP.ligand.torsion>
0.9220

> <Gold.PLP.Chemscore.Hbond>
5.8880

> <Gold.PLP.Chemscore.CHOScore>
0.0000

> <Gold.PLP.Chemscore.Metal>
0.0000

> <Gold.Chemscore.Hbonds>
donor molecule, donor type, donor heavy atom, donor atom, acceptor molecule, acceptor atom, score
      L1  H     2    27       P1 10175  1.00
      L1  H     6    47       P1 10175  2.00
      L1  H    10    35       P1  8028  0.99
      L1  H    13    36       P1  8028  0.91
      P1  H  7997  8009       L1    20  0.94

> <Gold.PLP.Chemscore.Internal.Correction>
0.0476

> <Gold.Rescore>
     Score         DG    S(hbond)    S(metal)    S(lipo)     H(rot)  DE(clash)    DE(int)     intcor
     19.45     -23.17       4.26        0.00      73.40       2.00       0.26       3.47       ----

> <Gold.Chemscore.Fitness>
19.4464

> <Gold.Chemscore.DG>
-23.1749

> <Gold.Chemscore.ZeroCoef>
-5.4800

> <Gold.Chemscore.Hbond>
4.2568

> <Gold.Chemscore.Metal>
0.0000

> <Gold.Chemscore.Lipo>
73.3986

> <Gold.Chemscore.Internal_Hbond>
0.0000

> <Gold.Chemscore.DEClash>
0.2563

> <Gold.Chemscore.DEInternal>
3.4723

> <Gold.Chemscore.Rot>
1.9963

> <Gold.Chemscore.Internal.Correction>
   9.000000E+99

> <Gold.Chemscore.Hbonds>
donor molecule, donor type, donor heavy atom, donor atom, acceptor molecule, acceptor atom, score
      L1  H     2    27       P1 10175  0.96
      L1  H     6    47       P1 10175  0.82
      L1  H    10    35       P1  8028  0.91
      L1  H    13    36       P1  8028  0.88
      P1  H  7997  8009       L1    20  0.37

> <Gold.Chemscore.Hbond.Weighted>
-14.2178

> <Gold.Chemscore.Metal.Weighted>
-0.0000

> <Gold.Chemscore.Lipo.Weighted>
-8.5876

> <Gold.Chemscore.Internal_Hbond.Weighted>
0.0000

> <Gold.Chemscore.DEClash.Weighted>
0.2563

> <Gold.Chemscore.DEInternal.Weighted>
3.4723

> <Gold.Chemscore.Rot.Weighted>
5.1105

> <Gold.Chemscore.Internal.Correction.Weighted>
   9.000000E+99

> <Gold.Protein.RotatedTorsions>
[ 6907 6896 6895 6894 ] final  -50.07 input  -60.11 | X-H torsion
[ 7974 7965 7964 7962 ] final -105.61 input  175.53 | X-H torsion
[ 8008 7997 7996 7995 ] final  160.69 input   59.86 | X-H torsion
[ 10167 10162 10161 10158 ] final  113.18 input  -65.29 | X-H torsion
[ 10718 10713 10712 10709 ] final   79.31 input   66.30 | X-H torsion
[ 10763 10752 10751 10750 ] final  -23.95 input  -60.55 | X-H torsion
[ 11005 11000 10999 10996 ] final  -57.58 input  -57.11 | X-H torsion

> <Gold.Protein.ActiveResidues>
 VAL166  LYS551  ARG553  GLY616  TRP617  ASP618  TYR619  PRO620  LYS621  CYS622 
 ASP623  PHE694  ASN695  SER759  ASP760  ASP761  ALA762  ILE779  LEU786  VAL792 
 PHE793  MET794  SER795  GLU796  ALA797  LYS798  CYS799  TRP800  GLU811  SER814 

> <Gold.Protein.RotatedAtoms>
  150.8743  134.8122  159.7177 H   0  0  0  0  0  0  0  0  0  0  0  0  # atno 6907 bound_to 6896
  152.4735  134.4897  159.9701 H   0  0  0  0  0  0  0  0  0  0  0  0  # atno 6908 bound_to 6896
  151.4981  133.3471  159.2900 H   0  0  0  0  0  0  0  0  0  0  0  0  # atno 6909 bound_to 6896
  145.2282  140.9160  143.3220 H   0  0  0  0  0  0  0  0  0  0  0  0  # atno 7974 bound_to 7965
  156.2155  140.1797  156.7598 H   0  0  0  0  0  0  0  0  0  0  0  0  # atno 8008 bound_to 7997
  154.5785  140.0670  156.9099 H   0  0  0  0  0  0  0  0  0  0  0  0  # atno 8009 bound_to 7997
  155.2544  140.3331  155.4281 H   0  0  0  0  0  0  0  0  0  0  0  0  # atno 8010 bound_to 7997
  139.6480  144.7127  151.2104 H   0  0  0  0  0  0  0  0  0  0  0  0  # atno 10167 bound_to 10162
  157.6772  130.9908  150.1913 H   0  0  0  0  0  0  0  0  0  0  0  0  # atno 10718 bound_to 10713
  153.6760  135.6969  153.5132 H   0  0  0  0  0  0  0  0  0  0  0  0  # atno 10763 bound_to 10752
  153.2521  135.4271  155.0807 H   0  0  0  0  0  0  0  0  0  0  0  0  # atno 10764 bound_to 10752
  154.8413  135.3534  154.6304 H   0  0  0  0  0  0  0  0  0  0  0  0  # atno 10765 bound_to 10752
  141.1171  133.6610  156.4791 H   0  0  0  0  0  0  0  0  0  0  0  0  # atno 11005 bound_to 11000
  144.9701  139.3889  143.6313 LP  0  0  0  0  0  0  0  0  0  0  0  0  # atno 17320 bound_to 7965
  146.3359  139.8795  142.8826 LP  0  0  0  0  0  0  0  0  0  0  0  0  # atno 17321 bound_to 7965
  140.7524  143.6198  150.8525 LP  0  0  0  0  0  0  0  0  0  0  0  0  # atno 17342 bound_to 10162
  139.9843  143.5917  152.2932 LP  0  0  0  0  0  0  0  0  0  0  0  0  # atno 17343 bound_to 10162
  156.2624  130.3712  149.8117 LP  0  0  0  0  0  0  0  0  0  0  0  0  # atno 17370 bound_to 10713
  156.5858  130.8485  151.3395 LP  0  0  0  0  0  0  0  0  0  0  0  0  # atno 17371 bound_to 10713
  140.4616  134.6836  157.5088 LP  0  0  0  0  0  0  0  0  0  0  0  0  # atno 17394 bound_to 11000
  140.0100  134.6705  155.9395 LP  0  0  0  0  0  0  0  0  0  0  0  0  # atno 17395 bound_to 11000

$$$$
