AV-unprocessed.smi:573|AV-procd|sdf|2968|dock10
  -GOLD-   2262023473D 1   1.00000     0.00000
 Structure written by MMmdl.
 45 47  0  0  0  0  0  0  0  0  2 V2000
  147.8043  140.7943  153.7361 C   0  0  0  0  0  0  0  0  0  0  0  0
  147.4929  139.3047  153.5428 C   0  0  1  0  0  0  0  0  0  0  0  0
  146.6099  138.9248  154.5786 O   0  0  0  0  0  0  0  0  0  0  0  0
  146.8339  139.0355  152.1766 C   0  0  0  0  0  0  0  0  0  0  0  0
  146.5001  137.6308  151.9854 N   0  0  0  0  0  0  0  0  0  0  0  0
  145.2249  137.1771  152.3434 C   0  0  0  0  0  0  0  0  0  0  0  0
  144.1190  137.9486  152.5195 N   0  3  0  0  0  0  0  0  0  0  0  0
  143.0582  137.1188  152.8916 C   0  0  0  0  0  0  0  0  0  0  0  0
  141.7334  137.4209  153.1906 C   0  0  0  0  0  0  0  0  0  0  0  0
  140.9014  136.3389  153.5456 C   0  0  0  0  0  0  0  0  0  0  0  0
  141.3938  135.0188  153.5961 C   0  0  0  0  0  0  0  0  0  0  0  0
  142.7384  134.7214  153.2913 C   0  0  0  0  0  0  0  0  0  0  0  0
  143.5561  135.7939  152.9353 C   0  0  0  0  0  0  0  0  0  0  0  0
  144.9085  135.8779  152.5762 N   0  0  0  0  0  0  0  0  0  0  0  0
  145.7392  134.6663  152.5274 C   0  0  0  0  0  0  0  0  0  0  0  0
  145.1195  133.5785  151.6353 C   0  0  2  0  0  0  0  0  0  0  0  0
  146.0859  132.4016  151.4039 C   0  0  0  0  0  0  0  0  0  0  0  0
  145.4550  131.3654  150.4671 C   0  0  0  0  0  0  0  0  0  0  0  0
  144.9783  132.0519  149.1824 C   0  0  0  0  0  0  0  0  0  0  0  0
  144.0755  133.2498  149.5186 C   0  0  0  0  0  0  0  0  0  0  0  0
  144.7652  134.1522  150.3779 O   0  0  0  0  0  0  0  0  0  0  0  0
  148.5055  141.1482  152.9800 H   0  0  0  0  0  0  0  0  0  0  0  0
  148.2538  140.9797  154.7124 H   0  0  0  0  0  0  0  0  0  0  0  0
  146.9020  141.4027  153.6629 H   0  0  0  0  0  0  0  0  0  0  0  0
  148.4192  138.7361  153.6376 H   0  0  0  0  0  0  0  0  0  0  0  0
  146.1997  138.1082  154.3378 H   0  0  0  0  0  0  0  0  0  0  0  0
  145.9673  139.6791  152.0193 H   0  0  0  0  0  0  0  0  0  0  0  0
  147.5414  139.2887  151.3867 H   0  0  0  0  0  0  0  0  0  0  0  0
  147.2569  136.9635  151.9366 H   0  0  0  0  0  0  0  0  0  0  0  0
  141.3540  138.4319  153.1568 H   0  0  0  0  0  0  0  0  0  0  0  0
  139.8651  136.5261  153.7870 H   0  0  0  0  0  0  0  0  0  0  0  0
  140.7264  134.2164  153.8758 H   0  0  0  0  0  0  0  0  0  0  0  0
  143.1041  133.7065  153.3410 H   0  0  0  0  0  0  0  0  0  0  0  0
  146.7418  134.9301  152.1911 H   0  0  0  0  0  0  0  0  0  0  0  0
  145.8457  134.2997  153.5489 H   0  0  0  0  0  0  0  0  0  0  0  0
  144.2131  133.2111  152.1202 H   0  0  0  0  0  0  0  0  0  0  0  0
  147.0155  132.7694  150.9671 H   0  0  0  0  0  0  0  0  0  0  0  0
  146.3493  131.9341  152.3531 H   0  0  0  0  0  0  0  0  0  0  0  0
  146.1708  130.5765  150.2344 H   0  0  0  0  0  0  0  0  0  0  0  0
  144.6099  130.8870  150.9638 H   0  0  0  0  0  0  0  0  0  0  0  0
  145.8402  132.3955  148.6090 H   0  0  0  0  0  0  0  0  0  0  0  0
  144.4447  131.3413  148.5507 H   0  0  0  0  0  0  0  0  0  0  0  0
  143.7970  133.7770  148.6060 H   0  0  0  0  0  0  0  0  0  0  0  0
  143.1482  132.9196  149.9897 H   0  0  0  0  0  0  0  0  0  0  0  0
  144.0952  138.9533  152.4024 H   0  0  0  0  0  0  0  0  0  0  0  0
  1  2  1  0  0  0  0
  1 22  1  0  0  0  0
  1 23  1  0  0  0  0
  1 24  1  0  0  0  0
  2  3  1  0  0  0  0
  2  4  1  0  0  0  0
  2 25  1  0  0  0  0
  3 26  1  0  0  0  0
  4  5  1  0  0  0  0
  4 27  1  0  0  0  0
  4 28  1  0  0  0  0
  5  6  1  0  0  0  0
  5 29  1  0  0  0  0
  6 14  1  0  0  0  0
  6  7  2  0  0  0  0
  7  8  1  0  0  0  0
  7 45  1  0  0  0  0
  8 13  2  0  0  0  0
  8  9  1  0  0  0  0
  9 10  2  0  0  0  0
  9 30  1  0  0  0  0
 10 11  1  0  0  0  0
 10 31  1  0  0  0  0
 11 12  2  0  0  0  0
 11 32  1  0  0  0  0
 12 13  1  0  0  0  0
 12 33  1  0  0  0  0
 13 14  1  0  0  0  0
 14 15  1  0  0  0  0
 15 16  1  0  0  0  0
 15 34  1  0  0  0  0
 15 35  1  0  0  0  0
 16 21  1  0  0  0  0
 16 17  1  0  0  0  0
 16 36  1  0  0  0  0
 17 18  1  0  0  0  0
 17 37  1  0  0  0  0
 17 38  1  0  0  0  0
 18 19  1  0  0  0  0
 18 39  1  0  0  0  0
 18 40  1  0  0  0  0
 19 20  1  0  0  0  0
 19 41  1  0  0  0  0
 19 42  1  0  0  0  0
 20 21  1  0  0  0  0
 20 43  1  0  0  0  0
 20 44  1  0  0  0  0
M  CHG  1   7   1
M  END
> <s_m_source_file>
AV-unprocessed.smi

> <i_m_source_file_index>
573

> <i_lp_mmshare_version>
43012

> <i_f3d_flags>
0

> <s_epik_input>
W0NIM11bQ0BIXShbT0hdKVtDSDJdW05IXWMobjEpbihjKGMxMilbY0hdW2NIXVtjSF1bY0hdMilbQ0gyXVtDQEBIXTNbQ0gyXVtDSDJdW0NIMl1bQ0gyXU8z

> <s_epik_cmdline>
J2VwaWtfcHl0aG9uJywgJy1waCcsICc3LjAnLCAnLXRuJywgJzgnLCAnLW1hJywgJzIwMCcsICctbWV0YWxfYmluZGluZycsICctaW1hZScsICc8aW5maWxlLm1hZT4nLCAnLW9tYWUnLCAnPG91dGZpbGUubWFlPic=

> <r_epik_Ionization_Penalty>
0.0692245

> <r_epik_Ionization_Penalty_Charging>
0.0692223

> <r_epik_Ionization_Penalty_Neutral>
2.1869e-06

> <r_epik_State_Penalty>
0.0606215

> <r_epik_Charging_Adjusted_Penalty>
0.129844

> <i_epik_Tot_Q>
1

> <i_epik_Tot_abs_Q>
1

> <r_epik_Metal_State_Penalty>
2.77811

> <b_epik_Metal_Only>
0

> <s_lp_Force_Field>
OPLS_2005

> <r_lp_Energy>
22.2685

> <b_lp_Chiralities_Consistent>
1

> <s_lp_Variant>
AV-unprocessed.smi:573-2

> <Gold.Version>
5.8.1

> <Gold.Id.Protein>
6NUR|6NUR_protein|mol2

> <Gold.PLP.Fitness>
52.2998

> <Gold.PLP.PLP>
-40.8395

> <Gold.PLP.part.hbond>
-2.9622

> <Gold.PLP.part.metal>
0.0000

> <Gold.PLP.part.buried>
-4.8736

> <Gold.PLP.part.nonpolar>
-34.9520

> <Gold.PLP.part.repulsive>
0.6325

> <Gold.PLP.ligand.clash>
0.0000

> <Gold.PLP.ligand.torsion>
0.2775

> <Gold.PLP.Chemscore.Hbond>
4.0000

> <Gold.PLP.Chemscore.CHOScore>
0.0000

> <Gold.PLP.Chemscore.Metal>
0.0000

> <Gold.Chemscore.Hbonds>
donor molecule, donor type, donor heavy atom, donor atom, acceptor molecule, acceptor atom, score
      L1  H     5    29       P1  7948  2.00
      L1  H     7    45       P1 10175  2.00

> <Gold.PLP.Chemscore.Internal.Correction>
0.0152

> <Gold.Rescore>
     Score         DG    S(hbond)    S(metal)    S(lipo)     H(rot)  DE(clash)    DE(int)     intcor
     18.62     -19.18       1.99        0.00     105.63       2.07       0.21       0.35       ----

> <Gold.Chemscore.Fitness>
18.6176

> <Gold.Chemscore.DG>
-19.1806

> <Gold.Chemscore.ZeroCoef>
-5.4800

> <Gold.Chemscore.Hbond>
1.9883

> <Gold.Chemscore.Metal>
0.0000

> <Gold.Chemscore.Lipo>
105.6312

> <Gold.Chemscore.Internal_Hbond>
0.0000

> <Gold.Chemscore.DEClash>
0.2118

> <Gold.Chemscore.DEInternal>
0.3512

> <Gold.Chemscore.Rot>
2.0699

> <Gold.Chemscore.Internal.Correction>
   9.000000E+99

> <Gold.Chemscore.Hbonds>
donor molecule, donor type, donor heavy atom, donor atom, acceptor molecule, acceptor atom, score
      L1  H     5    29       P1  7948  1.00
      L1  H     7    45       P1 10175  0.95

> <Gold.Chemscore.Hbond.Weighted>
-6.6408

> <Gold.Chemscore.Metal.Weighted>
-0.0000

> <Gold.Chemscore.Lipo.Weighted>
-12.3589

> <Gold.Chemscore.Internal_Hbond.Weighted>
0.0000

> <Gold.Chemscore.DEClash.Weighted>
0.2118

> <Gold.Chemscore.DEInternal.Weighted>
0.3512

> <Gold.Chemscore.Rot.Weighted>
5.2991

> <Gold.Chemscore.Internal.Correction.Weighted>
   9.000000E+99

> <Gold.Protein.RotatedTorsions>
[ 6907 6896 6895 6894 ] final  -50.19 input  -60.11 | X-H torsion
[ 7974 7965 7964 7962 ] final -151.28 input  175.53 | X-H torsion
[ 8008 7997 7996 7995 ] final  100.04 input   59.86 | X-H torsion
[ 10167 10162 10161 10158 ] final  -63.19 input  -65.29 | X-H torsion
[ 10718 10713 10712 10709 ] final  -45.31 input   66.30 | X-H torsion
[ 10763 10752 10751 10750 ] final  134.10 input  -60.55 | X-H torsion
[ 11005 11000 10999 10996 ] final  -33.22 input  -57.11 | X-H torsion

> <Gold.Protein.ActiveResidues>
 VAL166  LYS551  ARG553  GLY616  TRP617  ASP618  TYR619  PRO620  LYS621  CYS622 
 ASP623  PHE694  ASN695  SER759  ASP760  ASP761  ALA762  ILE779  LEU786  VAL792 
 PHE793  MET794  SER795  GLU796  ALA797  LYS798  CYS799  TRP800  GLU811  SER814 

> <Gold.Protein.RotatedAtoms>
  150.8731  134.8109  159.7169 H   0  0  0  0  0  0  0  0  0  0  0  0  # atno 6907 bound_to 6896
  152.4728  134.4915  159.9706 H   0  0  0  0  0  0  0  0  0  0  0  0  # atno 6908 bound_to 6896
  151.5000  133.3468  159.2903 H   0  0  0  0  0  0  0  0  0  0  0  0  # atno 6909 bound_to 6896
  144.7859  140.4818  143.5807 H   0  0  0  0  0  0  0  0  0  0  0  0  # atno 7974 bound_to 7965
  156.1164  140.3219  155.8145 H   0  0  0  0  0  0  0  0  0  0  0  0  # atno 8008 bound_to 7997
  155.4582  140.0537  157.3011 H   0  0  0  0  0  0  0  0  0  0  0  0  # atno 8009 bound_to 7997
  154.4796  140.2047  155.9810 H   0  0  0  0  0  0  0  0  0  0  0  0  # atno 8010 bound_to 7997
  140.5887  143.2338  151.6186 H   0  0  0  0  0  0  0  0  0  0  0  0  # atno 10167 bound_to 10162
  156.2296  130.4171  149.8891 H   0  0  0  0  0  0  0  0  0  0  0  0  # atno 10718 bound_to 10713
  153.8180  135.3120  155.3407 H   0  0  0  0  0  0  0  0  0  0  0  0  # atno 10763 bound_to 10752
  154.8024  135.4718  154.0312 H   0  0  0  0  0  0  0  0  0  0  0  0  # atno 10764 bound_to 10752
  153.1711  135.6878  153.8695 H   0  0  0  0  0  0  0  0  0  0  0  0  # atno 10765 bound_to 10752
  140.9617  133.7161  156.1380 H   0  0  0  0  0  0  0  0  0  0  0  0  # atno 11005 bound_to 11000
  145.5924  139.1497  143.3175 LP  0  0  0  0  0  0  0  0  0  0  0  0  # atno 17320 bound_to 7965
  146.2090  140.6049  142.9068 LP  0  0  0  0  0  0  0  0  0  0  0  0  # atno 17321 bound_to 7965
  139.5214  144.3194  152.0924 LP  0  0  0  0  0  0  0  0  0  0  0  0  # atno 17342 bound_to 10162
  140.2355  144.4324  150.6282 LP  0  0  0  0  0  0  0  0  0  0  0  0  # atno 17343 bound_to 10162
  156.6509  130.8743  151.3531 LP  0  0  0  0  0  0  0  0  0  0  0  0  # atno 17370 bound_to 10713
  157.7127  130.9459  150.1145 LP  0  0  0  0  0  0  0  0  0  0  0  0  # atno 17371 bound_to 10713
  140.7458  134.4100  157.5548 LP  0  0  0  0  0  0  0  0  0  0  0  0  # atno 17394 bound_to 11000
  139.8880  134.8867  156.2496 LP  0  0  0  0  0  0  0  0  0  0  0  0  # atno 17395 bound_to 11000

$$$$
