#       Name:                AV-unprocessed.smi:1897
#       Creating user name   scv26
#       Creation time:       Fri Mar 27 09:43:14 2020


#       File generated by GOLD software.
#

@<TRIPOS>MOLECULE
AV-unprocessed.smi:1897
    43    45     1
SMALL
NO_CHARGES


@<TRIPOS>ATOM
      1 ****        -4.4216   3.7673   1.5189 C.3            1 S1                 0.0000
      2 ****        -2.9934   3.6368   1.1136 C.2            1 S1                 0.0000
      3 ****        -2.6116   3.5243  -0.1610 N.2            1 S1                 0.0000
      4 ****        -1.2347   3.4146  -0.2862 N.2            1 S1                 0.0000
      5 ****        -0.5965   3.4299   0.8931 C.2            1 S1                 0.0000
      6 ****         0.7414   3.3193   0.9930 N.pl3          1 S1                -1.0000
      7 ****         1.3700   2.1184   1.0810 C.2            1 S1                 0.0000
      8 ****         2.5934   1.9954   1.1248 O.2            1 S1                 0.0000
      9 ****         0.6045   1.0108   1.1090 N.am           1 S1                 0.0000
     10 ****         1.0912  -0.3646   1.1186 C.3            1 S1                 0.0000
     11 ****         0.0143  -1.3825   1.5164 C.3            1 S1                 0.0000
     12 ****         0.3521  -2.6549   0.7194 C.3            1 S1                 0.0000
     13 ****         1.5467  -2.3283  -0.0909 N.4            1 S1                 1.0000
     14 ****         1.7447  -3.1245  -1.3289 C.3            1 S1                 0.0000
     15 ****         0.8458  -2.6575  -2.4861 C.3            1 S1                 0.0000
     16 ****         1.0160  -1.1548  -2.7305 C.3            1 S1                 0.0000
     17 ****         0.6958  -0.3856  -1.4448 C.3            1 S1                 0.0000
     18 ****         1.5726  -0.8585  -0.2557 C.3            1 S1                 0.0000
     19 ****        -1.6765   3.6082   2.2745 S.3            1 S1                 0.0000
     20 ****        -4.8899   2.7836   1.5509 H              1 S1                 0.0000
     21 ****        -4.9619   4.3920   0.8070 H              1 S1                 0.0000
     22 ****        -4.4943   4.2227   2.5066 H              1 S1                 0.0000
     23 ****        -0.3964   1.1398   1.0761 H              1 S1                 0.0000
     24 ****         1.9133  -0.4522   1.8320 H              1 S1                 0.0000
     25 ****         0.0088  -1.5598   2.5923 H              1 S1                 0.0000
     26 ****        -0.9796  -1.0287   1.2375 H              1 S1                 0.0000
     27 ****         0.5631  -3.5025   1.3720 H              1 S1                 0.0000
     28 ****        -0.4900  -2.9273   0.0820 H              1 S1                 0.0000
     29 ****         2.7895  -3.0243  -1.6258 H              1 S1                 0.0000
     30 ****         1.5832  -4.1819  -1.1170 H              1 S1                 0.0000
     31 ****         1.0925  -3.2114  -3.3924 H              1 S1                 0.0000
     32 ****        -0.1988  -2.8803  -2.2663 H              1 S1                 0.0000
     33 ****         2.0366  -0.9397  -3.0492 H              1 S1                 0.0000
     34 ****         0.3592  -0.8280  -3.5371 H              1 S1                 0.0000
     35 ****         0.8405   0.6816  -1.6166 H              1 S1                 0.0000
     36 ****        -0.3615  -0.5143  -1.2097 H              1 S1                 0.0000
     37 ****         2.6018  -0.5423  -0.4325 H              1 S1                 0.0000
     38 ****         2.3301  -2.5408   0.5102 H              1 S1                 0.0000
     39 ****        -3.2447   3.5197  -0.9350 LP             1 S1                 0.0000
     40 ****        -0.7659   3.3325  -1.1656 LP             1 S1                 0.0000
     41 ****         1.2935   4.1530   1.0028 LP             1 S1                 0.0000
     42 ****         3.1787   2.8057   1.0958 LP             1 S1                 0.0000
     43 ****         3.0024   1.0852   1.1895 LP             1 S1                 0.0000
@<TRIPOS>BOND
    1    1    2 1     
    2    1   20 1     
    3    1   21 1     
    4    1   22 1     
    5    2   19 1     
    6    2    3 2     
    7    3    4 1     
    8    4    5 2     
    9    5    6 1     
   10    5   19 1     
   11    6    7 1     
   12    7    8 2     
   13    7    9 am    
   14    9   10 1     
   15    9   23 1     
   16   10   18 1     
   17   10   11 1     
   18   10   24 1     
   19   11   12 1     
   20   11   25 1     
   21   11   26 1     
   22   12   13 1     
   23   12   27 1     
   24   12   28 1     
   25   13   18 1     
   26   13   14 1     
   27   13   38 1     
   28   14   15 1     
   29   14   29 1     
   30   14   30 1     
   31   15   16 1     
   32   15   31 1     
   33   15   32 1     
   34   16   17 1     
   35   16   33 1     
   36   16   34 1     
   37   17   18 1     
   38   17   35 1     
   39   17   36 1     
   40   18   37 1     
   41    3   39 1     
   42    4   40 1     
   43    6   41 1     
   44    8   42 1     
   45    8   43 1     
@<TRIPOS>SUBSTRUCTURE
      1 S1             1
@<TRIPOS>SET
LONE_PAIRS      STATIC     ATOMS    <user>   **** ""
5 39 40 41 42 43
DONOR_HYDROGENS      STATIC     ATOMS    <user>   **** ""
2 23 38
ATOM$BLUE        STATIC     ATOMS    COLORGROUP SYSTEM
5 39 40 41 42 43
ATOM$RED        STATIC     ATOMS    COLORGROUP SYSTEM
2 23 38
