AV-unprocessed.smi:283|AV-procd|sdf|2134|dock7
  -GOLD-   2262021453D 1   1.00000     0.00000
 Structure written by MMmdl.
 48 51  0  0  0  0  0  0  0  0  1 V2000
  151.6274  140.2238  155.8521 C   0  0  0  0  0  0  0  0  0  0  0  0
  150.6339  141.2296  156.4493 C   0  0  1  0  0  0  0  0  0  0  0  0
  149.4134  140.5337  156.8504 N   0  0  0  0  0  0  0  0  0  0  0  0
  148.6034  139.9345  155.9492 C   0  0  0  0  0  0  0  0  0  0  0  0
  148.6086  140.4850  154.7120 N   0  0  0  0  0  0  0  0  0  0  0  0
  147.8533  139.9633  153.7423 C   0  0  0  0  0  0  0  0  0  0  0  0
  147.0344  138.9131  153.7993 N   0  0  0  0  0  0  0  0  0  0  0  0
  147.0107  138.3566  155.0444 C   0  0  0  0  0  0  0  0  0  0  0  0
  147.7583  138.8061  156.1718 C   0  0  0  0  0  0  0  0  0  0  0  0
  147.4623  138.0008  157.2658 N   0  0  0  0  0  0  0  0  0  0  0  0
  146.6115  137.1255  156.8065 C   0  0  0  0  0  0  0  0  0  0  0  0
  146.2822  137.2661  155.4784 N   0  0  0  0  0  0  0  0  0  0  0  0
  145.3297  136.4252  154.6900 C   0  0  2  0  0  0  0  0  0  0  0  0
  146.0176  135.8566  153.6176 O   0  0  0  0  0  0  0  0  0  0  0  0
  145.1897  135.9139  152.4675 C   0  0  2  0  0  0  0  0  0  0  0  0
  145.9490  135.6325  151.1531 C   0  0  0  0  0  0  0  0  0  0  0  0
  145.2398  136.0173  149.9940 O   0  0  0  0  0  0  0  0  0  0  0  0
  144.3501  137.1917  152.6207 C   0  0  2  0  0  0  0  0  0  0  0  0
  145.0021  138.3517  152.1434 O   0  0  0  0  0  0  0  0  0  0  0  0
  144.1749  137.2864  154.1346 C   0  0  1  0  0  0  0  0  0  0  0  0
  142.9202  136.7494  154.5043 O   0  0  0  0  0  0  0  0  0  0  0  0
  151.3055  142.0451  157.5584 C   0  0  0  0  0  0  0  0  0  0  0  0
  151.3651  143.4554  157.4648 C   0  0  0  0  0  0  0  0  0  0  0  0
  151.9824  144.2169  158.4748 C   0  0  0  0  0  0  0  0  0  0  0  0
  152.5392  143.5771  159.5965 C   0  0  0  0  0  0  0  0  0  0  0  0
  152.4725  142.1762  159.7083 C   0  0  0  0  0  0  0  0  0  0  0  0
  151.8565  141.4088  158.6997 C   0  0  0  0  0  0  0  0  0  0  0  0
  151.7926  139.6919  158.8971 Cl  0  0  0  0  0  0  0  0  0  0  0  0
  145.0041  135.6512  155.3867 H   0  0  0  0  0  0  0  0  0  0  0  0
  144.4963  135.0796  152.5916 H   0  0  0  0  0  0  0  0  0  0  0  0
  143.4008  137.1067  152.0897 H   0  0  0  0  0  0  0  0  0  0  0  0
  144.2350  138.3130  154.5008 H   0  0  0  0  0  0  0  0  0  0  0  0
  152.5136  140.7281  155.4659 H   0  0  0  0  0  0  0  0  0  0  0  0
  151.1793  139.6718  155.0251 H   0  0  0  0  0  0  0  0  0  0  0  0
  151.9558  139.4991  156.5982 H   0  0  0  0  0  0  0  0  0  0  0  0
  150.3440  141.9017  155.6436 H   0  0  0  0  0  0  0  0  0  0  0  0
  149.1102  140.7236  157.7944 H   0  0  0  0  0  0  0  0  0  0  0  0
  147.9148  140.4548  152.7825 H   0  0  0  0  0  0  0  0  0  0  0  0
  146.1924  136.3507  157.4318 H   0  0  0  0  0  0  0  0  0  0  0  0
  146.9116  136.1441  151.1617 H   0  0  0  0  0  0  0  0  0  0  0  0
  146.1603  134.5658  151.0752 H   0  0  0  0  0  0  0  0  0  0  0  0
  145.7588  135.7956  149.2360 H   0  0  0  0  0  0  0  0  0  0  0  0
  144.5851  138.6199  151.3386 H   0  0  0  0  0  0  0  0  0  0  0  0
  142.4501  136.5193  153.7173 H   0  0  0  0  0  0  0  0  0  0  0  0
  150.9392  143.9655  156.6132 H   0  0  0  0  0  0  0  0  0  0  0  0
  152.0269  145.2927  158.3889 H   0  0  0  0  0  0  0  0  0  0  0  0
  153.0127  144.1600  160.3726 H   0  0  0  0  0  0  0  0  0  0  0  0
  152.8951  141.6885  160.5744 H   0  0  0  0  0  0  0  0  0  0  0  0
  1  2  1  0  0  0  0
  1 33  1  0  0  0  0
  1 34  1  0  0  0  0
  1 35  1  0  0  0  0
  2  3  1  0  0  0  0
  2 22  1  0  0  0  0
  2 36  1  0  0  0  0
  3  4  1  0  0  0  0
  3 37  1  0  0  0  0
  4  9  1  0  0  0  0
  4  5  2  0  0  0  0
  5  6  1  0  0  0  0
  6  7  2  0  0  0  0
  6 38  1  0  0  0  0
  7  8  1  0  0  0  0
  8 12  1  0  0  0  0
  8  9  2  0  0  0  0
  9 10  1  0  0  0  0
 10 11  2  0  0  0  0
 11 12  1  0  0  0  0
 11 39  1  0  0  0  0
 12 13  1  0  0  0  0
 13 29  1  0  0  0  0
 13 20  1  0  0  0  0
 13 14  1  0  0  0  0
 14 15  1  0  0  0  0
 15 30  1  0  0  0  0
 15 16  1  0  0  0  0
 15 18  1  0  0  0  0
 16 17  1  0  0  0  0
 16 40  1  0  0  0  0
 16 41  1  0  0  0  0
 17 42  1  0  0  0  0
 18 31  1  0  0  0  0
 18 19  1  0  0  0  0
 18 20  1  0  0  0  0
 19 43  1  0  0  0  0
 20 32  1  0  0  0  0
 20 21  1  0  0  0  0
 21 44  1  0  0  0  0
 22 27  1  0  0  0  0
 22 23  2  0  0  0  0
 23 24  1  0  0  0  0
 23 45  1  0  0  0  0
 24 25  2  0  0  0  0
 24 46  1  0  0  0  0
 25 26  1  0  0  0  0
 25 47  1  0  0  0  0
 26 27  2  0  0  0  0
 26 48  1  0  0  0  0
 27 28  1  0  0  0  0
M  END
> <s_m_source_file>
AV-unprocessed.smi

> <i_m_source_file_index>
283

> <i_lp_mmshare_version>
43012

> <i_f3d_flags>
0

> <s_epik_input>
Q2xjMVtjSF1bY0hdW2NIXVtjSF1jMVtDQEhdKFtDSDNdKVtOSF1jKG5bY0hdbjIpYyhjMjMpbltjSF1uM1tDQEBIXTRPW0NASF0oW0NIMl1bT0hdKVtDQEBIXShbT0hdKVtDQEhdNFtPSF0=

> <s_epik_cmdline>
J2VwaWtfcHl0aG9uJywgJy1waCcsICc3LjAnLCAnLXRuJywgJzgnLCAnLW1hJywgJzIwMCcsICctbWV0YWxfYmluZGluZycsICctaW1hZScsICc8aW5maWxlLm1hZT4nLCAnLW9tYWUnLCAnPG91dGZpbGUubWFlPic=

> <r_lp_tautomer_probability>
1

> <r_epik_Ionization_Penalty>
0.000266407

> <r_epik_Ionization_Penalty_Charging>
0

> <r_epik_Ionization_Penalty_Neutral>
0.000266407

> <r_epik_State_Penalty>
-0

> <r_epik_Charging_Adjusted_Penalty>
0

> <i_epik_Tot_Q>
0

> <i_epik_Tot_abs_Q>
0

> <r_epik_Metal_State_Penalty>
-0

> <b_epik_Metal_Only>
0

> <s_epik_Chemistry_Notes>
This compound contains an acetal/aminal-like group ( X-CH(R)-Y where X, Y are N, S, or O) that may be acid/base labile, releasing an aldehyde.

> <s_lp_Force_Field>
OPLS_2005

> <r_lp_Energy>
45.8165

> <b_lp_Chiralities_Consistent>
1

> <s_lp_Variant>
AV-unprocessed.smi:283-10

> <Gold.Version>
5.8.1

> <Gold.Id.Protein>
6NUR|6NUR_protein|mol2

> <Gold.PLP.Fitness>
46.6487

> <Gold.PLP.PLP>
-38.6606

> <Gold.PLP.part.hbond>
-3.8585

> <Gold.PLP.part.metal>
0.0000

> <Gold.PLP.part.buried>
-2.9685

> <Gold.PLP.part.nonpolar>
-32.1864

> <Gold.PLP.part.repulsive>
0.3823

> <Gold.PLP.ligand.clash>
0.0000

> <Gold.PLP.ligand.torsion>
0.4295

> <Gold.PLP.Chemscore.Hbond>
2.0000

> <Gold.PLP.Chemscore.CHOScore>
0.9264

> <Gold.PLP.Chemscore.Metal>
0.0000

> <Gold.Chemscore.Hbonds>
donor molecule, donor type, donor heavy atom, donor atom, acceptor molecule, acceptor atom, score
      L1  H    17    42       P1  7921  1.00
      L1  H    19    43       P1 10171  1.00
      L1  C     6    38       P1  7957  0.91

> <Gold.PLP.Chemscore.Internal.Correction>
0.0679

> <Gold.Rescore>
     Score         DG    S(hbond)    S(metal)    S(lipo)     H(rot)  DE(clash)    DE(int)     intcor
     13.04     -13.33       2.00        0.00      99.80       4.10       0.06       0.23       ----

> <Gold.Chemscore.Fitness>
13.0370

> <Gold.Chemscore.DG>
-13.3315

> <Gold.Chemscore.ZeroCoef>
-5.4800

> <Gold.Chemscore.Hbond>
1.9950

> <Gold.Chemscore.Metal>
0.0000

> <Gold.Chemscore.Lipo>
99.7957

> <Gold.Chemscore.Internal_Hbond>
0.0000

> <Gold.Chemscore.DEClash>
0.0614

> <Gold.Chemscore.DEInternal>
0.2331

> <Gold.Chemscore.Rot>
4.0968

> <Gold.Chemscore.Internal.Correction>
   9.000000E+99

> <Gold.Chemscore.Hbonds>
donor molecule, donor type, donor heavy atom, donor atom, acceptor molecule, acceptor atom, score
      L1  H    17    42       P1  7921  0.98
      L1  H    19    43       P1 10171  1.00

> <Gold.Chemscore.Hbond.Weighted>
-6.6633

> <Gold.Chemscore.Metal.Weighted>
-0.0000

> <Gold.Chemscore.Lipo.Weighted>
-11.6761

> <Gold.Chemscore.Internal_Hbond.Weighted>
0.0000

> <Gold.Chemscore.DEClash.Weighted>
0.0614

> <Gold.Chemscore.DEInternal.Weighted>
0.2331

> <Gold.Chemscore.Rot.Weighted>
10.4879

> <Gold.Chemscore.Internal.Correction.Weighted>
   9.000000E+99

> <Gold.Protein.RotatedTorsions>
[ 6907 6896 6895 6894 ] final  168.05 input  -60.11 | X-H torsion
[ 7974 7965 7964 7962 ] final  168.87 input  175.53 | X-H torsion
[ 8008 7997 7996 7995 ] final   80.22 input   59.86 | X-H torsion
[ 10167 10162 10161 10158 ] final  -97.94 input  -65.29 | X-H torsion
[ 10718 10713 10712 10709 ] final  123.16 input   66.30 | X-H torsion
[ 10763 10752 10751 10750 ] final  -49.01 input  -60.55 | X-H torsion
[ 11005 11000 10999 10996 ] final  163.72 input  -57.11 | X-H torsion

> <Gold.Protein.ActiveResidues>
 VAL166  LYS551  ARG553  GLY616  TRP617  ASP618  TYR619  PRO620  LYS621  CYS622 
 ASP623  PHE694  ASN695  SER759  ASP760  ASP761  ALA762  ILE779  LEU786  VAL792 
 PHE793  MET794  SER795  GLU796  ALA797  LYS798  CYS799  TRP800  GLU811  SER814 

> <Gold.Protein.RotatedAtoms>
  151.8537  133.3444  159.3681 H   0  0  0  0  0  0  0  0  0  0  0  0  # atno 6907 bound_to 6896
  150.7199  134.5274  159.5692 H   0  0  0  0  0  0  0  0  0  0  0  0  # atno 6908 bound_to 6896
  152.2773  134.7868  160.0454 H   0  0  0  0  0  0  0  0  0  0  0  0  # atno 6909 bound_to 6896
  144.7374  139.8970  143.6407 H   0  0  0  0  0  0  0  0  0  0  0  0  # atno 7974 bound_to 7965
  155.8804  140.3444  155.5884 H   0  0  0  0  0  0  0  0  0  0  0  0  # atno 8008 bound_to 7997
  155.7726  140.0847  157.2119 H   0  0  0  0  0  0  0  0  0  0  0  0  # atno 8009 bound_to 7997
  154.4024  140.1515  156.2946 H   0  0  0  0  0  0  0  0  0  0  0  0  # atno 8010 bound_to 7997
  140.2782  143.3299  152.0467 H   0  0  0  0  0  0  0  0  0  0  0  0  # atno 10167 bound_to 10162
  157.5687  131.1085  150.8407 H   0  0  0  0  0  0  0  0  0  0  0  0  # atno 10718 bound_to 10713
  154.0872  135.6582  153.4847 H   0  0  0  0  0  0  0  0  0  0  0  0  # atno 10763 bound_to 10752
  153.0335  135.5194  154.7416 H   0  0  0  0  0  0  0  0  0  0  0  0  # atno 10764 bound_to 10752
  154.6529  135.3004  154.9932 H   0  0  0  0  0  0  0  0  0  0  0  0  # atno 10765 bound_to 10752
  140.2386  134.8068  157.3389 H   0  0  0  0  0  0  0  0  0  0  0  0  # atno 11005 bound_to 11000
  146.1099  139.4103  143.0294 LP  0  0  0  0  0  0  0  0  0  0  0  0  # atno 17320 bound_to 7965
  145.7457  140.9991  143.1277 LP  0  0  0  0  0  0  0  0  0  0  0  0  # atno 17321 bound_to 7965
  139.4970  144.6610  151.6465 LP  0  0  0  0  0  0  0  0  0  0  0  0  # atno 17342 bound_to 10162
  140.5834  143.9907  150.6281 LP  0  0  0  0  0  0  0  0  0  0  0  0  # atno 17343 bound_to 10162
  156.8885  130.5204  149.5287 LP  0  0  0  0  0  0  0  0  0  0  0  0  # atno 17370 bound_to 10713
  156.0733  130.5761  150.9426 LP  0  0  0  0  0  0  0  0  0  0  0  0  # atno 17371 bound_to 10713
  140.1676  134.4649  155.7853 LP  0  0  0  0  0  0  0  0  0  0  0  0  # atno 17394 bound_to 11000
  141.2212  133.6928  156.7652 LP  0  0  0  0  0  0  0  0  0  0  0  0  # atno 17395 bound_to 11000

$$$$
