AV-unprocessed.smi:104|AV-procd|sdf|997|dock2
  -GOLD-   2262017583D 1   1.00000     0.00000
 Structure written by MMmdl.
 47 49  0  0  0  0  0  0  0  0  1 V2000
  152.8695  144.6919  158.0188 C   0  0  0  0  0  0  0  0  0  0  0  0
  152.4256  143.4856  158.8365 C   0  0  0  0  0  0  0  0  0  0  0  0
  152.7522  143.3556  160.0164 O   0  0  0  0  0  0  0  0  0  0  0  0
  151.6698  142.6324  158.1289 O   0  0  0  0  0  0  0  0  0  0  0  0
  151.2282  141.4264  158.7290 C   0  0  0  0  0  0  0  0  0  0  0  0
  150.6777  140.4877  157.6473 C   0  0  2  0  0  0  0  0  0  0  0  0
  149.4232  140.9810  157.1854 O   0  0  0  0  0  0  0  0  0  0  0  0
  148.4112  140.2404  157.7764 C   0  0  1  0  0  0  0  0  0  0  0  0
  147.1972  140.2874  156.9109 N   0  0  0  0  0  0  0  0  0  0  0  0
  147.0382  140.8568  155.6686 C   0  0  0  0  0  0  0  0  0  0  0  0
  148.4549  141.7646  154.7763 Br  0  0  0  0  0  0  0  0  0  0  0  0
  145.8581  140.7698  155.1212 N   0  0  0  0  0  0  0  0  0  0  0  0
  145.1260  140.0809  156.0808 C   0  0  0  0  0  0  0  0  0  0  0  0
  143.7805  139.6432  156.1671 C   0  0  0  0  0  0  0  0  0  0  0  0
  142.8798  139.8530  155.1971 N   0  0  0  0  0  0  0  0  0  0  0  0
  143.3843  138.9854  157.2817 N   0  0  0  0  0  0  0  0  0  0  0  0
  144.2625  138.7666  158.2661 C   0  0  0  0  0  0  0  0  0  0  0  0
  145.5506  139.1148  158.3304 N   0  0  0  0  0  0  0  0  0  0  0  0
  145.9496  139.7757  157.2038 C   0  0  0  0  0  0  0  0  0  0  0  0
  148.9365  138.8190  157.8861 C   0  0  2  0  0  0  0  0  0  0  0  0
  148.2754  138.1408  158.9445 O   0  0  0  0  0  0  0  0  0  0  0  0
  148.7369  136.9568  159.3768 C   0  0  0  0  0  0  0  0  0  0  0  0
  147.9010  136.3896  160.5164 C   0  0  0  0  0  0  0  0  0  0  0  0
  149.7177  136.3562  158.9376 O   0  0  0  0  0  0  0  0  0  0  0  0
  150.4059  139.0701  158.1905 C   0  0  1  0  0  0  0  0  0  0  0  0
  151.1932  138.0948  157.5199 O   0  0  0  0  0  0  0  0  0  0  0  0
  152.5246  138.2465  157.4270 C   0  0  0  0  0  0  0  0  0  0  0  0
  153.1871  137.1065  156.6652 C   0  0  0  0  0  0  0  0  0  0  0  0
  153.1815  139.1817  157.8844 O   0  0  0  0  0  0  0  0  0  0  0  0
  152.7213  144.5160  156.9529 H   0  0  0  0  0  0  0  0  0  0  0  0
  153.9266  144.8951  158.1902 H   0  0  0  0  0  0  0  0  0  0  0  0
  152.2969  145.5736  158.3070 H   0  0  0  0  0  0  0  0  0  0  0  0
  152.0750  140.9547  159.2295 H   0  0  0  0  0  0  0  0  0  0  0  0
  150.4698  141.6273  159.4872 H   0  0  0  0  0  0  0  0  0  0  0  0
  151.3667  140.4518  156.8020 H   0  0  0  0  0  0  0  0  0  0  0  0
  148.1327  140.6848  158.7326 H   0  0  0  0  0  0  0  0  0  0  0  0
  143.1504  140.3436  154.3568 H   0  0  0  0  0  0  0  0  0  0  0  0
  141.9323  139.5223  155.3089 H   0  0  0  0  0  0  0  0  0  0  0  0
  143.8779  138.2383  159.1260 H   0  0  0  0  0  0  0  0  0  0  0  0
  148.8126  138.3241  156.9209 H   0  0  0  0  0  0  0  0  0  0  0  0
  146.9704  135.9741  160.1297 H   0  0  0  0  0  0  0  0  0  0  0  0
  147.6595  137.1696  161.2387 H   0  0  0  0  0  0  0  0  0  0  0  0
  148.4453  135.5987  161.0325 H   0  0  0  0  0  0  0  0  0  0  0  0
  150.5617  139.0398  159.2707 H   0  0  0  0  0  0  0  0  0  0  0  0
  153.3019  136.2368  157.3121 H   0  0  0  0  0  0  0  0  0  0  0  0
  154.1728  137.4070  156.3096 H   0  0  0  0  0  0  0  0  0  0  0  0
  152.5829  136.8210  155.8037 H   0  0  0  0  0  0  0  0  0  0  0  0
  1  2  1  0  0  0  0
  1 30  1  0  0  0  0
  1 31  1  0  0  0  0
  1 32  1  0  0  0  0
  2  3  2  0  0  0  0
  2  4  1  0  0  0  0
  4  5  1  0  0  0  0
  5  6  1  0  0  0  0
  5 33  1  0  0  0  0
  5 34  1  0  0  0  0
  6 25  1  0  0  0  0
  6  7  1  0  0  0  0
  6 35  1  0  0  0  0
  7  8  1  0  0  0  0
  8  9  1  0  0  0  0
  8 20  1  0  0  0  0
  8 36  1  0  0  0  0
  9 19  1  0  0  0  0
  9 10  1  0  0  0  0
 10 11  1  0  0  0  0
 10 12  2  0  0  0  0
 12 13  1  0  0  0  0
 13 19  2  0  0  0  0
 13 14  1  0  0  0  0
 14 15  1  0  0  0  0
 14 16  2  0  0  0  0
 15 37  1  0  0  0  0
 15 38  1  0  0  0  0
 16 17  1  0  0  0  0
 17 18  2  0  0  0  0
 17 39  1  0  0  0  0
 18 19  1  0  0  0  0
 20 21  1  0  0  0  0
 20 25  1  0  0  0  0
 20 40  1  0  0  0  0
 21 22  1  0  0  0  0
 22 23  1  0  0  0  0
 22 24  2  0  0  0  0
 23 41  1  0  0  0  0
 23 42  1  0  0  0  0
 23 43  1  0  0  0  0
 25 26  1  0  0  0  0
 25 44  1  0  0  0  0
 26 27  1  0  0  0  0
 27 28  1  0  0  0  0
 27 29  2  0  0  0  0
 28 45  1  0  0  0  0
 28 46  1  0  0  0  0
 28 47  1  0  0  0  0
M  END
> <s_m_source_file>
AV-unprocessed.smi

> <i_m_source_file_index>
104

> <i_lp_mmshare_version>
43012

> <i_f3d_flags>
0

> <s_epik_input>
W0NIM11DKD1PKU9bQ0gyXVtDQEBIXTFPW0NASF0oW0NAQEhdKE9DKD1PKVtDSDNdKVtDQEhdMU9DKD1PKVtDSDNdKW4oYyhCciluMiljKGMyMyluW2NIXW5jM1tOSDJd

> <s_epik_cmdline>
J2VwaWtfcHl0aG9uJywgJy1waCcsICc3LjAnLCAnLXRuJywgJzgnLCAnLW1hJywgJzIwMCcsICctbWV0YWxfYmluZGluZycsICctaW1hZScsICc8aW5maWxlLm1hZT4nLCAnLW9tYWUnLCAnPG91dGZpbGUubWFlPic=

> <r_lp_tautomer_probability>
1

> <r_epik_Ionization_Penalty>
7.36622e-05

> <r_epik_Ionization_Penalty_Charging>
0

> <r_epik_Ionization_Penalty_Neutral>
7.36622e-05

> <r_epik_State_Penalty>
-0

> <r_epik_Charging_Adjusted_Penalty>
0

> <i_epik_Tot_Q>
0

> <i_epik_Tot_abs_Q>
0

> <r_epik_Metal_State_Penalty>
-0

> <b_epik_Metal_Only>
0

> <s_epik_Chemistry_Notes>
This compound has an ester and may undergo hydrolysis at high or low pH. This compound contains an acetal/aminal-like group ( X-CH(R)-Y where X, Y are N, S, or O) that may be acid/base labile, releasing an aldehyde.

> <s_lp_Force_Field>
OPLS_2005

> <r_lp_Energy>
16.3368

> <b_lp_Chiralities_Consistent>
1

> <s_lp_Variant>
AV-unprocessed.smi:104-5

> <Gold.Version>
5.8.1

> <Gold.Id.Protein>
6NUR|6NUR_protein|mol2

> <Gold.PLP.Fitness>
40.6198

> <Gold.PLP.PLP>
-31.9839

> <Gold.PLP.part.hbond>
-3.9059

> <Gold.PLP.part.metal>
0.0000

> <Gold.PLP.part.buried>
-7.2764

> <Gold.PLP.part.nonpolar>
-21.7414

> <Gold.PLP.part.repulsive>
0.1700

> <Gold.PLP.ligand.clash>
0.0000

> <Gold.PLP.ligand.torsion>
0.3064

> <Gold.PLP.Chemscore.Hbond>
3.0000

> <Gold.PLP.Chemscore.CHOScore>
0.0000

> <Gold.PLP.Chemscore.Metal>
0.0000

> <Gold.Chemscore.Hbonds>
donor molecule, donor type, donor heavy atom, donor atom, acceptor molecule, acceptor atom, score
      L1  H    15    37       P1 10175  1.00
      P1  H  6896  6908       L1    24  0.94
      P1  H  7997  8008       L1    29  1.00

> <Gold.PLP.Chemscore.Internal.Correction>
0.2486

> <Gold.Rescore>
     Score         DG    S(hbond)    S(metal)    S(lipo)     H(rot)  DE(clash)    DE(int)     intcor
      4.17     -10.28       2.94        0.00      51.35       4.31       0.00       6.10       ----

> <Gold.Chemscore.Fitness>
4.1695

> <Gold.Chemscore.DG>
-10.2755

> <Gold.Chemscore.ZeroCoef>
-5.4800

> <Gold.Chemscore.Hbond>
2.9381

> <Gold.Chemscore.Metal>
0.0000

> <Gold.Chemscore.Lipo>
51.3519

> <Gold.Chemscore.Internal_Hbond>
0.0000

> <Gold.Chemscore.DEClash>
0.0019

> <Gold.Chemscore.DEInternal>
6.1041

> <Gold.Chemscore.Rot>
4.3070

> <Gold.Chemscore.Internal.Correction>
   9.000000E+99

> <Gold.Chemscore.Hbonds>
donor molecule, donor type, donor heavy atom, donor atom, acceptor molecule, acceptor atom, score
      L1  H    15    37       P1 10175  0.97
      P1  H  6896  6908       L1    24  0.89
      P1  H  7997  8008       L1    29  1.00

> <Gold.Chemscore.Hbond.Weighted>
-9.8132

> <Gold.Chemscore.Metal.Weighted>
-0.0000

> <Gold.Chemscore.Lipo.Weighted>
-6.0082

> <Gold.Chemscore.Internal_Hbond.Weighted>
0.0000

> <Gold.Chemscore.DEClash.Weighted>
0.0019

> <Gold.Chemscore.DEInternal.Weighted>
6.1041

> <Gold.Chemscore.Rot.Weighted>
11.0259

> <Gold.Chemscore.Internal.Correction.Weighted>
   9.000000E+99

> <Gold.Protein.RotatedTorsions>
[ 6907 6896 6895 6894 ] final -153.60 input  -60.11 | X-H torsion
[ 7974 7965 7964 7962 ] final   51.43 input  175.53 | X-H torsion
[ 8008 7997 7996 7995 ] final  -84.88 input   59.86 | X-H torsion
[ 10167 10162 10161 10158 ] final  -34.96 input  -65.29 | X-H torsion
[ 10718 10713 10712 10709 ] final   70.10 input   66.30 | X-H torsion
[ 10763 10752 10751 10750 ] final  -77.86 input  -60.55 | X-H torsion
[ 11005 11000 10999 10996 ] final  -97.70 input  -57.11 | X-H torsion

> <Gold.Protein.ActiveResidues>
 VAL166  LYS551  ARG553  GLY616  TRP617  ASP618  TYR619  PRO620  LYS621  CYS622 
 ASP623  PHE694  ASN695  SER759  ASP760  ASP761  ALA762  ILE779  LEU786  VAL792 
 PHE793  MET794  SER795  GLU796  ALA797  LYS798  CYS799  TRP800  GLU811  SER814 

> <Gold.Protein.RotatedAtoms>
  151.2449  133.4380  159.2608 H   0  0  0  0  0  0  0  0  0  0  0  0  # atno 6907 bound_to 6896
  151.0671  134.9774  159.8300 H   0  0  0  0  0  0  0  0  0  0  0  0  # atno 6908 bound_to 6896
  152.5407  134.2396  159.8910 H   0  0  0  0  0  0  0  0  0  0  0  0  # atno 6909 bound_to 6896
  145.9914  139.4343  143.0071 H   0  0  0  0  0  0  0  0  0  0  0  0  # atno 7974 bound_to 7965
  154.6346  140.0599  156.9773 H   0  0  0  0  0  0  0  0  0  0  0  0  # atno 8008 bound_to 7997
  155.1611  140.3282  155.4393 H   0  0  0  0  0  0  0  0  0  0  0  0  # atno 8009 bound_to 7997
  156.2500  140.1930  156.6718 H   0  0  0  0  0  0  0  0  0  0  0  0  # atno 8010 bound_to 7997
  140.7175  143.3511  151.2154 H   0  0  0  0  0  0  0  0  0  0  0  0  # atno 10167 bound_to 10162
  157.6382  130.9460  150.0605 H   0  0  0  0  0  0  0  0  0  0  0  0  # atno 10718 bound_to 10713
  154.5185  135.5749  153.6661 H   0  0  0  0  0  0  0  0  0  0  0  0  # atno 10763 bound_to 10752
  152.9912  135.6176  154.2786 H   0  0  0  0  0  0  0  0  0  0  0  0  # atno 10764 bound_to 10752
  154.2705  135.2853  155.2720 H   0  0  0  0  0  0  0  0  0  0  0  0  # atno 10765 bound_to 10752
  141.1370  133.8190  157.0741 H   0  0  0  0  0  0  0  0  0  0  0  0  # atno 11005 bound_to 11000
  145.7624  140.9930  143.1193 LP  0  0  0  0  0  0  0  0  0  0  0  0  # atno 17320 bound_to 7965
  144.6890  139.9347  143.7473 LP  0  0  0  0  0  0  0  0  0  0  0  0  # atno 17321 bound_to 7965
  139.7042  143.9483  152.2919 LP  0  0  0  0  0  0  0  0  0  0  0  0  # atno 17342 bound_to 10162
  139.9186  144.6813  150.8485 LP  0  0  0  0  0  0  0  0  0  0  0  0  # atno 17343 bound_to 10162
  156.1639  130.3644  149.9260 LP  0  0  0  0  0  0  0  0  0  0  0  0  # atno 17370 bound_to 10713
  156.7252  130.9022  151.3621 LP  0  0  0  0  0  0  0  0  0  0  0  0  # atno 17371 bound_to 10713
  140.0493  134.9814  157.1106 LP  0  0  0  0  0  0  0  0  0  0  0  0  # atno 17394 bound_to 11000
  140.4015  134.2078  155.7163 LP  0  0  0  0  0  0  0  0  0  0  0  0  # atno 17395 bound_to 11000

$$$$
