AV-unprocessed.smi:734|AV-procd|sdf|3531|dock7
  -GOLD-   22720 0523D 1   1.00000     0.00000
 Structure written by MMmdl.
 38 39  0  0  0  0  0  0  0  0  3 V2000
  151.3421  143.5178  157.8217 C   0  0  0  0  0  0  0  0  0  0  0  0
  151.3005  142.0223  158.1677 C   0  0  0  0  0  0  0  0  0  0  0  0
  152.5103  141.5604  158.9932 C   0  0  0  0  0  0  0  0  0  0  0  0
  151.0858  141.1688  156.9569 C   0  0  0  0  0  0  0  0  0  0  0  0
  150.2136  141.4758  155.9917 N   0  0  0  0  0  0  0  0  0  0  0  0
  150.2032  140.5332  154.9744 N   0  0  0  0  0  0  0  0  0  0  0  0
  151.0716  139.5327  155.1762 C   0  0  0  0  0  0  0  0  0  0  0  0
  151.2199  138.5210  154.3047 N   0  5  0  0  0  0  0  0  0  0  0  0
  151.5171  137.2823  154.7561 C   0  0  0  0  0  0  0  0  0  0  0  0
  152.3597  136.9977  155.6108 O   0  0  0  0  0  0  0  0  0  0  0  0
  150.7887  136.3105  154.1886 N   0  0  0  0  0  0  0  0  0  0  0  0
  150.8869  134.8894  154.4979 C   0  0  0  0  0  0  0  0  0  0  0  0
  149.5118  134.2988  154.8586 C   0  0  0  0  0  0  0  0  0  0  0  0
  148.6807  134.0563  153.6578 N   0  3  0  0  0  0  0  0  0  0  0  0
  147.2202  133.9707  153.9408 C   0  0  0  0  0  0  0  0  0  0  0  0
  146.7546  132.8719  153.0276 C   0  0  0  0  0  0  0  0  0  0  0  0
  147.7768  132.2721  152.4282 C   0  0  0  0  0  0  0  0  0  0  0  0
  149.0887  132.8744  152.8447 C   0  0  0  0  0  0  0  0  0  0  0  0
  151.9676  139.6737  156.6877 S   0  0  0  0  0  0  0  0  0  0  0  0
  150.4311  143.8266  157.3077 H   0  0  0  0  0  0  0  0  0  0  0  0
  152.1865  143.7510  157.1720 H   0  0  0  0  0  0  0  0  0  0  0  0
  151.4371  144.1269  158.7210 H   0  0  0  0  0  0  0  0  0  0  0  0
  150.4251  141.8793  158.8025 H   0  0  0  0  0  0  0  0  0  0  0  0
  152.4066  140.5161  159.2889 H   0  0  0  0  0  0  0  0  0  0  0  0
  152.6153  142.1530  159.9022 H   0  0  0  0  0  0  0  0  0  0  0  0
  153.4366  141.6553  158.4258 H   0  0  0  0  0  0  0  0  0  0  0  0
  150.1135  136.5845  153.4895 H   0  0  0  0  0  0  0  0  0  0  0  0
  151.2936  134.3794  153.6245 H   0  0  0  0  0  0  0  0  0  0  0  0
  151.6057  134.7427  155.3055 H   0  0  0  0  0  0  0  0  0  0  0  0
  149.6173  133.3676  155.4173 H   0  0  0  0  0  0  0  0  0  0  0  0
  148.9880  134.9982  155.5121 H   0  0  0  0  0  0  0  0  0  0  0  0
  147.0156  133.6944  154.9763 H   0  0  0  0  0  0  0  0  0  0  0  0
  146.7240  134.9155  153.7172 H   0  0  0  0  0  0  0  0  0  0  0  0
  145.7132  132.6105  152.9108 H   0  0  0  0  0  0  0  0  0  0  0  0
  147.7067  131.4410  151.7419 H   0  0  0  0  0  0  0  0  0  0  0  0
  149.6804  133.1800  151.9815 H   0  0  0  0  0  0  0  0  0  0  0  0
  149.6551  132.1462  153.4271 H   0  0  0  0  0  0  0  0  0  0  0  0
  148.7925  134.8597  153.0561 H   0  0  0  0  0  0  0  0  0  0  0  0
  1  2  1  0  0  0  0
  1 20  1  0  0  0  0
  1 21  1  0  0  0  0
  1 22  1  0  0  0  0
  2  3  1  0  0  0  0
  2  4  1  0  0  0  0
  2 23  1  0  0  0  0
  3 24  1  0  0  0  0
  3 25  1  0  0  0  0
  3 26  1  0  0  0  0
  4 19  1  0  0  0  0
  4  5  2  0  0  0  0
  5  6  1  0  0  0  0
  6  7  2  0  0  0  0
  7  8  1  0  0  0  0
  7 19  1  0  0  0  0
  8  9  1  0  0  0  0
  9 10  2  0  0  0  0
  9 11  1  0  0  0  0
 11 12  1  0  0  0  0
 11 27  1  0  0  0  0
 12 13  1  0  0  0  0
 12 28  1  0  0  0  0
 12 29  1  0  0  0  0
 13 14  1  0  0  0  0
 13 30  1  0  0  0  0
 13 31  1  0  0  0  0
 14 18  1  0  0  0  0
 14 15  1  0  0  0  0
 14 38  1  0  0  0  0
 15 16  1  0  0  0  0
 15 32  1  0  0  0  0
 15 33  1  0  0  0  0
 16 17  2  0  0  0  0
 16 34  1  0  0  0  0
 17 18  1  0  0  0  0
 17 35  1  0  0  0  0
 18 36  1  0  0  0  0
 18 37  1  0  0  0  0
M  CHG  1   8  -1
M  CHG  1  14   1
M  END
> <s_m_source_file>
AV-unprocessed.smi

> <i_m_source_file_index>
734

> <i_lp_mmshare_version>
43012

> <i_f3d_flags>
0

> <s_epik_input>
W0NIM11bQ0hdKFtDSDNdKWMxbm5jKHMxKVtOSF1DKD1PKVtOSF1bQ0gyXVtDSDJdTjJbQ0gyXVtDSF09W0NIXVtDSDJdMg==

> <s_epik_cmdline>
J2VwaWtfcHl0aG9uJywgJy1waCcsICc3LjAnLCAnLXRuJywgJzgnLCAnLW1hJywgJzIwMCcsICctbWV0YWxfYmluZGluZycsICctaW1hZScsICc8aW5maWxlLm1hZT4nLCAnLW9tYWUnLCAnPG91dGZpbGUubWFlPic=

> <r_lp_tautomer_probability>
1

> <r_epik_Ionization_Penalty>
3.04352

> <r_epik_Ionization_Penalty_Charging>
2.92732

> <r_epik_Ionization_Penalty_Neutral>
0.116198

> <r_epik_State_Penalty>
2.92347

> <r_epik_Charging_Adjusted_Penalty>
5.85079

> <i_epik_Tot_Q>
0

> <i_epik_Tot_abs_Q>
2

> <r_epik_Metal_State_Penalty>
0.448048

> <b_epik_Metal_Only>
1

> <s_lp_Force_Field>
OPLS_2005

> <r_lp_Energy>
6.61646

> <b_lp_Chiralities_Consistent>
1

> <s_lp_Variant>
AV-unprocessed.smi:734-2

> <Gold.Version>
5.8.1

> <Gold.Id.Protein>
6NUR|6NUR_protein|mol2

> <Gold.PLP.Fitness>
44.4821

> <Gold.PLP.PLP>
-32.1250

> <Gold.PLP.part.hbond>
-5.0000

> <Gold.PLP.part.metal>
0.0000

> <Gold.PLP.part.buried>
-4.3230

> <Gold.PLP.part.nonpolar>
-23.3621

> <Gold.PLP.part.repulsive>
0.3949

> <Gold.PLP.ligand.clash>
0.0000

> <Gold.PLP.ligand.torsion>
1.1723

> <Gold.PLP.Chemscore.Hbond>
4.8420

> <Gold.PLP.Chemscore.CHOScore>
0.0000

> <Gold.PLP.Chemscore.Metal>
0.0000

> <Gold.Chemscore.Hbonds>
donor molecule, donor type, donor heavy atom, donor atom, acceptor molecule, acceptor atom, score
      L1  H    11    27       P1  7948  0.70
      L1  H    14    38       P1  7948  2.00
      P1  H 10752 10765       L1    10  0.66

> <Gold.PLP.Chemscore.Internal.Correction>
0.1756

> <Gold.Rescore>
     Score         DG    S(hbond)    S(metal)    S(lipo)     H(rot)  DE(clash)    DE(int)     intcor
     14.28     -17.11       2.70        0.00      59.32       1.68       0.20       2.64       ----

> <Gold.Chemscore.Fitness>
14.2761

> <Gold.Chemscore.DG>
-17.1147

> <Gold.Chemscore.ZeroCoef>
-5.4800

> <Gold.Chemscore.Hbond>
2.6961

> <Gold.Chemscore.Metal>
0.0000

> <Gold.Chemscore.Lipo>
59.3201

> <Gold.Chemscore.Internal_Hbond>
0.0000

> <Gold.Chemscore.DEClash>
0.1979

> <Gold.Chemscore.DEInternal>
2.6408

> <Gold.Chemscore.Rot>
1.6839

> <Gold.Chemscore.Internal.Correction>
   9.000000E+99

> <Gold.Chemscore.Hbonds>
donor molecule, donor type, donor heavy atom, donor atom, acceptor molecule, acceptor atom, score
      L1  H    11    27       P1  7948  0.07
      L1  H    14    38       P1  7948  0.26
      P1  H 10752 10765       L1    10  0.54

> <Gold.Chemscore.Hbond.Weighted>
-9.0051

> <Gold.Chemscore.Metal.Weighted>
-0.0000

> <Gold.Chemscore.Lipo.Weighted>
-6.9405

> <Gold.Chemscore.Internal_Hbond.Weighted>
0.0000

> <Gold.Chemscore.DEClash.Weighted>
0.1979

> <Gold.Chemscore.DEInternal.Weighted>
2.6408

> <Gold.Chemscore.Rot.Weighted>
4.3108

> <Gold.Chemscore.Internal.Correction.Weighted>
   9.000000E+99

> <Gold.Protein.RotatedTorsions>
[ 6907 6896 6895 6894 ] final -113.35 input  -60.11 | X-H torsion
[ 7974 7965 7964 7962 ] final   27.36 input  175.53 | X-H torsion
[ 8008 7997 7996 7995 ] final   14.88 input   59.86 | X-H torsion
[ 10167 10162 10161 10158 ] final  -80.91 input  -65.29 | X-H torsion
[ 10718 10713 10712 10709 ] final  -53.88 input   66.30 | X-H torsion
[ 10763 10752 10751 10750 ] final -138.09 input  -60.55 | X-H torsion
[ 11005 11000 10999 10996 ] final -156.30 input  -57.11 | X-H torsion

> <Gold.Protein.ActiveResidues>
 VAL166  LYS551  ARG553  GLY616  TRP617  ASP618  TYR619  PRO620  LYS621  CYS622 
 ASP623  PHE694  ASN695  SER759  ASP760  ASP761  ALA762  ILE779  LEU786  VAL792 
 PHE793  MET794  SER795  GLU796  ALA797  LYS798  CYS799  TRP800  GLU811  SER814 

> <Gold.Protein.RotatedAtoms>
  150.7823  133.8957  159.3326 H   0  0  0  0  0  0  0  0  0  0  0  0  # atno 6907 bound_to 6896
  151.6816  135.0959  160.0226 H   0  0  0  0  0  0  0  0  0  0  0  0  # atno 6908 bound_to 6896
  152.3878  133.6597  159.6248 H   0  0  0  0  0  0  0  0  0  0  0  0  # atno 6909 bound_to 6896
  146.1788  139.7202  142.8915 H   0  0  0  0  0  0  0  0  0  0  0  0  # atno 7974 bound_to 7965
  154.8547  140.2935  155.5576 H   0  0  0  0  0  0  0  0  0  0  0  0  # atno 8008 bound_to 7997
  156.3018  140.2489  156.3444 H   0  0  0  0  0  0  0  0  0  0  0  0  # atno 8009 bound_to 7997
  154.8982  140.0392  157.1867 H   0  0  0  0  0  0  0  0  0  0  0  0  # atno 8010 bound_to 7997
  140.4460  143.2499  151.8558 H   0  0  0  0  0  0  0  0  0  0  0  0  # atno 10167 bound_to 10162
  156.1497  130.4151  149.9965 H   0  0  0  0  0  0  0  0  0  0  0  0  # atno 10718 bound_to 10713
  154.8646  135.3622  154.5328 H   0  0  0  0  0  0  0  0  0  0  0  0  # atno 10763 bound_to 10752
  153.5953  135.7014  153.5411 H   0  0  0  0  0  0  0  0  0  0  0  0  # atno 10764 bound_to 10752
  153.3338  135.4117  155.1478 H   0  0  0  0  0  0  0  0  0  0  0  0  # atno 10765 bound_to 10752
  140.6771  134.4185  157.5229 H   0  0  0  0  0  0  0  0  0  0  0  0  # atno 11005 bound_to 11000
  145.4135  141.0399  143.3004 LP  0  0  0  0  0  0  0  0  0  0  0  0  # atno 17320 bound_to 7965
  144.8280  139.5676  143.6956 LP  0  0  0  0  0  0  0  0  0  0  0  0  # atno 17321 bound_to 7965
  139.4793  144.5175  151.8847 LP  0  0  0  0  0  0  0  0  0  0  0  0  # atno 17342 bound_to 10162
  140.4263  144.2175  150.5887 LP  0  0  0  0  0  0  0  0  0  0  0  0  # atno 17343 bound_to 10162
  156.7826  130.9227  151.3646 LP  0  0  0  0  0  0  0  0  0  0  0  0  # atno 17370 bound_to 10713
  157.6647  130.8997  149.9905 LP  0  0  0  0  0  0  0  0  0  0  0  0  # atno 17371 bound_to 10713
  139.8963  134.8662  156.2092 LP  0  0  0  0  0  0  0  0  0  0  0  0  # atno 17394 bound_to 11000
  141.0347  133.6970  156.1491 LP  0  0  0  0  0  0  0  0  0  0  0  0  # atno 17395 bound_to 11000

$$$$
