AV-unprocessed.smi:302|AV-procd|sdf|2272|dock7
  -GOLD-   2262022163D 1   1.00000     0.00000
 Structure written by MMmdl.
 44 45  0  0  0  0  0  0  0  0  1 V2000
  148.2213  132.0949  153.3160 C   0  0  0  0  0  0  0  0  0  0  0  0
  148.0173  133.3171  152.4184 C   0  0  0  0  0  0  0  0  0  0  0  0
  146.8968  133.0806  151.5729 O   0  0  0  0  0  0  0  0  0  0  0  0
  145.6664  132.8075  152.2409 C   0  0  2  0  0  0  0  0  0  0  0  0
  144.9928  131.6404  151.4897 C   0  0  0  0  0  0  0  0  0  0  0  0
  145.6880  130.2839  151.6811 C   0  0  0  0  0  0  0  0  0  0  0  0
  144.7916  134.0740  152.2719 C   0  0  0  0  0  0  0  0  0  0  0  0
  145.1699  135.0908  151.6906 O   0  0  0  0  0  0  0  0  0  0  0  0
  143.6536  133.9791  152.9841 N   0  0  0  0  0  0  0  0  0  0  0  0
  142.6712  134.9777  153.2197 C   0  0  0  0  0  0  0  0  0  0  0  0
  142.8506  136.3531  152.9461 C   0  0  0  0  0  0  0  0  0  0  0  0
  141.7949  137.2450  153.2157 C   0  0  0  0  0  0  0  0  0  0  0  0
  140.5810  136.7442  153.7429 C   0  0  0  0  0  0  0  0  0  0  0  0
  139.5134  137.6226  154.0298 N   0  0  0  0  0  0  0  0  0  0  0  0
  139.1087  138.5156  152.9469 C   0  0  0  0  0  0  0  0  0  0  0  0
  138.1861  139.6230  153.4850 C   0  0  0  0  0  0  0  0  0  0  0  0
  137.0788  139.0418  154.1659 O   0  0  0  0  0  0  0  0  0  0  0  0
  137.4937  138.2654  155.2846 C   0  0  0  0  0  0  0  0  0  0  0  0
  138.3884  137.1086  154.8090 C   0  0  0  0  0  0  0  0  0  0  0  0
  140.4100  135.4226  153.9928 N   0  0  0  0  0  0  0  0  0  0  0  0
  141.4231  134.5711  153.7307 C   0  0  0  0  0  0  0  0  0  0  0  0
  149.0711  132.2393  153.9836 H   0  0  0  0  0  0  0  0  0  0  0  0
  148.4112  131.2004  152.7217 H   0  0  0  0  0  0  0  0  0  0  0  0
  147.3401  131.9092  153.9307 H   0  0  0  0  0  0  0  0  0  0  0  0
  147.8437  134.2014  153.0333 H   0  0  0  0  0  0  0  0  0  0  0  0
  148.9219  133.4927  151.8352 H   0  0  0  0  0  0  0  0  0  0  0  0
  145.8816  132.4794  153.2599 H   0  0  0  0  0  0  0  0  0  0  0  0
  143.9463  131.5570  151.7862 H   0  0  0  0  0  0  0  0  0  0  0  0
  144.9804  131.8731  150.4244 H   0  0  0  0  0  0  0  0  0  0  0  0
  145.2020  129.5143  151.0812 H   0  0  0  0  0  0  0  0  0  0  0  0
  145.6558  129.9571  152.7206 H   0  0  0  0  0  0  0  0  0  0  0  0
  146.7335  130.3311  151.3757 H   0  0  0  0  0  0  0  0  0  0  0  0
  143.5139  133.1089  153.4769 H   0  0  0  0  0  0  0  0  0  0  0  0
  143.7676  136.7401  152.5299 H   0  0  0  0  0  0  0  0  0  0  0  0
  141.9353  138.2991  153.0288 H   0  0  0  0  0  0  0  0  0  0  0  0
  139.9658  138.9755  152.4580 H   0  0  0  0  0  0  0  0  0  0  0  0
  138.5864  137.9320  152.1878 H   0  0  0  0  0  0  0  0  0  0  0  0
  138.7300  140.2894  154.1565 H   0  0  0  0  0  0  0  0  0  0  0  0
  137.8154  140.2343  152.6621 H   0  0  0  0  0  0  0  0  0  0  0  0
  138.0214  138.8951  156.0028 H   0  0  0  0  0  0  0  0  0  0  0  0
  136.6122  137.8740  155.7925 H   0  0  0  0  0  0  0  0  0  0  0  0
  137.8101  136.4168  154.1949 H   0  0  0  0  0  0  0  0  0  0  0  0
  138.7499  136.5537  155.6757 H   0  0  0  0  0  0  0  0  0  0  0  0
  141.2316  133.5298  153.9458 H   0  0  0  0  0  0  0  0  0  0  0  0
  1  2  1  0  0  0  0
  1 22  1  0  0  0  0
  1 23  1  0  0  0  0
  1 24  1  0  0  0  0
  2  3  1  0  0  0  0
  2 25  1  0  0  0  0
  2 26  1  0  0  0  0
  3  4  1  0  0  0  0
  4  5  1  0  0  0  0
  4  7  1  0  0  0  0
  4 27  1  0  0  0  0
  5  6  1  0  0  0  0
  5 28  1  0  0  0  0
  5 29  1  0  0  0  0
  6 30  1  0  0  0  0
  6 31  1  0  0  0  0
  6 32  1  0  0  0  0
  7  8  2  0  0  0  0
  7  9  1  0  0  0  0
  9 10  1  0  0  0  0
  9 33  1  0  0  0  0
 10 21  1  0  0  0  0
 10 11  2  0  0  0  0
 11 12  1  0  0  0  0
 11 34  1  0  0  0  0
 12 13  2  0  0  0  0
 12 35  1  0  0  0  0
 13 14  1  0  0  0  0
 13 20  1  0  0  0  0
 14 19  1  0  0  0  0
 14 15  1  0  0  0  0
 15 16  1  0  0  0  0
 15 36  1  0  0  0  0
 15 37  1  0  0  0  0
 16 17  1  0  0  0  0
 16 38  1  0  0  0  0
 16 39  1  0  0  0  0
 17 18  1  0  0  0  0
 18 19  1  0  0  0  0
 18 40  1  0  0  0  0
 18 41  1  0  0  0  0
 19 42  1  0  0  0  0
 19 43  1  0  0  0  0
 20 21  2  0  0  0  0
 21 44  1  0  0  0  0
M  END
> <s_m_source_file>
AV-unprocessed.smi

> <i_m_source_file_index>
302

> <i_lp_mmshare_version>
43012

> <i_f3d_flags>
0

> <s_epik_input>
W0NIM11bQ0gyXU9bQ0BIXShbQ0gyXVtDSDNdKUMoPU8pW05IXWMxW2NIXVtjSF1jKG5bY0hdMSlOMltDSDJdW0NIMl1PW0NIMl1bQ0gyXTI=

> <s_epik_cmdline>
J2VwaWtfcHl0aG9uJywgJy1waCcsICc3LjAnLCAnLXRuJywgJzgnLCAnLW1hJywgJzIwMCcsICctbWV0YWxfYmluZGluZycsICctaW1hZScsICc8aW5maWxlLm1hZT4nLCAnLW9tYWUnLCAnPG91dGZpbGUubWFlPic=

> <r_lp_tautomer_probability>
1

> <r_epik_Ionization_Penalty>
0.000497413

> <r_epik_Ionization_Penalty_Charging>
0

> <r_epik_Ionization_Penalty_Neutral>
0.000497413

> <r_epik_State_Penalty>
0.000308489

> <r_epik_Charging_Adjusted_Penalty>
0.000308489

> <i_epik_Tot_Q>
0

> <i_epik_Tot_abs_Q>
0

> <r_epik_Metal_State_Penalty>
-0

> <b_epik_Metal_Only>
0

> <s_lp_Force_Field>
OPLS_2005

> <r_lp_Energy>
24.0205

> <b_lp_Chiralities_Consistent>
1

> <s_lp_Variant>
AV-unprocessed.smi:302-1

> <Gold.Version>
5.8.1

> <Gold.Id.Protein>
6NUR|6NUR_protein|mol2

> <Gold.PLP.Fitness>
42.6198

> <Gold.PLP.PLP>
-36.6229

> <Gold.PLP.part.hbond>
-2.6035

> <Gold.PLP.part.metal>
0.0000

> <Gold.PLP.part.buried>
-4.8952

> <Gold.PLP.part.nonpolar>
-30.7253

> <Gold.PLP.part.repulsive>
0.5758

> <Gold.PLP.ligand.clash>
0.0000

> <Gold.PLP.ligand.torsion>
0.9447

> <Gold.PLP.Chemscore.Hbond>
1.5031

> <Gold.PLP.Chemscore.CHOScore>
0.9931

> <Gold.PLP.Chemscore.Metal>
0.0000

> <Gold.Chemscore.Hbonds>
donor molecule, donor type, donor heavy atom, donor atom, acceptor molecule, acceptor atom, score
      L1  H     9    33       P1 10957  0.94
      P1  H 11000 11005       L1    20  0.59
      L1  C    21    44       P1 10957  1.00

> <Gold.PLP.Chemscore.Internal.Correction>
0.3975

> <Gold.Rescore>
     Score         DG    S(hbond)    S(metal)    S(lipo)     H(rot)  DE(clash)    DE(int)     intcor
     12.17     -14.25       0.93        0.00      84.04       1.63       0.01       2.06       ----

> <Gold.Chemscore.Fitness>
12.1729

> <Gold.Chemscore.DG>
-14.2475

> <Gold.Chemscore.ZeroCoef>
-5.4800

> <Gold.Chemscore.Hbond>
0.9275

> <Gold.Chemscore.Metal>
0.0000

> <Gold.Chemscore.Lipo>
84.0371

> <Gold.Chemscore.Internal_Hbond>
0.0000

> <Gold.Chemscore.DEClash>
0.0108

> <Gold.Chemscore.DEInternal>
2.0638

> <Gold.Chemscore.Rot>
1.6260

> <Gold.Chemscore.Internal.Correction>
   9.000000E+99

> <Gold.Chemscore.Hbonds>
donor molecule, donor type, donor heavy atom, donor atom, acceptor molecule, acceptor atom, score
      L1  H     9    33       P1 10957  0.81
      P1  H 11000 11005       L1    20  0.06

> <Gold.Chemscore.Hbond.Weighted>
-3.0977

> <Gold.Chemscore.Metal.Weighted>
-0.0000

> <Gold.Chemscore.Lipo.Weighted>
-9.8323

> <Gold.Chemscore.Internal_Hbond.Weighted>
0.0000

> <Gold.Chemscore.DEClash.Weighted>
0.0108

> <Gold.Chemscore.DEInternal.Weighted>
2.0638

> <Gold.Chemscore.Rot.Weighted>
4.1626

> <Gold.Chemscore.Internal.Correction.Weighted>
   9.000000E+99

> <Gold.Protein.RotatedTorsions>
[ 6907 6896 6895 6894 ] final -133.43 input  -60.11 | X-H torsion
[ 7974 7965 7964 7962 ] final  130.86 input  175.53 | X-H torsion
[ 8008 7997 7996 7995 ] final  -85.49 input   59.86 | X-H torsion
[ 10167 10162 10161 10158 ] final  -81.81 input  -65.29 | X-H torsion
[ 10718 10713 10712 10709 ] final  -15.21 input   66.30 | X-H torsion
[ 10763 10752 10751 10750 ] final  -37.73 input  -60.55 | X-H torsion
[ 11005 11000 10999 10996 ] final   60.23 input  -57.11 | X-H torsion

> <Gold.Protein.ActiveResidues>
 VAL166  LYS551  ARG553  GLY616  TRP617  ASP618  TYR619  PRO620  LYS621  CYS622 
 ASP623  PHE694  ASN695  SER759  ASP760  ASP761  ALA762  ILE779  LEU786  VAL792 
 PHE793  MET794  SER795  GLU796  ALA797  LYS798  CYS799  TRP800  GLU811  SER814 

> <Gold.Protein.RotatedAtoms>
  150.9739  133.6315  159.2733 H   0  0  0  0  0  0  0  0  0  0  0  0  # atno 6907 bound_to 6896
  151.3594  135.0900  159.9439 H   0  0  0  0  0  0  0  0  0  0  0  0  # atno 6908 bound_to 6896
  152.5192  133.9316  159.7638 H   0  0  0  0  0  0  0  0  0  0  0  0  # atno 6909 bound_to 6896
  145.0134  139.4199  143.5233 H   0  0  0  0  0  0  0  0  0  0  0  0  # atno 7974 bound_to 7965
  154.6413  140.0591  156.9849 H   0  0  0  0  0  0  0  0  0  0  0  0  # atno 8008 bound_to 7997
  155.1512  140.3274  155.4412 H   0  0  0  0  0  0  0  0  0  0  0  0  # atno 8009 bound_to 7997
  156.2532  140.1947  156.6624 H   0  0  0  0  0  0  0  0  0  0  0  0  # atno 8010 bound_to 7997
  140.4378  143.2525  151.8669 H   0  0  0  0  0  0  0  0  0  0  0  0  # atno 10167 bound_to 10162
  156.6050  130.4834  149.6224 H   0  0  0  0  0  0  0  0  0  0  0  0  # atno 10718 bound_to 10713
  153.9011  135.6802  153.4755 H   0  0  0  0  0  0  0  0  0  0  0  0  # atno 10763 bound_to 10752
  153.1129  135.4775  154.9063 H   0  0  0  0  0  0  0  0  0  0  0  0  # atno 10764 bound_to 10752
  154.7574  135.3201  154.8397 H   0  0  0  0  0  0  0  0  0  0  0  0  # atno 10765 bound_to 10752
  140.0246  134.6101  155.9590 H   0  0  0  0  0  0  0  0  0  0  0  0  # atno 11005 bound_to 11000
  146.3474  139.9591  142.8719 LP  0  0  0  0  0  0  0  0  0  0  0  0  # atno 17320 bound_to 7965
  145.1992  140.9847  143.4166 LP  0  0  0  0  0  0  0  0  0  0  0  0  # atno 17321 bound_to 7965
  139.4788  144.5263  151.8730 LP  0  0  0  0  0  0  0  0  0  0  0  0  # atno 17342 bound_to 10162
  140.4353  144.2060  150.5889 LP  0  0  0  0  0  0  0  0  0  0  0  0  # atno 17343 bound_to 10162
  156.2437  130.6866  151.1580 LP  0  0  0  0  0  0  0  0  0  0  0  0  # atno 17370 bound_to 10713
  157.7269  131.0642  150.5887 LP  0  0  0  0  0  0  0  0  0  0  0  0  # atno 17371 bound_to 10713
  141.1795  133.6544  156.4962 LP  0  0  0  0  0  0  0  0  0  0  0  0  # atno 17394 bound_to 11000
  140.4328  134.7086  157.4951 LP  0  0  0  0  0  0  0  0  0  0  0  0  # atno 17395 bound_to 11000

$$$$
