AV-unprocessed.smi:2299|AV-procd|sdf|9231|dock6
  -GOLD-   2272012453D 1   1.00000     0.00000
 Structure written by MMmdl.
 42 43  0  0  0  0  0  0  0  0  1 V2000
  151.6444  145.1121  160.0785 C   0  0  0  0  0  0  0  0  0  0  0  0
  152.6386  144.4384  159.1216 C   0  0  0  0  0  0  0  0  0  0  0  0
  152.4629  144.9218  157.6747 C   0  0  0  0  0  0  0  0  0  0  0  0
  152.5660  142.9379  159.2184 C   0  0  0  0  0  0  0  0  0  0  0  0
  153.6064  142.1839  159.5663 N   0  0  0  0  0  0  0  0  0  0  0  0
  153.1410  140.8762  159.5146 C   0  0  0  0  0  0  0  0  0  0  0  0
  151.8234  140.8800  159.1298 C   0  0  0  0  0  0  0  0  0  0  0  0
  151.4622  142.2084  158.9382 N   0  0  0  0  0  0  0  0  0  0  0  0
  150.1459  142.6580  158.5087 C   0  0  0  0  0  0  0  0  0  0  0  0
  149.4750  141.6152  157.6129 C   0  0  0  0  0  0  0  0  0  0  0  0
  149.3452  140.4568  158.0082 O   0  0  0  0  0  0  0  0  0  0  0  0
  149.0637  142.0369  156.4072 N   0  0  0  0  0  0  0  0  0  0  0  0
  148.4644  141.2019  155.3662 C   0  0  1  0  0  0  0  0  0  0  0  0
  147.6935  142.0781  154.3540 C   0  0  0  0  0  0  0  0  0  0  0  0
  146.6049  141.3199  153.5769 C   0  0  0  0  0  0  0  0  0  0  0  0
  147.1215  140.1807  152.6852 C   0  0  0  0  0  0  0  0  0  0  0  0
  147.7605  139.0208  153.4691 C   0  0  0  0  0  0  0  0  0  0  0  0
  149.1250  139.3141  153.8897 N   0  0  0  0  0  0  0  0  0  0  0  0
  149.5232  140.2818  154.7294 C   0  0  0  0  0  0  0  0  0  0  0  0
  150.7177  140.4378  154.9825 O   0  0  0  0  0  0  0  0  0  0  0  0
  151.8291  144.8092  161.1095 H   0  0  0  0  0  0  0  0  0  0  0  0
  150.6146  144.8506  159.8329 H   0  0  0  0  0  0  0  0  0  0  0  0
  151.7311  146.1981  160.0351 H   0  0  0  0  0  0  0  0  0  0  0  0
  153.6301  144.7641  159.4279 H   0  0  0  0  0  0  0  0  0  0  0  0
  153.2159  144.4806  157.0208 H   0  0  0  0  0  0  0  0  0  0  0  0
  152.5629  146.0055  157.6082 H   0  0  0  0  0  0  0  0  0  0  0  0
  151.4815  144.6547  157.2811 H   0  0  0  0  0  0  0  0  0  0  0  0
  153.7843  140.0420  159.7526 H   0  0  0  0  0  0  0  0  0  0  0  0
  151.1305  140.0664  158.9732 H   0  0  0  0  0  0  0  0  0  0  0  0
  149.5246  142.8201  159.3904 H   0  0  0  0  0  0  0  0  0  0  0  0
  150.2291  143.6239  158.0095 H   0  0  0  0  0  0  0  0  0  0  0  0
  149.2143  143.0066  156.1686 H   0  0  0  0  0  0  0  0  0  0  0  0
  147.7513  140.5428  155.8650 H   0  0  0  0  0  0  0  0  0  0  0  0
  147.2030  142.8983  154.8801 H   0  0  0  0  0  0  0  0  0  0  0  0
  148.3901  142.5498  153.6594 H   0  0  0  0  0  0  0  0  0  0  0  0
  145.8660  140.9274  154.2767 H   0  0  0  0  0  0  0  0  0  0  0  0
  146.0688  142.0334  152.9502 H   0  0  0  0  0  0  0  0  0  0  0  0
  146.2749  139.7865  152.1218 H   0  0  0  0  0  0  0  0  0  0  0  0
  147.8199  140.5672  151.9417 H   0  0  0  0  0  0  0  0  0  0  0  0
  147.1487  138.7399  154.3274 H   0  0  0  0  0  0  0  0  0  0  0  0
  147.8081  138.1405  152.8276 H   0  0  0  0  0  0  0  0  0  0  0  0
  149.8462  138.7284  153.4937 H   0  0  0  0  0  0  0  0  0  0  0  0
  1  2  1  0  0  0  0
  1 21  1  0  0  0  0
  1 22  1  0  0  0  0
  1 23  1  0  0  0  0
  2  3  1  0  0  0  0
  2  4  1  0  0  0  0
  2 24  1  0  0  0  0
  3 25  1  0  0  0  0
  3 26  1  0  0  0  0
  3 27  1  0  0  0  0
  4  8  1  0  0  0  0
  4  5  2  0  0  0  0
  5  6  1  0  0  0  0
  6  7  2  0  0  0  0
  6 28  1  0  0  0  0
  7  8  1  0  0  0  0
  7 29  1  0  0  0  0
  8  9  1  0  0  0  0
  9 10  1  0  0  0  0
  9 30  1  0  0  0  0
  9 31  1  0  0  0  0
 10 11  2  0  0  0  0
 10 12  1  0  0  0  0
 12 13  1  0  0  0  0
 12 32  1  0  0  0  0
 13 19  1  0  0  0  0
 13 14  1  0  0  0  0
 13 33  1  0  0  0  0
 14 15  1  0  0  0  0
 14 34  1  0  0  0  0
 14 35  1  0  0  0  0
 15 16  1  0  0  0  0
 15 36  1  0  0  0  0
 15 37  1  0  0  0  0
 16 17  1  0  0  0  0
 16 38  1  0  0  0  0
 16 39  1  0  0  0  0
 17 18  1  0  0  0  0
 17 40  1  0  0  0  0
 17 41  1  0  0  0  0
 18 19  1  0  0  0  0
 18 42  1  0  0  0  0
 19 20  2  0  0  0  0
M  END
> <s_m_source_file>
AV-unprocessed.smi

> <i_m_source_file_index>
2299

> <i_lp_mmshare_version>
43012

> <i_f3d_flags>
0

> <s_epik_input>
W0NIM11bQ0hdKFtDSDNdKWMxbltjSF1bY0hdbjFbQ0gyXUMoPU8pW05IXVtDQEBIXTJbQ0gyXVtDSDJdW0NIMl1bQ0gyXVtOSF1DMj1P

> <s_epik_cmdline>
J2VwaWtfcHl0aG9uJywgJy1waCcsICc3LjAnLCAnLXRuJywgJzgnLCAnLW1hJywgJzIwMCcsICctbWV0YWxfYmluZGluZycsICctaW1hZScsICc8aW5maWxlLm1hZT4nLCAnLW9tYWUnLCAnPG91dGZpbGUubWFlPic=

> <r_lp_tautomer_probability>
1

> <r_epik_Ionization_Penalty>
0.557868

> <r_epik_Ionization_Penalty_Charging>
0.557868

> <r_epik_Ionization_Penalty_Neutral>
1.99744e-07

> <r_epik_State_Penalty>
0.568774

> <r_epik_Charging_Adjusted_Penalty>
1.12664

> <i_epik_Tot_Q>
0

> <i_epik_Tot_abs_Q>
0

> <r_epik_Metal_State_Penalty>
0.289303

> <b_epik_Metal_Only>
0

> <s_lp_Force_Field>
OPLS_2005

> <r_lp_Energy>
10.2382

> <b_lp_Chiralities_Consistent>
1

> <s_lp_Variant>
AV-unprocessed.smi:2299-4

> <Gold.Version>
5.8.1

> <Gold.Id.Protein>
6NUR|6NUR_protein|mol2

> <Gold.PLP.Fitness>
46.6351

> <Gold.PLP.PLP>
-41.8337

> <Gold.PLP.part.hbond>
-3.0000

> <Gold.PLP.part.metal>
0.0000

> <Gold.PLP.part.buried>
-3.6052

> <Gold.PLP.part.nonpolar>
-35.8258

> <Gold.PLP.part.repulsive>
0.1811

> <Gold.PLP.ligand.clash>
0.0000

> <Gold.PLP.ligand.torsion>
0.6354

> <Gold.PLP.Chemscore.Hbond>
2.0000

> <Gold.PLP.Chemscore.CHOScore>
0.0000

> <Gold.PLP.Chemscore.Metal>
0.0000

> <Gold.Chemscore.Hbonds>
donor molecule, donor type, donor heavy atom, donor atom, acceptor molecule, acceptor atom, score
      L1  H    12    32       P1  8028  1.00
      P1  H  7989  7998       L1    20  1.00

> <Gold.PLP.Chemscore.Internal.Correction>
0.0721

> <Gold.Rescore>
     Score         DG    S(hbond)    S(metal)    S(lipo)     H(rot)  DE(clash)    DE(int)     intcor
     15.78     -17.90       1.77        0.00      92.84       1.70       0.11       2.01       ----

> <Gold.Chemscore.Fitness>
15.7833

> <Gold.Chemscore.DG>
-17.9034

> <Gold.Chemscore.ZeroCoef>
-5.4800

> <Gold.Chemscore.Hbond>
1.7708

> <Gold.Chemscore.Metal>
0.0000

> <Gold.Chemscore.Lipo>
92.8374

> <Gold.Chemscore.Internal_Hbond>
0.0000

> <Gold.Chemscore.DEClash>
0.1073

> <Gold.Chemscore.DEInternal>
2.0127

> <Gold.Chemscore.Rot>
1.7004

> <Gold.Chemscore.Internal.Correction>
   9.000000E+99

> <Gold.Chemscore.Hbonds>
donor molecule, donor type, donor heavy atom, donor atom, acceptor molecule, acceptor atom, score
      L1  H    12    32       P1  8028  1.00
      P1  H  7989  7998       L1    20  0.76

> <Gold.Chemscore.Hbond.Weighted>
-5.9144

> <Gold.Chemscore.Metal.Weighted>
-0.0000

> <Gold.Chemscore.Lipo.Weighted>
-10.8620

> <Gold.Chemscore.Internal_Hbond.Weighted>
0.0000

> <Gold.Chemscore.DEClash.Weighted>
0.1073

> <Gold.Chemscore.DEInternal.Weighted>
2.0127

> <Gold.Chemscore.Rot.Weighted>
4.3530

> <Gold.Chemscore.Internal.Correction.Weighted>
   9.000000E+99

> <Gold.Protein.RotatedTorsions>
[ 6907 6896 6895 6894 ] final -142.70 input  -60.11 | X-H torsion
[ 7974 7965 7964 7962 ] final   83.31 input  175.53 | X-H torsion
[ 8008 7997 7996 7995 ] final    9.35 input   59.86 | X-H torsion
[ 10167 10162 10161 10158 ] final   86.77 input  -65.29 | X-H torsion
[ 10718 10713 10712 10709 ] final  -37.54 input   66.30 | X-H torsion
[ 10763 10752 10751 10750 ] final -136.00 input  -60.55 | X-H torsion
[ 11005 11000 10999 10996 ] final   38.61 input  -57.11 | X-H torsion

> <Gold.Protein.ActiveResidues>
 VAL166  LYS551  ARG553  GLY616  TRP617  ASP618  TYR619  PRO620  LYS621  CYS622 
 ASP623  PHE694  ASN695  SER759  ASP760  ASP761  ALA762  ILE779  LEU786  VAL792 
 PHE793  MET794  SER795  GLU796  ALA797  LYS798  CYS799  TRP800  GLU811  SER814 

> <Gold.Protein.RotatedAtoms>
  151.0906  133.5319  159.2614 H   0  0  0  0  0  0  0  0  0  0  0  0  # atno 6907 bound_to 6896
  151.2187  135.0509  159.8951 H   0  0  0  0  0  0  0  0  0  0  0  0  # atno 6908 bound_to 6896
  152.5434  134.0712  159.8248 H   0  0  0  0  0  0  0  0  0  0  0  0  # atno 6909 bound_to 6896
  145.6136  139.2373  143.2178 H   0  0  0  0  0  0  0  0  0  0  0  0  # atno 7974 bound_to 7965
  154.7789  140.2815  155.6079 H   0  0  0  0  0  0  0  0  0  0  0  0  # atno 8008 bound_to 7997
  156.2946  140.2627  156.2537 H   0  0  0  0  0  0  0  0  0  0  0  0  # atno 8009 bound_to 7997
  154.9809  140.0375  157.2266 H   0  0  0  0  0  0  0  0  0  0  0  0  # atno 8010 bound_to 7997
  139.8842  144.6423  150.8809 H   0  0  0  0  0  0  0  0  0  0  0  0  # atno 10167 bound_to 10162
  156.3140  130.4256  149.8023 H   0  0  0  0  0  0  0  0  0  0  0  0  # atno 10718 bound_to 10713
  154.8692  135.3686  154.4990 H   0  0  0  0  0  0  0  0  0  0  0  0  # atno 10763 bound_to 10752
  153.5632  135.7022  153.5543 H   0  0  0  0  0  0  0  0  0  0  0  0  # atno 10764 bound_to 10752
  153.3609  135.4047  155.1681 H   0  0  0  0  0  0  0  0  0  0  0  0  # atno 10765 bound_to 10752
  140.2109  134.3756  155.8049 H   0  0  0  0  0  0  0  0  0  0  0  0  # atno 11005 bound_to 11000
  146.1485  140.6959  142.9333 LP  0  0  0  0  0  0  0  0  0  0  0  0  # atno 17320 bound_to 7965
  144.7259  140.4524  143.6973 LP  0  0  0  0  0  0  0  0  0  0  0  0  # atno 17321 bound_to 7965
  140.7739  143.3561  151.1918 LP  0  0  0  0  0  0  0  0  0  0  0  0  # atno 17342 bound_to 10162
  139.7168  143.9287  152.2970 LP  0  0  0  0  0  0  0  0  0  0  0  0  # atno 17343 bound_to 10162
  156.5356  130.8277  151.3252 LP  0  0  0  0  0  0  0  0  0  0  0  0  # atno 17370 bound_to 10713
  157.7397  130.9837  150.2332 LP  0  0  0  0  0  0  0  0  0  0  0  0  # atno 17371 bound_to 10713
  141.2226  133.7143  156.8417 LP  0  0  0  0  0  0  0  0  0  0  0  0  # atno 17394 bound_to 11000
  140.1951  134.8937  157.3106 LP  0  0  0  0  0  0  0  0  0  0  0  0  # atno 17395 bound_to 11000

$$$$
