#       Name:                AV-unprocessed.smi:2488
#       Creating user name   scv26
#       Creation time:       Fri Mar 27 13:43:10 2020


#       File generated by GOLD software.
#

@<TRIPOS>MOLECULE
AV-unprocessed.smi:2488
    40    41     1
SMALL
NO_CHARGES


@<TRIPOS>ATOM
      1 ****        -3.8712   0.9289   2.4871 C.3            1 S1                 0.0000
      2 ****        -3.5989  -0.0882   1.3730 C.3            1 S1                 0.0000
      3 ****        -2.1328  -0.4706   1.2882 C.ar           1 S1                 0.0000
      4 ****        -1.6952  -1.3991   2.1676 N.ar           1 S1                 0.0000
      5 ****        -0.4036  -1.7294   2.1006 C.ar           1 S1                 0.0000
      6 ****         0.5039  -1.2356   1.2550 N.ar           1 S1                 0.0000
      7 ****         0.0835  -0.3051   0.3632 C.ar           1 S1                 0.0000
      8 ****         1.0115   0.2548  -0.5392 N.3            1 S1                 0.0000
      9 ****         1.4656   1.5556  -0.0519 C.3            1 S1                 0.0000
     10 ****         2.3529   2.2498  -1.0936 C.3            1 S1                 0.0000
     11 ****         3.4417   1.3961  -1.4148 O.3            1 S1                 0.0000
     12 ****         2.9955   0.1839  -2.0097 C.3            1 S1                 0.0000
     13 ****         2.0976  -0.6120  -1.0319 C.3            1 S1                 0.0000
     14 ****         1.6652  -1.9109  -1.7450 C.2            1 S1                 0.0000
     15 ****         0.4355  -1.9759  -2.2667 N.am           1 S1                 0.0000
     16 ****         2.4440  -2.8591  -1.8138 O.2            1 S1                 0.0000
     17 ****        -1.2639   0.1233   0.3472 C.ar           1 S1                 0.0000
     18 ****        -1.7019   1.0565  -0.5330 F              1 S1                 0.0000
     19 ****        -4.9289   1.1898   2.5250 H              1 S1                 0.0000
     20 ****        -3.3066   1.8478   2.3258 H              1 S1                 0.0000
     21 ****        -3.5915   0.5298   3.4625 H              1 S1                 0.0000
     22 ****        -4.1920  -0.9878   1.5422 H              1 S1                 0.0000
     23 ****        -3.9275   0.3164   0.4153 H              1 S1                 0.0000
     24 ****        -0.0560  -2.4709   2.8045 H              1 S1                 0.0000
     25 ****         0.6161   2.1995   0.1803 H              1 S1                 0.0000
     26 ****         2.0240   1.4196   0.8762 H              1 S1                 0.0000
     27 ****         1.7848   2.4983  -1.9917 H              1 S1                 0.0000
     28 ****         2.7420   3.1856  -0.6926 H              1 S1                 0.0000
     29 ****         2.4657   0.4080  -2.9379 H              1 S1                 0.0000
     30 ****         3.8743  -0.4011  -2.2845 H              1 S1                 0.0000
     31 ****         2.7152  -0.8968  -0.1778 H              1 S1                 0.0000
     32 ****         0.1315  -2.8179  -2.7340 H              1 S1                 0.0000
     33 ****        -0.1849  -1.1836  -2.1875 H              1 S1                 0.0000
     34 ****        -2.3094  -1.8184   2.8361 LP             1 S1                 0.0000
     35 ****         1.4562  -1.5401   1.2785 LP             1 S1                 0.0000
     36 ****         0.4954   0.3805  -1.3864 LP             1 S1                 0.0000
     37 ****         3.9443   1.1813  -0.5774 LP             1 S1                 0.0000
     38 ****         4.0473   1.8686  -2.0551 LP             1 S1                 0.0000
     39 ****         3.3554  -2.7881  -1.4084 LP             1 S1                 0.0000
     40 ****         2.1664  -3.7018  -2.2753 LP             1 S1                 0.0000
@<TRIPOS>BOND
    1    1    2 1     
    2    1   19 1     
    3    1   20 1     
    4    1   21 1     
    5    2    3 1     
    6    2   22 1     
    7    2   23 1     
    8    3   17 ar    
    9    3    4 ar    
   10    4    5 ar    
   11    5    6 ar    
   12    5   24 1     
   13    6    7 ar    
   14    7    8 1     
   15    7   17 ar    
   16    8   13 1     
   17    8    9 1     
   18    9   10 1     
   19    9   25 1     
   20    9   26 1     
   21   10   11 1     
   22   10   27 1     
   23   10   28 1     
   24   11   12 1     
   25   12   13 1     
   26   12   29 1     
   27   12   30 1     
   28   13   14 1     
   29   13   31 1     
   30   14   15 am    
   31   14   16 2     
   32   15   32 1     
   33   15   33 1     
   34   17   18 1     
   35    4   34 1     
   36    6   35 1     
   37    8   36 1     
   38   11   37 1     
   39   11   38 1     
   40   16   39 1     
   41   16   40 1     
@<TRIPOS>SUBSTRUCTURE
      1 S1             1
@<TRIPOS>SET
LONE_PAIRS      STATIC     ATOMS    <user>   **** ""
7 34 35 36 37 38 39 40
DONOR_HYDROGENS      STATIC     ATOMS    <user>   **** ""
2 32 33
ATOM$BLUE        STATIC     ATOMS    COLORGROUP SYSTEM
7 34 35 36 37 38 39 40
ATOM$RED        STATIC     ATOMS    COLORGROUP SYSTEM
2 32 33
