AV-unprocessed.smi:808|AV-procd|sdf|3804|dock3
  -GOLD-   22720 1243D 1   1.00000     0.00000
 Structure written by MMmdl.
 34 35  0  0  0  0  0  0  0  0  2 V2000
  152.3993  140.1829  157.1969 O   0  0  0  0  0  0  0  0  0  0  0  0
  151.3118  140.7005  156.9430 C   0  0  0  0  0  0  0  0  0  0  0  0
  150.2689  139.9266  156.1310 C   0  0  0  0  0  0  0  0  0  0  0  0
  149.8391  138.7177  156.8135 N   0  0  0  0  0  0  0  0  0  0  0  0
  149.4765  138.5713  158.1394 C   0  0  0  0  0  0  0  0  0  0  0  0
  149.1801  137.2503  158.2873 C   0  0  0  0  0  0  0  0  0  0  0  0
  148.7409  136.5699  159.5449 C   0  0  0  0  0  0  0  0  0  0  0  0
  148.4121  137.2785  160.5213 O   0  0  0  0  0  0  0  0  0  0  0  0
  148.7188  135.3193  159.5683 O   0  5  0  0  0  0  0  0  0  0  0  0
  149.3737  136.6464  157.0180 C   0  0  0  0  0  0  0  0  0  0  0  0
  149.7738  137.5454  156.1289 N   0  0  0  0  0  0  0  0  0  0  0  0
  150.9761  141.9414  157.3315 N   0  0  0  0  0  0  0  0  0  0  0  0
  151.8056  142.8340  158.1334 C   0  0  0  0  0  0  0  0  0  0  0  0
  151.9687  142.2464  159.5481 C   0  0  0  0  0  0  0  0  0  0  0  0
  152.7844  143.1814  160.4554 C   0  0  0  0  0  0  0  0  0  0  0  0
  152.1613  144.5850  160.5128 C   0  0  0  0  0  0  0  0  0  0  0  0
  152.0010  145.1782  159.1041 C   0  0  0  0  0  0  0  0  0  0  0  0
  151.1863  144.2455  158.1934 C   0  0  0  0  0  0  0  0  0  0  0  0
  149.4000  140.5620  155.9562 H   0  0  0  0  0  0  0  0  0  0  0  0
  150.6739  139.6600  155.1536 H   0  0  0  0  0  0  0  0  0  0  0  0
  149.4690  139.3930  158.8405 H   0  0  0  0  0  0  0  0  0  0  0  0
  149.2446  135.6164  156.7194 H   0  0  0  0  0  0  0  0  0  0  0  0
  150.0613  142.2829  157.0742 H   0  0  0  0  0  0  0  0  0  0  0  0
  152.7965  142.9019  157.6800 H   0  0  0  0  0  0  0  0  0  0  0  0
  150.9875  142.0771  159.9942 H   0  0  0  0  0  0  0  0  0  0  0  0
  152.4548  141.2714  159.4942 H   0  0  0  0  0  0  0  0  0  0  0  0
  152.8484  142.7614  161.4596 H   0  0  0  0  0  0  0  0  0  0  0  0
  153.8075  143.2505  160.0836 H   0  0  0  0  0  0  0  0  0  0  0  0
  151.1875  144.5335  161.0012 H   0  0  0  0  0  0  0  0  0  0  0  0
  152.7802  145.2419  161.1247 H   0  0  0  0  0  0  0  0  0  0  0  0
  151.5177  146.1537  159.1638 H   0  0  0  0  0  0  0  0  0  0  0  0
  152.9851  145.3474  158.6653 H   0  0  0  0  0  0  0  0  0  0  0  0
  151.1269  144.6744  157.1925 H   0  0  0  0  0  0  0  0  0  0  0  0
  150.1621  144.1839  158.5641 H   0  0  0  0  0  0  0  0  0  0  0  0
  1  2  2  0  0  0  0
  2  3  1  0  0  0  0
  2 12  1  0  0  0  0
  3  4  1  0  0  0  0
  3 19  1  0  0  0  0
  3 20  1  0  0  0  0
  4 11  1  0  0  0  0
  4  5  1  0  0  0  0
  5  6  2  0  0  0  0
  5 21  1  0  0  0  0
  6  7  1  0  0  0  0
  6 10  1  0  0  0  0
  7  8  2  0  0  0  0
  7  9  1  0  0  0  0
 10 11  2  0  0  0  0
 10 22  1  0  0  0  0
 12 13  1  0  0  0  0
 12 23  1  0  0  0  0
 13 18  1  0  0  0  0
 13 14  1  0  0  0  0
 13 24  1  0  0  0  0
 14 15  1  0  0  0  0
 14 25  1  0  0  0  0
 14 26  1  0  0  0  0
 15 16  1  0  0  0  0
 15 27  1  0  0  0  0
 15 28  1  0  0  0  0
 16 17  1  0  0  0  0
 16 29  1  0  0  0  0
 16 30  1  0  0  0  0
 17 18  1  0  0  0  0
 17 31  1  0  0  0  0
 17 32  1  0  0  0  0
 18 33  1  0  0  0  0
 18 34  1  0  0  0  0
M  CHG  1   9  -1
M  END
> <s_m_source_file>
AV-unprocessed.smi

> <i_m_source_file_index>
808

> <i_lp_mmshare_version>
43012

> <i_f3d_flags>
0

> <s_epik_input>
Tz1DKFtPSF0pYyhbY0hdbjEpW2NIXW4xW0NIMl1DKD1PKVtOSF1bQ0hdMltDSDJdW0NIMl1bQ0gyXVtDSDJdW0NIMl0y

> <s_epik_cmdline>
J2VwaWtfcHl0aG9uJywgJy1waCcsICc3LjAnLCAnLXRuJywgJzgnLCAnLW1hJywgJzIwMCcsICctbWV0YWxfYmluZGluZycsICctaW1hZScsICc8aW5maWxlLm1hZT4nLCAnLW9tYWUnLCAnPG91dGZpbGUubWFlPic=

> <r_epik_Ionization_Penalty>
0.00097052

> <r_epik_Ionization_Penalty_Charging>
0.000938868

> <r_epik_Ionization_Penalty_Neutral>
3.16514e-05

> <r_epik_State_Penalty>
0.000609423

> <r_epik_Charging_Adjusted_Penalty>
0.00154829

> <i_epik_Tot_Q>
-1

> <i_epik_Tot_abs_Q>
1

> <r_epik_Metal_State_Penalty>
-0

> <b_epik_Metal_Only>
0

> <s_lp_Force_Field>
OPLS_2005

> <r_lp_Energy>
12.0504

> <b_lp_Chiralities_Consistent>
1

> <s_lp_Variant>
AV-unprocessed.smi:808-1

> <Gold.Version>
5.8.1

> <Gold.Id.Protein>
6NUR|6NUR_protein|mol2

> <Gold.PLP.Fitness>
46.5179

> <Gold.PLP.PLP>
-32.1865

> <Gold.PLP.part.hbond>
-4.0000

> <Gold.PLP.part.metal>
0.0000

> <Gold.PLP.part.buried>
-4.2841

> <Gold.PLP.part.nonpolar>
-24.9080

> <Gold.PLP.part.repulsive>
0.0769

> <Gold.PLP.ligand.clash>
0.0000

> <Gold.PLP.ligand.torsion>
0.2813

> <Gold.PLP.Chemscore.Hbond>
4.9563

> <Gold.PLP.Chemscore.CHOScore>
0.0000

> <Gold.PLP.Chemscore.Metal>
0.0000

> <Gold.Chemscore.Hbonds>
donor molecule, donor type, donor heavy atom, donor atom, acceptor molecule, acceptor atom, score
      P1  H  6896  6909       L1     9  1.44
      P1  H  6931  6943       L1     8  1.41
      P1  H  6934  6947       L1     8  0.74
      P1  H  7997  8008       L1     1  0.93

> <Gold.PLP.Chemscore.Internal.Correction>
0.0252

> <Gold.Rescore>
     Score         DG    S(hbond)    S(metal)    S(lipo)     H(rot)  DE(clash)    DE(int)     intcor
     20.29     -20.80       2.99        0.00      80.31       1.59       0.01       0.50       ----

> <Gold.Chemscore.Fitness>
20.2912

> <Gold.Chemscore.DG>
-20.7993

> <Gold.Chemscore.ZeroCoef>
-5.4800

> <Gold.Chemscore.Hbond>
2.9925

> <Gold.Chemscore.Metal>
0.0000

> <Gold.Chemscore.Lipo>
80.3058

> <Gold.Chemscore.Internal_Hbond>
0.0000

> <Gold.Chemscore.DEClash>
0.0103

> <Gold.Chemscore.DEInternal>
0.4978

> <Gold.Chemscore.Rot>
1.5904

> <Gold.Chemscore.Internal.Correction>
   9.000000E+99

> <Gold.Chemscore.Hbonds>
donor molecule, donor type, donor heavy atom, donor atom, acceptor molecule, acceptor atom, score
      P1  H  6896  6909       L1     9  0.62
      P1  H  6931  6943       L1     8  0.70
      P1  H  6934  6947       L1     8  0.36
      P1  H  7997  8008       L1     1  0.84

> <Gold.Chemscore.Hbond.Weighted>
-9.9950

> <Gold.Chemscore.Metal.Weighted>
-0.0000

> <Gold.Chemscore.Lipo.Weighted>
-9.3958

> <Gold.Chemscore.Internal_Hbond.Weighted>
0.0000

> <Gold.Chemscore.DEClash.Weighted>
0.0103

> <Gold.Chemscore.DEInternal.Weighted>
0.4978

> <Gold.Chemscore.Rot.Weighted>
4.0714

> <Gold.Chemscore.Internal.Correction.Weighted>
   9.000000E+99

> <Gold.Protein.RotatedTorsions>
[ 6907 6896 6895 6894 ] final   35.50 input  -60.11 | X-H torsion
[ 7974 7965 7964 7962 ] final   77.95 input  175.53 | X-H torsion
[ 8008 7997 7996 7995 ] final  -51.93 input   59.86 | X-H torsion
[ 10167 10162 10161 10158 ] final   14.48 input  -65.29 | X-H torsion
[ 10718 10713 10712 10709 ] final -142.39 input   66.30 | X-H torsion
[ 10763 10752 10751 10750 ] final  106.13 input  -60.55 | X-H torsion
[ 11005 11000 10999 10996 ] final  179.50 input  -57.11 | X-H torsion

> <Gold.Protein.ActiveResidues>
 VAL166  LYS551  ARG553  GLY616  TRP617  ASP618  TYR619  PRO620  LYS621  CYS622 
 ASP623  PHE694  ASN695  SER759  ASP760  ASP761  ALA762  ILE779  LEU786  VAL792 
 PHE793  MET794  SER795  GLU796  ALA797  LYS798  CYS799  TRP800  GLU811  SER814 

> <Gold.Protein.RotatedAtoms>
  152.1170  134.9233  160.0564 H   0  0  0  0  0  0  0  0  0  0  0  0  # atno 6907 bound_to 6896
  152.0388  133.3964  159.4336 H   0  0  0  0  0  0  0  0  0  0  0  0  # atno 6908 bound_to 6896
  150.6847  134.3359  159.4890 H   0  0  0  0  0  0  0  0  0  0  0  0  # atno 6909 bound_to 6896
  145.6835  139.2531  143.1801 H   0  0  0  0  0  0  0  0  0  0  0  0  # atno 7974 bound_to 7965
  154.4094  140.1236  156.4908 H   0  0  0  0  0  0  0  0  0  0  0  0  # atno 8008 bound_to 7997
  155.6992  140.3495  155.4906 H   0  0  0  0  0  0  0  0  0  0  0  0  # atno 8009 bound_to 7997
  155.9400  140.1085  157.1053 H   0  0  0  0  0  0  0  0  0  0  0  0  # atno 8010 bound_to 7997
  140.5933  143.8752  150.6894 H   0  0  0  0  0  0  0  0  0  0  0  0  # atno 10167 bound_to 10162
  156.3454  130.7659  151.1803 H   0  0  0  0  0  0  0  0  0  0  0  0  # atno 10718 bound_to 10713
  153.3888  135.3887  155.1909 H   0  0  0  0  0  0  0  0  0  0  0  0  # atno 10763 bound_to 10752
  154.8717  135.3743  154.4763 H   0  0  0  0  0  0  0  0  0  0  0  0  # atno 10764 bound_to 10752
  153.5248  135.7086  153.5774 H   0  0  0  0  0  0  0  0  0  0  0  0  # atno 10765 bound_to 10752
  140.4069  134.6727  157.4593 H   0  0  0  0  0  0  0  0  0  0  0  0  # atno 11005 bound_to 11000
  146.0944  140.7618  142.9579 LP  0  0  0  0  0  0  0  0  0  0  0  0  # atno 17320 bound_to 7965
  144.7019  140.3688  143.7149 LP  0  0  0  0  0  0  0  0  0  0  0  0  # atno 17321 bound_to 7965
  140.2281  143.3757  152.1588 LP  0  0  0  0  0  0  0  0  0  0  0  0  # atno 17342 bound_to 10162
  139.5241  144.7080  151.5295 LP  0  0  0  0  0  0  0  0  0  0  0  0  # atno 17343 bound_to 10162
  157.7453  131.0443  150.4785 LP  0  0  0  0  0  0  0  0  0  0  0  0  # atno 17370 bound_to 10713
  156.4971  130.4108  149.6373 LP  0  0  0  0  0  0  0  0  0  0  0  0  # atno 17371 bound_to 10713
  140.0295  134.6426  155.9125 LP  0  0  0  0  0  0  0  0  0  0  0  0  # atno 17394 bound_to 11000
  141.1836  133.6551  156.5122 LP  0  0  0  0  0  0  0  0  0  0  0  0  # atno 17395 bound_to 11000

$$$$
