#       Name:                AV-unprocessed.smi:2753
#       Creating user name   scv26
#       Creation time:       Fri Mar 27 15:06:12 2020


#       File generated by GOLD software.
#

@<TRIPOS>MOLECULE
AV-unprocessed.smi:2753
    29    30     1
SMALL
NO_CHARGES


@<TRIPOS>ATOM
      1 ****        -4.4330   2.1757  -1.5516 F              1 S1                 0.0000
      2 ****        -3.9684   0.9271  -1.5566 C.3            1 S1                 0.0000
      3 ****        -4.4673   0.3069  -0.4867 F              1 S1                 0.0000
      4 ****        -4.4543   0.3189  -2.6379 F              1 S1                 0.0000
      5 ****        -2.4675   0.9129  -1.5615 C.2            1 S1                 0.0000
      6 ****        -1.6117   1.4403  -2.5026 C.2            1 S1                 0.0000
      7 ****        -0.3368   1.1641  -2.0415 N.pl3          1 S1                 0.0000
      8 ****        -0.4526   0.5049  -0.8822 C.2            1 S1                 0.0000
      9 ****         0.7353   0.0412  -0.0968 C.3            1 S1                 0.0000
     10 ****         0.7857  -1.4944   0.0209 C.3            1 S1                 0.0000
     11 ****         2.0052  -1.9327   0.8463 C.3            1 S1                 0.0000
     12 ****         2.0223  -1.2337   2.2160 C.3            1 S1                 0.0000
     13 ****         1.9802   0.2359   2.0533 N.4            1 S1                 1.0000
     14 ****         0.7967   0.7006   1.2965 C.3            1 S1                 0.0000
     15 ****        -1.7237   0.3222  -0.5354 N.2            1 S1                 0.0000
     16 ****         0.5271   1.4153  -2.5010 H              1 S1                 0.0000
     17 ****        -1.7995   1.9677  -3.4261 H              1 S1                 0.0000
     18 ****         1.6252   0.3547  -0.6460 H              1 S1                 0.0000
     19 ****        -0.1246  -1.8616   0.4974 H              1 S1                 0.0000
     20 ****         0.8239  -1.9490  -0.9697 H              1 S1                 0.0000
     21 ****         1.9959  -3.0149   0.9798 H              1 S1                 0.0000
     22 ****         2.9202  -1.6960   0.3017 H              1 S1                 0.0000
     23 ****         1.1700  -1.5535   2.8172 H              1 S1                 0.0000
     24 ****         2.9220  -1.5051   2.7686 H              1 S1                 0.0000
     25 ****         1.9746   0.6670   2.9669 H              1 S1                 0.0000
     26 ****         0.8451   1.7858   1.2012 H              1 S1                 0.0000
     27 ****        -0.1025   0.4713   1.8703 H              1 S1                 0.0000
     28 ****         2.8120   0.5284   1.5608 H              1 S1                 0.0000
     29 ****        -2.0717  -0.1376   0.2815 LP             1 S1                 0.0000
@<TRIPOS>BOND
    1    1    2 1     
    2    2    3 1     
    3    2    4 1     
    4    2    5 1     
    5    5   15 1     
    6    5    6 2     
    7    6    7 1     
    8    6   17 1     
    9    7   16 1     
   10    7    8 1     
   11    8    9 1     
   12    8   15 2     
   13    9   14 1     
   14    9   10 1     
   15    9   18 1     
   16   10   11 1     
   17   10   19 1     
   18   10   20 1     
   19   11   12 1     
   20   11   21 1     
   21   11   22 1     
   22   12   13 1     
   23   12   23 1     
   24   12   24 1     
   25   13   14 1     
   26   13   25 1     
   27   13   28 1     
   28   14   26 1     
   29   14   27 1     
   30   15   29 1     
@<TRIPOS>SUBSTRUCTURE
      1 S1             1
@<TRIPOS>SET
LONE_PAIRS      STATIC     ATOMS    <user>   **** ""
1 29
DONOR_HYDROGENS      STATIC     ATOMS    <user>   **** ""
3 16 25 28
ATOM$BLUE        STATIC     ATOMS    COLORGROUP SYSTEM
1 29
ATOM$RED        STATIC     ATOMS    COLORGROUP SYSTEM
3 16 25 28
