#       Name:                AV-unprocessed.smi:2149
#       Creating user name   scv26
#       Creation time:       Fri Mar 27 11:53:11 2020


#       File generated by GOLD software.
#

@<TRIPOS>MOLECULE
AV-unprocessed.smi:2149
    45    46     1
SMALL
NO_CHARGES


@<TRIPOS>ATOM
      1 ****        -3.0798   0.7046  -1.3461 C.3            1 S1                 0.0000
      2 ****        -3.0406  -1.0798  -0.9019 S.o2           1 S1                 0.0000
      3 ****        -4.4267  -1.5682  -0.8458 O.2            1 S1                 0.0000
      4 ****        -2.0655  -1.7482  -1.7779 O.2            1 S1                 0.0000
      5 ****        -2.4046  -1.1018   0.7178 N.pl3          1 S1                 0.0000
      6 ****        -3.2569  -0.7027   1.8570 C.3            1 S1                 0.0000
      7 ****        -2.9268   0.7196   2.3474 C.3            1 S1                 0.0000
      8 ****        -1.4294   0.8799   2.6410 C.3            1 S1                 0.0000
      9 ****        -0.6212   0.5148   1.3847 C.3            1 S1                 0.0000
     10 ****         0.8886   0.6601   1.6094 C.2            1 S1                 0.0000
     11 ****         1.4438   0.0675   2.5346 O.2            1 S1                 0.0000
     12 ****         1.5476   1.4205   0.7221 N.am           1 S1                 0.0000
     13 ****         2.9982   1.5666   0.6481 C.3            1 S1                 0.0000
     14 ****         3.7033   0.3008   0.1135 C.3            1 S1                 0.0000
     15 ****         3.0250  -0.3104  -1.1023 C.ar           1 S1                 0.0000
     16 ****         2.2484  -1.4867  -1.0142 C.ar           1 S1                 0.0000
     17 ****         1.6126  -1.9834  -2.1708 C.ar           1 S1                 0.0000
     18 ****         1.7738  -1.2990  -3.3929 C.ar           1 S1                 0.0000
     19 ****         2.5689  -0.1351  -3.4272 C.ar           1 S1                 0.0000
     20 ****         3.1583   0.3118  -2.2959 N.pl3          1 S1                 1.0000
     21 ****        -0.9573  -0.9249   0.9409 C.3            1 S1                 0.0000
     22 ****        -3.4993   0.8122  -2.3461 H              1 S1                 0.0000
     23 ****        -2.0708   1.1121  -1.3419 H              1 S1                 0.0000
     24 ****        -3.7064   1.2484  -0.6411 H              1 S1                 0.0000
     25 ****        -4.3101  -0.7766   1.5875 H              1 S1                 0.0000
     26 ****        -3.0967  -1.4130   2.6689 H              1 S1                 0.0000
     27 ****        -3.2334   1.4526   1.6020 H              1 S1                 0.0000
     28 ****        -3.5045   0.9414   3.2451 H              1 S1                 0.0000
     29 ****        -1.2193   1.9057   2.9471 H              1 S1                 0.0000
     30 ****        -1.1497   0.2376   3.4776 H              1 S1                 0.0000
     31 ****        -0.9080   1.2041   0.5907 H              1 S1                 0.0000
     32 ****         1.0073   1.8827   0.0051 H              1 S1                 0.0000
     33 ****         3.1969   2.3991  -0.0270 H              1 S1                 0.0000
     34 ****         3.4054   1.8537   1.6188 H              1 S1                 0.0000
     35 ****         4.7412   0.5305  -0.1311 H              1 S1                 0.0000
     36 ****         3.7427  -0.4517   0.9021 H              1 S1                 0.0000
     37 ****         2.1266  -1.9948  -0.0684 H              1 S1                 0.0000
     38 ****         1.0052  -2.8753  -2.1194 H              1 S1                 0.0000
     39 ****         1.2935  -1.6620  -4.2900 H              1 S1                 0.0000
     40 ****         2.7459   0.4500  -4.3178 H              1 S1                 0.0000
     41 ****        -0.6418  -1.6377   1.7045 H              1 S1                 0.0000
     42 ****        -0.4087  -1.1851   0.0369 H              1 S1                 0.0000
     43 ****         3.7229   1.1602  -2.3434 H              1 S1                 0.0000
     44 ****         0.9097  -0.5148   3.1474 LP             1 S1                 0.0000
     45 ****         2.4290   0.1684   2.6733 LP             1 S1                 0.0000
@<TRIPOS>BOND
    1    1    2 1     
    2    1   22 1     
    3    1   23 1     
    4    1   24 1     
    5    2    3 2     
    6    2    4 2     
    7    2    5 1     
    8    5   21 1     
    9    5    6 1     
   10    6    7 1     
   11    6   25 1     
   12    6   26 1     
   13    7    8 1     
   14    7   27 1     
   15    7   28 1     
   16    8    9 1     
   17    8   29 1     
   18    8   30 1     
   19    9   10 1     
   20    9   21 1     
   21    9   31 1     
   22   10   11 2     
   23   10   12 am    
   24   12   13 1     
   25   12   32 1     
   26   13   14 1     
   27   13   33 1     
   28   13   34 1     
   29   14   15 1     
   30   14   35 1     
   31   14   36 1     
   32   15   20 ar    
   33   15   16 ar    
   34   16   17 ar    
   35   16   37 1     
   36   17   18 ar    
   37   17   38 1     
   38   18   19 ar    
   39   18   39 1     
   40   19   20 ar    
   41   19   40 1     
   42   20   43 1     
   43   21   41 1     
   44   21   42 1     
   45   11   44 1     
   46   11   45 1     
@<TRIPOS>SUBSTRUCTURE
      1 S1             1
@<TRIPOS>SET
LONE_PAIRS      STATIC     ATOMS    <user>   **** ""
4 3 4 44 45
DONOR_HYDROGENS      STATIC     ATOMS    <user>   **** ""
2 32 43
ATOM$BLUE        STATIC     ATOMS    COLORGROUP SYSTEM
4 3 4 44 45
ATOM$RED        STATIC     ATOMS    COLORGROUP SYSTEM
2 32 43
