AV-unprocessed.smi:37|AV-procd|sdf|334|dock7
  -GOLD-   2262016173D 1   1.00000     0.00000
 Structure written by MMmdl.
 43 44  0  0  0  0  0  0  0  0  2 V2000
  146.3076  134.3231  162.5145 C   0  0  0  0  0  0  0  0  0  0  0  0
  147.0324  135.6764  162.5605 C   0  0  0  0  0  0  0  0  0  0  0  0
  147.1436  136.3604  161.1961 C   0  0  0  0  0  0  0  0  0  0  0  0
  146.8131  137.5340  161.0158 O   0  0  0  0  0  0  0  0  0  0  0  0
  147.6344  135.5341  160.2607 O   0  0  0  0  0  0  0  0  0  0  0  0
  147.7031  135.9614  158.9089 C   0  0  0  0  0  0  0  0  0  0  0  0
  148.6900  137.1279  158.7644 C   0  0  1  0  0  0  0  0  0  0  0  0
  150.0104  136.7415  159.1436 O   0  0  0  0  0  0  0  0  0  0  0  0
  150.9135  137.1360  158.1531 C   0  0  2  0  0  0  0  0  0  0  0  0
  152.2104  137.5916  158.7812 N   0  0  0  0  0  0  0  0  0  0  0  0
  152.4413  137.4518  160.1398 C   0  0  0  0  0  0  0  0  0  0  0  0
  153.5992  137.8618  160.6967 C   0  0  0  0  0  0  0  0  0  0  0  0
  153.7929  137.7182  162.0189 F   0  0  0  0  0  0  0  0  0  0  0  0
  154.6334  138.4627  159.8564 C   0  0  0  0  0  0  0  0  0  0  0  0
  155.6896  138.8296  160.3692 O   0  0  0  0  0  0  0  0  0  0  0  0
  154.3764  138.5912  158.5223 N   0  5  0  0  0  0  0  0  0  0  0  0
  153.2045  138.1807  157.9547 C   0  0  0  0  0  0  0  0  0  0  0  0
  152.9593  138.2961  156.7536 O   0  0  0  0  0  0  0  0  0  0  0  0
  150.2229  138.2388  157.3422 C   0  0  2  0  0  0  0  0  0  0  0  0
  150.3165  140.0136  158.2627 Br  0  0  0  0  0  0  0  0  0  0  0  0
  148.7978  137.7131  157.3510 C   0  0  2  0  0  0  0  0  0  0  0  0
  147.8263  138.7252  157.1221 O   0  0  0  0  0  0  0  0  0  0  0  0
  147.8614  139.4538  155.9923 C   0  0  0  0  0  0  0  0  0  0  0  0
  148.6404  139.2932  155.0527 O   0  0  0  0  0  0  0  0  0  0  0  0
  146.8111  140.5619  155.9739 C   0  0  0  0  0  0  0  0  0  0  0  0
  146.8802  141.4050  154.6933 C   0  0  0  0  0  0  0  0  0  0  0  0
  146.2677  133.8764  163.5081 H   0  0  0  0  0  0  0  0  0  0  0  0
  146.8199  133.6193  161.8574 H   0  0  0  0  0  0  0  0  0  0  0  0
  145.2816  134.4316  162.1608 H   0  0  0  0  0  0  0  0  0  0  0  0
  146.5098  136.3486  163.2413 H   0  0  0  0  0  0  0  0  0  0  0  0
  148.0369  135.5402  162.9616 H   0  0  0  0  0  0  0  0  0  0  0  0
  148.0313  135.1322  158.2802 H   0  0  0  0  0  0  0  0  0  0  0  0
  146.7122  136.2595  158.5646 H   0  0  0  0  0  0  0  0  0  0  0  0
  148.3992  137.9190  159.4572 H   0  0  0  0  0  0  0  0  0  0  0  0
  151.1588  136.2564  157.5543 H   0  0  0  0  0  0  0  0  0  0  0  0
  151.6866  137.0179  160.7782 H   0  0  0  0  0  0  0  0  0  0  0  0
  150.6523  138.3359  156.3446 H   0  0  0  0  0  0  0  0  0  0  0  0
  148.7089  136.9083  156.6197 H   0  0  0  0  0  0  0  0  0  0  0  0
  145.8227  140.1130  156.0744 H   0  0  0  0  0  0  0  0  0  0  0  0
  146.9582  141.2008  156.8451 H   0  0  0  0  0  0  0  0  0  0  0  0
  146.1535  142.2165  154.7289 H   0  0  0  0  0  0  0  0  0  0  0  0
  146.6614  140.8067  153.8081 H   0  0  0  0  0  0  0  0  0  0  0  0
  147.8671  141.8507  154.5638 H   0  0  0  0  0  0  0  0  0  0  0  0
  1  2  1  0  0  0  0
  1 27  1  0  0  0  0
  1 28  1  0  0  0  0
  1 29  1  0  0  0  0
  2  3  1  0  0  0  0
  2 30  1  0  0  0  0
  2 31  1  0  0  0  0
  3  4  2  0  0  0  0
  3  5  1  0  0  0  0
  5  6  1  0  0  0  0
  6  7  1  0  0  0  0
  6 32  1  0  0  0  0
  6 33  1  0  0  0  0
  7 21  1  0  0  0  0
  7  8  1  0  0  0  0
  7 34  1  0  0  0  0
  8  9  1  0  0  0  0
  9 10  1  0  0  0  0
  9 19  1  0  0  0  0
  9 35  1  0  0  0  0
 10 17  1  0  0  0  0
 10 11  1  0  0  0  0
 11 12  2  0  0  0  0
 11 36  1  0  0  0  0
 12 13  1  0  0  0  0
 12 14  1  0  0  0  0
 14 15  2  0  0  0  0
 14 16  1  0  0  0  0
 16 17  1  0  0  0  0
 17 18  2  0  0  0  0
 19 20  1  0  0  0  0
 19 21  1  0  0  0  0
 19 37  1  0  0  0  0
 21 22  1  0  0  0  0
 21 38  1  0  0  0  0
 22 23  1  0  0  0  0
 23 24  2  0  0  0  0
 23 25  1  0  0  0  0
 25 26  1  0  0  0  0
 25 39  1  0  0  0  0
 25 40  1  0  0  0  0
 26 41  1  0  0  0  0
 26 42  1  0  0  0  0
 26 43  1  0  0  0  0
M  CHG  1  16  -1
M  END
> <s_m_source_file>
AV-unprocessed.smi

> <i_m_source_file_index>
37

> <i_lp_mmshare_version>
43012

> <i_f3d_flags>
0

> <s_epik_input>
W0NIM11bQ0gyXUMoPU8pT1tDSDJdW0NAQEhdMU9bQ0BASF0objJbY0hdYyhGKWMoPU8pW25IXWMyPU8pW0NAQEhdKEJyKVtDQEhdMU9DKD1PKVtDSDJdW0NIM10=

> <s_epik_cmdline>
J2VwaWtfcHl0aG9uJywgJy1waCcsICc3LjAnLCAnLXRuJywgJzgnLCAnLW1hJywgJzIwMCcsICctbWV0YWxfYmluZGluZycsICctaW1hZScsICc8aW5maWxlLm1hZT4nLCAnLW9tYWUnLCAnPG91dGZpbGUubWFlPic=

> <r_epik_Ionization_Penalty>
1.08158

> <r_epik_Ionization_Penalty_Charging>
9.05154e-09

> <r_epik_Ionization_Penalty_Neutral>
1.08158

> <r_epik_State_Penalty>
1.13706

> <r_epik_Charging_Adjusted_Penalty>
1.13706

> <i_epik_Tot_Q>
-1

> <i_epik_Tot_abs_Q>
1

> <r_epik_Metal_State_Penalty>
0.00343535

> <b_epik_Metal_Only>
0

> <s_epik_Chemistry_Notes>
This compound has an ester and may undergo hydrolysis at high or low pH. This compound contains an acetal/aminal-like group ( X-CH(R)-Y where X, Y are N, S, or O) that may be acid/base labile, releasing an aldehyde.

> <s_lp_Force_Field>
OPLS_2005

> <r_lp_Energy>
36.4441

> <b_lp_Chiralities_Consistent>
1

> <s_lp_Variant>
AV-unprocessed.smi:37-32

> <Gold.Version>
5.8.1

> <Gold.Id.Protein>
6NUR|6NUR_protein|mol2

> <Gold.PLP.Fitness>
49.7264

> <Gold.PLP.PLP>
-34.7674

> <Gold.PLP.part.hbond>
-5.0000

> <Gold.PLP.part.metal>
0.0000

> <Gold.PLP.part.buried>
-3.9331

> <Gold.PLP.part.nonpolar>
-24.7884

> <Gold.PLP.part.repulsive>
0.0383

> <Gold.PLP.ligand.clash>
0.0000

> <Gold.PLP.ligand.torsion>
0.2471

> <Gold.PLP.Chemscore.Hbond>
5.0541

> <Gold.PLP.Chemscore.CHOScore>
0.0000

> <Gold.PLP.Chemscore.Metal>
0.0000

> <Gold.Chemscore.Hbonds>
donor molecule, donor type, donor heavy atom, donor atom, acceptor molecule, acceptor atom, score
      P1  H  6896  6908       L1     8  0.57
      P1  H  6934  6947       L1     4  1.00
      P1  H  7997  8009       L1    16  1.15

> <Gold.PLP.Chemscore.Internal.Correction>
0.2908

> <Gold.Rescore>
     Score         DG    S(hbond)    S(metal)    S(lipo)     H(rot)  DE(clash)    DE(int)     intcor
      9.95     -11.61       2.56        0.00      50.74       3.27       0.05       1.61       ----

> <Gold.Chemscore.Fitness>
9.9501

> <Gold.Chemscore.DG>
-11.6110

> <Gold.Chemscore.ZeroCoef>
-5.4800

> <Gold.Chemscore.Hbond>
2.5621

> <Gold.Chemscore.Metal>
0.0000

> <Gold.Chemscore.Lipo>
50.7443

> <Gold.Chemscore.Internal_Hbond>
0.0000

> <Gold.Chemscore.DEClash>
0.0515

> <Gold.Chemscore.DEInternal>
1.6094

> <Gold.Chemscore.Rot>
3.2669

> <Gold.Chemscore.Internal.Correction>
   9.000000E+99

> <Gold.Chemscore.Hbonds>
donor molecule, donor type, donor heavy atom, donor atom, acceptor molecule, acceptor atom, score
      P1  H  6896  6908       L1     8  0.08
      P1  H  6934  6947       L1     4  0.93
      P1  H  7997  8009       L1    16  0.48
      P1  H  7997  8010       L1    18  0.01

> <Gold.Chemscore.Hbond.Weighted>
-8.5573

> <Gold.Chemscore.Metal.Weighted>
-0.0000

> <Gold.Chemscore.Lipo.Weighted>
-5.9371

> <Gold.Chemscore.Internal_Hbond.Weighted>
0.0000

> <Gold.Chemscore.DEClash.Weighted>
0.0515

> <Gold.Chemscore.DEInternal.Weighted>
1.6094

> <Gold.Chemscore.Rot.Weighted>
8.3634

> <Gold.Chemscore.Internal.Correction.Weighted>
   9.000000E+99

> <Gold.Protein.RotatedTorsions>
[ 6907 6896 6895 6894 ] final -142.20 input  -60.11 | X-H torsion
[ 7974 7965 7964 7962 ] final   34.92 input  175.53 | X-H torsion
[ 8008 7997 7996 7995 ] final   99.92 input   59.86 | X-H torsion
[ 10167 10162 10161 10158 ] final  -22.70 input  -65.29 | X-H torsion
[ 10718 10713 10712 10709 ] final -114.82 input   66.30 | X-H torsion
[ 10763 10752 10751 10750 ] final  113.18 input  -60.55 | X-H torsion
[ 11005 11000 10999 10996 ] final   53.74 input  -57.11 | X-H torsion

> <Gold.Protein.ActiveResidues>
 VAL166  LYS551  ARG553  GLY616  TRP617  ASP618  TYR619  PRO620  LYS621  CYS622 
 ASP623  PHE694  ASN695  SER759  ASP760  ASP761  ALA762  ILE779  LEU786  VAL792 
 PHE793  MET794  SER795  GLU796  ALA797  LYS798  CYS799  TRP800  GLU811  SER814 

> <Gold.Protein.RotatedAtoms>
  151.0839  133.5369  159.2618 H   0  0  0  0  0  0  0  0  0  0  0  0  # atno 6907 bound_to 6896
  151.2262  135.0536  159.8979 H   0  0  0  0  0  0  0  0  0  0  0  0  # atno 6908 bound_to 6896
  152.5427  134.0634  159.8216 H   0  0  0  0  0  0  0  0  0  0  0  0  # atno 6909 bound_to 6896
  146.1319  139.6207  142.9221 H   0  0  0  0  0  0  0  0  0  0  0  0  # atno 7974 bound_to 7965
  156.1153  140.3221  155.8130 H   0  0  0  0  0  0  0  0  0  0  0  0  # atno 8008 bound_to 7997
  155.4601  140.0539  157.3009 H   0  0  0  0  0  0  0  0  0  0  0  0  # atno 8009 bound_to 7997
  154.4788  140.2044  155.9826 H   0  0  0  0  0  0  0  0  0  0  0  0  # atno 8010 bound_to 7997
  140.7286  143.4511  151.0516 H   0  0  0  0  0  0  0  0  0  0  0  0  # atno 10167 bound_to 10162
  156.0855  130.6047  150.8825 H   0  0  0  0  0  0  0  0  0  0  0  0  # atno 10718 bound_to 10713
  153.4888  135.3663  155.2481 H   0  0  0  0  0  0  0  0  0  0  0  0  # atno 10763 bound_to 10752
  154.8753  135.3972  154.3614 H   0  0  0  0  0  0  0  0  0  0  0  0  # atno 10764 bound_to 10752
  153.4230  135.7080  153.6347 H   0  0  0  0  0  0  0  0  0  0  0  0  # atno 10765 bound_to 10752
  140.0742  134.5427  155.9014 H   0  0  0  0  0  0  0  0  0  0  0  0  # atno 11005 bound_to 11000
  145.5242  141.0430  143.2419 LP  0  0  0  0  0  0  0  0  0  0  0  0  # atno 17320 bound_to 7965
  144.7699  139.6758  143.7199 LP  0  0  0  0  0  0  0  0  0  0  0  0  # atno 17321 bound_to 7965
  139.8187  143.7850  152.3176 LP  0  0  0  0  0  0  0  0  0  0  0  0  # atno 17342 bound_to 10162
  139.7925  144.7405  150.9935 LP  0  0  0  0  0  0  0  0  0  0  0  0  # atno 17343 bound_to 10162
  157.5987  131.0942  150.8997 LP  0  0  0  0  0  0  0  0  0  0  0  0  # atno 17370 bound_to 10713
  156.9158  130.5297  149.5279 LP  0  0  0  0  0  0  0  0  0  0  0  0  # atno 17371 bound_to 10713
  141.2023  133.6624  156.6000 LP  0  0  0  0  0  0  0  0  0  0  0  0  # atno 17394 bound_to 11000
  140.3582  134.7710  157.4515 LP  0  0  0  0  0  0  0  0  0  0  0  0  # atno 17395 bound_to 11000

$$$$
