AV-unprocessed.smi:1300|AV-procd|sdf|5420|dock8
  -GOLD-   22720 4583D 1   1.00000     0.00000
 Structure written by MMmdl.
 35 36  0  0  0  0  0  0  0  0  1 V2000
  148.9754  139.6660  154.1005 C   0  0  0  0  0  0  0  0  0  0  0  0
  150.1182  139.7018  155.0820 C   0  0  0  0  0  0  0  0  0  0  0  0
  150.0354  140.6162  155.9914 N   0  0  0  0  0  0  0  0  0  0  0  0
  151.0121  140.7691  156.9539 N   0  0  0  0  0  0  0  0  0  0  0  0
  150.7441  141.8541  157.9062 C   0  0  0  0  0  0  0  0  0  0  0  0
  151.6520  143.0818  157.6755 C   0  0  1  0  0  0  0  0  0  0  0  0
  151.0936  143.8736  156.6437 O   0  0  0  0  0  0  0  0  0  0  0  0
  151.8241  143.8732  158.9661 C   0  0  0  0  0  0  0  0  0  0  0  0
  151.3640  145.2066  159.0591 C   0  0  0  0  0  0  0  0  0  0  0  0
  151.5124  145.9298  160.2581 C   0  0  0  0  0  0  0  0  0  0  0  0
  152.1171  145.3243  161.3754 C   0  0  0  0  0  0  0  0  0  0  0  0
  152.5706  143.9943  161.2933 C   0  0  0  0  0  0  0  0  0  0  0  0
  152.4234  143.2688  160.0948 C   0  0  0  0  0  0  0  0  0  0  0  0
  152.8562  141.9863  160.0378 F   0  0  0  0  0  0  0  0  0  0  0  0
  152.1339  140.0006  157.0499 C   0  0  0  0  0  0  0  0  0  0  0  0
  152.9822  140.1733  157.9265 O   0  0  0  0  0  0  0  0  0  0  0  0
  152.2249  138.9643  156.0192 C   0  0  0  0  0  0  0  0  0  0  0  0
  153.3879  138.1389  156.0842 C   0  0  0  0  0  0  0  0  0  0  0  0
  154.3232  137.4578  156.1220 N   0  0  0  0  0  0  0  0  0  0  0  0
  151.2700  138.8002  155.0690 C   0  0  0  0  0  0  0  0  0  0  0  0
  151.3284  137.7325  153.9848 C   0  0  0  0  0  0  0  0  0  0  0  0
  149.1039  138.9142  153.3240 H   0  0  0  0  0  0  0  0  0  0  0  0
  148.8675  140.6298  153.6016 H   0  0  0  0  0  0  0  0  0  0  0  0
  148.0369  139.4496  154.6118 H   0  0  0  0  0  0  0  0  0  0  0  0
  149.6929  142.1491  157.8830 H   0  0  0  0  0  0  0  0  0  0  0  0
  150.9042  141.4674  158.9147 H   0  0  0  0  0  0  0  0  0  0  0  0
  152.6370  142.7641  157.3330 H   0  0  0  0  0  0  0  0  0  0  0  0
  150.1519  143.8335  156.7128 H   0  0  0  0  0  0  0  0  0  0  0  0
  150.8906  145.6811  158.2118 H   0  0  0  0  0  0  0  0  0  0  0  0
  151.1597  146.9488  160.3212 H   0  0  0  0  0  0  0  0  0  0  0  0
  152.2297  145.8781  162.2957 H   0  0  0  0  0  0  0  0  0  0  0  0
  153.0301  143.5280  162.1524 H   0  0  0  0  0  0  0  0  0  0  0  0
  152.2049  137.0927  154.0799 H   0  0  0  0  0  0  0  0  0  0  0  0
  151.3653  138.1930  152.9970 H   0  0  0  0  0  0  0  0  0  0  0  0
  150.4503  137.0875  154.0356 H   0  0  0  0  0  0  0  0  0  0  0  0
  1  2  1  0  0  0  0
  1 22  1  0  0  0  0
  1 23  1  0  0  0  0
  1 24  1  0  0  0  0
  2 20  1  0  0  0  0
  2  3  2  0  0  0  0
  3  4  1  0  0  0  0
  4  5  1  0  0  0  0
  4 15  1  0  0  0  0
  5  6  1  0  0  0  0
  5 25  1  0  0  0  0
  5 26  1  0  0  0  0
  6  7  1  0  0  0  0
  6  8  1  0  0  0  0
  6 27  1  0  0  0  0
  7 28  1  0  0  0  0
  8 13  1  0  0  0  0
  8  9  2  0  0  0  0
  9 10  1  0  0  0  0
  9 29  1  0  0  0  0
 10 11  2  0  0  0  0
 10 30  1  0  0  0  0
 11 12  1  0  0  0  0
 11 31  1  0  0  0  0
 12 13  2  0  0  0  0
 12 32  1  0  0  0  0
 13 14  1  0  0  0  0
 15 16  2  0  0  0  0
 15 17  1  0  0  0  0
 17 18  1  0  0  0  0
 17 20  2  0  0  0  0
 18 19  3  0  0  0  0
 20 21  1  0  0  0  0
 21 33  1  0  0  0  0
 21 34  1  0  0  0  0
 21 35  1  0  0  0  0
M  END
> <s_m_source_file>
AV-unprocessed.smi

> <i_m_source_file_index>
1300

> <i_lp_mmshare_version>
43012

> <i_f3d_flags>
0

> <s_epik_input>
TiNDYyhjMVtDSDNdKWMoPU8pbihuYzFbQ0gzXSlbQ0gyXVtDQEhdKFtPSF0pYzJbY0hdW2NIXVtjSF1bY0hdYzJG

> <s_epik_cmdline>
J2VwaWtfcHl0aG9uJywgJy1waCcsICc3LjAnLCAnLXRuJywgJzgnLCAnLW1hJywgJzIwMCcsICctbWV0YWxfYmluZGluZycsICctaW1hZScsICc8aW5maWxlLm1hZT4nLCAnLW9tYWUnLCAnPG91dGZpbGUubWFlPic=

> <r_lp_tautomer_probability>
1

> <r_epik_Ionization_Penalty>
7.1854e-08

> <r_epik_Ionization_Penalty_Charging>
1.40848e-10

> <r_epik_Ionization_Penalty_Neutral>
7.17131e-08

> <r_epik_State_Penalty>
-0

> <r_epik_Charging_Adjusted_Penalty>
1.40848e-10

> <i_epik_Tot_Q>
0

> <i_epik_Tot_abs_Q>
0

> <r_epik_Metal_State_Penalty>
-0

> <b_epik_Metal_Only>
0

> <s_lp_Force_Field>
OPLS_2005

> <r_lp_Energy>
29.2167

> <b_lp_Chiralities_Consistent>
1

> <s_lp_Variant>
AV-unprocessed.smi:1300-2

> <Gold.Version>
5.8.1

> <Gold.Id.Protein>
6NUR|6NUR_protein|mol2

> <Gold.PLP.Fitness>
48.8812

> <Gold.PLP.PLP>
-43.4648

> <Gold.PLP.part.hbond>
-3.0000

> <Gold.PLP.part.metal>
0.0000

> <Gold.PLP.part.buried>
3.0455

> <Gold.PLP.part.nonpolar>
-43.5287

> <Gold.PLP.part.repulsive>
0.0473

> <Gold.PLP.ligand.clash>
0.0000

> <Gold.PLP.ligand.torsion>
0.4355

> <Gold.PLP.Chemscore.Hbond>
2.0930

> <Gold.PLP.Chemscore.CHOScore>
0.0000

> <Gold.PLP.Chemscore.Metal>
0.0000

> <Gold.Chemscore.Hbonds>
donor molecule, donor type, donor heavy atom, donor atom, acceptor molecule, acceptor atom, score
      L1  H     7    28       P1  8028  0.54
      P1  H  7997  8009       L1    16  0.91
      P1  H 10752 10765       L1    19  0.14

> <Gold.PLP.Chemscore.Internal.Correction>
0.0082

> <Gold.Rescore>
     Score         DG    S(hbond)    S(metal)    S(lipo)     H(rot)  DE(clash)    DE(int)     intcor
     16.81     -19.62       1.47        0.00     122.40       2.00       2.24       0.56       ----

> <Gold.Chemscore.Fitness>
16.8106

> <Gold.Chemscore.DG>
-19.6164

> <Gold.Chemscore.ZeroCoef>
-5.4800

> <Gold.Chemscore.Hbond>
1.4746

> <Gold.Chemscore.Metal>
0.0000

> <Gold.Chemscore.Lipo>
122.4020

> <Gold.Chemscore.Internal_Hbond>
0.0000

> <Gold.Chemscore.DEClash>
2.2427

> <Gold.Chemscore.DEInternal>
0.5631

> <Gold.Chemscore.Rot>
1.9960

> <Gold.Chemscore.Internal.Correction>
   9.000000E+99

> <Gold.Chemscore.Hbonds>
donor molecule, donor type, donor heavy atom, donor atom, acceptor molecule, acceptor atom, score
      L1  H     7    28       P1  8028  0.54
      P1  H  7997  8009       L1    16  0.49
      P1  H 10752 10765       L1    19  0.09

> <Gold.Chemscore.Hbond.Weighted>
-4.9251

> <Gold.Chemscore.Metal.Weighted>
-0.0000

> <Gold.Chemscore.Lipo.Weighted>
-14.3210

> <Gold.Chemscore.Internal_Hbond.Weighted>
0.0000

> <Gold.Chemscore.DEClash.Weighted>
2.2427

> <Gold.Chemscore.DEInternal.Weighted>
0.5631

> <Gold.Chemscore.Rot.Weighted>
5.1097

> <Gold.Chemscore.Internal.Correction.Weighted>
   9.000000E+99

> <Gold.Protein.RotatedTorsions>
[ 6907 6896 6895 6894 ] final  -88.04 input  -60.11 | X-H torsion
[ 7974 7965 7964 7962 ] final   17.62 input  175.53 | X-H torsion
[ 8008 7997 7996 7995 ] final  151.14 input   59.86 | X-H torsion
[ 10167 10162 10161 10158 ] final -124.91 input  -65.29 | X-H torsion
[ 10718 10713 10712 10709 ] final  -57.22 input   66.30 | X-H torsion
[ 10763 10752 10751 10750 ] final -108.91 input  -60.55 | X-H torsion
[ 11005 11000 10999 10996 ] final   10.38 input  -57.11 | X-H torsion

> <Gold.Protein.ActiveResidues>
 VAL166  LYS551  ARG553  GLY616  TRP617  ASP618  TYR619  PRO620  LYS621  CYS622 
 ASP623  PHE694  ASN695  SER759  ASP760  ASP761  ALA762  ILE779  LEU786  VAL792 
 PHE793  MET794  SER795  GLU796  ALA797  LYS798  CYS799  TRP800  GLU811  SER814 

> <Gold.Protein.RotatedAtoms>
  150.6867  134.2804  159.4624 H   0  0  0  0  0  0  0  0  0  0  0  0  # atno 6907 bound_to 6896
  152.0718  134.9526  160.0583 H   0  0  0  0  0  0  0  0  0  0  0  0  # atno 6908 bound_to 6896
  152.0913  133.4167  159.4582 H   0  0  0  0  0  0  0  0  0  0  0  0  # atno 6909 bound_to 6896
  146.2212  139.8575  142.8611 H   0  0  0  0  0  0  0  0  0  0  0  0  # atno 7974 bound_to 7965
  156.2686  140.2056  156.6128 H   0  0  0  0  0  0  0  0  0  0  0  0  # atno 8008 bound_to 7997
  154.6818  140.0539  157.0298 H   0  0  0  0  0  0  0  0  0  0  0  0  # atno 8009 bound_to 7997
  155.0990  140.3204  155.4555 H   0  0  0  0  0  0  0  0  0  0  0  0  # atno 8010 bound_to 7997
  139.9878  143.5673  152.2354 H   0  0  0  0  0  0  0  0  0  0  0  0  # atno 10167 bound_to 10162
  156.1228  130.4165  150.0411 H   0  0  0  0  0  0  0  0  0  0  0  0  # atno 10718 bound_to 10713
  154.8163  135.4620  154.0652 H   0  0  0  0  0  0  0  0  0  0  0  0  # atno 10763 bound_to 10752
  153.2043  135.6873  153.8199 H   0  0  0  0  0  0  0  0  0  0  0  0  # atno 10764 bound_to 10752
  153.7673  135.3275  155.3323 H   0  0  0  0  0  0  0  0  0  0  0  0  # atno 10765 bound_to 10752
  140.5151  134.0613  155.7829 H   0  0  0  0  0  0  0  0  0  0  0  0  # atno 11005 bound_to 11000
  145.2738  141.0117  143.3757 LP  0  0  0  0  0  0  0  0  0  0  0  0  # atno 17320 bound_to 7965
  144.9203  139.4420  143.6544 LP  0  0  0  0  0  0  0  0  0  0  0  0  # atno 17321 bound_to 7965
  139.6362  144.7650  151.2432 LP  0  0  0  0  0  0  0  0  0  0  0  0  # atno 17342 bound_to 10162
  140.7466  143.6394  150.8349 LP  0  0  0  0  0  0  0  0  0  0  0  0  # atno 17343 bound_to 10162
  156.8345  130.9404  151.3635 LP  0  0  0  0  0  0  0  0  0  0  0  0  # atno 17370 bound_to 10713
  157.6410  130.8806  149.9449 LP  0  0  0  0  0  0  0  0  0  0  0  0  # atno 17371 bound_to 10713
  141.1364  133.9214  157.2424 LP  0  0  0  0  0  0  0  0  0  0  0  0  # atno 17394 bound_to 11000
  139.9637  135.0147  156.9329 LP  0  0  0  0  0  0  0  0  0  0  0  0  # atno 17395 bound_to 11000

$$$$
