AV-unprocessed.smi:313|AV-procd|sdf|2312|dock3
  -GOLD-   2262022213D 1   1.00000     0.00000
 Structure written by MMmdl.
 50 51  0  0  0  0  0  0  0  0  1 V2000
  143.5363  133.6800  152.7731 C   0  0  0  0  0  0  0  0  0  0  0  0
  144.5943  134.7386  152.4299 C   0  0  0  0  0  0  0  0  0  0  0  0
  144.1532  136.1807  152.7438 C   0  0  1  0  0  0  0  0  0  0  0  0
  143.8916  136.3770  154.2456 C   0  0  0  0  0  0  0  0  0  0  0  0
  145.1658  137.1283  152.2840 N   0  0  0  0  0  0  0  0  0  0  0  0
  146.2942  137.4440  152.9381 C   0  0  0  0  0  0  0  0  0  0  0  0
  146.6053  136.9551  154.0256 O   0  0  0  0  0  0  0  0  0  0  0  0
  147.1959  138.4881  152.2598 C   0  0  1  0  0  0  0  0  0  0  0  0
  146.2903  139.5461  151.6077 C   0  0  0  0  0  0  0  0  0  0  0  0
  148.0435  139.1625  153.2418 N   0  0  0  0  0  0  0  0  0  0  0  0
  147.6041  139.7938  154.3437 C   0  0  0  0  0  0  0  0  0  0  0  0
  146.4141  139.8855  154.6458 O   0  0  0  0  0  0  0  0  0  0  0  0
  148.6634  140.4569  155.1752 C   0  0  0  0  0  0  0  0  0  0  0  0
  149.9889  140.6025  154.7128 C   0  0  0  0  0  0  0  0  0  0  0  0
  150.9452  141.2140  155.5460 C   0  0  0  0  0  0  0  0  0  0  0  0
  150.5571  141.6654  156.8333 C   0  0  0  0  0  0  0  0  0  0  0  0
  151.4680  142.2832  157.7219 N   0  0  0  0  0  0  0  0  0  0  0  0
  152.0261  141.4387  158.7788 C   0  0  0  0  0  0  0  0  0  0  0  0
  153.2306  142.1248  159.4450 C   0  0  0  0  0  0  0  0  0  0  0  0
  152.8561  143.4189  159.9023 O   0  0  0  0  0  0  0  0  0  0  0  0
  152.4561  144.2578  158.8254 C   0  0  0  0  0  0  0  0  0  0  0  0
  151.2183  143.6630  158.1331 C   0  0  0  0  0  0  0  0  0  0  0  0
  149.2856  141.5105  157.2758 N   0  0  0  0  0  0  0  0  0  0  0  0
  148.3725  140.9220  156.4746 C   0  0  0  0  0  0  0  0  0  0  0  0
  143.9153  132.6773  152.5748 H   0  0  0  0  0  0  0  0  0  0  0  0
  142.6294  133.8108  152.1823 H   0  0  0  0  0  0  0  0  0  0  0  0
  143.2601  133.7278  153.8268 H   0  0  0  0  0  0  0  0  0  0  0  0
  145.5036  134.5131  152.9883 H   0  0  0  0  0  0  0  0  0  0  0  0
  144.8593  134.6541  151.3752 H   0  0  0  0  0  0  0  0  0  0  0  0
  143.2205  136.3675  152.2082 H   0  0  0  0  0  0  0  0  0  0  0  0
  143.1258  135.6882  154.6027 H   0  0  0  0  0  0  0  0  0  0  0  0
  143.5456  137.3890  154.4586 H   0  0  0  0  0  0  0  0  0  0  0  0
  144.7945  136.2037  154.8322 H   0  0  0  0  0  0  0  0  0  0  0  0
  144.9917  137.5829  151.3994 H   0  0  0  0  0  0  0  0  0  0  0  0
  147.8156  138.0137  151.4963 H   0  0  0  0  0  0  0  0  0  0  0  0
  145.6355  139.0999  150.8579 H   0  0  0  0  0  0  0  0  0  0  0  0
  146.8845  140.3095  151.1047 H   0  0  0  0  0  0  0  0  0  0  0  0
  145.6602  140.0507  152.3419 H   0  0  0  0  0  0  0  0  0  0  0  0
  149.0359  139.1680  153.0567 H   0  0  0  0  0  0  0  0  0  0  0  0
  150.2819  140.2524  153.7337 H   0  0  0  0  0  0  0  0  0  0  0  0
  151.9516  141.3281  155.1739 H   0  0  0  0  0  0  0  0  0  0  0  0
  151.2491  141.2446  159.5191 H   0  0  0  0  0  0  0  0  0  0  0  0
  152.3495  140.4717  158.3942 H   0  0  0  0  0  0  0  0  0  0  0  0
  153.5749  141.5347  160.2942 H   0  0  0  0  0  0  0  0  0  0  0  0
  154.0684  142.1993  158.7497 H   0  0  0  0  0  0  0  0  0  0  0  0
  152.2275  145.2505  159.2136 H   0  0  0  0  0  0  0  0  0  0  0  0
  153.2784  144.3755  158.1172 H   0  0  0  0  0  0  0  0  0  0  0  0
  150.9781  144.2796  157.2665 H   0  0  0  0  0  0  0  0  0  0  0  0
  150.3610  143.6886  158.8072 H   0  0  0  0  0  0  0  0  0  0  0  0
  147.3790  140.8284  156.8886 H   0  0  0  0  0  0  0  0  0  0  0  0
  1  2  1  0  0  0  0
  1 25  1  0  0  0  0
  1 26  1  0  0  0  0
  1 27  1  0  0  0  0
  2  3  1  0  0  0  0
  2 28  1  0  0  0  0
  2 29  1  0  0  0  0
  3  4  1  0  0  0  0
  3  5  1  0  0  0  0
  3 30  1  0  0  0  0
  4 31  1  0  0  0  0
  4 32  1  0  0  0  0
  4 33  1  0  0  0  0
  5  6  1  0  0  0  0
  5 34  1  0  0  0  0
  6  7  2  0  0  0  0
  6  8  1  0  0  0  0
  8  9  1  0  0  0  0
  8 10  1  0  0  0  0
  8 35  1  0  0  0  0
  9 36  1  0  0  0  0
  9 37  1  0  0  0  0
  9 38  1  0  0  0  0
 10 11  1  0  0  0  0
 10 39  1  0  0  0  0
 11 12  2  0  0  0  0
 11 13  1  0  0  0  0
 13 24  1  0  0  0  0
 13 14  2  0  0  0  0
 14 15  1  0  0  0  0
 14 40  1  0  0  0  0
 15 16  2  0  0  0  0
 15 41  1  0  0  0  0
 16 17  1  0  0  0  0
 16 23  1  0  0  0  0
 17 22  1  0  0  0  0
 17 18  1  0  0  0  0
 18 19  1  0  0  0  0
 18 42  1  0  0  0  0
 18 43  1  0  0  0  0
 19 20  1  0  0  0  0
 19 44  1  0  0  0  0
 19 45  1  0  0  0  0
 20 21  1  0  0  0  0
 21 22  1  0  0  0  0
 21 46  1  0  0  0  0
 21 47  1  0  0  0  0
 22 48  1  0  0  0  0
 22 49  1  0  0  0  0
 23 24  2  0  0  0  0
 24 50  1  0  0  0  0
M  END
> <s_m_source_file>
AV-unprocessed.smi

> <i_m_source_file_index>
313

> <i_lp_mmshare_version>
43012

> <i_f3d_flags>
0

> <s_epik_input>
W0NIM11bQ0gyXVtDQEhdKFtDSDNdKVtOSF1DKD1PKVtDQEhdKFtDSDNdKVtOSF1DKD1PKWMxW2NIXVtjSF1jKG5bY0hdMSlOMltDSDJdW0NIMl1PW0NIMl1bQ0gyXTI=

> <s_epik_cmdline>
J2VwaWtfcHl0aG9uJywgJy1waCcsICc3LjAnLCAnLXRuJywgJzgnLCAnLW1hJywgJzIwMCcsICctbWV0YWxfYmluZGluZycsICctaW1hZScsICc8aW5maWxlLm1hZT4nLCAnLW9tYWUnLCAnPG91dGZpbGUubWFlPic=

> <r_lp_tautomer_probability>
1

> <r_epik_Ionization_Penalty>
9.96442e-06

> <r_epik_Ionization_Penalty_Charging>
0

> <r_epik_Ionization_Penalty_Neutral>
9.96442e-06

> <r_epik_State_Penalty>
-0

> <r_epik_Charging_Adjusted_Penalty>
0

> <i_epik_Tot_Q>
0

> <i_epik_Tot_abs_Q>
0

> <r_epik_Metal_State_Penalty>
-0

> <b_epik_Metal_Only>
0

> <s_lp_Force_Field>
OPLS_2005

> <r_lp_Energy>
19.952

> <b_lp_Chiralities_Consistent>
1

> <s_lp_Variant>
AV-unprocessed.smi:313-4

> <Gold.Version>
5.8.1

> <Gold.Id.Protein>
6NUR|6NUR_protein|mol2

> <Gold.PLP.Fitness>
41.9398

> <Gold.PLP.PLP>
-41.1902

> <Gold.PLP.part.hbond>
-3.0000

> <Gold.PLP.part.metal>
0.0000

> <Gold.PLP.part.buried>
-0.2359

> <Gold.PLP.part.nonpolar>
-39.2632

> <Gold.PLP.part.repulsive>
0.8342

> <Gold.PLP.ligand.clash>
0.0000

> <Gold.PLP.ligand.torsion>
1.2949

> <Gold.PLP.Chemscore.Hbond>
0.9440

> <Gold.PLP.Chemscore.CHOScore>
0.0000

> <Gold.PLP.Chemscore.Metal>
0.0000

> <Gold.Chemscore.Hbonds>
donor molecule, donor type, donor heavy atom, donor atom, acceptor molecule, acceptor atom, score
      L1  H     5    34       P1 10171  0.60
      L1  H    10    39       P1  7957  0.21

> <Gold.PLP.Chemscore.Internal.Correction>
0.5073

> <Gold.Rescore>
     Score         DG    S(hbond)    S(metal)    S(lipo)     H(rot)  DE(clash)    DE(int)     intcor
     10.36     -15.64       0.96        0.00      98.50       1.79       1.16       4.12       ----

> <Gold.Chemscore.Fitness>
10.3588

> <Gold.Chemscore.DG>
-15.6421

> <Gold.Chemscore.ZeroCoef>
-5.4800

> <Gold.Chemscore.Hbond>
0.9632

> <Gold.Chemscore.Metal>
0.0000

> <Gold.Chemscore.Lipo>
98.4977

> <Gold.Chemscore.Internal_Hbond>
0.0000

> <Gold.Chemscore.DEClash>
1.1625

> <Gold.Chemscore.DEInternal>
4.1207

> <Gold.Chemscore.Rot>
1.7888

> <Gold.Chemscore.Internal.Correction>
   9.000000E+99

> <Gold.Chemscore.Hbonds>
donor molecule, donor type, donor heavy atom, donor atom, acceptor molecule, acceptor atom, score
      L1  H     5    34       P1 10171  0.60
      L1  H    10    39       P1  7957  0.20

> <Gold.Chemscore.Hbond.Weighted>
-3.2171

> <Gold.Chemscore.Metal.Weighted>
-0.0000

> <Gold.Chemscore.Lipo.Weighted>
-11.5242

> <Gold.Chemscore.Internal_Hbond.Weighted>
0.0000

> <Gold.Chemscore.DEClash.Weighted>
1.1625

> <Gold.Chemscore.DEInternal.Weighted>
4.1207

> <Gold.Chemscore.Rot.Weighted>
4.5793

> <Gold.Chemscore.Internal.Correction.Weighted>
   9.000000E+99

> <Gold.Protein.RotatedTorsions>
[ 6907 6896 6895 6894 ] final -100.62 input  -60.11 | X-H torsion
[ 7974 7965 7964 7962 ] final -165.16 input  175.53 | X-H torsion
[ 8008 7997 7996 7995 ] final   63.13 input   59.86 | X-H torsion
[ 10167 10162 10161 10158 ] final  155.35 input  -65.29 | X-H torsion
[ 10718 10713 10712 10709 ] final    5.06 input   66.30 | X-H torsion
[ 10763 10752 10751 10750 ] final   70.29 input  -60.55 | X-H torsion
[ 11005 11000 10999 10996 ] final -167.78 input  -57.11 | X-H torsion

> <Gold.Protein.ActiveResidues>
 VAL166  LYS551  ARG553  GLY616  TRP617  ASP618  TYR619  PRO620  LYS621  CYS622 
 ASP623  PHE694  ASN695  SER759  ASP760  ASP761  ALA762  ILE779  LEU786  VAL792 
 PHE793  MET794  SER795  GLU796  ALA797  LYS798  CYS799  TRP800  GLU811  SER814 

> <Gold.Protein.RotatedAtoms>
  150.7123  134.0859  159.3914 H   0  0  0  0  0  0  0  0  0  0  0  0  # atno 6907 bound_to 6896
  151.8844  135.0439  160.0501 H   0  0  0  0  0  0  0  0  0  0  0  0  # atno 6908 bound_to 6896
  152.2542  133.5206  159.5380 H   0  0  0  0  0  0  0  0  0  0  0  0  # atno 6909 bound_to 6896
  144.7277  140.2854  143.6229 H   0  0  0  0  0  0  0  0  0  0  0  0  # atno 7974 bound_to 7965
  155.6254  140.3496  155.4665 H   0  0  0  0  0  0  0  0  0  0  0  0  # atno 8008 bound_to 7997
  156.0046  140.1220  157.0538 H   0  0  0  0  0  0  0  0  0  0  0  0  # atno 8009 bound_to 7997
  154.4260  140.1094  156.5730 H   0  0  0  0  0  0  0  0  0  0  0  0  # atno 8010 bound_to 7997
  139.4821  144.5106  151.8030 H   0  0  0  0  0  0  0  0  0  0  0  0  # atno 10167 bound_to 10162
  156.9019  130.5724  149.5648 H   0  0  0  0  0  0  0  0  0  0  0  0  # atno 10718 bound_to 10713
  153.0333  135.5179  154.7418 H   0  0  0  0  0  0  0  0  0  0  0  0  # atno 10763 bound_to 10752
  154.6415  135.2913  155.0099 H   0  0  0  0  0  0  0  0  0  0  0  0  # atno 10764 bound_to 10752
  154.1016  135.6635  153.4921 H   0  0  0  0  0  0  0  0  0  0  0  0  # atno 10765 bound_to 10752
  140.5494  134.5444  157.5119 H   0  0  0  0  0  0  0  0  0  0  0  0  # atno 11005 bound_to 11000
  145.7907  139.1926  143.2104 LP  0  0  0  0  0  0  0  0  0  0  0  0  # atno 17320 bound_to 7965
  146.0758  140.7819  142.9666 LP  0  0  0  0  0  0  0  0  0  0  0  0  # atno 17321 bound_to 7965
  140.4609  144.1724  150.5906 LP  0  0  0  0  0  0  0  0  0  0  0  0  # atno 17342 bound_to 10162
  140.4486  143.2496  151.9378 LP  0  0  0  0  0  0  0  0  0  0  0  0  # atno 17343 bound_to 10162
  156.0578  130.5636  150.9128 LP  0  0  0  0  0  0  0  0  0  0  0  0  # atno 17370 bound_to 10713
  157.6021  131.0941  150.8942 LP  0  0  0  0  0  0  0  0  0  0  0  0  # atno 17371 bound_to 10713
  139.9463  134.7696  156.0554 LP  0  0  0  0  0  0  0  0  0  0  0  0  # atno 17394 bound_to 11000
  141.1181  133.6621  156.3144 LP  0  0  0  0  0  0  0  0  0  0  0  0  # atno 17395 bound_to 11000

$$$$
