AV-unprocessed.smi:1545|AV-procd|sdf|6214|dock7
  -GOLD-   22720 6383D 1   1.00000     0.00000
 Structure written by MMmdl.
 42 44  0  0  0  0  0  0  0  0  2 V2000
  148.0961  140.4692  153.1152 O   0  0  0  0  0  0  0  0  0  0  0  0
  147.2778  139.3488  153.3733 C   0  0  0  0  0  0  0  0  0  0  0  0
  146.7151  138.7977  152.0569 C   0  0  0  0  0  0  0  0  0  0  0  0
  145.4571  138.0982  152.2628 N   0  0  0  0  0  0  0  0  0  0  0  0
  145.3865  136.7292  151.9847 C   0  0  0  0  0  0  0  0  0  0  0  0
  146.4397  135.9126  151.7140 N   0  3  0  0  0  0  0  0  0  0  0  0
  145.9489  134.6240  151.4839 C   0  0  0  0  0  0  0  0  0  0  0  0
  146.6126  133.4419  151.1700 C   0  0  0  0  0  0  0  0  0  0  0  0
  145.8130  132.2934  150.9944 C   0  0  0  0  0  0  0  0  0  0  0  0
  144.4104  132.3457  151.1298 C   0  0  0  0  0  0  0  0  0  0  0  0
  143.7451  133.5478  151.4494 C   0  0  0  0  0  0  0  0  0  0  0  0
  144.5411  134.6793  151.6248 C   0  0  0  0  0  0  0  0  0  0  0  0
  144.2361  136.0083  151.9430 N   0  0  0  0  0  0  0  0  0  0  0  0
  142.8371  136.4052  152.1611 C   0  0  0  0  0  0  0  0  0  0  0  0
  142.6350  137.1929  153.4705 C   0  0  2  0  0  0  0  0  0  0  0  0
  143.1292  136.4418  154.5627 O   0  0  0  0  0  0  0  0  0  0  0  0
  141.1783  137.5854  153.6563 C   0  0  0  0  0  0  0  0  0  0  0  0
  140.1813  136.5963  153.8098 C   0  0  0  0  0  0  0  0  0  0  0  0
  138.8323  136.9674  153.9706 C   0  0  0  0  0  0  0  0  0  0  0  0
  138.4718  138.3286  153.9781 C   0  0  0  0  0  0  0  0  0  0  0  0
  139.4612  139.3186  153.8229 C   0  0  0  0  0  0  0  0  0  0  0  0
  139.1159  140.6279  153.8281 F   0  0  0  0  0  0  0  0  0  0  0  0
  140.8105  138.9482  153.6612 C   0  0  0  0  0  0  0  0  0  0  0  0
  148.8408  140.1855  152.6074 H   0  0  0  0  0  0  0  0  0  0  0  0
  147.8294  138.5892  153.9288 H   0  0  0  0  0  0  0  0  0  0  0  0
  146.4588  139.6807  154.0114 H   0  0  0  0  0  0  0  0  0  0  0  0
  146.5224  139.6309  151.3797 H   0  0  0  0  0  0  0  0  0  0  0  0
  147.4412  138.1490  151.5650 H   0  0  0  0  0  0  0  0  0  0  0  0
  144.6082  138.6322  152.3835 H   0  0  0  0  0  0  0  0  0  0  0  0
  147.6867  133.3976  151.0639 H   0  0  0  0  0  0  0  0  0  0  0  0
  146.2854  131.3529  150.7500 H   0  0  0  0  0  0  0  0  0  0  0  0
  143.8320  131.4444  150.9859 H   0  0  0  0  0  0  0  0  0  0  0  0
  142.6701  133.5765  151.5501 H   0  0  0  0  0  0  0  0  0  0  0  0
  142.5058  136.9885  151.3014 H   0  0  0  0  0  0  0  0  0  0  0  0
  142.2322  135.4974  152.1642 H   0  0  0  0  0  0  0  0  0  0  0  0
  143.2314  138.1052  153.4274 H   0  0  0  0  0  0  0  0  0  0  0  0
  143.5050  135.6410  154.2298 H   0  0  0  0  0  0  0  0  0  0  0  0
  140.4477  135.5492  153.8018 H   0  0  0  0  0  0  0  0  0  0  0  0
  138.0734  136.2073  154.0867 H   0  0  0  0  0  0  0  0  0  0  0  0
  137.4372  138.6130  154.1012 H   0  0  0  0  0  0  0  0  0  0  0  0
  141.5609  139.7156  153.5395 H   0  0  0  0  0  0  0  0  0  0  0  0
  147.4060  136.2110  151.6876 H   0  0  0  0  0  0  0  0  0  0  0  0
  1  2  1  0  0  0  0
  1 24  1  0  0  0  0
  2  3  1  0  0  0  0
  2 25  1  0  0  0  0
  2 26  1  0  0  0  0
  3  4  1  0  0  0  0
  3 27  1  0  0  0  0
  3 28  1  0  0  0  0
  4  5  1  0  0  0  0
  4 29  1  0  0  0  0
  5 13  1  0  0  0  0
  5  6  2  0  0  0  0
  6  7  1  0  0  0  0
  6 42  1  0  0  0  0
  7 12  2  0  0  0  0
  7  8  1  0  0  0  0
  8  9  2  0  0  0  0
  8 30  1  0  0  0  0
  9 10  1  0  0  0  0
  9 31  1  0  0  0  0
 10 11  2  0  0  0  0
 10 32  1  0  0  0  0
 11 12  1  0  0  0  0
 11 33  1  0  0  0  0
 12 13  1  0  0  0  0
 13 14  1  0  0  0  0
 14 15  1  0  0  0  0
 14 34  1  0  0  0  0
 14 35  1  0  0  0  0
 15 16  1  0  0  0  0
 15 17  1  0  0  0  0
 15 36  1  0  0  0  0
 16 37  1  0  0  0  0
 17 23  1  0  0  0  0
 17 18  2  0  0  0  0
 18 19  1  0  0  0  0
 18 38  1  0  0  0  0
 19 20  2  0  0  0  0
 19 39  1  0  0  0  0
 20 21  1  0  0  0  0
 20 40  1  0  0  0  0
 21 22  1  0  0  0  0
 21 23  2  0  0  0  0
 23 41  1  0  0  0  0
M  CHG  1   6   1
M  END
> <s_m_source_file>
AV-unprocessed.smi

> <i_m_source_file_index>
1545

> <i_lp_mmshare_version>
43012

> <i_f3d_flags>
0

> <s_epik_input>
W09IXVtDSDJdW0NIMl1bTkhdYyhuMSluKGMoYzEyKVtjSF1bY0hdW2NIXVtjSF0yKVtDSDJdW0NASF0oW09IXSljM1tjSF1bY0hdW2NIXWMoRilbY0hdMw==

> <s_epik_cmdline>
J2VwaWtfcHl0aG9uJywgJy1waCcsICc3LjAnLCAnLXRuJywgJzgnLCAnLW1hJywgJzIwMCcsICctbWV0YWxfYmluZGluZycsICctaW1hZScsICc8aW5maWxlLm1hZT4nLCAnLW9tYWUnLCAnPG91dGZpbGUubWFlPic=

> <r_epik_Ionization_Penalty>
0.0688114

> <r_epik_Ionization_Penalty_Charging>
0.0688055

> <r_epik_Ionization_Penalty_Neutral>
5.85933e-06

> <r_epik_State_Penalty>
0.0602293

> <r_epik_Charging_Adjusted_Penalty>
0.129035

> <i_epik_Tot_Q>
1

> <i_epik_Tot_abs_Q>
1

> <r_epik_Metal_State_Penalty>
2.77411

> <b_epik_Metal_Only>
0

> <s_lp_Force_Field>
OPLS_2005

> <r_lp_Energy>
22.2772

> <b_lp_Chiralities_Consistent>
1

> <s_lp_Variant>
AV-unprocessed.smi:1545-1

> <Gold.Version>
5.8.1

> <Gold.Id.Protein>
6NUR|6NUR_protein|mol2

> <Gold.PLP.Fitness>
60.8982

> <Gold.PLP.PLP>
-46.4543

> <Gold.PLP.part.hbond>
-3.8765

> <Gold.PLP.part.metal>
0.0000

> <Gold.PLP.part.buried>
-7.2475

> <Gold.PLP.part.nonpolar>
-36.7281

> <Gold.PLP.part.repulsive>
0.0942

> <Gold.PLP.ligand.clash>
0.0000

> <Gold.PLP.ligand.torsion>
0.2687

> <Gold.PLP.Chemscore.Hbond>
4.9840

> <Gold.PLP.Chemscore.CHOScore>
0.0000

> <Gold.PLP.Chemscore.Metal>
0.0000

> <Gold.Chemscore.Hbonds>
donor molecule, donor type, donor heavy atom, donor atom, acceptor molecule, acceptor atom, score
      L1  H     1    24       P1  7957  0.99
      L1  H     4    29       P1 10175  1.93
      L1  H     6    42       P1  7948  1.98

> <Gold.PLP.Chemscore.Internal.Correction>
0.0293

> <Gold.Rescore>
     Score         DG    S(hbond)    S(metal)    S(lipo)     H(rot)  DE(clash)    DE(int)     intcor
     17.43     -18.96       2.89        0.00     101.62       3.15       1.20       0.33       ----

> <Gold.Chemscore.Fitness>
17.4262

> <Gold.Chemscore.DG>
-18.9628

> <Gold.Chemscore.ZeroCoef>
-5.4800

> <Gold.Chemscore.Hbond>
2.8917

> <Gold.Chemscore.Metal>
0.0000

> <Gold.Chemscore.Lipo>
101.6205

> <Gold.Chemscore.Internal_Hbond>
0.0000

> <Gold.Chemscore.DEClash>
1.2038

> <Gold.Chemscore.DEInternal>
0.3328

> <Gold.Chemscore.Rot>
3.1505

> <Gold.Chemscore.Internal.Correction>
   9.000000E+99

> <Gold.Chemscore.Hbonds>
donor molecule, donor type, donor heavy atom, donor atom, acceptor molecule, acceptor atom, score
      L1  H     1    24       P1  7957  0.93
      L1  H     4    29       P1 10175  0.86
      L1  H     6    42       P1  7948  0.92

> <Gold.Chemscore.Hbond.Weighted>
-9.6584

> <Gold.Chemscore.Metal.Weighted>
-0.0000

> <Gold.Chemscore.Lipo.Weighted>
-11.8896

> <Gold.Chemscore.Internal_Hbond.Weighted>
0.0000

> <Gold.Chemscore.DEClash.Weighted>
1.2038

> <Gold.Chemscore.DEInternal.Weighted>
0.3328

> <Gold.Chemscore.Rot.Weighted>
8.0652

> <Gold.Chemscore.Internal.Correction.Weighted>
   9.000000E+99

> <Gold.Protein.RotatedTorsions>
[ 6907 6896 6895 6894 ] final   39.76 input  -60.11 | X-H torsion
[ 7974 7965 7964 7962 ] final  -97.17 input  175.53 | X-H torsion
[ 8008 7997 7996 7995 ] final  127.70 input   59.86 | X-H torsion
[ 10167 10162 10161 10158 ] final  -74.14 input  -65.29 | X-H torsion
[ 10718 10713 10712 10709 ] final  146.65 input   66.30 | X-H torsion
[ 10763 10752 10751 10750 ] final  161.60 input  -60.55 | X-H torsion
[ 11005 11000 10999 10996 ] final  102.67 input  -57.11 | X-H torsion

> <Gold.Protein.ActiveResidues>
 VAL166  LYS551  ARG553  GLY616  TRP617  ASP618  TYR619  PRO620  LYS621  CYS622 
 ASP623  PHE694  ASN695  SER759  ASP760  ASP761  ALA762  ILE779  LEU786  VAL792 
 PHE793  MET794  SER795  GLU796  ALA797  LYS798  CYS799  TRP800  GLU811  SER814 

> <Gold.Protein.RotatedAtoms>
  152.1737  134.8812  160.0532 H   0  0  0  0  0  0  0  0  0  0  0  0  # atno 6907 bound_to 6896
  151.9762  133.3737  159.4098 H   0  0  0  0  0  0  0  0  0  0  0  0  # atno 6908 bound_to 6896
  150.6906  134.4010  159.5163 H   0  0  0  0  0  0  0  0  0  0  0  0  # atno 6909 bound_to 6896
  145.3372  140.9453  143.2628 H   0  0  0  0  0  0  0  0  0  0  0  0  # atno 7974 bound_to 7965
  156.2897  140.2662  156.2316 H   0  0  0  0  0  0  0  0  0  0  0  0  # atno 8008 bound_to 7997
  155.0066  140.0387  157.2400 H   0  0  0  0  0  0  0  0  0  0  0  0  # atno 8009 bound_to 7997
  154.7554  140.2751  155.6262 H   0  0  0  0  0  0  0  0  0  0  0  0  # atno 8010 bound_to 7997
  140.5052  143.2354  151.7686 H   0  0  0  0  0  0  0  0  0  0  0  0  # atno 10167 bound_to 10162
  157.3306  131.0919  151.1166 H   0  0  0  0  0  0  0  0  0  0  0  0  # atno 10718 bound_to 10713
  154.2655  135.2767  155.2760 H   0  0  0  0  0  0  0  0  0  0  0  0  # atno 10763 bound_to 10752
  154.5347  135.5720  153.6792 H   0  0  0  0  0  0  0  0  0  0  0  0  # atno 10764 bound_to 10752
  152.9954  135.6236  154.2807 H   0  0  0  0  0  0  0  0  0  0  0  0  # atno 10765 bound_to 10752
  139.8779  134.9233  156.5093 H   0  0  0  0  0  0  0  0  0  0  0  0  # atno 11005 bound_to 11000
  144.8818  139.4893  143.6719 LP  0  0  0  0  0  0  0  0  0  0  0  0  # atno 17320 bound_to 7965
  146.3022  139.7463  142.9083 LP  0  0  0  0  0  0  0  0  0  0  0  0  # atno 17321 bound_to 7965
  139.4882  144.4467  151.9701 LP  0  0  0  0  0  0  0  0  0  0  0  0  # atno 17342 bound_to 10162
  140.3558  144.3034  150.5941 LP  0  0  0  0  0  0  0  0  0  0  0  0  # atno 17343 bound_to 10162
  157.2415  130.6572  149.5892 LP  0  0  0  0  0  0  0  0  0  0  0  0  # atno 17370 bound_to 10713
  155.9695  130.4567  150.5934 LP  0  0  0  0  0  0  0  0  0  0  0  0  # atno 17371 bound_to 10713
  140.8532  133.8116  155.9190 LP  0  0  0  0  0  0  0  0  0  0  0  0  # atno 17394 bound_to 11000
  140.9123  134.2245  157.4978 LP  0  0  0  0  0  0  0  0  0  0  0  0  # atno 17395 bound_to 11000

$$$$
