#       Name:                AV-unprocessed.smi:2717
#       Creating user name   scv26
#       Creation time:       Fri Mar 27 14:52:52 2020


#       File generated by GOLD software.
#

@<TRIPOS>MOLECULE
AV-unprocessed.smi:2717
    48    49     1
SMALL
NO_CHARGES


@<TRIPOS>ATOM
      1 ****        -3.7730   6.0817  -1.5442 C.3            1 S1                 0.0000
      2 ****        -2.4732   6.2203  -0.7447 C.3            1 S1                 0.0000
      3 ****        -2.3621   5.2101   0.3478 C.2            1 S1                 0.0000
      4 ****        -1.8354   3.9951   0.1752 N.2            1 S1                 0.0000
      5 ****        -1.8764   3.2189   1.3375 C.2            1 S1                 0.0000
      6 ****        -1.3152   1.8291   1.3273 C.3            1 S1                 0.0000
      7 ****         0.2175   1.8205   1.4493 C.3            1 S1                 0.0000
      8 ****         0.7471   0.4616   1.4661 N.am           1 S1                 0.0000
      9 ****         0.9703  -0.2880   0.3776 C.2            1 S1                 0.0000
     10 ****         0.7553   0.0878  -0.7750 O.2            1 S1                 0.0000
     11 ****         1.4525  -1.4978   0.6962 N.am           1 S1                 0.0000
     12 ****         1.8021  -2.5437  -0.2608 C.3            1 S1                 0.0000
     13 ****         0.5417  -3.3028  -0.7272 C.3            1 S1                 0.0000
     14 ****         0.9002  -4.4578  -1.6764 C.3            1 S1                 0.0000
     15 ****         1.9109  -5.4180  -1.0261 C.3            1 S1                 0.0000
     16 ****         2.2704  -6.4231  -1.9505 O.3            1 S1                 0.0000
     17 ****         3.1729  -4.6648  -0.5720 C.3            1 S1                 0.0000
     18 ****         2.8169  -3.5106   0.3790 C.3            1 S1                 0.0000
     19 ****        -2.4557   3.8670   2.4001 C.2            1 S1                 0.0000
     20 ****        -2.9755   5.4750   1.9759 S.3            1 S1                 0.0000
     21 ****        -3.8233   6.8293  -2.3359 H              1 S1                 0.0000
     22 ****        -4.6450   6.2149  -0.9034 H              1 S1                 0.0000
     23 ****        -3.8458   5.0982  -2.0092 H              1 S1                 0.0000
     24 ****        -1.6148   6.1162  -1.4094 H              1 S1                 0.0000
     25 ****        -2.4103   7.2169  -0.3071 H              1 S1                 0.0000
     26 ****        -1.7471   1.2487   2.1435 H              1 S1                 0.0000
     27 ****        -1.6135   1.3200   0.4097 H              1 S1                 0.0000
     28 ****         0.6709   2.3895   0.6356 H              1 S1                 0.0000
     29 ****         0.5180   2.3115   2.3754 H              1 S1                 0.0000
     30 ****         0.9553   0.0644   2.3705 H              1 S1                 0.0000
     31 ****         1.5932  -1.7107   1.6728 H              1 S1                 0.0000
     32 ****         2.2763  -2.0821  -1.1292 H              1 S1                 0.0000
     33 ****         0.0067  -3.6981   0.1376 H              1 S1                 0.0000
     34 ****        -0.1459  -2.6213  -1.2293 H              1 S1                 0.0000
     35 ****        -0.0045  -4.9977  -1.9577 H              1 S1                 0.0000
     36 ****         1.3172  -4.0494  -2.5984 H              1 S1                 0.0000
     37 ****         1.4490  -5.9024  -0.1649 H              1 S1                 0.0000
     38 ****         1.4906  -6.8947  -2.2008 H              1 S1                 0.0000
     39 ****         3.8619  -5.3506  -0.0776 H              1 S1                 0.0000
     40 ****         3.7005  -4.2672  -1.4403 H              1 S1                 0.0000
     41 ****         3.7239  -2.9715   0.6556 H              1 S1                 0.0000
     42 ****         2.4065  -3.9203   1.3032 H              1 S1                 0.0000
     43 ****        -2.6105   3.4965   3.4024 H              1 S1                 0.0000
     44 ****        -1.4530   3.6750  -0.6916 LP             1 S1                 0.0000
     45 ****         0.3915   1.0041  -0.9425 LP             1 S1                 0.0000
     46 ****         0.9444  -0.5233  -1.5436 LP             1 S1                 0.0000
     47 ****         2.9233  -7.0517  -1.5279 LP             1 S1                 0.0000
     48 ****         2.6853  -6.0050  -2.7585 LP             1 S1                 0.0000
@<TRIPOS>BOND
    1    1    2 1     
    2    1   21 1     
    3    1   22 1     
    4    1   23 1     
    5    2    3 1     
    6    2   24 1     
    7    2   25 1     
    8    3   20 1     
    9    3    4 2     
   10    4    5 1     
   11    5    6 1     
   12    5   19 2     
   13    6    7 1     
   14    6   26 1     
   15    6   27 1     
   16    7    8 1     
   17    7   28 1     
   18    7   29 1     
   19    8    9 am    
   20    8   30 1     
   21    9   10 2     
   22    9   11 am    
   23   11   12 1     
   24   11   31 1     
   25   12   18 1     
   26   12   13 1     
   27   12   32 1     
   28   13   14 1     
   29   13   33 1     
   30   13   34 1     
   31   14   15 1     
   32   14   35 1     
   33   14   36 1     
   34   15   16 1     
   35   15   17 1     
   36   15   37 1     
   37   16   38 1     
   38   17   18 1     
   39   17   39 1     
   40   17   40 1     
   41   18   41 1     
   42   18   42 1     
   43   19   20 1     
   44   19   43 1     
   45    4   44 1     
   46   10   45 1     
   47   10   46 1     
   48   16   47 1     
   49   16   48 1     
@<TRIPOS>SUBSTRUCTURE
      1 S1             1
@<TRIPOS>SET
LONE_PAIRS      STATIC     ATOMS    <user>   **** ""
5 44 45 46 47 48
DONOR_HYDROGENS      STATIC     ATOMS    <user>   **** ""
3 30 31 38
ATOM$BLUE        STATIC     ATOMS    COLORGROUP SYSTEM
5 44 45 46 47 48
ATOM$RED        STATIC     ATOMS    COLORGROUP SYSTEM
3 30 31 38
