AV-unprocessed.smi:2061|AV-procd|sdf|8367|dock5
  -GOLD-   2272011 43D 1   1.00000     0.00000
 Structure written by MMmdl.
 46 47  0  0  0  0  0  0  0  0  2 V2000
  138.2252  137.1107  154.0468 C   0  0  0  0  0  0  0  0  0  0  0  0
  139.6923  137.3133  154.2123 C   0  0  0  0  0  0  0  0  0  0  0  0
  140.5640  138.2435  153.7200 C   0  0  0  0  0  0  0  0  0  0  0  0
  141.8074  137.8425  154.2772 C   0  0  0  0  0  0  0  0  0  0  0  0
  142.9956  138.5646  153.9984 N   0  0  0  0  0  0  0  0  0  0  0  0
  144.1564  138.5235  154.6738 C   0  0  0  0  0  0  0  0  0  0  0  0
  144.3676  137.8552  155.6860 O   0  0  0  0  0  0  0  0  0  0  0  0
  145.0826  139.3053  154.1000 N   0  0  0  0  0  0  0  0  0  0  0  0
  146.4572  139.4551  154.5694 C   0  0  0  0  0  0  0  0  0  0  0  0
  147.3667  140.2255  153.5718 C   0  0  1  0  0  0  0  0  0  0  0  0
  146.8961  141.6964  153.4504 C   0  0  0  0  0  0  0  0  0  0  0  0
  148.8099  140.0972  153.9628 N   0  3  1  0  0  0  0  0  0  0  0  0
  149.1661  140.9361  155.1399 C   0  0  0  0  0  0  0  0  0  0  0  0
  150.6710  140.8479  155.4523 C   0  0  1  0  0  0  0  0  0  0  0  0
  151.0523  141.6585  156.6960 C   0  0  0  0  0  0  0  0  0  0  0  0
  151.0124  139.4895  155.6895 O   0  0  0  0  0  0  0  0  0  0  0  0
  150.7828  138.6725  154.5501 C   0  0  1  0  0  0  0  0  0  0  0  0
  151.2688  137.2561  154.8774 C   0  0  0  0  0  0  0  0  0  0  0  0
  149.2843  138.7037  154.1913 C   0  0  0  0  0  0  0  0  0  0  0  0
  141.7045  136.7658  155.0411 N   0  0  0  0  0  0  0  0  0  0  0  0
  140.3480  136.4212  155.0036 O   0  0  0  0  0  0  0  0  0  0  0  0
  137.8011  137.8620  153.3804 H   0  0  0  0  0  0  0  0  0  0  0  0
  137.7146  137.1837  155.0071 H   0  0  0  0  0  0  0  0  0  0  0  0
  138.0155  136.1277  153.6247 H   0  0  0  0  0  0  0  0  0  0  0  0
  140.3443  139.0741  153.0659 H   0  0  0  0  0  0  0  0  0  0  0  0
  142.9631  139.1620  153.1855 H   0  0  0  0  0  0  0  0  0  0  0  0
  144.8231  139.8252  153.2744 H   0  0  0  0  0  0  0  0  0  0  0  0
  146.4281  139.9834  155.5230 H   0  0  0  0  0  0  0  0  0  0  0  0
  146.8369  138.4582  154.7878 H   0  0  0  0  0  0  0  0  0  0  0  0
  147.2597  139.7785  152.5822 H   0  0  0  0  0  0  0  0  0  0  0  0
  145.8367  141.7663  153.2053 H   0  0  0  0  0  0  0  0  0  0  0  0
  147.4120  142.2274  152.6504 H   0  0  0  0  0  0  0  0  0  0  0  0
  147.0521  142.2429  154.3812 H   0  0  0  0  0  0  0  0  0  0  0  0
  148.9166  141.9814  154.9693 H   0  0  0  0  0  0  0  0  0  0  0  0
  148.5852  140.6115  156.0051 H   0  0  0  0  0  0  0  0  0  0  0  0
  151.2469  141.2241  154.6045 H   0  0  0  0  0  0  0  0  0  0  0  0
  150.8200  142.7155  156.5628 H   0  0  0  0  0  0  0  0  0  0  0  0
  152.1199  141.5770  156.9015 H   0  0  0  0  0  0  0  0  0  0  0  0
  150.5157  141.3063  157.5777 H   0  0  0  0  0  0  0  0  0  0  0  0
  151.3684  139.0530  153.7111 H   0  0  0  0  0  0  0  0  0  0  0  0
  151.1261  136.5848  154.0302 H   0  0  0  0  0  0  0  0  0  0  0  0
  150.7296  136.8400  155.7290 H   0  0  0  0  0  0  0  0  0  0  0  0
  152.3308  137.2564  155.1248 H   0  0  0  0  0  0  0  0  0  0  0  0
  148.6933  138.2450  154.9862 H   0  0  0  0  0  0  0  0  0  0  0  0
  149.1548  138.0988  153.2945 H   0  0  0  0  0  0  0  0  0  0  0  0
  149.3462  140.4455  153.1809 H   0  0  0  0  0  0  0  0  0  0  0  0
  1  2  1  0  0  0  0
  1 22  1  0  0  0  0
  1 23  1  0  0  0  0
  1 24  1  0  0  0  0
  2 21  1  0  0  0  0
  2  3  2  0  0  0  0
  3  4  1  0  0  0  0
  3 25  1  0  0  0  0
  4  5  1  0  0  0  0
  4 20  2  0  0  0  0
  5  6  1  0  0  0  0
  5 26  1  0  0  0  0
  6  7  2  0  0  0  0
  6  8  1  0  0  0  0
  8  9  1  0  0  0  0
  8 27  1  0  0  0  0
  9 10  1  0  0  0  0
  9 28  1  0  0  0  0
  9 29  1  0  0  0  0
 10 11  1  0  0  0  0
 10 12  1  0  0  0  0
 10 30  1  0  0  0  0
 11 31  1  0  0  0  0
 11 32  1  0  0  0  0
 11 33  1  0  0  0  0
 12 19  1  0  0  0  0
 12 13  1  0  0  0  0
 12 46  1  0  0  0  0
 13 14  1  0  0  0  0
 13 34  1  0  0  0  0
 13 35  1  0  0  0  0
 14 15  1  0  0  0  0
 14 16  1  0  0  0  0
 14 36  1  0  0  0  0
 15 37  1  0  0  0  0
 15 38  1  0  0  0  0
 15 39  1  0  0  0  0
 16 17  1  0  0  0  0
 17 18  1  0  0  0  0
 17 19  1  0  0  0  0
 17 40  1  0  0  0  0
 18 41  1  0  0  0  0
 18 42  1  0  0  0  0
 18 43  1  0  0  0  0
 19 44  1  0  0  0  0
 19 45  1  0  0  0  0
 20 21  1  0  0  0  0
M  CHG  1  12   1
M  END
> <s_m_source_file>
AV-unprocessed.smi

> <i_m_source_file_index>
2061

> <i_lp_mmshare_version>
43012

> <i_f3d_flags>
0

> <s_epik_input>
W0NIM11jMVtjSF1jKG5vMSlbTkhdQyg9TylbTkhdW0NIMl1bQ0BIXShbQ0gzXSlOMltDSDJdW0NAQEhdKFtDSDNdKU9bQ0BASF0oW0NIM10pW0NIMl0y

> <s_epik_cmdline>
J2VwaWtfcHl0aG9uJywgJy1waCcsICc3LjAnLCAnLXRuJywgJzgnLCAnLW1hJywgJzIwMCcsICctbWV0YWxfYmluZGluZycsICctaW1hZScsICc8aW5maWxlLm1hZT4nLCAnLW9tYWUnLCAnPG91dGZpbGUubWFlPic=

> <r_epik_Ionization_Penalty>
0.707076

> <r_epik_Ionization_Penalty_Charging>
0.707039

> <r_epik_Ionization_Penalty_Neutral>
3.6548e-05

> <r_epik_State_Penalty>
0.730276

> <r_epik_Charging_Adjusted_Penalty>
1.43732

> <i_epik_Tot_Q>
1

> <i_epik_Tot_abs_Q>
1

> <r_epik_Metal_State_Penalty>
0.743132

> <b_epik_Metal_Only>
0

> <s_lp_Force_Field>
OPLS_2005

> <r_lp_Energy>
16.4142

> <b_lp_Chiralities_Consistent>
1

> <s_lp_Variant>
AV-unprocessed.smi:2061-8

> <Gold.Version>
5.8.1

> <Gold.Id.Protein>
6NUR|6NUR_protein|mol2

> <Gold.PLP.Fitness>
42.6488

> <Gold.PLP.PLP>
-33.0446

> <Gold.PLP.part.hbond>
-3.5631

> <Gold.PLP.part.metal>
0.0000

> <Gold.PLP.part.buried>
-3.4936

> <Gold.PLP.part.nonpolar>
-26.1733

> <Gold.PLP.part.repulsive>
0.2234

> <Gold.PLP.ligand.clash>
0.0000

> <Gold.PLP.ligand.torsion>
0.2657

> <Gold.PLP.Chemscore.Hbond>
3.3620

> <Gold.PLP.Chemscore.CHOScore>
0.0000

> <Gold.PLP.Chemscore.Metal>
0.0000

> <Gold.Chemscore.Hbonds>
donor molecule, donor type, donor heavy atom, donor atom, acceptor molecule, acceptor atom, score
      L1  H     5    26       P1 10175  0.90
      L1  H     8    27       P1 10175  0.93
      L1  H    12    46       P1  7957  0.70
      P1  H 11000 11005       L1    21  0.86

> <Gold.PLP.Chemscore.Internal.Correction>
0.0498

> <Gold.Rescore>
     Score         DG    S(hbond)    S(metal)    S(lipo)     H(rot)  DE(clash)    DE(int)     intcor
     20.12     -22.29       3.51        0.00      78.01       1.58       0.63       1.53       ----

> <Gold.Chemscore.Fitness>
20.1237

> <Gold.Chemscore.DG>
-22.2874

> <Gold.Chemscore.ZeroCoef>
-5.4800

> <Gold.Chemscore.Hbond>
3.5130

> <Gold.Chemscore.Metal>
0.0000

> <Gold.Chemscore.Lipo>
78.0120

> <Gold.Chemscore.Internal_Hbond>
0.0000

> <Gold.Chemscore.DEClash>
0.6307

> <Gold.Chemscore.DEInternal>
1.5330

> <Gold.Chemscore.Rot>
1.5834

> <Gold.Chemscore.Internal.Correction>
   9.000000E+99

> <Gold.Chemscore.Hbonds>
donor molecule, donor type, donor heavy atom, donor atom, acceptor molecule, acceptor atom, score
      L1  H     5    26       P1 10175  0.87
      L1  H     8    27       P1 10175  0.85
      L1  H    12    46       P1  7957  0.66
      P1  H 11000 11005       L1    21  0.69

> <Gold.Chemscore.Hbond.Weighted>
-11.7335

> <Gold.Chemscore.Metal.Weighted>
-0.0000

> <Gold.Chemscore.Lipo.Weighted>
-9.1274

> <Gold.Chemscore.Internal_Hbond.Weighted>
0.0000

> <Gold.Chemscore.DEClash.Weighted>
0.6307

> <Gold.Chemscore.DEInternal.Weighted>
1.5330

> <Gold.Chemscore.Rot.Weighted>
4.0535

> <Gold.Chemscore.Internal.Correction.Weighted>
   9.000000E+99

> <Gold.Protein.RotatedTorsions>
[ 6907 6896 6895 6894 ] final -100.43 input  -60.11 | X-H torsion
[ 7974 7965 7964 7962 ] final -156.16 input  175.53 | X-H torsion
[ 8008 7997 7996 7995 ] final   47.15 input   59.86 | X-H torsion
[ 10167 10162 10161 10158 ] final  -34.76 input  -65.29 | X-H torsion
[ 10718 10713 10712 10709 ] final -104.79 input   66.30 | X-H torsion
[ 10763 10752 10751 10750 ] final   99.45 input  -60.55 | X-H torsion
[ 11005 11000 10999 10996 ] final   66.47 input  -57.11 | X-H torsion

> <Gold.Protein.ActiveResidues>
 VAL166  LYS551  ARG553  GLY616  TRP617  ASP618  TYR619  PRO620  LYS621  CYS622 
 ASP623  PHE694  ASN695  SER759  ASP760  ASP761  ALA762  ILE779  LEU786  VAL792 
 PHE793  MET794  SER795  GLU796  ALA797  LYS798  CYS799  TRP800  GLU811  SER814 

> <Gold.Protein.RotatedAtoms>
  150.7116  134.0888  159.3923 H   0  0  0  0  0  0  0  0  0  0  0  0  # atno 6907 bound_to 6896
  151.8873  135.0428  160.0504 H   0  0  0  0  0  0  0  0  0  0  0  0  # atno 6908 bound_to 6896
  152.2520  133.5187  159.5367 H   0  0  0  0  0  0  0  0  0  0  0  0  # atno 6909 bound_to 6896
  144.7606  140.4149  143.5979 H   0  0  0  0  0  0  0  0  0  0  0  0  # atno 7974 bound_to 7965
  155.3644  140.3420  155.4241 H   0  0  0  0  0  0  0  0  0  0  0  0  # atno 8008 bound_to 7997
  156.1696  140.1627  156.8504 H   0  0  0  0  0  0  0  0  0  0  0  0  # atno 8009 bound_to 7997
  154.5220  140.0765  156.8172 H   0  0  0  0  0  0  0  0  0  0  0  0  # atno 8010 bound_to 7997
  140.7179  143.3525  151.2126 H   0  0  0  0  0  0  0  0  0  0  0  0  # atno 10167 bound_to 10162
  156.0319  130.5532  150.7447 H   0  0  0  0  0  0  0  0  0  0  0  0  # atno 10718 bound_to 10713
  153.3016  135.4113  155.1258 H   0  0  0  0  0  0  0  0  0  0  0  0  # atno 10763 bound_to 10752
  154.8551  135.3543  154.5844 H   0  0  0  0  0  0  0  0  0  0  0  0  # atno 10764 bound_to 10752
  153.6269  135.7062  153.5348 H   0  0  0  0  0  0  0  0  0  0  0  0  # atno 10765 bound_to 10752
  139.9830  134.6713  156.0227 H   0  0  0  0  0  0  0  0  0  0  0  0  # atno 11005 bound_to 11000
  145.6632  139.1585  143.2796 LP  0  0  0  0  0  0  0  0  0  0  0  0  # atno 17320 bound_to 7965
  146.1665  140.6711  142.9253 LP  0  0  0  0  0  0  0  0  0  0  0  0  # atno 17321 bound_to 7965
  139.7059  143.9456  152.2926 LP  0  0  0  0  0  0  0  0  0  0  0  0  # atno 17342 bound_to 10162
  139.9165  144.6825  150.8507 LP  0  0  0  0  0  0  0  0  0  0  0  0  # atno 17343 bound_to 10162
  157.5007  131.0918  151.0318 LP  0  0  0  0  0  0  0  0  0  0  0  0  # atno 17370 bound_to 10713
  157.0699  130.5860  149.5401 LP  0  0  0  0  0  0  0  0  0  0  0  0  # atno 17371 bound_to 10713
  141.1499  133.6550  156.3982 LP  0  0  0  0  0  0  0  0  0  0  0  0  # atno 17394 bound_to 11000
  140.5058  134.6442  157.5266 LP  0  0  0  0  0  0  0  0  0  0  0  0  # atno 17395 bound_to 11000

$$$$
