#       Name:                AV-unprocessed.smi:3266
#       Creating user name   scv26
#       Creation time:       Fri Mar 27 18:40:36 2020


#       File generated by GOLD software.
#

@<TRIPOS>MOLECULE
AV-unprocessed.smi:3266
    43    44     1
SMALL
NO_CHARGES


@<TRIPOS>ATOM
      1 ****        -1.7160   1.6218  -0.2285 O.2            1 S1                 0.0000
      2 ****        -1.0603   0.5921  -0.3896 C.2            1 S1                 0.0000
      3 ****         0.4645   0.6587  -0.5043 C.3            1 S1                 0.0000
      4 ****         0.9288   1.7327  -1.5037 C.3            1 S1                 0.0000
      5 ****         2.4545   1.7645  -1.6731 C.3            1 S1                 0.0000
      6 ****         2.9392   2.7737  -2.7093 C.3            1 S1                 0.0000
      7 ****         4.3828   3.0084  -2.3016 C.3            1 S1                 0.0000
      8 ****         4.4174   2.6141  -0.8209 C.3            1 S1                 0.0000
      9 ****         3.0901   2.2219  -0.4899 O.3            1 S1                 0.0000
     10 ****        -1.6141  -0.6274  -0.4693 N.am           1 S1                 0.0000
     11 ****        -3.0442  -0.9042  -0.3738 C.3            1 S1                 0.0000
     12 ****        -3.5518  -0.9482   1.0811 C.3            1 S1                 0.0000
     13 ****        -2.8733  -2.0075   1.9346 C.ar           1 S1                 0.0000
     14 ****        -3.4371  -3.2957   2.0558 C.ar           1 S1                 0.0000
     15 ****        -2.7713  -4.2490   2.8503 C.ar           1 S1                 0.0000
     16 ****        -1.5718  -3.8804   3.4891 C.ar           1 S1                 0.0000
     17 ****        -1.0906  -2.5687   3.3053 C.ar           1 S1                 0.0000
     18 ****        -1.7217  -1.6473   2.5462 N.ar           1 S1                 0.0000
     19 ****         0.8733   0.8671   0.4852 H              1 S1                 0.0000
     20 ****         0.8539  -0.3157  -0.8033 H              1 S1                 0.0000
     21 ****         0.4701   1.5405  -2.4748 H              1 S1                 0.0000
     22 ****         0.5791   2.7168  -1.1875 H              1 S1                 0.0000
     23 ****         2.8335   0.7713  -1.9208 H              1 S1                 0.0000
     24 ****         2.8387   2.4123  -3.7332 H              1 S1                 0.0000
     25 ****         2.3769   3.7045  -2.6213 H              1 S1                 0.0000
     26 ****         5.0537   2.3692  -2.8767 H              1 S1                 0.0000
     27 ****         4.6845   4.0437  -2.4630 H              1 S1                 0.0000
     28 ****         5.0960   1.7751  -0.6621 H              1 S1                 0.0000
     29 ****         4.7393   3.4368  -0.1820 H              1 S1                 0.0000
     30 ****        -1.0019  -1.4204  -0.5950 H              1 S1                 0.0000
     31 ****        -3.6049  -0.1608  -0.9428 H              1 S1                 0.0000
     32 ****        -3.2334  -1.8632  -0.8568 H              1 S1                 0.0000
     33 ****        -3.4176   0.0271   1.5511 H              1 S1                 0.0000
     34 ****        -4.6266  -1.1326   1.0823 H              1 S1                 0.0000
     35 ****        -4.3579  -3.5493   1.5513 H              1 S1                 0.0000
     36 ****        -3.1730  -5.2447   2.9664 H              1 S1                 0.0000
     37 ****        -1.0336  -4.5854   4.1050 H              1 S1                 0.0000
     38 ****        -0.1742  -2.2514   3.7805 H              1 S1                 0.0000
     39 ****        -1.2525   2.5061  -0.1721 LP             1 S1                 0.0000
     40 ****        -2.7121   1.5738  -0.1541 LP             1 S1                 0.0000
     41 ****         3.1134   1.4868   0.1876 LP             1 S1                 0.0000
     42 ****         2.5893   3.0031  -0.1171 LP             1 S1                 0.0000
     43 ****        -1.3487  -0.7257   2.4393 LP             1 S1                 0.0000
@<TRIPOS>BOND
    1    1    2 2     
    2    2    3 1     
    3    2   10 am    
    4    3    4 1     
    5    3   19 1     
    6    3   20 1     
    7    4    5 1     
    8    4   21 1     
    9    4   22 1     
   10    5    9 1     
   11    5    6 1     
   12    5   23 1     
   13    6    7 1     
   14    6   24 1     
   15    6   25 1     
   16    7    8 1     
   17    7   26 1     
   18    7   27 1     
   19    8    9 1     
   20    8   28 1     
   21    8   29 1     
   22   10   11 1     
   23   10   30 1     
   24   11   12 1     
   25   11   31 1     
   26   11   32 1     
   27   12   13 1     
   28   12   33 1     
   29   12   34 1     
   30   13   18 ar    
   31   13   14 ar    
   32   14   15 ar    
   33   14   35 1     
   34   15   16 ar    
   35   15   36 1     
   36   16   17 ar    
   37   16   37 1     
   38   17   18 ar    
   39   17   38 1     
   40    1   39 1     
   41    1   40 1     
   42    9   41 1     
   43    9   42 1     
   44   18   43 1     
@<TRIPOS>SUBSTRUCTURE
      1 S1             1
@<TRIPOS>SET
LONE_PAIRS      STATIC     ATOMS    <user>   **** ""
5 39 40 41 42 43
DONOR_HYDROGENS      STATIC     ATOMS    <user>   **** ""
1 30
ATOM$BLUE        STATIC     ATOMS    COLORGROUP SYSTEM
5 39 40 41 42 43
ATOM$RED        STATIC     ATOMS    COLORGROUP SYSTEM
1 30
