AV-unprocessed.smi:954|AV-procd|sdf|4258|dock8
  -GOLD-   22720 2163D 1   1.00000     0.00000
 Structure written by MMmdl.
 24 24  0  0  0  0  0  0  0  0  1 V2000
  152.8791  142.4025  161.2101 C   0  0  0  0  0  0  0  0  0  0  0  0
  153.4123  141.9723  159.8373 C   0  0  0  0  0  0  0  0  0  0  0  0
  152.3686  142.0102  158.8193 N   0  0  0  0  0  0  0  0  0  0  0  0
  152.1073  141.0270  157.9445 C   0  0  0  0  0  0  0  0  0  0  0  0
  152.7399  139.9698  157.9134 O   0  0  0  0  0  0  0  0  0  0  0  0
  150.9546  141.2950  156.9681 C   0  0  0  0  0  0  0  0  0  0  0  0
  150.5686  140.1163  156.2090 N   0  0  0  0  0  0  0  0  0  0  0  0
  150.3601  138.8301  156.6710 C   0  0  0  0  0  0  0  0  0  0  0  0
  150.0191  138.0572  155.5974 C   0  0  0  0  0  0  0  0  0  0  0  0
  150.0479  138.9821  154.5191 C   0  0  0  0  0  0  0  0  0  0  0  0
  149.7605  138.6280  153.2037 N   0  0  0  0  0  0  0  0  0  0  0  0
  150.3719  140.2118  154.8743 N   0  0  0  0  0  0  0  0  0  0  0  0
  153.6644  142.3471  161.9642 H   0  0  0  0  0  0  0  0  0  0  0  0
  152.0607  141.7597  161.5351 H   0  0  0  0  0  0  0  0  0  0  0  0
  152.5128  143.4294  161.1906 H   0  0  0  0  0  0  0  0  0  0  0  0
  154.2530  142.6020  159.5416 H   0  0  0  0  0  0  0  0  0  0  0  0
  153.7946  140.9530  159.8951 H   0  0  0  0  0  0  0  0  0  0  0  0
  151.8030  142.8457  158.7770 H   0  0  0  0  0  0  0  0  0  0  0  0
  150.0841  141.6467  157.5231 H   0  0  0  0  0  0  0  0  0  0  0  0
  151.2399  142.0905  156.2779 H   0  0  0  0  0  0  0  0  0  0  0  0
  150.4751  138.5753  157.7142 H   0  0  0  0  0  0  0  0  0  0  0  0
  149.7892  137.0020  155.5878 H   0  0  0  0  0  0  0  0  0  0  0  0
  149.5145  137.6812  152.9530 H   0  0  0  0  0  0  0  0  0  0  0  0
  149.8191  139.3020  152.4540 H   0  0  0  0  0  0  0  0  0  0  0  0
  1  2  1  0  0  0  0
  1 13  1  0  0  0  0
  1 14  1  0  0  0  0
  1 15  1  0  0  0  0
  2  3  1  0  0  0  0
  2 16  1  0  0  0  0
  2 17  1  0  0  0  0
  3  4  1  0  0  0  0
  3 18  1  0  0  0  0
  4  5  2  0  0  0  0
  4  6  1  0  0  0  0
  6  7  1  0  0  0  0
  6 19  1  0  0  0  0
  6 20  1  0  0  0  0
  7 12  1  0  0  0  0
  7  8  1  0  0  0  0
  8  9  2  0  0  0  0
  8 21  1  0  0  0  0
  9 10  1  0  0  0  0
  9 22  1  0  0  0  0
 10 11  1  0  0  0  0
 10 12  2  0  0  0  0
 11 23  1  0  0  0  0
 11 24  1  0  0  0  0
M  END
> <s_m_source_file>
AV-unprocessed.smi

> <i_m_source_file_index>
954

> <i_lp_mmshare_version>
43012

> <i_f3d_flags>
0

> <s_epik_input>
W0NIM11bQ0gyXVtOSF1DKD1PKVtDSDJdbjFbY0hdW2NIXWMobjEpW05IMl0=

> <s_epik_cmdline>
J2VwaWtfcHl0aG9uJywgJy1waCcsICc3LjAnLCAnLXRuJywgJzgnLCAnLW1hJywgJzIwMCcsICctbWV0YWxfYmluZGluZycsICctaW1hZScsICc8aW5maWxlLm1hZT4nLCAnLW9tYWUnLCAnPG91dGZpbGUubWFlPic=

> <r_lp_tautomer_probability>
1

> <r_epik_Ionization_Penalty>
0.000257536

> <r_epik_Ionization_Penalty_Charging>
0

> <r_epik_Ionization_Penalty_Neutral>
0.000257536

> <r_epik_State_Penalty>
-0

> <r_epik_Charging_Adjusted_Penalty>
0

> <i_epik_Tot_Q>
0

> <i_epik_Tot_abs_Q>
0

> <r_epik_Metal_State_Penalty>
-0

> <b_epik_Metal_Only>
0

> <s_lp_Force_Field>
OPLS_2005

> <r_lp_Energy>
1.8316

> <b_lp_Chiralities_Consistent>
1

> <s_lp_Variant>
AV-unprocessed.smi:954-1

> <Gold.Version>
5.8.1

> <Gold.Id.Protein>
6NUR|6NUR_protein|mol2

> <Gold.PLP.Fitness>
33.3135

> <Gold.PLP.PLP>
-21.9771

> <Gold.PLP.part.hbond>
-3.9173

> <Gold.PLP.part.metal>
0.0000

> <Gold.PLP.part.buried>
-2.9462

> <Gold.PLP.part.nonpolar>
-14.6067

> <Gold.PLP.part.repulsive>
0.2567

> <Gold.PLP.ligand.clash>
0.0000

> <Gold.PLP.ligand.torsion>
0.3319

> <Gold.PLP.Chemscore.Hbond>
4.0000

> <Gold.PLP.Chemscore.CHOScore>
0.0000

> <Gold.PLP.Chemscore.Metal>
0.0000

> <Gold.Chemscore.Hbonds>
donor molecule, donor type, donor heavy atom, donor atom, acceptor molecule, acceptor atom, score
      L1  H    11    23       P1  7948  1.00
      L1  H    11    24       P1  7957  0.91
      P1  H  7989  7998       L1    12  1.00
      P1  H  7997  8010       L1     5  1.00

> <Gold.PLP.Chemscore.Internal.Correction>
0.0002

> <Gold.Rescore>
     Score         DG    S(hbond)    S(metal)    S(lipo)     H(rot)  DE(clash)    DE(int)     intcor
     15.37     -16.96       3.59        0.00      34.19       1.77       0.01       1.58       ----

> <Gold.Chemscore.Fitness>
15.3659

> <Gold.Chemscore.DG>
-16.9589

> <Gold.Chemscore.ZeroCoef>
-5.4800

> <Gold.Chemscore.Hbond>
3.5931

> <Gold.Chemscore.Metal>
0.0000

> <Gold.Chemscore.Lipo>
34.1855

> <Gold.Chemscore.Internal_Hbond>
0.0000

> <Gold.Chemscore.DEClash>
0.0086

> <Gold.Chemscore.DEInternal>
1.5844

> <Gold.Chemscore.Rot>
1.7664

> <Gold.Chemscore.Internal.Correction>
   9.000000E+99

> <Gold.Chemscore.Hbonds>
donor molecule, donor type, donor heavy atom, donor atom, acceptor molecule, acceptor atom, score
      L1  H    11    23       P1  7948  0.81
      L1  H    11    24       P1  7957  0.79
      P1  H  7989  7998       L1    12  0.53
      P1  H  7997  8010       L1     5  0.83

> <Gold.Chemscore.Hbond.Weighted>
-12.0011

> <Gold.Chemscore.Metal.Weighted>
-0.0000

> <Gold.Chemscore.Lipo.Weighted>
-3.9997

> <Gold.Chemscore.Internal_Hbond.Weighted>
0.0000

> <Gold.Chemscore.DEClash.Weighted>
0.0086

> <Gold.Chemscore.DEInternal.Weighted>
1.5844

> <Gold.Chemscore.Rot.Weighted>
4.5219

> <Gold.Chemscore.Internal.Correction.Weighted>
   9.000000E+99

> <Gold.Protein.RotatedTorsions>
[ 6907 6896 6895 6894 ] final -139.02 input  -60.11 | X-H torsion
[ 7974 7965 7964 7962 ] final  129.10 input  175.53 | X-H torsion
[ 8008 7997 7996 7995 ] final   42.10 input   59.86 | X-H torsion
[ 10167 10162 10161 10158 ] final  107.33 input  -65.29 | X-H torsion
[ 10718 10713 10712 10709 ] final   53.63 input   66.30 | X-H torsion
[ 10763 10752 10751 10750 ] final -152.95 input  -60.55 | X-H torsion
[ 11005 11000 10999 10996 ] final -117.20 input  -57.11 | X-H torsion

> <Gold.Protein.ActiveResidues>
 VAL166  LYS551  ARG553  GLY616  TRP617  ASP618  TYR619  PRO620  LYS621  CYS622 
 ASP623  PHE694  ASN695  SER759  ASP760  ASP761  ALA762  ILE779  LEU786  VAL792 
 PHE793  MET794  SER795  GLU796  ALA797  LYS798  CYS799  TRP800  GLU811  SER814 

> <Gold.Protein.RotatedAtoms>
  151.0425  133.5694  159.2649 H   0  0  0  0  0  0  0  0  0  0  0  0  # atno 6907 bound_to 6896
  151.2735  135.0691  159.9153 H   0  0  0  0  0  0  0  0  0  0  0  0  # atno 6908 bound_to 6896
  152.5367  134.0151  159.8010 H   0  0  0  0  0  0  0  0  0  0  0  0  # atno 6909 bound_to 6896
  145.0323  139.4035  143.5143 H   0  0  0  0  0  0  0  0  0  0  0  0  # atno 7974 bound_to 7965
  155.2805  140.3372  155.4258 H   0  0  0  0  0  0  0  0  0  0  0  0  # atno 8008 bound_to 7997
  156.2092  140.1763  156.7774 H   0  0  0  0  0  0  0  0  0  0  0  0  # atno 8009 bound_to 7997
  154.5662  140.0678  156.8880 H   0  0  0  0  0  0  0  0  0  0  0  0  # atno 8010 bound_to 7997
  139.6936  144.7104  151.1306 H   0  0  0  0  0  0  0  0  0  0  0  0  # atno 10167 bound_to 10162
  157.5184  130.8548  149.8526 H   0  0  0  0  0  0  0  0  0  0  0  0  # atno 10718 bound_to 10713
  154.7960  135.3224  154.7665 H   0  0  0  0  0  0  0  0  0  0  0  0  # atno 10763 bound_to 10752
  153.8343  135.6876  153.4815 H   0  0  0  0  0  0  0  0  0  0  0  0  # atno 10764 bound_to 10752
  153.1652  135.4645  154.9769 H   0  0  0  0  0  0  0  0  0  0  0  0  # atno 10765 bound_to 10752
  141.0370  133.9894  157.3054 H   0  0  0  0  0  0  0  0  0  0  0  0  # atno 11005 bound_to 11000
  146.3500  139.9880  142.8688 LP  0  0  0  0  0  0  0  0  0  0  0  0  # atno 17320 bound_to 7965
  145.1754  140.9741  143.4297 LP  0  0  0  0  0  0  0  0  0  0  0  0  # atno 17321 bound_to 7965
  140.7690  143.5524  150.9190 LP  0  0  0  0  0  0  0  0  0  0  0  0  # atno 17342 bound_to 10162
  139.9202  143.6615  152.3098 LP  0  0  0  0  0  0  0  0  0  0  0  0  # atno 17343 bound_to 10162
  156.0336  130.3757  150.1620 LP  0  0  0  0  0  0  0  0  0  0  0  0  # atno 17370 bound_to 10713
  156.9808  130.9863  151.3438 LP  0  0  0  0  0  0  0  0  0  0  0  0  # atno 17371 bound_to 10713
  139.9248  135.0201  156.8195 LP  0  0  0  0  0  0  0  0  0  0  0  0  # atno 17394 bound_to 11000
  140.6303  133.9912  155.7659 LP  0  0  0  0  0  0  0  0  0  0  0  0  # atno 17395 bound_to 11000

$$$$
