AV-unprocessed.smi:1436|AV-procd|sdf|5862|dock2
  -GOLD-   22720 5533D 1   1.00000     0.00000
 Structure written by MMmdl.
 44 45  0  0  0  0  0  0  0  0  2 V2000
  149.7830  138.8972  154.0462 C   0  0  0  0  0  0  0  0  0  0  0  0
  150.8352  139.0718  155.1035 C   0  0  0  0  0  0  0  0  0  0  0  0
  151.7041  140.0636  155.0063 N   0  0  0  0  0  0  0  0  0  0  0  0
  152.5280  139.9636  156.1313 O   0  0  0  0  0  0  0  0  0  0  0  0
  152.1142  138.9062  156.8741 C   0  0  0  0  0  0  0  0  0  0  0  0
  152.8590  138.6423  158.1386 C   0  0  0  0  0  0  0  0  0  0  0  0
  151.0446  138.2955  156.2792 C   0  0  0  0  0  0  0  0  0  0  0  0
  150.2539  137.1036  156.7541 C   0  0  0  0  0  0  0  0  0  0  0  0
  150.1657  136.0963  155.6112 C   0  0  0  0  0  0  0  0  0  0  0  0
  151.1286  135.9285  154.8639 O   0  0  0  0  0  0  0  0  0  0  0  0
  148.9819  135.4829  155.4543 N   0  0  0  0  0  0  0  0  0  0  0  0
  148.5941  134.6462  154.3196 C   0  0  1  0  0  0  0  0  0  0  0  0
  148.9842  133.1888  154.6000 C   0  0  0  0  0  0  0  0  0  0  0  0
  147.0809  134.7909  154.0377 C   0  0  0  0  0  0  0  0  0  0  0  0
  146.7370  134.6647  152.5971 N   0  3  0  0  0  0  0  0  0  0  0  0
  146.7825  133.2707  152.0937 C   0  0  0  0  0  0  0  0  0  0  0  0
  146.4907  133.2433  150.5846 C   0  0  0  0  0  0  0  0  0  0  0  0
  145.2185  133.8297  150.3388 O   0  0  0  0  0  0  0  0  0  0  0  0
  145.1723  135.1920  150.7452 C   0  0  0  0  0  0  0  0  0  0  0  0
  145.4400  135.2955  152.2568 C   0  0  0  0  0  0  0  0  0  0  0  0
  148.7874  139.0636  154.4579 H   0  0  0  0  0  0  0  0  0  0  0  0
  149.8074  137.8877  153.6355 H   0  0  0  0  0  0  0  0  0  0  0  0
  149.9197  139.5945  153.2186 H   0  0  0  0  0  0  0  0  0  0  0  0
  152.2183  138.8090  159.0046 H   0  0  0  0  0  0  0  0  0  0  0  0
  153.7255  139.2979  158.2292 H   0  0  0  0  0  0  0  0  0  0  0  0
  153.2122  137.6114  158.1708 H   0  0  0  0  0  0  0  0  0  0  0  0
  150.7239  136.6286  157.6161 H   0  0  0  0  0  0  0  0  0  0  0  0
  149.2491  137.3865  157.0714 H   0  0  0  0  0  0  0  0  0  0  0  0
  148.2637  135.6751  156.1381 H   0  0  0  0  0  0  0  0  0  0  0  0
  149.1430  134.9534  153.4284 H   0  0  0  0  0  0  0  0  0  0  0  0
  148.7240  132.5454  153.7590 H   0  0  0  0  0  0  0  0  0  0  0  0
  148.4767  132.8020  155.4845 H   0  0  0  0  0  0  0  0  0  0  0  0
  150.0584  133.0952  154.7648 H   0  0  0  0  0  0  0  0  0  0  0  0
  146.5069  134.0705  154.6222 H   0  0  0  0  0  0  0  0  0  0  0  0
  146.7683  135.7787  154.3806 H   0  0  0  0  0  0  0  0  0  0  0  0
  147.7603  132.8280  152.2793 H   0  0  0  0  0  0  0  0  0  0  0  0
  146.0508  132.6626  152.6275 H   0  0  0  0  0  0  0  0  0  0  0  0
  147.2654  133.7729  150.0276 H   0  0  0  0  0  0  0  0  0  0  0  0
  146.4827  132.2157  150.2214 H   0  0  0  0  0  0  0  0  0  0  0  0
  145.8997  135.7748  150.1806 H   0  0  0  0  0  0  0  0  0  0  0  0
  144.1887  135.5983  150.5090 H   0  0  0  0  0  0  0  0  0  0  0  0
  144.6385  134.8078  152.8140 H   0  0  0  0  0  0  0  0  0  0  0  0
  145.4477  136.3448  152.5541 H   0  0  0  0  0  0  0  0  0  0  0  0
  147.4422  135.1808  152.0902 H   0  0  0  0  0  0  0  0  0  0  0  0
  1  2  1  0  0  0  0
  1 21  1  0  0  0  0
  1 22  1  0  0  0  0
  1 23  1  0  0  0  0
  2  7  1  0  0  0  0
  2  3  2  0  0  0  0
  3  4  1  0  0  0  0
  4  5  1  0  0  0  0
  5  6  1  0  0  0  0
  5  7  2  0  0  0  0
  6 24  1  0  0  0  0
  6 25  1  0  0  0  0
  6 26  1  0  0  0  0
  7  8  1  0  0  0  0
  8  9  1  0  0  0  0
  8 27  1  0  0  0  0
  8 28  1  0  0  0  0
  9 10  2  0  0  0  0
  9 11  1  0  0  0  0
 11 12  1  0  0  0  0
 11 29  1  0  0  0  0
 12 13  1  0  0  0  0
 12 14  1  0  0  0  0
 12 30  1  0  0  0  0
 13 31  1  0  0  0  0
 13 32  1  0  0  0  0
 13 33  1  0  0  0  0
 14 15  1  0  0  0  0
 14 34  1  0  0  0  0
 14 35  1  0  0  0  0
 15 20  1  0  0  0  0
 15 16  1  0  0  0  0
 15 44  1  0  0  0  0
 16 17  1  0  0  0  0
 16 36  1  0  0  0  0
 16 37  1  0  0  0  0
 17 18  1  0  0  0  0
 17 38  1  0  0  0  0
 17 39  1  0  0  0  0
 18 19  1  0  0  0  0
 19 20  1  0  0  0  0
 19 40  1  0  0  0  0
 19 41  1  0  0  0  0
 20 42  1  0  0  0  0
 20 43  1  0  0  0  0
M  CHG  1  15   1
M  END
> <s_m_source_file>
AV-unprocessed.smi

> <i_m_source_file_index>
1436

> <i_lp_mmshare_version>
43012

> <i_f3d_flags>
0

> <s_epik_input>
W0NIM11jMW5vYyhbQ0gzXSljMVtDSDJdQyg9TylbTkhdW0NASF0oW0NIM10pW0NIMl1OMltDSDJdW0NIMl1PW0NIMl1bQ0gyXTI=

> <s_epik_cmdline>
J2VwaWtfcHl0aG9uJywgJy1waCcsICc3LjAnLCAnLXRuJywgJzgnLCAnLW1hJywgJzIwMCcsICctbWV0YWxfYmluZGluZycsICctaW1hZScsICc8aW5maWxlLm1hZT4nLCAnLW9tYWUnLCAnPG91dGZpbGUubWFlPic=

> <r_epik_Ionization_Penalty>
0.663207

> <r_epik_Ionization_Penalty_Charging>
0.663207

> <r_epik_Ionization_Penalty_Neutral>
1.07515e-07

> <r_epik_State_Penalty>
0.682743

> <r_epik_Charging_Adjusted_Penalty>
1.34595

> <i_epik_Tot_Q>
1

> <i_epik_Tot_abs_Q>
1

> <r_epik_Metal_State_Penalty>
0.682743

> <b_epik_Metal_Only>
0

> <s_lp_Force_Field>
OPLS_2005

> <r_lp_Energy>
13.3676

> <b_lp_Chiralities_Consistent>
1

> <s_lp_Variant>
AV-unprocessed.smi:1436-4

> <Gold.Version>
5.8.1

> <Gold.Id.Protein>
6NUR|6NUR_protein|mol2

> <Gold.PLP.Fitness>
39.7407

> <Gold.PLP.PLP>
-27.3234

> <Gold.PLP.part.hbond>
-4.0000

> <Gold.PLP.part.metal>
0.0000

> <Gold.PLP.part.buried>
-2.2835

> <Gold.PLP.part.nonpolar>
-21.2693

> <Gold.PLP.part.repulsive>
0.3663

> <Gold.PLP.ligand.clash>
0.0000

> <Gold.PLP.ligand.torsion>
1.3105

> <Gold.PLP.Chemscore.Hbond>
5.0000

> <Gold.PLP.Chemscore.CHOScore>
0.0000

> <Gold.PLP.Chemscore.Metal>
0.0000

> <Gold.Chemscore.Hbonds>
donor molecule, donor type, donor heavy atom, donor atom, acceptor molecule, acceptor atom, score
      L1  H    15    44       P1  7948  2.00
      P1  H  7989  7998       L1     3  0.99
      P1  H  7997  8008       L1     4  1.00
      P1  H 10752 10763       L1    10  1.00

> <Gold.PLP.Chemscore.Internal.Correction>
0.0382

> <Gold.Rescore>
     Score         DG    S(hbond)    S(metal)    S(lipo)     H(rot)  DE(clash)    DE(int)     intcor
     19.54     -21.25       3.76        0.00      66.70       1.79       0.15       1.57       ----

> <Gold.Chemscore.Fitness>
19.5384

> <Gold.Chemscore.DG>
-21.2521

> <Gold.Chemscore.ZeroCoef>
-5.4800

> <Gold.Chemscore.Hbond>
3.7606

> <Gold.Chemscore.Metal>
0.0000

> <Gold.Chemscore.Lipo>
66.6957

> <Gold.Chemscore.Internal_Hbond>
0.0000

> <Gold.Chemscore.DEClash>
0.1463

> <Gold.Chemscore.DEInternal>
1.5673

> <Gold.Chemscore.Rot>
1.7936

> <Gold.Chemscore.Internal.Correction>
   9.000000E+99

> <Gold.Chemscore.Hbonds>
donor molecule, donor type, donor heavy atom, donor atom, acceptor molecule, acceptor atom, score
      L1  H    15    44       P1  7948  0.98
      P1  H  7989  7998       L1     3  0.82
      P1  H  7997  8008       L1     4  0.70
      P1  H 10752 10763       L1    10  0.99

> <Gold.Chemscore.Hbond.Weighted>
-12.5603

> <Gold.Chemscore.Metal.Weighted>
-0.0000

> <Gold.Chemscore.Lipo.Weighted>
-7.8034

> <Gold.Chemscore.Internal_Hbond.Weighted>
0.0000

> <Gold.Chemscore.DEClash.Weighted>
0.1463

> <Gold.Chemscore.DEInternal.Weighted>
1.5673

> <Gold.Chemscore.Rot.Weighted>
4.5916

> <Gold.Chemscore.Internal.Correction.Weighted>
   9.000000E+99

> <Gold.Protein.RotatedTorsions>
[ 6907 6896 6895 6894 ] final  -19.93 input  -60.11 | X-H torsion
[ 7974 7965 7964 7962 ] final -137.31 input  175.53 | X-H torsion
[ 8008 7997 7996 7995 ] final  -41.81 input   59.86 | X-H torsion
[ 10167 10162 10161 10158 ] final  154.45 input  -65.29 | X-H torsion
[ 10718 10713 10712 10709 ] final  109.42 input   66.30 | X-H torsion
[ 10763 10752 10751 10750 ] final   45.02 input  -60.55 | X-H torsion
[ 11005 11000 10999 10996 ] final  -37.07 input  -57.11 | X-H torsion

> <Gold.Protein.ActiveResidues>
 VAL166  LYS551  ARG553  GLY616  TRP617  ASP618  TYR619  PRO620  LYS621  CYS622 
 ASP623  PHE694  ASN695  SER759  ASP760  ASP761  ALA762  ILE779  LEU786  VAL792 
 PHE793  MET794  SER795  GLU796  ALA797  LYS798  CYS799  TRP800  GLU811  SER814 

> <Gold.Protein.RotatedAtoms>
  151.2557  135.0637  159.9078 H   0  0  0  0  0  0  0  0  0  0  0  0  # atno 6907 bound_to 6896
  152.5373  134.0285  159.8024 H   0  0  0  0  0  0  0  0  0  0  0  0  # atno 6908 bound_to 6896
  151.0500  133.5583  159.2674 H   0  0  0  0  0  0  0  0  0  0  0  0  # atno 6909 bound_to 6896
  144.8852  140.6565  143.5180 H   0  0  0  0  0  0  0  0  0  0  0  0  # atno 7974 bound_to 7965
  154.4002  140.1490  156.3251 H   0  0  0  0  0  0  0  0  0  0  0  0  # atno 8008 bound_to 7997
  155.8494  140.3458  155.5662 H   0  0  0  0  0  0  0  0  0  0  0  0  # atno 8009 bound_to 7997
  155.8001  140.0869  157.1952 H   0  0  0  0  0  0  0  0  0  0  0  0  # atno 8010 bound_to 7997
  139.4823  144.5185  151.7913 H   0  0  0  0  0  0  0  0  0  0  0  0  # atno 10167 bound_to 10162
  157.6542  131.0913  150.6451 H   0  0  0  0  0  0  0  0  0  0  0  0  # atno 10718 bound_to 10713
  152.9831  135.6052  154.3369 H   0  0  0  0  0  0  0  0  0  0  0  0  # atno 10763 bound_to 10752
  154.3069  135.2772  155.2586 H   0  0  0  0  0  0  0  0  0  0  0  0  # atno 10764 bound_to 10752
  154.4813  135.5916  153.6448 H   0  0  0  0  0  0  0  0  0  0  0  0  # atno 10765 bound_to 10752
  140.9924  133.6998  156.1873 H   0  0  0  0  0  0  0  0  0  0  0  0  # atno 11005 bound_to 11000
  145.3881  139.1622  143.4244 LP  0  0  0  0  0  0  0  0  0  0  0  0  # atno 17320 bound_to 7965
  146.3020  140.3968  142.8700 LP  0  0  0  0  0  0  0  0  0  0  0  0  # atno 17321 bound_to 7965
  140.4697  144.1605  150.5916 LP  0  0  0  0  0  0  0  0  0  0  0  0  # atno 17342 bound_to 10162
  140.4396  143.2532  151.9490 LP  0  0  0  0  0  0  0  0  0  0  0  0  # atno 17343 bound_to 10162
  156.6759  130.4553  149.5642 LP  0  0  0  0  0  0  0  0  0  0  0  0  # atno 17370 bound_to 10713
  156.1964  130.6592  151.1118 LP  0  0  0  0  0  0  0  0  0  0  0  0  # atno 17371 bound_to 10713
  140.7019  134.4554  157.5586 LP  0  0  0  0  0  0  0  0  0  0  0  0  # atno 17394 bound_to 11000
  139.8998  134.8582  156.1944 LP  0  0  0  0  0  0  0  0  0  0  0  0  # atno 17395 bound_to 11000

$$$$
