AV-unprocessed.smi:176|AV-procd|sdf|1436|dock1
  -GOLD-   2262019223D 1   1.00000     0.00000
 Structure written by MMmdl.
 57 61  0  0  0  0  0  0  0  0  1 V2000
  147.9377  131.9074  153.0226 O   0  0  0  0  0  0  0  0  0  0  0  0
  147.9259  132.2704  154.3878 C   0  0  0  0  0  0  0  0  0  0  0  0
  149.3117  132.7281  154.8767 C   0  0  0  0  0  0  0  0  0  0  0  0
  150.3107  131.5591  154.7469 C   0  0  0  0  0  0  0  0  0  0  0  0
  149.8612  130.3943  155.4078 O   0  0  0  0  0  0  0  0  0  0  0  0
  149.7964  134.1067  154.3716 C   0  0  0  0  0  0  0  0  0  0  0  0
  150.3182  134.4305  155.7725 C   0  0  0  0  0  0  0  0  0  0  0  0
  150.3127  135.7770  156.2644 N   0  0  0  0  0  0  0  0  0  0  0  0
  149.8137  136.2160  157.4702 C   0  0  0  0  0  0  0  0  0  0  0  0
  149.9592  137.4922  157.7012 N   0  0  0  0  0  0  0  0  0  0  0  0
  150.6395  137.9640  156.5849 C   0  0  0  0  0  0  0  0  0  0  0  0
  151.1267  139.2414  156.1879 C   0  0  0  0  0  0  0  0  0  0  0  0
  150.9393  140.3601  156.9333 N   0  0  0  0  0  0  0  0  0  0  0  0
  149.9191  141.2672  156.4074 C   0  0  0  0  0  0  0  0  0  0  0  0
  149.4975  142.3088  157.4613 C   0  0  0  0  0  0  0  0  0  0  0  0
  150.7105  143.0552  158.0560 C   0  0  1  0  0  0  0  0  0  0  0  0
  151.2843  143.8341  157.0183 O   0  0  0  0  0  0  0  0  0  0  0  0
  150.2899  144.0203  159.1867 C   0  0  0  0  0  0  0  0  0  0  0  0
  151.5008  144.6888  159.8660 C   0  0  0  0  0  0  0  0  0  0  0  0
  152.5141  143.6480  160.3685 C   0  0  0  0  0  0  0  0  0  0  0  0
  152.9523  142.6989  159.2409 C   0  0  0  0  0  0  0  0  0  0  0  0
  151.7343  142.0182  158.5870 C   0  0  2  0  0  0  0  0  0  0  0  0
  152.1279  141.0071  157.4931 C   0  0  0  0  0  0  0  0  0  0  0  0
  151.7982  139.3153  155.0072 N   0  0  0  0  0  0  0  0  0  0  0  0
  151.9716  138.2213  154.2598 C   0  0  0  0  0  0  0  0  0  0  0  0
  151.5609  136.9741  154.4978 N   0  0  0  0  0  0  0  0  0  0  0  0
  150.8914  136.8916  155.6831 C   0  0  0  0  0  0  0  0  0  0  0  0
  149.3074  133.3943  156.2715 C   0  0  0  0  0  0  0  0  0  0  0  0
  147.6003  131.0287  152.9413 H   0  0  0  0  0  0  0  0  0  0  0  0
  147.1918  133.0682  154.5033 H   0  0  0  0  0  0  0  0  0  0  0  0
  147.5564  131.4287  154.9743 H   0  0  0  0  0  0  0  0  0  0  0  0
  150.4753  131.2967  153.7016 H   0  0  0  0  0  0  0  0  0  0  0  0
  151.2883  131.8314  155.1459 H   0  0  0  0  0  0  0  0  0  0  0  0
  150.4211  129.6735  155.1631 H   0  0  0  0  0  0  0  0  0  0  0  0
  150.5669  134.0736  153.6007 H   0  0  0  0  0  0  0  0  0  0  0  0
  148.9754  134.7608  154.0715 H   0  0  0  0  0  0  0  0  0  0  0  0
  151.3396  134.0673  155.8973 H   0  0  0  0  0  0  0  0  0  0  0  0
  149.3274  135.5590  158.1766 H   0  0  0  0  0  0  0  0  0  0  0  0
  150.3192  141.7677  155.5246 H   0  0  0  0  0  0  0  0  0  0  0  0
  149.0364  140.7208  156.0768 H   0  0  0  0  0  0  0  0  0  0  0  0
  148.7912  143.0148  157.0224 H   0  0  0  0  0  0  0  0  0  0  0  0
  148.9585  141.7984  158.2607 H   0  0  0  0  0  0  0  0  0  0  0  0
  150.6140  144.0199  156.3787 H   0  0  0  0  0  0  0  0  0  0  0  0
  149.6131  144.7843  158.8021 H   0  0  0  0  0  0  0  0  0  0  0  0
  149.7262  143.4692  159.9410 H   0  0  0  0  0  0  0  0  0  0  0  0
  151.9913  145.3641  159.1638 H   0  0  0  0  0  0  0  0  0  0  0  0
  151.1626  145.3072  160.6976 H   0  0  0  0  0  0  0  0  0  0  0  0
  153.3848  144.1507  160.7905 H   0  0  0  0  0  0  0  0  0  0  0  0
  152.0689  143.0697  161.1792 H   0  0  0  0  0  0  0  0  0  0  0  0
  153.5207  143.2526  158.4928 H   0  0  0  0  0  0  0  0  0  0  0  0
  153.6286  141.9439  159.6431 H   0  0  0  0  0  0  0  0  0  0  0  0
  151.2385  141.4460  159.3737 H   0  0  0  0  0  0  0  0  0  0  0  0
  152.7892  140.2520  157.9208 H   0  0  0  0  0  0  0  0  0  0  0  0
  152.6825  141.5053  156.6966 H   0  0  0  0  0  0  0  0  0  0  0  0
  152.5131  138.3670  153.3367 H   0  0  0  0  0  0  0  0  0  0  0  0
  148.3457  133.8423  156.5292 H   0  0  0  0  0  0  0  0  0  0  0  0
  149.6715  132.7642  157.0836 H   0  0  0  0  0  0  0  0  0  0  0  0
  1  2  1  0  0  0  0
  1 29  1  0  0  0  0
  2  3  1  0  0  0  0
  2 30  1  0  0  0  0
  2 31  1  0  0  0  0
  3 28  1  0  0  0  0
  3  4  1  0  0  0  0
  3  6  1  0  0  0  0
  4  5  1  0  0  0  0
  4 32  1  0  0  0  0
  4 33  1  0  0  0  0
  5 34  1  0  0  0  0
  6  7  1  0  0  0  0
  6 35  1  0  0  0  0
  6 36  1  0  0  0  0
  7  8  1  0  0  0  0
  7 28  1  0  0  0  0
  7 37  1  0  0  0  0
  8 27  1  0  0  0  0
  8  9  1  0  0  0  0
  9 10  2  0  0  0  0
  9 38  1  0  0  0  0
 10 11  1  0  0  0  0
 11 27  2  0  0  0  0
 11 12  1  0  0  0  0
 12 13  1  0  0  0  0
 12 24  2  0  0  0  0
 13 23  1  0  0  0  0
 13 14  1  0  0  0  0
 14 15  1  0  0  0  0
 14 39  1  0  0  0  0
 14 40  1  0  0  0  0
 15 16  1  0  0  0  0
 15 41  1  0  0  0  0
 15 42  1  0  0  0  0
 16 22  1  0  0  0  0
 16 17  1  0  0  0  0
 16 18  1  0  0  0  0
 17 43  1  0  0  0  0
 18 19  1  0  0  0  0
 18 44  1  0  0  0  0
 18 45  1  0  0  0  0
 19 20  1  0  0  0  0
 19 46  1  0  0  0  0
 19 47  1  0  0  0  0
 20 21  1  0  0  0  0
 20 48  1  0  0  0  0
 20 49  1  0  0  0  0
 21 22  1  0  0  0  0
 21 50  1  0  0  0  0
 21 51  1  0  0  0  0
 22 23  1  0  0  0  0
 22 52  1  0  0  0  0
 23 53  1  0  0  0  0
 23 54  1  0  0  0  0
 24 25  1  0  0  0  0
 25 26  2  0  0  0  0
 25 55  1  0  0  0  0
 26 27  1  0  0  0  0
 28 56  1  0  0  0  0
 28 57  1  0  0  0  0
M  END
> <s_m_source_file>
AV-unprocessed.smi

> <i_m_source_file_index>
176

> <i_lp_mmshare_version>
43012

> <i_f3d_flags>
0

> <s_epik_input>
W09IXVtDSDJdQzEoW0NIMl1bT0hdKVtDSDJdW0NIXShbQ0gyXTEpbihbY0hdbjIpYyhjMjMpbltjSF1uYzNOKFtDSDJdW0NIMl00KVtDSDJdW0NAQEhdKFtDQF00NVtPSF0pW0NIMl1bQ0gyXVtDSDJdW0NIMl01

> <s_epik_cmdline>
J2VwaWtfcHl0aG9uJywgJy1waCcsICc3LjAnLCAnLXRuJywgJzgnLCAnLW1hJywgJzIwMCcsICctbWV0YWxfYmluZGluZycsICctaW1hZScsICc8aW5maWxlLm1hZT4nLCAnLW9tYWUnLCAnPG91dGZpbGUubWFlPic=

> <r_lp_tautomer_probability>
1

> <r_epik_Ionization_Penalty>
0.00642876

> <r_epik_Ionization_Penalty_Charging>
0

> <r_epik_Ionization_Penalty_Neutral>
0.00642876

> <r_epik_State_Penalty>
0.00467813

> <r_epik_Charging_Adjusted_Penalty>
0.00467813

> <i_epik_Tot_Q>
0

> <i_epik_Tot_abs_Q>
0

> <r_epik_Metal_State_Penalty>
-0

> <b_epik_Metal_Only>
0

> <s_lp_Force_Field>
OPLS_2005

> <r_lp_Energy>
52.7451

> <b_lp_Chiralities_Consistent>
1

> <s_lp_Variant>
AV-unprocessed.smi:176-4

> <Gold.Version>
5.8.1

> <Gold.Id.Protein>
6NUR|6NUR_protein|mol2

> <Gold.PLP.Fitness>
50.9385

> <Gold.PLP.PLP>
-43.0438

> <Gold.PLP.part.hbond>
-3.9708

> <Gold.PLP.part.metal>
0.0000

> <Gold.PLP.part.buried>
-8.3817

> <Gold.PLP.part.nonpolar>
-29.7294

> <Gold.PLP.part.repulsive>
0.2011

> <Gold.PLP.ligand.clash>
0.0000

> <Gold.PLP.ligand.torsion>
0.7161

> <Gold.PLP.Chemscore.Hbond>
2.7963

> <Gold.PLP.Chemscore.CHOScore>
0.0000

> <Gold.PLP.Chemscore.Metal>
0.0000

> <Gold.Chemscore.Hbonds>
donor molecule, donor type, donor heavy atom, donor atom, acceptor molecule, acceptor atom, score
      L1  H    17    43       P1  8028  1.00
      P1  H  7989  7998       L1    24  0.67
      P1  H 10752 10765       L1    26  1.00

> <Gold.PLP.Chemscore.Internal.Correction>
0.9381

> <Gold.Rescore>
     Score         DG    S(hbond)    S(metal)    S(lipo)     H(rot)  DE(clash)    DE(int)     intcor
     13.92     -14.81       1.85        0.00     107.97       3.71       0.18       0.71       ----

> <Gold.Chemscore.Fitness>
13.9174

> <Gold.Chemscore.DG>
-14.8063

> <Gold.Chemscore.ZeroCoef>
-5.4800

> <Gold.Chemscore.Hbond>
1.8543

> <Gold.Chemscore.Metal>
0.0000

> <Gold.Chemscore.Lipo>
107.9728

> <Gold.Chemscore.Internal_Hbond>
0.0000

> <Gold.Chemscore.DEClash>
0.1760

> <Gold.Chemscore.DEInternal>
0.7128

> <Gold.Chemscore.Rot>
3.7109

> <Gold.Chemscore.Internal.Correction>
   9.000000E+99

> <Gold.Chemscore.Hbonds>
donor molecule, donor type, donor heavy atom, donor atom, acceptor molecule, acceptor atom, score
      L1  H    17    43       P1  8028  0.97
      P1  H  7989  7998       L1    24  0.22
      P1  H 10752 10765       L1    26  0.68

> <Gold.Chemscore.Hbond.Weighted>
-6.1934

> <Gold.Chemscore.Metal.Weighted>
-0.0000

> <Gold.Chemscore.Lipo.Weighted>
-12.6328

> <Gold.Chemscore.Internal_Hbond.Weighted>
0.0000

> <Gold.Chemscore.DEClash.Weighted>
0.1760

> <Gold.Chemscore.DEInternal.Weighted>
0.7128

> <Gold.Chemscore.Rot.Weighted>
9.5000

> <Gold.Chemscore.Internal.Correction.Weighted>
   9.000000E+99

> <Gold.Protein.RotatedTorsions>
[ 6907 6896 6895 6894 ] final -170.14 input  -60.11 | X-H torsion
[ 7974 7965 7964 7962 ] final  103.97 input  175.53 | X-H torsion
[ 8008 7997 7996 7995 ] final  -21.12 input   59.86 | X-H torsion
[ 10167 10162 10161 10158 ] final   39.62 input  -65.29 | X-H torsion
[ 10718 10713 10712 10709 ] final   72.85 input   66.30 | X-H torsion
[ 10763 10752 10751 10750 ] final  148.65 input  -60.55 | X-H torsion
[ 11005 11000 10999 10996 ] final  108.31 input  -57.11 | X-H torsion

> <Gold.Protein.ActiveResidues>
 VAL166  LYS551  ARG553  GLY616  TRP617  ASP618  TYR619  PRO620  LYS621  CYS622 
 ASP623  PHE694  ASN695  SER759  ASP760  ASP761  ALA762  ILE779  LEU786  VAL792 
 PHE793  MET794  SER795  GLU796  ALA797  LYS798  CYS799  TRP800  GLU811  SER814 

> <Gold.Protein.RotatedAtoms>
  151.5030  133.3500  159.2871 H   0  0  0  0  0  0  0  0  0  0  0  0  # atno 6907 bound_to 6896
  150.8761  134.8146  159.7201 H   0  0  0  0  0  0  0  0  0  0  0  0  # atno 6908 bound_to 6896
  152.4731  134.4921  159.9750 H   0  0  0  0  0  0  0  0  0  0  0  0  # atno 6909 bound_to 6896
  145.3389  139.2467  143.3620 H   0  0  0  0  0  0  0  0  0  0  0  0  # atno 7974 bound_to 7965
  154.4725  140.2043  155.9958 H   0  0  0  0  0  0  0  0  0  0  0  0  # atno 8008 bound_to 7997
  156.1035  140.3240  155.7945 H   0  0  0  0  0  0  0  0  0  0  0  0  # atno 8009 bound_to 7997
  155.4757  140.0534  157.2964 H   0  0  0  0  0  0  0  0  0  0  0  0  # atno 8010 bound_to 7997
  140.3822  144.1964  150.6130 H   0  0  0  0  0  0  0  0  0  0  0  0  # atno 10167 bound_to 10162
  157.6521  130.9599  150.0987 H   0  0  0  0  0  0  0  0  0  0  0  0  # atno 10718 bound_to 10713
  154.0582  135.2876  155.3329 H   0  0  0  0  0  0  0  0  0  0  0  0  # atno 10763 bound_to 10752
  154.6826  135.5257  153.8286 H   0  0  0  0  0  0  0  0  0  0  0  0  # atno 10764 bound_to 10752
  153.0533  135.6585  154.0772 H   0  0  0  0  0  0  0  0  0  0  0  0  # atno 10765 bound_to 10752
  139.8842  134.9427  156.5953 H   0  0  0  0  0  0  0  0  0  0  0  0  # atno 11005 bound_to 11000
  146.3015  140.3982  142.8702 LP  0  0  0  0  0  0  0  0  0  0  0  0  # atno 17320 bound_to 7965
  144.8806  140.7395  143.5989 LP  0  0  0  0  0  0  0  0  0  0  0  0  # atno 17321 bound_to 7965
  140.4926  143.2343  151.8797 LP  0  0  0  0  0  0  0  0  0  0  0  0  # atno 17342 bound_to 10162
  139.4794  144.5149  151.8881 LP  0  0  0  0  0  0  0  0  0  0  0  0  # atno 17343 bound_to 10162
  156.1916  130.3655  149.8903 LP  0  0  0  0  0  0  0  0  0  0  0  0  # atno 17370 bound_to 10713
  156.6830  130.8865  151.3578 LP  0  0  0  0  0  0  0  0  0  0  0  0  # atno 17371 bound_to 10713
  140.7924  133.8571  155.8657 LP  0  0  0  0  0  0  0  0  0  0  0  0  # atno 17394 bound_to 11000
  140.9665  134.1587  157.4612 LP  0  0  0  0  0  0  0  0  0  0  0  0  # atno 17395 bound_to 11000

$$$$
