AV-unprocessed.smi:2351|AV-procd|sdf|9376|dock10
  -GOLD-   2272013 03D 1   1.00000     0.00000
 Structure written by MMmdl.
 47 49  0  0  0  0  0  0  0  0  2 V2000
  149.6460  140.2107  156.3773 O   0  0  0  0  0  0  0  0  0  0  0  0
  149.5282  141.4120  156.1389 C   0  0  0  0  0  0  0  0  0  0  0  0
  150.1801  142.4027  156.7716 N   0  0  0  0  0  0  0  0  0  0  0  0
  151.1093  142.3195  157.8453 C   0  0  0  0  0  0  0  0  0  0  0  0
  151.3295  141.1572  158.6238 C   0  0  0  0  0  0  0  0  0  0  0  0
  152.2917  141.2066  159.6525 C   0  0  0  0  0  0  0  0  0  0  0  0
  153.0246  142.3044  159.9347 N   0  0  0  0  0  0  0  0  0  0  0  0
  152.8212  143.4064  159.1823 C   0  0  0  0  0  0  0  0  0  0  0  0
  151.8850  143.4633  158.1305 C   0  0  0  0  0  0  0  0  0  0  0  0
  151.7331  144.6016  157.4109 F   0  0  0  0  0  0  0  0  0  0  0  0
  148.6968  141.8990  155.2058 N   0  0  0  0  0  0  0  0  0  0  0  0
  147.8309  141.0968  154.3414 C   0  0  2  0  0  0  0  0  0  0  0  0
  147.1459  141.9870  153.2905 C   0  0  0  0  0  0  0  0  0  0  0  0
  146.0661  142.8912  153.9136 C   0  0  0  0  0  0  0  0  0  0  0  0
  145.0594  142.0970  154.6646 N   0  3  2  0  0  0  0  0  0  0  0  0
  143.9379  142.9378  155.1566 C   0  0  0  0  0  0  0  0  0  0  0  0
  144.3284  144.4200  155.3213 C   0  0  2  0  0  0  0  0  0  0  0  0
  143.5134  145.1742  156.3541 C   0  0  0  0  0  0  0  0  0  0  0  0
  143.7468  146.6265  155.9477 C   0  0  0  0  0  0  0  0  0  0  0  0
  143.9625  146.6083  154.5393 O   0  0  0  0  0  0  0  0  0  0  0  0
  144.0615  145.2656  154.0764 C   0  0  0  0  0  0  0  0  0  0  0  0
  145.6948  141.2775  155.7305 C   0  0  0  0  0  0  0  0  0  0  0  0
  146.7588  140.3331  155.1445 C   0  0  0  0  0  0  0  0  0  0  0  0
  149.9309  143.3419  156.4983 H   0  0  0  0  0  0  0  0  0  0  0  0
  150.7974  140.2349  158.4511 H   0  0  0  0  0  0  0  0  0  0  0  0
  152.4812  140.3361  160.2632 H   0  0  0  0  0  0  0  0  0  0  0  0
  153.4237  144.2694  159.4249 H   0  0  0  0  0  0  0  0  0  0  0  0
  148.6684  142.8998  155.0762 H   0  0  0  0  0  0  0  0  0  0  0  0
  148.4605  140.3754  153.8171 H   0  0  0  0  0  0  0  0  0  0  0  0
  147.8857  142.5926  152.7653 H   0  0  0  0  0  0  0  0  0  0  0  0
  146.6830  141.3529  152.5330 H   0  0  0  0  0  0  0  0  0  0  0  0
  146.5221  143.6256  154.5792 H   0  0  0  0  0  0  0  0  0  0  0  0
  145.5731  143.4513  153.1180 H   0  0  0  0  0  0  0  0  0  0  0  0
  143.0853  142.8408  154.4827 H   0  0  0  0  0  0  0  0  0  0  0  0
  143.6039  142.5625  156.1251 H   0  0  0  0  0  0  0  0  0  0  0  0
  145.3864  144.5154  155.5667 H   0  0  0  0  0  0  0  0  0  0  0  0
  142.4550  144.9264  156.2613 H   0  0  0  0  0  0  0  0  0  0  0  0
  143.8230  144.9683  157.3792 H   0  0  0  0  0  0  0  0  0  0  0  0
  142.9094  147.2716  156.2146 H   0  0  0  0  0  0  0  0  0  0  0  0
  144.6434  147.0182  156.4297 H   0  0  0  0  0  0  0  0  0  0  0  0
  144.8429  145.1605  153.3232 H   0  0  0  0  0  0  0  0  0  0  0  0
  143.1107  144.9917  153.6163 H   0  0  0  0  0  0  0  0  0  0  0  0
  146.1415  141.9319  156.4802 H   0  0  0  0  0  0  0  0  0  0  0  0
  144.9464  140.6770  156.2457 H   0  0  0  0  0  0  0  0  0  0  0  0
  146.2694  139.6122  154.4882 H   0  0  0  0  0  0  0  0  0  0  0  0
  147.2162  139.7460  155.9414 H   0  0  0  0  0  0  0  0  0  0  0  0
  144.6588  141.4520  153.9983 H   0  0  0  0  0  0  0  0  0  0  0  0
  1  2  2  0  0  0  0
  2  3  1  0  0  0  0
  2 11  1  0  0  0  0
  3  4  1  0  0  0  0
  3 24  1  0  0  0  0
  4  9  1  0  0  0  0
  4  5  2  0  0  0  0
  5  6  1  0  0  0  0
  5 25  1  0  0  0  0
  6  7  2  0  0  0  0
  6 26  1  0  0  0  0
  7  8  1  0  0  0  0
  8  9  2  0  0  0  0
  8 27  1  0  0  0  0
  9 10  1  0  0  0  0
 11 12  1  0  0  0  0
 11 28  1  0  0  0  0
 12 23  1  0  0  0  0
 12 13  1  0  0  0  0
 12 29  1  0  0  0  0
 13 14  1  0  0  0  0
 13 30  1  0  0  0  0
 13 31  1  0  0  0  0
 14 15  1  0  0  0  0
 14 32  1  0  0  0  0
 14 33  1  0  0  0  0
 15 16  1  0  0  0  0
 15 22  1  0  0  0  0
 15 47  1  0  0  0  0
 16 17  1  0  0  0  0
 16 34  1  0  0  0  0
 16 35  1  0  0  0  0
 17 21  1  0  0  0  0
 17 18  1  0  0  0  0
 17 36  1  0  0  0  0
 18 19  1  0  0  0  0
 18 37  1  0  0  0  0
 18 38  1  0  0  0  0
 19 20  1  0  0  0  0
 19 39  1  0  0  0  0
 19 40  1  0  0  0  0
 20 21  1  0  0  0  0
 21 41  1  0  0  0  0
 21 42  1  0  0  0  0
 22 23  1  0  0  0  0
 22 43  1  0  0  0  0
 22 44  1  0  0  0  0
 23 45  1  0  0  0  0
 23 46  1  0  0  0  0
M  CHG  1  15   1
M  END
> <s_m_source_file>
AV-unprocessed.smi

> <i_m_source_file_index>
2351

> <i_lp_mmshare_version>
43012

> <i_f3d_flags>
0

> <s_epik_input>
RmMxW2NIXW5bY0hdW2NIXWMxW05IXUMoPU8pW05IXVtDSF0yW0NIMl1bQ0gyXU4oW0NIMl1bQ0gyXTIpW0NIMl1bQ0BASF0zW0NIMl1bQ0gyXU9bQ0gyXTM=

> <s_epik_cmdline>
J2VwaWtfcHl0aG9uJywgJy1waCcsICc3LjAnLCAnLXRuJywgJzgnLCAnLW1hJywgJzIwMCcsICctbWV0YWxfYmluZGluZycsICctaW1hZScsICc8aW5maWxlLm1hZT4nLCAnLW9tYWUnLCAnPG91dGZpbGUubWFlPic=

> <r_epik_Ionization_Penalty>
0.0102464

> <r_epik_Ionization_Penalty_Charging>
0.00747775

> <r_epik_Ionization_Penalty_Neutral>
0.00276864

> <r_epik_State_Penalty>
0.00558817

> <r_epik_Charging_Adjusted_Penalty>
0.0130659

> <i_epik_Tot_Q>
1

> <i_epik_Tot_abs_Q>
1

> <r_epik_Metal_State_Penalty>
-0

> <b_epik_Metal_Only>
0

> <s_lp_Force_Field>
OPLS_2005

> <r_lp_Energy>
39.3269

> <b_lp_Chiralities_Consistent>
1

> <s_lp_Variant>
AV-unprocessed.smi:2351-3

> <Gold.Version>
5.8.1

> <Gold.Id.Protein>
6NUR|6NUR_protein|mol2

> <Gold.PLP.Fitness>
50.4678

> <Gold.PLP.PLP>
-41.8647

> <Gold.PLP.part.hbond>
-4.0000

> <Gold.PLP.part.metal>
0.0000

> <Gold.PLP.part.buried>
-8.8324

> <Gold.PLP.part.nonpolar>
-31.3199

> <Gold.PLP.part.repulsive>
0.2247

> <Gold.PLP.ligand.clash>
1.4838

> <Gold.PLP.ligand.torsion>
0.9697

> <Gold.PLP.Chemscore.Hbond>
4.0000

> <Gold.PLP.Chemscore.CHOScore>
0.0000

> <Gold.PLP.Chemscore.Metal>
0.0000

> <Gold.Chemscore.Hbonds>
donor molecule, donor type, donor heavy atom, donor atom, acceptor molecule, acceptor atom, score
      L1  H     3    24       P1  8028  1.00
      L1  H    11    28       P1  8028  1.00
      L1  H    15    47       P1 10175  2.00

> <Gold.PLP.Chemscore.Internal.Correction>
0.0264

> <Gold.Rescore>
     Score         DG    S(hbond)    S(metal)    S(lipo)     H(rot)  DE(clash)    DE(int)     intcor
     18.79     -22.81       2.68        0.00     103.21       1.45       1.92       2.10       ----

> <Gold.Chemscore.Fitness>
18.7919

> <Gold.Chemscore.DG>
-22.8087

> <Gold.Chemscore.ZeroCoef>
-5.4800

> <Gold.Chemscore.Hbond>
2.6828

> <Gold.Chemscore.Metal>
0.0000

> <Gold.Chemscore.Lipo>
103.2114

> <Gold.Chemscore.Internal_Hbond>
0.0000

> <Gold.Chemscore.DEClash>
1.9164

> <Gold.Chemscore.DEInternal>
2.1004

> <Gold.Chemscore.Rot>
1.4483

> <Gold.Chemscore.Internal.Correction>
   9.000000E+99

> <Gold.Chemscore.Hbonds>
donor molecule, donor type, donor heavy atom, donor atom, acceptor molecule, acceptor atom, score
      L1  H     3    24       P1  8028  0.99
      L1  H    11    28       P1  8028  0.98
      L1  H    15    47       P1 10175  0.28

> <Gold.Chemscore.Hbond.Weighted>
-8.9606

> <Gold.Chemscore.Metal.Weighted>
-0.0000

> <Gold.Chemscore.Lipo.Weighted>
-12.0757

> <Gold.Chemscore.Internal_Hbond.Weighted>
0.0000

> <Gold.Chemscore.DEClash.Weighted>
1.9164

> <Gold.Chemscore.DEInternal.Weighted>
2.1004

> <Gold.Chemscore.Rot.Weighted>
3.7077

> <Gold.Chemscore.Internal.Correction.Weighted>
   9.000000E+99

> <Gold.Protein.RotatedTorsions>
[ 6907 6896 6895 6894 ] final -171.15 input  -60.11 | X-H torsion
[ 7974 7965 7964 7962 ] final   77.05 input  175.53 | X-H torsion
[ 8008 7997 7996 7995 ] final  168.01 input   59.86 | X-H torsion
[ 10167 10162 10161 10158 ] final -117.78 input  -65.29 | X-H torsion
[ 10718 10713 10712 10709 ] final -117.11 input   66.30 | X-H torsion
[ 10763 10752 10751 10750 ] final  -81.03 input  -60.55 | X-H torsion
[ 11005 11000 10999 10996 ] final  134.60 input  -57.11 | X-H torsion

> <Gold.Protein.ActiveResidues>
 VAL166  LYS551  ARG553  GLY616  TRP617  ASP618  TYR619  PRO620  LYS621  CYS622 
 ASP623  PHE694  ASN695  SER759  ASP760  ASP761  ALA762  ILE779  LEU786  VAL792 
 PHE793  MET794  SER795  GLU796  ALA797  LYS798  CYS799  TRP800  GLU811  SER814 

> <Gold.Protein.RotatedAtoms>
  151.5191  133.3470  159.2898 H   0  0  0  0  0  0  0  0  0  0  0  0  # atno 6907 bound_to 6896
  150.8663  134.8030  159.7132 H   0  0  0  0  0  0  0  0  0  0  0  0  # atno 6908 bound_to 6896
  152.4667  134.5068  159.9793 H   0  0  0  0  0  0  0  0  0  0  0  0  # atno 6909 bound_to 6896
  145.6949  139.2564  143.1738 H   0  0  0  0  0  0  0  0  0  0  0  0  # atno 7974 bound_to 7965
  156.1584  140.1601  156.8654 H   0  0  0  0  0  0  0  0  0  0  0  0  # atno 8008 bound_to 7997
  154.5137  140.0795  156.8075 H   0  0  0  0  0  0  0  0  0  0  0  0  # atno 8009 bound_to 7997
  155.3757  140.3402  155.4247 H   0  0  0  0  0  0  0  0  0  0  0  0  # atno 8010 bound_to 7997
  140.0647  143.4934  152.2013 H   0  0  0  0  0  0  0  0  0  0  0  0  # atno 10167 bound_to 10162
  156.1010  130.6172  150.9121 H   0  0  0  0  0  0  0  0  0  0  0  0  # atno 10718 bound_to 10713
  154.5585  135.5640  153.6986 H   0  0  0  0  0  0  0  0  0  0  0  0  # atno 10763 bound_to 10752
  153.0011  135.6268  154.2277 H   0  0  0  0  0  0  0  0  0  0  0  0  # atno 10764 bound_to 10752
  154.2214  135.2869  155.2903 H   0  0  0  0  0  0  0  0  0  0  0  0  # atno 10765 bound_to 10752
  139.9926  134.9509  156.9890 H   0  0  0  0  0  0  0  0  0  0  0  0  # atno 11005 bound_to 11000
  146.0849  140.7722  142.9623 LP  0  0  0  0  0  0  0  0  0  0  0  0  # atno 17320 bound_to 7965
  144.6985  140.3546  143.7175 LP  0  0  0  0  0  0  0  0  0  0  0  0  # atno 17321 bound_to 7965
  139.5872  144.7536  151.3490 LP  0  0  0  0  0  0  0  0  0  0  0  0  # atno 17342 bound_to 10162
  140.7155  143.7278  150.7647 LP  0  0  0  0  0  0  0  0  0  0  0  0  # atno 17343 bound_to 10162
  157.6180  131.0932  150.8674 LP  0  0  0  0  0  0  0  0  0  0  0  0  # atno 17370 bound_to 10713
  156.8802  130.5177  149.5291 LP  0  0  0  0  0  0  0  0  0  0  0  0  # atno 17371 bound_to 10713
  140.4880  134.1222  155.7228 LP  0  0  0  0  0  0  0  0  0  0  0  0  # atno 17394 bound_to 11000
  141.1578  133.8850  157.1930 LP  0  0  0  0  0  0  0  0  0  0  0  0  # atno 17395 bound_to 11000

$$$$
