#       Name:                AV-unprocessed.smi:3264
#       Creating user name   scv26
#       Creation time:       Fri Mar 27 18:39:39 2020


#       File generated by GOLD software.
#

@<TRIPOS>MOLECULE
AV-unprocessed.smi:3264
    37    38     1
SMALL
NO_CHARGES


@<TRIPOS>ATOM
      1 ****        -1.3809   5.8752  -2.2140 C.3            1 S1                 0.0000
      2 ****        -1.6421   4.6982  -1.3382 C.2            1 S1                 0.0000
      3 ****        -1.1101   3.4914  -1.5478 N.2            1 S1                 0.0000
      4 ****        -1.5039   2.5551  -0.5863 C.2            1 S1                 0.0000
      5 ****        -0.9984   1.1463  -0.6623 C.3            1 S1                 0.0000
      6 ****         0.4354   1.0142  -0.1225 C.3            1 S1                 0.0000
      7 ****         0.9286  -0.3538  -0.2327 N.am           1 S1                 0.0000
      8 ****         0.6424  -1.3490   0.6205 C.2            1 S1                 0.0000
      9 ****        -0.0776  -1.2045   1.6092 O.2            1 S1                 0.0000
     10 ****         1.2769  -2.7101   0.3126 C.3            1 S1                 0.0000
     11 ****         0.3428  -3.9120   0.5519 C.3            1 S1                 0.0000
     12 ****         0.9766  -4.6363   1.7243 C.3            1 S1                 0.0000
     13 ****         2.4436  -4.2611   1.5726 C.3            1 S1                 0.0000
     14 ****         2.3815  -2.8955   1.1948 O.3            1 S1                 0.0000
     15 ****        -2.3470   3.0764   0.3631 C.2            1 S1                 0.0000
     16 ****        -2.6777   4.7638   0.0824 S.3            1 S1                 0.0000
     17 ****        -1.1946   5.5534  -3.2392 H              1 S1                 0.0000
     18 ****        -0.5095   6.4210  -1.8527 H              1 S1                 0.0000
     19 ****        -2.2409   6.5449  -2.2100 H              1 S1                 0.0000
     20 ****        -1.6637   0.4869  -0.1036 H              1 S1                 0.0000
     21 ****        -1.0315   0.7966  -1.6949 H              1 S1                 0.0000
     22 ****         1.1070   1.6595  -0.6896 H              1 S1                 0.0000
     23 ****         0.4862   1.3489   0.9150 H              1 S1                 0.0000
     24 ****         1.5363  -0.5590  -1.0127 H              1 S1                 0.0000
     25 ****         1.6401  -2.7315  -0.7163 H              1 S1                 0.0000
     26 ****        -0.6941  -3.6406   0.7544 H              1 S1                 0.0000
     27 ****         0.3422  -4.5562  -0.3282 H              1 S1                 0.0000
     28 ****         0.5866  -4.2416   2.6635 H              1 S1                 0.0000
     29 ****         0.8063  -5.7131   1.7064 H              1 S1                 0.0000
     30 ****         3.0136  -4.3994   2.4915 H              1 S1                 0.0000
     31 ****         2.9163  -4.8412   0.7786 H              1 S1                 0.0000
     32 ****        -2.7902   2.5722   1.2092 H              1 S1                 0.0000
     33 ****        -0.4971   3.2802  -2.3091 LP             1 S1                 0.0000
     34 ****        -0.4809  -0.3112   1.8078 LP             1 S1                 0.0000
     35 ****        -0.2590  -1.9804   2.2134 LP             1 S1                 0.0000
     36 ****         2.2601  -2.3272   2.0087 LP             1 S1                 0.0000
     37 ****         3.2287  -2.6367   0.7309 LP             1 S1                 0.0000
@<TRIPOS>BOND
    1    1    2 1     
    2    1   17 1     
    3    1   18 1     
    4    1   19 1     
    5    2   16 1     
    6    2    3 2     
    7    3    4 1     
    8    4    5 1     
    9    4   15 2     
   10    5    6 1     
   11    5   20 1     
   12    5   21 1     
   13    6    7 1     
   14    6   22 1     
   15    6   23 1     
   16    7    8 am    
   17    7   24 1     
   18    8    9 2     
   19    8   10 1     
   20   10   14 1     
   21   10   11 1     
   22   10   25 1     
   23   11   12 1     
   24   11   26 1     
   25   11   27 1     
   26   12   13 1     
   27   12   28 1     
   28   12   29 1     
   29   13   14 1     
   30   13   30 1     
   31   13   31 1     
   32   15   16 1     
   33   15   32 1     
   34    3   33 1     
   35    9   34 1     
   36    9   35 1     
   37   14   36 1     
   38   14   37 1     
@<TRIPOS>SUBSTRUCTURE
      1 S1             1
@<TRIPOS>SET
LONE_PAIRS      STATIC     ATOMS    <user>   **** ""
5 33 34 35 36 37
DONOR_HYDROGENS      STATIC     ATOMS    <user>   **** ""
1 24
ATOM$BLUE        STATIC     ATOMS    COLORGROUP SYSTEM
5 33 34 35 36 37
ATOM$RED        STATIC     ATOMS    COLORGROUP SYSTEM
1 24
