AV-unprocessed.smi:3048|AV-procd|sdf|11627|dock9
  -GOLD-   2272017 13D 1   1.00000     0.00000
 Structure written by MMmdl.
 37 38  0  0  0  0  0  0  0  0  1 V2000
  154.1883  140.8363  161.4262 C   0  0  0  0  0  0  0  0  0  0  0  0
  153.3916  142.0809  161.1605 C   0  0  0  0  0  0  0  0  0  0  0  0
  152.8587  142.9971  162.1114 C   0  0  0  0  0  0  0  0  0  0  0  0
  152.2040  143.9994  161.5493 N   0  0  0  0  0  0  0  0  0  0  0  0
  152.2916  143.7585  160.2240 N   0  0  0  0  0  0  0  0  0  0  0  0
  151.6757  144.6744  159.2803 C   0  0  0  0  0  0  0  0  0  0  0  0
  151.8692  144.2309  157.8215 C   0  0  0  0  0  0  0  0  0  0  0  0
  150.7570  143.4088  157.3538 N   0  0  0  0  0  0  0  0  0  0  0  0
  151.1746  142.2784  156.5317 C   0  0  0  0  0  0  0  0  0  0  0  0
  149.9797  141.3798  156.1823 C   0  0  2  0  0  0  0  0  0  0  0  0
  149.4642  140.6135  157.4160 C   0  0  0  0  0  0  0  0  0  0  0  0
  148.3361  139.6526  157.0230 C   0  0  0  0  0  0  0  0  0  0  0  0
  148.7999  138.7517  155.8736 C   0  0  0  0  0  0  0  0  0  0  0  0
  149.3602  139.6010  154.7220 C   0  0  0  0  0  0  0  0  0  0  0  0
  150.4094  140.4353  155.2031 O   0  0  0  0  0  0  0  0  0  0  0  0
  153.0053  142.6086  159.9610 C   0  0  0  0  0  0  0  0  0  0  0  0
  154.1534  140.5505  162.4777 H   0  0  0  0  0  0  0  0  0  0  0  0
  155.2381  140.9680  161.1639 H   0  0  0  0  0  0  0  0  0  0  0  0
  153.8153  139.9884  160.8514 H   0  0  0  0  0  0  0  0  0  0  0  0
  152.9298  142.9640  163.1885 H   0  0  0  0  0  0  0  0  0  0  0  0
  150.6142  144.7776  159.5123 H   0  0  0  0  0  0  0  0  0  0  0  0
  152.1228  145.6579  159.4279 H   0  0  0  0  0  0  0  0  0  0  0  0
  151.9564  145.1187  157.1943 H   0  0  0  0  0  0  0  0  0  0  0  0
  152.8092  143.6870  157.7201 H   0  0  0  0  0  0  0  0  0  0  0  0
  150.0980  143.9822  156.8361 H   0  0  0  0  0  0  0  0  0  0  0  0
  151.6546  142.6268  155.6164 H   0  0  0  0  0  0  0  0  0  0  0  0
  151.9206  141.6964  157.0742 H   0  0  0  0  0  0  0  0  0  0  0  0
  149.1725  141.9924  155.7759 H   0  0  0  0  0  0  0  0  0  0  0  0
  150.2819  140.0500  157.8674 H   0  0  0  0  0  0  0  0  0  0  0  0
  149.1094  141.3114  158.1750 H   0  0  0  0  0  0  0  0  0  0  0  0
  148.0323  139.0507  157.8798 H   0  0  0  0  0  0  0  0  0  0  0  0
  147.4596  140.2226  156.7123 H   0  0  0  0  0  0  0  0  0  0  0  0
  149.5720  138.0694  156.2310 H   0  0  0  0  0  0  0  0  0  0  0  0
  147.9740  138.1334  155.5211 H   0  0  0  0  0  0  0  0  0  0  0  0
  149.7561  138.9551  153.9382 H   0  0  0  0  0  0  0  0  0  0  0  0
  148.5762  140.2086  154.2679 H   0  0  0  0  0  0  0  0  0  0  0  0
  153.1756  142.2636  158.9517 H   0  0  0  0  0  0  0  0  0  0  0  0
  1  2  1  0  0  0  0
  1 17  1  0  0  0  0
  1 18  1  0  0  0  0
  1 19  1  0  0  0  0
  2 16  2  0  0  0  0
  2  3  1  0  0  0  0
  3  4  2  0  0  0  0
  3 20  1  0  0  0  0
  4  5  1  0  0  0  0
  5  6  1  0  0  0  0
  5 16  1  0  0  0  0
  6  7  1  0  0  0  0
  6 21  1  0  0  0  0
  6 22  1  0  0  0  0
  7  8  1  0  0  0  0
  7 23  1  0  0  0  0
  7 24  1  0  0  0  0
  8  9  1  0  0  0  0
  8 25  1  0  0  0  0
  9 10  1  0  0  0  0
  9 26  1  0  0  0  0
  9 27  1  0  0  0  0
 10 15  1  0  0  0  0
 10 11  1  0  0  0  0
 10 28  1  0  0  0  0
 11 12  1  0  0  0  0
 11 29  1  0  0  0  0
 11 30  1  0  0  0  0
 12 13  1  0  0  0  0
 12 31  1  0  0  0  0
 12 32  1  0  0  0  0
 13 14  1  0  0  0  0
 13 33  1  0  0  0  0
 13 34  1  0  0  0  0
 14 15  1  0  0  0  0
 14 35  1  0  0  0  0
 14 36  1  0  0  0  0
 16 37  1  0  0  0  0
M  END
> <s_m_source_file>
AV-unprocessed.smi

> <i_m_source_file_index>
3048

> <i_lp_mmshare_version>
43012

> <i_f3d_flags>
0

> <s_epik_input>
W0NIM11jMVtjSF1ubihbY0hdMSlbQ0gyXVtDSDJdW05IXVtDSDJdW0NAQEhdMltDSDJdW0NIMl1bQ0gyXVtDSDJdTzI=

> <s_epik_cmdline>
J2VwaWtfcHl0aG9uJywgJy1waCcsICc3LjAnLCAnLXRuJywgJzgnLCAnLW1hJywgJzIwMCcsICctbWV0YWxfYmluZGluZycsICctaW1hZScsICc8aW5maWxlLm1hZT4nLCAnLW9tYWUnLCAnPG91dGZpbGUubWFlPic=

> <r_lp_tautomer_probability>
1

> <r_epik_Ionization_Penalty>
2.52229

> <r_epik_Ionization_Penalty_Charging>
0

> <r_epik_Ionization_Penalty_Neutral>
2.52229

> <r_epik_State_Penalty>
2.68614

> <r_epik_Charging_Adjusted_Penalty>
2.68614

> <i_epik_Tot_Q>
0

> <i_epik_Tot_abs_Q>
0

> <r_epik_Metal_State_Penalty>
2.68365

> <b_epik_Metal_Only>
0

> <s_lp_Force_Field>
OPLS_2005

> <r_lp_Energy>
12.7025

> <b_lp_Chiralities_Consistent>
1

> <s_lp_Variant>
AV-unprocessed.smi:3048-3

> <Gold.Version>
5.8.1

> <Gold.Id.Protein>
6NUR|6NUR_protein|mol2

> <Gold.PLP.Fitness>
45.2110

> <Gold.PLP.PLP>
-40.2727

> <Gold.PLP.part.hbond>
-2.0000

> <Gold.PLP.part.metal>
0.0000

> <Gold.PLP.part.buried>
-6.9775

> <Gold.PLP.part.nonpolar>
-31.7015

> <Gold.PLP.part.repulsive>
0.2305

> <Gold.PLP.ligand.clash>
0.0000

> <Gold.PLP.ligand.torsion>
0.5549

> <Gold.PLP.Chemscore.Hbond>
2.0000

> <Gold.PLP.Chemscore.CHOScore>
0.0000

> <Gold.PLP.Chemscore.Metal>
0.0000

> <Gold.Chemscore.Hbonds>
donor molecule, donor type, donor heavy atom, donor atom, acceptor molecule, acceptor atom, score
      L1  H     8    25       P1  8028  1.00
      P1  H  7989  7998       L1    15  0.73

> <Gold.PLP.Chemscore.Internal.Correction>
0.0482

> <Gold.Rescore>
     Score         DG    S(hbond)    S(metal)    S(lipo)     H(rot)  DE(clash)    DE(int)     intcor
     18.31     -19.58       1.90        0.00     100.10       1.54       0.35       0.92       ----

> <Gold.Chemscore.Fitness>
18.3084

> <Gold.Chemscore.DG>
-19.5780

> <Gold.Chemscore.ZeroCoef>
-5.4800

> <Gold.Chemscore.Hbond>
1.8955

> <Gold.Chemscore.Metal>
0.0000

> <Gold.Chemscore.Lipo>
100.1046

> <Gold.Chemscore.Internal_Hbond>
0.0000

> <Gold.Chemscore.DEClash>
0.3498

> <Gold.Chemscore.DEInternal>
0.9197

> <Gold.Chemscore.Rot>
1.5411

> <Gold.Chemscore.Internal.Correction>
   9.000000E+99

> <Gold.Chemscore.Hbonds>
donor molecule, donor type, donor heavy atom, donor atom, acceptor molecule, acceptor atom, score
      L1  H     8    25       P1  8028  0.98
      P1  H  7989  7998       L1    15  0.38

> <Gold.Chemscore.Hbond.Weighted>
-6.3309

> <Gold.Chemscore.Metal.Weighted>
-0.0000

> <Gold.Chemscore.Lipo.Weighted>
-11.7122

> <Gold.Chemscore.Internal_Hbond.Weighted>
0.0000

> <Gold.Chemscore.DEClash.Weighted>
0.3498

> <Gold.Chemscore.DEInternal.Weighted>
0.9197

> <Gold.Chemscore.Rot.Weighted>
3.9452

> <Gold.Chemscore.Internal.Correction.Weighted>
   9.000000E+99

> <Gold.Protein.RotatedTorsions>
[ 6907 6896 6895 6894 ] final  -14.06 input  -60.11 | X-H torsion
[ 7974 7965 7964 7962 ] final   37.85 input  175.53 | X-H torsion
[ 8008 7997 7996 7995 ] final  125.26 input   59.86 | X-H torsion
[ 10167 10162 10161 10158 ] final -144.95 input  -65.29 | X-H torsion
[ 10718 10713 10712 10709 ] final -158.03 input   66.30 | X-H torsion
[ 10763 10752 10751 10750 ] final -159.67 input  -60.55 | X-H torsion
[ 11005 11000 10999 10996 ] final   56.82 input  -57.11 | X-H torsion

> <Gold.Protein.ActiveResidues>
 VAL166  LYS551  ARG553  GLY616  TRP617  ASP618  TYR619  PRO620  LYS621  CYS622 
 ASP623  PHE694  ASN695  SER759  ASP760  ASP761  ALA762  ILE779  LEU786  VAL792 
 PHE793  MET794  SER795  GLU796  ALA797  LYS798  CYS799  TRP800  GLU811  SER814 

> <Gold.Protein.RotatedAtoms>
  151.3453  135.0872  159.9384 H   0  0  0  0  0  0  0  0  0  0  0  0  # atno 6907 bound_to 6896
  152.5201  133.9407  159.7635 H   0  0  0  0  0  0  0  0  0  0  0  0  # atno 6908 bound_to 6896
  150.9771  133.6230  159.2758 H   0  0  0  0  0  0  0  0  0  0  0  0  # atno 6909 bound_to 6896
  146.1106  139.5843  142.9354 H   0  0  0  0  0  0  0  0  0  0  0  0  # atno 7974 bound_to 7965
  156.2828  140.2720  156.1921 H   0  0  0  0  0  0  0  0  0  0  0  0  # atno 8008 bound_to 7997
  155.0448  140.0386  157.2540 H   0  0  0  0  0  0  0  0  0  0  0  0  # atno 8009 bound_to 7997
  154.7244  140.2694  155.6517 H   0  0  0  0  0  0  0  0  0  0  0  0  # atno 8010 bound_to 7997
  139.7851  143.8045  152.2643 H   0  0  0  0  0  0  0  0  0  0  0  0  # atno 10167 bound_to 10162
  156.5485  130.8595  151.2772 H   0  0  0  0  0  0  0  0  0  0  0  0  # atno 10718 bound_to 10713
  154.7455  135.3079  154.8652 H   0  0  0  0  0  0  0  0  0  0  0  0  # atno 10763 bound_to 10752
  153.9454  135.6770  153.4748 H   0  0  0  0  0  0  0  0  0  0  0  0  # atno 10764 bound_to 10752
  153.1052  135.4893  154.8864 H   0  0  0  0  0  0  0  0  0  0  0  0  # atno 10765 bound_to 10752
  140.0500  134.5751  155.9275 H   0  0  0  0  0  0  0  0  0  0  0  0  # atno 11005 bound_to 11000
  145.5671  141.0398  143.2194 LP  0  0  0  0  0  0  0  0  0  0  0  0  # atno 17320 bound_to 7965
  144.7508  139.7198  143.7274 LP  0  0  0  0  0  0  0  0  0  0  0  0  # atno 17321 bound_to 7965
  139.8120  144.7332  150.9685 LP  0  0  0  0  0  0  0  0  0  0  0  0  # atno 17342 bound_to 10162
  140.7819  143.4242  151.0795 LP  0  0  0  0  0  0  0  0  0  0  0  0  # atno 17343 bound_to 10162
  157.7392  130.9827  150.2298 LP  0  0  0  0  0  0  0  0  0  0  0  0  # atno 17370 bound_to 10713
  156.2906  130.3745  149.7845 LP  0  0  0  0  0  0  0  0  0  0  0  0  # atno 17371 bound_to 10713
  141.1925  133.6575  156.5507 LP  0  0  0  0  0  0  0  0  0  0  0  0  # atno 17394 bound_to 11000
  140.3933  134.7421  157.4735 LP  0  0  0  0  0  0  0  0  0  0  0  0  # atno 17395 bound_to 11000

$$$$
