AV-unprocessed.smi:788|AV-procd|sdf|3734|dock5
  -GOLD-   22720 1173D 1   1.00000     0.00000
 Structure written by MMmdl.
 35 36  0  0  0  0  0  0  0  0  1 V2000
  151.0058  144.9799  158.4993 C   0  0  0  0  0  0  0  0  0  0  0  0
  152.1211  144.0395  157.9953 C   0  0  1  0  0  0  0  0  0  0  0  0
  153.3290  144.0172  158.9528 C   0  0  0  0  0  0  0  0  0  0  0  0
  153.0371  143.2294  160.2391 C   0  0  0  0  0  0  0  0  0  0  0  0
  152.5711  141.8016  159.9210 C   0  0  0  0  0  0  0  0  0  0  0  0
  151.3457  141.7892  158.9860 C   0  0  2  0  0  0  0  0  0  0  0  0
  150.9079  140.3418  158.6956 C   0  0  0  0  0  0  0  0  0  0  0  0
  151.6421  142.5931  157.6933 C   0  0  1  0  0  0  0  0  0  0  0  0
  150.4729  142.5979  156.8159 N   0  0  0  0  0  0  0  0  0  0  0  0
  150.0753  141.5885  156.0245 C   0  0  0  0  0  0  0  0  0  0  0  0
  150.6763  140.5176  155.9608 O   0  0  0  0  0  0  0  0  0  0  0  0
  148.9645  141.8063  155.2882 N   0  0  0  0  0  0  0  0  0  0  0  0
  148.2638  140.9835  154.3578 C   0  0  0  0  0  0  0  0  0  0  0  0
  148.5601  139.6993  154.0977 N   0  0  0  0  0  0  0  0  0  0  0  0
  147.7080  139.1462  153.1514 N   0  0  0  0  0  0  0  0  0  0  0  0
  146.7985  140.0316  152.7353 C   0  0  0  0  0  0  0  0  0  0  0  0
  146.8967  141.6273  153.4585 S   0  0  0  0  0  0  0  0  0  0  0  0
  150.5522  144.6203  159.4222 H   0  0  0  0  0  0  0  0  0  0  0  0
  150.2099  145.0901  157.7625 H   0  0  0  0  0  0  0  0  0  0  0  0
  151.3986  145.9780  158.6942 H   0  0  0  0  0  0  0  0  0  0  0  0
  152.4753  144.4686  157.0568 H   0  0  0  0  0  0  0  0  0  0  0  0
  154.1790  143.5608  158.4440 H   0  0  0  0  0  0  0  0  0  0  0  0
  153.6364  145.0343  159.1990 H   0  0  0  0  0  0  0  0  0  0  0  0
  153.9321  143.1943  160.8606 H   0  0  0  0  0  0  0  0  0  0  0  0
  152.2768  143.7429  160.8283 H   0  0  0  0  0  0  0  0  0  0  0  0
  153.3904  141.2491  159.4590 H   0  0  0  0  0  0  0  0  0  0  0  0
  152.3363  141.2821  160.8505 H   0  0  0  0  0  0  0  0  0  0  0  0
  150.5212  142.2724  159.5117 H   0  0  0  0  0  0  0  0  0  0  0  0
  151.6704  139.8036  158.1318 H   0  0  0  0  0  0  0  0  0  0  0  0
  149.9816  140.3067  158.1217 H   0  0  0  0  0  0  0  0  0  0  0  0
  150.7321  139.7937  159.6216 H   0  0  0  0  0  0  0  0  0  0  0  0
  152.4514  142.0752  157.1742 H   0  0  0  0  0  0  0  0  0  0  0  0
  149.9206  143.4438  156.8069 H   0  0  0  0  0  0  0  0  0  0  0  0
  148.5466  142.7141  155.4317 H   0  0  0  0  0  0  0  0  0  0  0  0
  146.0647  139.7437  151.9972 H   0  0  0  0  0  0  0  0  0  0  0  0
  1  2  1  0  0  0  0
  1 18  1  0  0  0  0
  1 19  1  0  0  0  0
  1 20  1  0  0  0  0
  2  8  1  0  0  0  0
  2  3  1  0  0  0  0
  2 21  1  0  0  0  0
  3  4  1  0  0  0  0
  3 22  1  0  0  0  0
  3 23  1  0  0  0  0
  4  5  1  0  0  0  0
  4 24  1  0  0  0  0
  4 25  1  0  0  0  0
  5  6  1  0  0  0  0
  5 26  1  0  0  0  0
  5 27  1  0  0  0  0
  6  7  1  0  0  0  0
  6  8  1  0  0  0  0
  6 28  1  0  0  0  0
  7 29  1  0  0  0  0
  7 30  1  0  0  0  0
  7 31  1  0  0  0  0
  8  9  1  0  0  0  0
  8 32  1  0  0  0  0
  9 10  1  0  0  0  0
  9 33  1  0  0  0  0
 10 11  2  0  0  0  0
 10 12  1  0  0  0  0
 12 13  1  0  0  0  0
 12 34  1  0  0  0  0
 13 17  1  0  0  0  0
 13 14  2  0  0  0  0
 14 15  1  0  0  0  0
 15 16  2  0  0  0  0
 16 17  1  0  0  0  0
 16 35  1  0  0  0  0
M  END
> <s_m_source_file>
AV-unprocessed.smi

> <i_m_source_file_index>
788

> <i_lp_mmshare_version>
43012

> <i_f3d_flags>
0

> <s_epik_input>
W0NIM11bQ0BASF0xW0NIMl1bQ0gyXVtDSDJdW0NAQEhdKFtDSDNdKVtDQEhdMVtOSF1DKD1PKVtOSF1jMm5uW2NIXXMy

> <s_epik_cmdline>
J2VwaWtfcHl0aG9uJywgJy1waCcsICc3LjAnLCAnLXRuJywgJzgnLCAnLW1hJywgJzIwMCcsICctbWV0YWxfYmluZGluZycsICctaW1hZScsICc8aW5maWxlLm1hZT4nLCAnLW9tYWUnLCAnPG91dGZpbGUubWFlPic=

> <r_lp_tautomer_probability>
1

> <r_epik_Ionization_Penalty>
0.000304078

> <r_epik_Ionization_Penalty_Charging>
0

> <r_epik_Ionization_Penalty_Neutral>
0.000304078

> <r_epik_State_Penalty>
-0

> <r_epik_Charging_Adjusted_Penalty>
0

> <i_epik_Tot_Q>
0

> <i_epik_Tot_abs_Q>
0

> <r_epik_Metal_State_Penalty>
0.164801

> <b_epik_Metal_Only>
0

> <s_lp_Force_Field>
OPLS_2005

> <r_lp_Energy>
15.5702

> <b_lp_Chiralities_Consistent>
1

> <s_lp_Variant>
AV-unprocessed.smi:788-4

> <Gold.Version>
5.8.1

> <Gold.Id.Protein>
6NUR|6NUR_protein|mol2

> <Gold.PLP.Fitness>
40.1743

> <Gold.PLP.PLP>
-32.9641

> <Gold.PLP.part.hbond>
-2.0000

> <Gold.PLP.part.metal>
0.0000

> <Gold.PLP.part.buried>
-5.8510

> <Gold.PLP.part.nonpolar>
-26.2782

> <Gold.PLP.part.repulsive>
2.0588

> <Gold.PLP.ligand.clash>
0.0000

> <Gold.PLP.ligand.torsion>
0.2916

> <Gold.PLP.Chemscore.Hbond>
1.8637

> <Gold.PLP.Chemscore.CHOScore>
0.7292

> <Gold.PLP.Chemscore.Metal>
0.0000

> <Gold.Chemscore.Hbonds>
donor molecule, donor type, donor heavy atom, donor atom, acceptor molecule, acceptor atom, score
      L1  H     9    33       P1  8028  0.91
      L1  H    12    34       P1  8028  0.92
      L1  C    16    35       P1 10175  0.73

> <Gold.PLP.Chemscore.Internal.Correction>
0.0145

> <Gold.Rescore>
     Score         DG    S(hbond)    S(metal)    S(lipo)     H(rot)  DE(clash)    DE(int)     intcor
     15.87     -20.19       1.81        0.00      95.99       1.00       0.50       3.82       ----

> <Gold.Chemscore.Fitness>
15.8687

> <Gold.Chemscore.DG>
-20.1891

> <Gold.Chemscore.ZeroCoef>
-5.4800

> <Gold.Chemscore.Hbond>
1.8079

> <Gold.Chemscore.Metal>
0.0000

> <Gold.Chemscore.Lipo>
95.9882

> <Gold.Chemscore.Internal_Hbond>
0.0000

> <Gold.Chemscore.DEClash>
0.4982

> <Gold.Chemscore.DEInternal>
3.8222

> <Gold.Chemscore.Rot>
1.0000

> <Gold.Chemscore.Internal.Correction>
   9.000000E+99

> <Gold.Chemscore.Hbonds>
donor molecule, donor type, donor heavy atom, donor atom, acceptor molecule, acceptor atom, score
      L1  H     9    33       P1  8028  0.87
      L1  H    12    34       P1  8028  0.84

> <Gold.Chemscore.Hbond.Weighted>
-6.0384

> <Gold.Chemscore.Metal.Weighted>
-0.0000

> <Gold.Chemscore.Lipo.Weighted>
-11.2306

> <Gold.Chemscore.Internal_Hbond.Weighted>
0.0000

> <Gold.Chemscore.DEClash.Weighted>
0.4982

> <Gold.Chemscore.DEInternal.Weighted>
3.8222

> <Gold.Chemscore.Rot.Weighted>
2.5600

> <Gold.Chemscore.Internal.Correction.Weighted>
   9.000000E+99

> <Gold.Protein.RotatedTorsions>
[ 6907 6896 6895 6894 ] final   35.62 input  -60.11 | X-H torsion
[ 7974 7965 7964 7962 ] final   99.57 input  175.53 | X-H torsion
[ 8008 7997 7996 7995 ] final   35.43 input   59.86 | X-H torsion
[ 10167 10162 10161 10158 ] final -144.92 input  -65.29 | X-H torsion
[ 10718 10713 10712 10709 ] final -126.61 input   66.30 | X-H torsion
[ 10763 10752 10751 10750 ] final  -89.37 input  -60.55 | X-H torsion
[ 11005 11000 10999 10996 ] final  -11.34 input  -57.11 | X-H torsion

> <Gold.Protein.ActiveResidues>
 VAL166  LYS551  ARG553  GLY616  TRP617  ASP618  TYR619  PRO620  LYS621  CYS622 
 ASP623  PHE694  ASN695  SER759  ASP760  ASP761  ALA762  ILE779  LEU786  VAL792 
 PHE793  MET794  SER795  GLU796  ALA797  LYS798  CYS799  TRP800  GLU811  SER814 

> <Gold.Protein.RotatedAtoms>
  152.1186  134.9222  160.0563 H   0  0  0  0  0  0  0  0  0  0  0  0  # atno 6907 bound_to 6896
  152.0372  133.3957  159.4330 H   0  0  0  0  0  0  0  0  0  0  0  0  # atno 6908 bound_to 6896
  150.6847  134.3376  159.4898 H   0  0  0  0  0  0  0  0  0  0  0  0  # atno 6909 bound_to 6896
  145.3971  139.2353  143.3320 H   0  0  0  0  0  0  0  0  0  0  0  0  # atno 7974 bound_to 7965
  155.1710  140.3291  155.4393 H   0  0  0  0  0  0  0  0  0  0  0  0  # atno 8008 bound_to 7997
  156.2510  140.1943  156.6763 H   0  0  0  0  0  0  0  0  0  0  0  0  # atno 8009 bound_to 7997
  154.6338  140.0579  156.9750 H   0  0  0  0  0  0  0  0  0  0  0  0  # atno 8010 bound_to 7997
  139.7854  143.8042  152.2644 H   0  0  0  0  0  0  0  0  0  0  0  0  # atno 10167 bound_to 10162
  156.1781  130.6713  151.0269 H   0  0  0  0  0  0  0  0  0  0  0  0  # atno 10718 bound_to 10713
  154.6546  135.5343  153.7943 H   0  0  0  0  0  0  0  0  0  0  0  0  # atno 10763 bound_to 10752
  153.0406  135.6491  154.0965 H   0  0  0  0  0  0  0  0  0  0  0  0  # atno 10764 bound_to 10752
  154.0879  135.2942  155.3257 H   0  0  0  0  0  0  0  0  0  0  0  0  # atno 10765 bound_to 10752
  140.7543  133.8567  155.9071 H   0  0  0  0  0  0  0  0  0  0  0  0  # atno 11005 bound_to 11000
  146.2770  140.4663  142.8791 LP  0  0  0  0  0  0  0  0  0  0  0  0  # atno 17320 bound_to 7965
  144.8400  140.6842  143.6236 LP  0  0  0  0  0  0  0  0  0  0  0  0  # atno 17321 bound_to 7965
  139.8117  144.7333  150.9688 LP  0  0  0  0  0  0  0  0  0  0  0  0  # atno 17342 bound_to 10162
  140.7819  143.4244  151.0791 LP  0  0  0  0  0  0  0  0  0  0  0  0  # atno 17343 bound_to 10162
  157.6849  131.0827  150.7269 LP  0  0  0  0  0  0  0  0  0  0  0  0  # atno 17370 bound_to 10713
  156.7326  130.4714  149.5496 LP  0  0  0  0  0  0  0  0  0  0  0  0  # atno 17371 bound_to 10713
  140.9722  134.1516  157.4566 LP  0  0  0  0  0  0  0  0  0  0  0  0  # atno 17394 bound_to 11000
  139.8782  134.9982  156.5889 LP  0  0  0  0  0  0  0  0  0  0  0  0  # atno 17395 bound_to 11000

$$$$
