AV-unprocessed.smi:2449|AV-procd|sdf|9663|dock7
  -GOLD-   2272013303D 1   1.00000     0.00000
 Structure written by MMmdl.
 37 37  0  0  0  0  0  0  0  0  1 V2000
  153.1178  142.8606  162.7243 C   0  0  0  0  0  0  0  0  0  0  0  0
  152.5146  143.7743  161.6525 C   0  0  0  0  0  0  0  0  0  0  0  0
  152.2376  143.0254  160.3326 C   0  0  0  0  0  0  0  0  0  0  0  0
  151.5055  143.8408  159.2296 C   0  0  0  0  0  0  0  0  0  0  0  0
  150.4266  144.7429  159.8606 C   0  0  0  0  0  0  0  0  0  0  0  0
  152.5153  144.7487  158.4939 C   0  0  0  0  0  0  0  0  0  0  0  0
  150.8229  142.9634  158.2695 N   0  0  0  0  0  0  0  0  0  0  0  0
  151.1837  141.7345  157.8586 C   0  0  0  0  0  0  0  0  0  0  0  0
  152.2120  141.1641  158.2238 O   0  0  0  0  0  0  0  0  0  0  0  0
  150.2305  141.0515  156.8683 C   0  0  0  0  0  0  0  0  0  0  0  0
  150.5777  139.6428  156.6304 N   0  0  0  0  0  0  0  0  0  0  0  0
  150.7255  138.7658  157.6955 C   0  0  0  0  0  0  0  0  0  0  0  0
  151.0306  137.4550  157.5448 C   0  0  0  0  0  0  0  0  0  0  0  0
  151.2225  136.8890  156.2138 C   0  0  0  0  0  0  0  0  0  0  0  0
  151.5017  135.7164  155.9751 O   0  0  0  0  0  0  0  0  0  0  0  0
  151.0633  137.8025  155.1683 N   0  0  0  0  0  0  0  0  0  0  0  0
  150.7488  139.1541  155.3163 C   0  0  0  0  0  0  0  0  0  0  0  0
  150.6288  139.8733  154.3249 O   0  0  0  0  0  0  0  0  0  0  0  0
  151.1836  137.4551  154.2278 H   0  0  0  0  0  0  0  0  0  0  0  0
  153.3074  143.4150  163.6438 H   0  0  0  0  0  0  0  0  0  0  0  0
  154.0642  142.4337  162.3911 H   0  0  0  0  0  0  0  0  0  0  0  0
  152.4438  142.0381  162.9650 H   0  0  0  0  0  0  0  0  0  0  0  0
  151.5940  144.2073  162.0439 H   0  0  0  0  0  0  0  0  0  0  0  0
  153.1969  144.6055  161.4776 H   0  0  0  0  0  0  0  0  0  0  0  0
  153.1842  142.6592  159.9325 H   0  0  0  0  0  0  0  0  0  0  0  0
  151.6623  142.1281  160.5626 H   0  0  0  0  0  0  0  0  0  0  0  0
  150.8524  145.4010  160.6189 H   0  0  0  0  0  0  0  0  0  0  0  0
  149.6347  144.1632  160.3348 H   0  0  0  0  0  0  0  0  0  0  0  0
  149.9523  145.3757  159.1094 H   0  0  0  0  0  0  0  0  0  0  0  0
  152.9602  145.4736  159.1766 H   0  0  0  0  0  0  0  0  0  0  0  0
  152.0356  145.3089  157.6904 H   0  0  0  0  0  0  0  0  0  0  0  0
  153.3357  144.1814  158.0542 H   0  0  0  0  0  0  0  0  0  0  0  0
  149.9603  143.3269  157.8909 H   0  0  0  0  0  0  0  0  0  0  0  0
  149.2003  141.1243  157.2235 H   0  0  0  0  0  0  0  0  0  0  0  0
  150.2548  141.6149  155.9346 H   0  0  0  0  0  0  0  0  0  0  0  0
  150.5879  139.1394  158.7002 H   0  0  0  0  0  0  0  0  0  0  0  0
  151.1318  136.8213  158.4141 H   0  0  0  0  0  0  0  0  0  0  0  0
  1  2  1  0  0  0  0
  1 20  1  0  0  0  0
  1 21  1  0  0  0  0
  1 22  1  0  0  0  0
  2  3  1  0  0  0  0
  2 23  1  0  0  0  0
  2 24  1  0  0  0  0
  3  4  1  0  0  0  0
  3 25  1  0  0  0  0
  3 26  1  0  0  0  0
  4  5  1  0  0  0  0
  4  6  1  0  0  0  0
  4  7  1  0  0  0  0
  5 27  1  0  0  0  0
  5 28  1  0  0  0  0
  5 29  1  0  0  0  0
  6 30  1  0  0  0  0
  6 31  1  0  0  0  0
  6 32  1  0  0  0  0
  7  8  1  0  0  0  0
  7 33  1  0  0  0  0
  8  9  2  0  0  0  0
  8 10  1  0  0  0  0
 10 11  1  0  0  0  0
 10 34  1  0  0  0  0
 10 35  1  0  0  0  0
 11 17  1  0  0  0  0
 11 12  1  0  0  0  0
 12 13  2  0  0  0  0
 12 36  1  0  0  0  0
 13 14  1  0  0  0  0
 13 37  1  0  0  0  0
 14 15  2  0  0  0  0
 14 16  1  0  0  0  0
 16 19  1  0  0  0  0
 16 17  1  0  0  0  0
 17 18  2  0  0  0  0
M  END
> <s_m_source_file>
AV-unprocessed.smi

> <i_m_source_file_index>
2449

> <i_lp_mmshare_version>
43012

> <i_f3d_flags>
0

> <s_epik_input>
W0NIM11bQ0gyXVtDSDJdQyhbQ0gzXSkoW0NIM10pW05IXUMoPU8pW0NIMl1uMVtjSF1bY0hdYyg9TylbbkhdYzE9Tw==

> <s_epik_cmdline>
J2VwaWtfcHl0aG9uJywgJy1waCcsICc3LjAnLCAnLXRuJywgJzgnLCAnLW1hJywgJzIwMCcsICctbWV0YWxfYmluZGluZycsICctaW1hZScsICc8aW5maWxlLm1hZT4nLCAnLW9tYWUnLCAnPG91dGZpbGUubWFlPic=

> <r_lp_tautomer_probability>
0.999537

> <r_epik_Ionization_Penalty>
0.00292856

> <r_epik_Ionization_Penalty_Charging>
0.00292854

> <r_epik_Ionization_Penalty_Neutral>
1.95902e-08

> <r_epik_State_Penalty>
0.00205284

> <r_epik_Charging_Adjusted_Penalty>
0.00498138

> <i_epik_Tot_Q>
0

> <i_epik_Tot_abs_Q>
0

> <r_epik_Metal_State_Penalty>
0.360056

> <b_epik_Metal_Only>
0

> <s_lp_Force_Field>
OPLS_2005

> <r_lp_Energy>
5.67084

> <b_lp_Chiralities_Consistent>
1

> <s_lp_Variant>
AV-unprocessed.smi:2449-1

> <Gold.Version>
5.8.1

> <Gold.Id.Protein>
6NUR|6NUR_protein|mol2

> <Gold.PLP.Fitness>
40.4170

> <Gold.PLP.PLP>
-36.4065

> <Gold.PLP.part.hbond>
-2.0000

> <Gold.PLP.part.metal>
0.0000

> <Gold.PLP.part.buried>
-6.8434

> <Gold.PLP.part.nonpolar>
-27.7568

> <Gold.PLP.part.repulsive>
0.2906

> <Gold.PLP.ligand.clash>
0.0000

> <Gold.PLP.ligand.torsion>
1.0132

> <Gold.PLP.Chemscore.Hbond>
2.0000

> <Gold.PLP.Chemscore.CHOScore>
0.0000

> <Gold.PLP.Chemscore.Metal>
0.0000

> <Gold.Chemscore.Hbonds>
donor molecule, donor type, donor heavy atom, donor atom, acceptor molecule, acceptor atom, score
      P1  H  7989  7998       L1    18  1.00
      P1  H 10752 10765       L1    15  1.00

> <Gold.PLP.Chemscore.Internal.Correction>
0.0370

> <Gold.Rescore>
     Score         DG    S(hbond)    S(metal)    S(lipo)     H(rot)  DE(clash)    DE(int)     intcor
     13.02     -16.42       1.98        0.00      83.73       2.14       0.00       3.39       ----

> <Gold.Chemscore.Fitness>
13.0217

> <Gold.Chemscore.DG>
-16.4174

> <Gold.Chemscore.ZeroCoef>
-5.4800

> <Gold.Chemscore.Hbond>
1.9817

> <Gold.Chemscore.Metal>
0.0000

> <Gold.Chemscore.Lipo>
83.7292

> <Gold.Chemscore.Internal_Hbond>
0.0000

> <Gold.Chemscore.DEClash>
0.0038

> <Gold.Chemscore.DEInternal>
3.3920

> <Gold.Chemscore.Rot>
2.1397

> <Gold.Chemscore.Internal.Correction>
   9.000000E+99

> <Gold.Chemscore.Hbonds>
donor molecule, donor type, donor heavy atom, donor atom, acceptor molecule, acceptor atom, score
      P1  H  7989  7998       L1    18  1.00
      P1  H 10752 10765       L1    15  0.86

> <Gold.Chemscore.Hbond.Weighted>
-6.6188

> <Gold.Chemscore.Metal.Weighted>
-0.0000

> <Gold.Chemscore.Lipo.Weighted>
-9.7963

> <Gold.Chemscore.Internal_Hbond.Weighted>
0.0000

> <Gold.Chemscore.DEClash.Weighted>
0.0038

> <Gold.Chemscore.DEInternal.Weighted>
3.3920

> <Gold.Chemscore.Rot.Weighted>
5.4777

> <Gold.Chemscore.Internal.Correction.Weighted>
   9.000000E+99

> <Gold.Protein.RotatedTorsions>
[ 6907 6896 6895 6894 ] final  -70.57 input  -60.11 | X-H torsion
[ 7974 7965 7964 7962 ] final -173.56 input  175.53 | X-H torsion
[ 8008 7997 7996 7995 ] final -156.80 input   59.86 | X-H torsion
[ 10167 10162 10161 10158 ] final  -20.97 input  -65.29 | X-H torsion
[ 10718 10713 10712 10709 ] final  158.18 input   66.30 | X-H torsion
[ 10763 10752 10751 10750 ] final -139.93 input  -60.55 | X-H torsion
[ 11005 11000 10999 10996 ] final -176.29 input  -57.11 | X-H torsion

> <Gold.Protein.ActiveResidues>
 VAL166  LYS551  ARG553  GLY616  TRP617  ASP618  TYR619  PRO620  LYS621  CYS622 
 ASP623  PHE694  ASN695  SER759  ASP760  ASP761  ALA762  ILE779  LEU786  VAL792 
 PHE793  MET794  SER795  GLU796  ALA797  LYS798  CYS799  TRP800  GLU811  SER814 

> <Gold.Protein.RotatedAtoms>
  150.7251  134.5433  159.5757 H   0  0  0  0  0  0  0  0  0  0  0  0  # atno 6907 bound_to 6896
  152.2938  134.7687  160.0381 H   0  0  0  0  0  0  0  0  0  0  0  0  # atno 6908 bound_to 6896
  151.8291  133.3370  159.3644 H   0  0  0  0  0  0  0  0  0  0  0  0  # atno 6909 bound_to 6896
  144.7137  140.1603  143.6376 H   0  0  0  0  0  0  0  0  0  0  0  0  # atno 7974 bound_to 7965
  155.7227  140.0792  157.2324 H   0  0  0  0  0  0  0  0  0  0  0  0  # atno 8008 bound_to 7997
  154.4043  140.1610  156.2474 H   0  0  0  0  0  0  0  0  0  0  0  0  # atno 8009 bound_to 7997
  155.9182  140.3399  155.6154 H   0  0  0  0  0  0  0  0  0  0  0  0  # atno 8010 bound_to 7997
  140.7279  143.4672  151.0297 H   0  0  0  0  0  0  0  0  0  0  0  0  # atno 10167 bound_to 10162
  157.1814  131.0633  151.2130 H   0  0  0  0  0  0  0  0  0  0  0  0  # atno 10718 bound_to 10713
  154.8594  135.3568  154.5626 H   0  0  0  0  0  0  0  0  0  0  0  0  # atno 10763 bound_to 10752
  153.6240  135.7005  153.5304 H   0  0  0  0  0  0  0  0  0  0  0  0  # atno 10764 bound_to 10752
  153.3105  135.4180  155.1291 H   0  0  0  0  0  0  0  0  0  0  0  0  # atno 10765 bound_to 10752
  140.4537  134.6319  157.4812 H   0  0  0  0  0  0  0  0  0  0  0  0  # atno 11005 bound_to 11000
  145.9036  139.2445  143.1479 LP  0  0  0  0  0  0  0  0  0  0  0  0  # atno 17320 bound_to 7965
  145.9786  140.8701  143.0126 LP  0  0  0  0  0  0  0  0  0  0  0  0  # atno 17321 bound_to 7965
  139.8361  143.7625  152.3180 LP  0  0  0  0  0  0  0  0  0  0  0  0  # atno 17342 bound_to 10162
  139.7758  144.7461  151.0159 LP  0  0  0  0  0  0  0  0  0  0  0  0  # atno 17343 bound_to 10162
  157.3949  130.7302  149.6724 LP  0  0  0  0  0  0  0  0  0  0  0  0  # atno 17370 bound_to 10713
  155.9724  130.4136  150.4092 LP  0  0  0  0  0  0  0  0  0  0  0  0  # atno 17371 bound_to 10713
  139.9990  134.6866  155.9562 LP  0  0  0  0  0  0  0  0  0  0  0  0  # atno 17394 bound_to 11000
  141.1652  133.6537  156.4456 LP  0  0  0  0  0  0  0  0  0  0  0  0  # atno 17395 bound_to 11000

$$$$
