#       Name:                AV-unprocessed.smi:221
#       Creating user name   scv26
#       Creation time:       Thu Mar 26 20:15:04 2020


#       File generated by GOLD software.
#

@<TRIPOS>MOLECULE
AV-unprocessed.smi:221
    60    63     1
SMALL
NO_CHARGES


@<TRIPOS>ATOM
      1 ****        -4.3613   3.0212  -2.2601 N.am           1 S1                 0.0000
      2 ****        -3.2223   3.4049  -1.6790 C.2            1 S1                 0.0000
      3 ****        -2.2146   3.6745  -2.3306 O.2            1 S1                 0.0000
      4 ****        -3.2308   3.5157  -0.1474 C.3            1 S1                 0.0000
      5 ****        -3.4874   4.9538   0.3224 C.3            1 S1                 0.0000
      6 ****        -2.8747   4.9739   1.7181 C.3            1 S1                 0.0000
      7 ****        -3.7330   4.4434   2.5907 F              1 S1                 0.0000
      8 ****        -1.6578   4.0577   1.5773 C.3            1 S1                 0.0000
      9 ****        -1.9321   3.1799   0.4417 N.3            1 S1                 0.0000
     10 ****        -1.7043   1.8626   0.6438 C.ar           1 S1                 0.0000
     11 ****        -2.4106   1.1869   1.5882 N.ar           1 S1                 0.0000
     12 ****        -2.1880  -0.1171   1.7796 C.ar           1 S1                 0.0000
     13 ****        -1.3248  -0.9181   1.1506 N.ar           1 S1                 0.0000
     14 ****        -0.6160  -0.2383   0.2035 C.ar           1 S1                 0.0000
     15 ****        -0.7436   1.1426  -0.1122 C.ar           1 S1                 0.0000
     16 ****         0.1378   1.4848  -1.1296 N.2            1 S1                 0.0000
     17 ****         0.7547   0.3670  -1.4010 C.2            1 S1                 0.0000
     18 ****         0.3702  -0.7156  -0.6420 N.pl3          1 S1                 0.0000
     19 ****         0.8976  -2.0662  -0.7302 C.3            1 S1                 0.0000
     20 ****         2.3230  -2.2037  -0.1396 C.3            1 S1                 0.0000
     21 ****         2.4365  -1.6286   1.2937 C.3            1 S1                 0.0000
     22 ****         1.6161  -2.3361   2.2009 O.3            1 S1                 0.0000
     23 ****         2.8402  -3.6619  -0.2262 C.3            1 S1                 0.0000
     24 ****         2.8866  -4.2430  -1.6284 C.3            1 S1                 0.0000
     25 ****         3.8284  -5.4279  -1.4492 C.3            1 S1                 0.0000
     26 ****         4.7718  -5.0167  -0.4668 O.3            1 S1                 0.0000
     27 ****         4.2994  -3.8519   0.2041 C.3            1 S1                 0.0000
     28 ****        -4.0066   2.8643   0.2610 H              1 S1                 0.0000
     29 ****        -2.6243   5.9752   2.0694 H              1 S1                 0.0000
     30 ****        -4.4050   2.9323  -3.2649 H              1 S1                 0.0000
     31 ****        -5.1735   2.8201  -1.6951 H              1 S1                 0.0000
     32 ****        -2.9654   5.6713  -0.3137 H              1 S1                 0.0000
     33 ****        -4.5458   5.2161   0.3236 H              1 S1                 0.0000
     34 ****        -0.7757   4.6479   1.3271 H              1 S1                 0.0000
     35 ****        -1.4375   3.5302   2.5074 H              1 S1                 0.0000
     36 ****        -2.7878  -0.5859   2.5455 H              1 S1                 0.0000
     37 ****         1.5175   0.3016  -2.1634 H              1 S1                 0.0000
     38 ****         0.2106  -2.7440  -0.2221 H              1 S1                 0.0000
     39 ****         0.8893  -2.3524  -1.7821 H              1 S1                 0.0000
     40 ****         2.9788  -1.5948  -0.7637 H              1 S1                 0.0000
     41 ****         3.4657  -1.6724   1.6494 H              1 S1                 0.0000
     42 ****         2.1577  -0.5752   1.3180 H              1 S1                 0.0000
     43 ****         1.6875  -1.9305   3.0514 H              1 S1                 0.0000
     44 ****         2.2108  -4.3092   0.3872 H              1 S1                 0.0000
     45 ****         1.9082  -4.5439  -2.0037 H              1 S1                 0.0000
     46 ****         3.3170  -3.5244  -2.3276 H              1 S1                 0.0000
     47 ****         3.2833  -6.2917  -1.0667 H              1 S1                 0.0000
     48 ****         4.3177  -5.7196  -2.3787 H              1 S1                 0.0000
     49 ****         4.9113  -3.0068  -0.1141 H              1 S1                 0.0000
     50 ****         4.4034  -3.9541   1.2844 H              1 S1                 0.0000
     51 ****        -2.2320   3.6094  -3.3283 LP             1 S1                 0.0000
     52 ****        -1.3778   3.9589  -1.8627 LP             1 S1                 0.0000
     53 ****        -1.2341   3.3700  -0.2487 LP             1 S1                 0.0000
     54 ****        -3.0954   1.6644   2.1387 LP             1 S1                 0.0000
     55 ****        -1.2121  -1.8918   1.3483 LP             1 S1                 0.0000
     56 ****         0.2693   2.3800  -1.5555 LP             1 S1                 0.0000
     57 ****         1.9172  -3.2881   2.2553 LP             1 S1                 0.0000
     58 ****         0.6659  -2.3041   1.8911 LP             1 S1                 0.0000
     59 ****         5.6444  -4.8124  -0.9105 LP             1 S1                 0.0000
     60 ****         4.9001  -5.7527   0.1979 LP             1 S1                 0.0000
@<TRIPOS>BOND
    1    1    2 am    
    2    1   30 1     
    3    1   31 1     
    4    2    3 2     
    5    2    4 1     
    6    4   28 1     
    7    4    9 1     
    8    4    5 1     
    9    5    6 1     
   10    5   32 1     
   11    5   33 1     
   12    6   29 1     
   13    6    7 1     
   14    6    8 1     
   15    8    9 1     
   16    8   34 1     
   17    8   35 1     
   18    9   10 1     
   19   10   15 ar    
   20   10   11 ar    
   21   11   12 ar    
   22   12   13 ar    
   23   12   36 1     
   24   13   14 ar    
   25   14   18 1     
   26   14   15 ar    
   27   15   16 1     
   28   16   17 2     
   29   17   18 1     
   30   17   37 1     
   31   18   19 1     
   32   19   20 1     
   33   19   38 1     
   34   19   39 1     
   35   20   21 1     
   36   20   23 1     
   37   20   40 1     
   38   21   22 1     
   39   21   41 1     
   40   21   42 1     
   41   22   43 1     
   42   23   27 1     
   43   23   24 1     
   44   23   44 1     
   45   24   25 1     
   46   24   45 1     
   47   24   46 1     
   48   25   26 1     
   49   25   47 1     
   50   25   48 1     
   51   26   27 1     
   52   27   49 1     
   53   27   50 1     
   54    3   51 1     
   55    3   52 1     
   56    9   53 1     
   57   11   54 1     
   58   13   55 1     
   59   16   56 1     
   60   22   57 1     
   61   22   58 1     
   62   26   59 1     
   63   26   60 1     
@<TRIPOS>SUBSTRUCTURE
      1 S1             1
@<TRIPOS>SET
LONE_PAIRS      STATIC     ATOMS    <user>   **** ""
10 51 52 53 54 55 56 57 58 59 60
DONOR_HYDROGENS      STATIC     ATOMS    <user>   **** ""
3 30 31 43
ATOM$BLUE        STATIC     ATOMS    COLORGROUP SYSTEM
10 51 52 53 54 55 56 57 58 59 60
ATOM$RED        STATIC     ATOMS    COLORGROUP SYSTEM
3 30 31 43
