AV-unprocessed.smi:1758|AV-procd|sdf|7082|dock3
  -GOLD-   22720 8303D 1   1.00000     0.00000
 Structure written by MMmdl.
 44 46  0  0  0  0  0  0  0  0  2 V2000
  152.7003  142.8485  159.9223 C   0  0  0  0  0  0  0  0  0  0  0  0
  152.1048  143.4104  158.6255 C   0  0  0  0  0  0  0  0  0  0  0  0
  151.5735  142.3603  157.7789 N   0  0  0  0  0  0  0  0  0  0  0  0
  150.9173  142.4876  156.5705 C   0  0  0  0  0  0  0  0  0  0  0  0
  150.6275  141.2131  156.1724 C   0  0  0  0  0  0  0  0  0  0  0  0
  149.9720  140.7641  154.9985 N   0  0  0  0  0  0  0  0  0  0  0  0
  148.6807  140.4200  154.8677 C   0  0  0  0  0  0  0  0  0  0  0  0
  147.8524  140.4157  155.7781 O   0  0  0  0  0  0  0  0  0  0  0  0
  148.3988  140.0577  153.6079 N   0  0  0  0  0  0  0  0  0  0  0  0
  147.0893  139.6188  153.1284 C   0  0  1  0  0  0  0  0  0  0  0  0
  147.0518  139.3949  151.6043 C   0  0  0  0  0  0  0  0  0  0  0  0
  146.2172  138.1232  151.4206 C   0  0  0  0  0  0  0  0  0  0  0  0
  146.5509  137.3388  152.6149 N   0  3  2  0  0  0  0  0  0  0  0  0
  145.7523  136.1338  152.9166 C   0  0  0  0  0  0  0  0  0  0  0  0
  146.4166  135.3935  154.0974 C   0  0  0  0  0  0  0  0  0  0  0  0
  146.6549  136.3211  155.3107 C   0  0  0  0  0  0  0  0  0  0  0  0
  147.3784  137.6235  154.9045 C   0  0  0  0  0  0  0  0  0  0  0  0
  146.6105  138.2825  153.7447 C   0  0  1  0  0  0  0  0  0  0  0  0
  151.1383  140.3639  157.1882 C   0  0  0  0  0  0  0  0  0  0  0  0
  151.7054  141.0649  158.1578 N   0  0  0  0  0  0  0  0  0  0  0  0
  153.1060  143.6492  160.5409 H   0  0  0  0  0  0  0  0  0  0  0  0
  153.5090  142.1478  159.7124 H   0  0  0  0  0  0  0  0  0  0  0  0
  151.9463  142.3238  160.5099 H   0  0  0  0  0  0  0  0  0  0  0  0
  151.3063  144.1190  158.8490 H   0  0  0  0  0  0  0  0  0  0  0  0
  152.8670  143.9561  158.0683 H   0  0  0  0  0  0  0  0  0  0  0  0
  150.7295  143.4501  156.1180 H   0  0  0  0  0  0  0  0  0  0  0  0
  150.5495  140.6955  154.1735 H   0  0  0  0  0  0  0  0  0  0  0  0
  149.1449  140.0926  152.9287 H   0  0  0  0  0  0  0  0  0  0  0  0
  146.3508  140.3871  153.3672 H   0  0  0  0  0  0  0  0  0  0  0  0
  146.6381  140.2471  151.0642 H   0  0  0  0  0  0  0  0  0  0  0  0
  148.0589  139.2213  151.2217 H   0  0  0  0  0  0  0  0  0  0  0  0
  145.1517  138.3592  151.4191 H   0  0  0  0  0  0  0  0  0  0  0  0
  146.4569  137.5900  150.5004 H   0  0  0  0  0  0  0  0  0  0  0  0
  144.7256  136.4128  153.1583 H   0  0  0  0  0  0  0  0  0  0  0  0
  145.7151  135.4868  152.0397 H   0  0  0  0  0  0  0  0  0  0  0  0
  145.8076  134.5390  154.3935 H   0  0  0  0  0  0  0  0  0  0  0  0
  147.3740  134.9865  153.7693 H   0  0  0  0  0  0  0  0  0  0  0  0
  145.6947  136.5702  155.7645 H   0  0  0  0  0  0  0  0  0  0  0  0
  147.2282  135.7973  156.0763 H   0  0  0  0  0  0  0  0  0  0  0  0
  147.4316  138.2965  155.7607 H   0  0  0  0  0  0  0  0  0  0  0  0
  148.4042  137.4037  154.6058 H   0  0  0  0  0  0  0  0  0  0  0  0
  145.5852  138.4536  154.0808 H   0  0  0  0  0  0  0  0  0  0  0  0
  151.1170  139.2862  157.2540 H   0  0  0  0  0  0  0  0  0  0  0  0
  147.4988  137.0220  152.4689 H   0  0  0  0  0  0  0  0  0  0  0  0
  1  2  1  0  0  0  0
  1 21  1  0  0  0  0
  1 22  1  0  0  0  0
  1 23  1  0  0  0  0
  2  3  1  0  0  0  0
  2 24  1  0  0  0  0
  2 25  1  0  0  0  0
  3 20  1  0  0  0  0
  3  4  1  0  0  0  0
  4  5  2  0  0  0  0
  4 26  1  0  0  0  0
  5  6  1  0  0  0  0
  5 19  1  0  0  0  0
  6  7  1  0  0  0  0
  6 27  1  0  0  0  0
  7  8  2  0  0  0  0
  7  9  1  0  0  0  0
  9 10  1  0  0  0  0
  9 28  1  0  0  0  0
 10 18  1  0  0  0  0
 10 11  1  0  0  0  0
 10 29  1  0  0  0  0
 11 12  1  0  0  0  0
 11 30  1  0  0  0  0
 11 31  1  0  0  0  0
 12 13  1  0  0  0  0
 12 32  1  0  0  0  0
 12 33  1  0  0  0  0
 13 18  1  0  0  0  0
 13 14  1  0  0  0  0
 13 44  1  0  0  0  0
 14 15  1  0  0  0  0
 14 34  1  0  0  0  0
 14 35  1  0  0  0  0
 15 16  1  0  0  0  0
 15 36  1  0  0  0  0
 15 37  1  0  0  0  0
 16 17  1  0  0  0  0
 16 38  1  0  0  0  0
 16 39  1  0  0  0  0
 17 18  1  0  0  0  0
 17 40  1  0  0  0  0
 17 41  1  0  0  0  0
 18 42  1  0  0  0  0
 19 20  2  0  0  0  0
 19 43  1  0  0  0  0
M  CHG  1  13   1
M  END
> <s_m_source_file>
AV-unprocessed.smi

> <i_m_source_file_index>
1758

> <i_lp_mmshare_version>
43012

> <i_f3d_flags>
0

> <s_epik_input>
W0NIM11bQ0gyXW4xW2NIXWMoW2NIXW4xKVtOSF1DKD1PKVtOSF1bQ0BIXShbQ0gyXVtDSDJdMilbQ0BASF0oTjIzKVtDSDJdW0NIMl1bQ0gyXVtDSDJdMw==

> <s_epik_cmdline>
J2VwaWtfcHl0aG9uJywgJy1waCcsICc3LjAnLCAnLXRuJywgJzgnLCAnLW1hJywgJzIwMCcsICctbWV0YWxfYmluZGluZycsICctaW1hZScsICc8aW5maWxlLm1hZT4nLCAnLW9tYWUnLCAnPG91dGZpbGUubWFlPic=

> <r_lp_tautomer_probability>
1

> <r_epik_Ionization_Penalty>
0.00111541

> <r_epik_Ionization_Penalty_Charging>
0.000974069

> <r_epik_Ionization_Penalty_Neutral>
0.000141346

> <r_epik_State_Penalty>
0.000633842

> <r_epik_Charging_Adjusted_Penalty>
0.00160791

> <i_epik_Tot_Q>
1

> <i_epik_Tot_abs_Q>
1

> <r_epik_Metal_State_Penalty>
-0

> <b_epik_Metal_Only>
0

> <s_lp_Force_Field>
OPLS_2005

> <r_lp_Energy>
45.3498

> <b_lp_Chiralities_Consistent>
1

> <s_lp_Variant>
AV-unprocessed.smi:1758-4

> <Gold.Version>
5.8.1

> <Gold.Id.Protein>
6NUR|6NUR_protein|mol2

> <Gold.PLP.Fitness>
40.7751

> <Gold.PLP.PLP>
-30.4406

> <Gold.PLP.part.hbond>
-2.0000

> <Gold.PLP.part.metal>
0.0000

> <Gold.PLP.part.buried>
0.9624

> <Gold.PLP.part.nonpolar>
-29.5373

> <Gold.PLP.part.repulsive>
0.8159

> <Gold.PLP.ligand.clash>
0.0000

> <Gold.PLP.ligand.torsion>
0.7740

> <Gold.PLP.Chemscore.Hbond>
2.9600

> <Gold.PLP.Chemscore.CHOScore>
1.0000

> <Gold.PLP.Chemscore.Metal>
0.0000

> <Gold.Chemscore.Hbonds>
donor molecule, donor type, donor heavy atom, donor atom, acceptor molecule, acceptor atom, score
      L1  H     9    28       P1  7957  0.93
      L1  H    13    44       P1  7948  2.00
      L1  C     4    26       P1  8028  1.00

> <Gold.PLP.Chemscore.Internal.Correction>
0.0024

> <Gold.Rescore>
     Score         DG    S(hbond)    S(metal)    S(lipo)     H(rot)  DE(clash)    DE(int)     intcor
     15.09     -18.52       1.86        0.00      84.50       1.19       2.57       0.87       ----

> <Gold.Chemscore.Fitness>
15.0878

> <Gold.Chemscore.DG>
-18.5225

> <Gold.Chemscore.ZeroCoef>
-5.4800

> <Gold.Chemscore.Hbond>
1.8558

> <Gold.Chemscore.Metal>
0.0000

> <Gold.Chemscore.Lipo>
84.4991

> <Gold.Chemscore.Internal_Hbond>
0.0000

> <Gold.Chemscore.DEClash>
2.5677

> <Gold.Chemscore.DEInternal>
0.8670

> <Gold.Chemscore.Rot>
1.1884

> <Gold.Chemscore.Internal.Correction>
   9.000000E+99

> <Gold.Chemscore.Hbonds>
donor molecule, donor type, donor heavy atom, donor atom, acceptor molecule, acceptor atom, score
      L1  H     9    28       P1  7957  0.91
      L1  H    13    44       P1  7948  1.00

> <Gold.Chemscore.Hbond.Weighted>
-6.1984

> <Gold.Chemscore.Metal.Weighted>
-0.0000

> <Gold.Chemscore.Lipo.Weighted>
-9.8864

> <Gold.Chemscore.Internal_Hbond.Weighted>
0.0000

> <Gold.Chemscore.DEClash.Weighted>
2.5677

> <Gold.Chemscore.DEInternal.Weighted>
0.8670

> <Gold.Chemscore.Rot.Weighted>
3.0423

> <Gold.Chemscore.Internal.Correction.Weighted>
   9.000000E+99

> <Gold.Protein.RotatedTorsions>
[ 6907 6896 6895 6894 ] final   51.73 input  -60.11 | X-H torsion
[ 7974 7965 7964 7962 ] final  176.28 input  175.53 | X-H torsion
[ 8008 7997 7996 7995 ] final  -48.56 input   59.86 | X-H torsion
[ 10167 10162 10161 10158 ] final   43.15 input  -65.29 | X-H torsion
[ 10718 10713 10712 10709 ] final   52.04 input   66.30 | X-H torsion
[ 10763 10752 10751 10750 ] final -136.90 input  -60.55 | X-H torsion
[ 11005 11000 10999 10996 ] final -113.54 input  -57.11 | X-H torsion

> <Gold.Protein.ActiveResidues>
 VAL166  LYS551  ARG553  GLY616  TRP617  ASP618  TYR619  PRO620  LYS621  CYS622 
 ASP623  PHE694  ASN695  SER759  ASP760  ASP761  ALA762  ILE779  LEU786  VAL792 
 PHE793  MET794  SER795  GLU796  ALA797  LYS798  CYS799  TRP800  GLU811  SER814 

> <Gold.Protein.RotatedAtoms>
  152.3158  134.7442  160.0325 H   0  0  0  0  0  0  0  0  0  0  0  0  # atno 6907 bound_to 6896
  151.7907  133.3354  159.3506 H   0  0  0  0  0  0  0  0  0  0  0  0  # atno 6908 bound_to 6896
  150.7343  134.5776  159.5966 H   0  0  0  0  0  0  0  0  0  0  0  0  # atno 6909 bound_to 6896
  144.7187  140.0072  143.6440 H   0  0  0  0  0  0  0  0  0  0  0  0  # atno 7974 bound_to 7965
  154.4031  140.1318  156.4359 H   0  0  0  0  0  0  0  0  0  0  0  0  # atno 8008 bound_to 7997
  155.7506  140.3488  155.5128 H   0  0  0  0  0  0  0  0  0  0  0  0  # atno 8009 bound_to 7997
  155.8953  140.1010  157.1379 H   0  0  0  0  0  0  0  0  0  0  0  0  # atno 8010 bound_to 7997
  140.3473  144.2395  150.6149 H   0  0  0  0  0  0  0  0  0  0  0  0  # atno 10167 bound_to 10162
  157.5038  130.8455  149.8349 H   0  0  0  0  0  0  0  0  0  0  0  0  # atno 10718 bound_to 10713
  154.8674  135.3658  154.5135 H   0  0  0  0  0  0  0  0  0  0  0  0  # atno 10763 bound_to 10752
  153.5769  135.7019  153.5485 H   0  0  0  0  0  0  0  0  0  0  0  0  # atno 10764 bound_to 10752
  153.3491  135.4077  155.1595 H   0  0  0  0  0  0  0  0  0  0  0  0  # atno 10765 bound_to 10752
  141.0608  133.9539  157.2671 H   0  0  0  0  0  0  0  0  0  0  0  0  # atno 11005 bound_to 11000
  146.0287  139.3316  143.0768 LP  0  0  0  0  0  0  0  0  0  0  0  0  # atno 17320 bound_to 7965
  145.8479  140.9545  143.0765 LP  0  0  0  0  0  0  0  0  0  0  0  0  # atno 17321 bound_to 7965
  140.5252  143.2256  151.8325 LP  0  0  0  0  0  0  0  0  0  0  0  0  # atno 17342 bound_to 10162
  139.4831  144.4788  151.9333 LP  0  0  0  0  0  0  0  0  0  0  0  0  # atno 17343 bound_to 10162
  156.0245  130.3784  150.1862 LP  0  0  0  0  0  0  0  0  0  0  0  0  # atno 17370 bound_to 10713
  157.0052  130.9934  151.3380 LP  0  0  0  0  0  0  0  0  0  0  0  0  # atno 17371 bound_to 10713
  139.9431  135.0188  156.8768 LP  0  0  0  0  0  0  0  0  0  0  0  0  # atno 17394 bound_to 11000
  140.5873  134.0295  155.7486 LP  0  0  0  0  0  0  0  0  0  0  0  0  # atno 17395 bound_to 11000

$$$$
