AV-unprocessed.smi:929|AV-procd|sdf|4195|dock3
  -GOLD-   22720 2103D 1   1.00000     0.00000
 Structure written by MMmdl.
 34 35  0  0  0  0  0  0  0  0  1 V2000
  147.0160  139.2951  152.8254 C   0  0  0  0  0  0  0  0  0  0  0  0
  148.1477  139.7993  153.6656 C   0  0  0  0  0  0  0  0  0  0  0  0
  148.2391  141.1248  154.1975 C   0  0  0  0  0  0  0  0  0  0  0  0
  149.3816  141.3169  154.9338 C   0  0  0  0  0  0  0  0  0  0  0  0
  149.8550  142.3956  155.6063 N   0  0  0  0  0  0  0  0  0  0  0  0
  150.9052  142.4521  156.4427 C   0  0  0  0  0  0  0  0  0  0  0  0
  151.6115  141.4962  156.7649 O   0  0  0  0  0  0  0  0  0  0  0  0
  151.0987  143.7003  156.8942 N   0  0  0  0  0  0  0  0  0  0  0  0
  152.1749  144.1138  157.7928 C   0  0  0  0  0  0  0  0  0  0  0  0
  151.7498  144.1643  159.2727 C   0  0  0  0  0  0  0  0  0  0  0  0
  150.8009  144.8717  159.6169 O   0  0  0  0  0  0  0  0  0  0  0  0
  152.4353  143.4102  160.1564 N   0  0  0  0  0  0  0  0  0  0  0  0
  152.1902  143.3467  161.5970 C   0  0  0  0  0  0  0  0  0  0  0  0
  153.3705  142.5704  162.1823 C   0  0  0  0  0  0  0  0  0  0  0  0
  153.8570  141.7060  161.0275 C   0  0  0  0  0  0  0  0  0  0  0  0
  153.5478  142.5387  159.7832 C   0  0  0  0  0  0  0  0  0  0  0  0
  150.2612  139.8239  154.9052 S   0  0  0  0  0  0  0  0  0  0  0  0
  149.1506  138.9980  153.9565 N   0  0  0  0  0  0  0  0  0  0  0  0
  146.1618  139.9718  152.8596 H   0  0  0  0  0  0  0  0  0  0  0  0
  146.6725  138.3184  153.1671 H   0  0  0  0  0  0  0  0  0  0  0  0
  147.3156  139.1955  151.7821 H   0  0  0  0  0  0  0  0  0  0  0  0
  147.4711  141.8618  154.0181 H   0  0  0  0  0  0  0  0  0  0  0  0
  149.3610  143.2608  155.4437 H   0  0  0  0  0  0  0  0  0  0  0  0
  150.4738  144.4247  156.5725 H   0  0  0  0  0  0  0  0  0  0  0  0
  152.9922  143.4003  157.6868 H   0  0  0  0  0  0  0  0  0  0  0  0
  152.5604  145.0853  157.4795 H   0  0  0  0  0  0  0  0  0  0  0  0
  152.1105  144.3363  162.0489 H   0  0  0  0  0  0  0  0  0  0  0  0
  151.2569  142.8116  161.7775 H   0  0  0  0  0  0  0  0  0  0  0  0
  154.1585  143.2671  162.4719 H   0  0  0  0  0  0  0  0  0  0  0  0
  153.0990  141.9879  163.0632 H   0  0  0  0  0  0  0  0  0  0  0  0
  154.9118  141.4425  161.1096 H   0  0  0  0  0  0  0  0  0  0  0  0
  153.2822  140.7793  160.9993 H   0  0  0  0  0  0  0  0  0  0  0  0
  153.3037  141.9021  158.9311 H   0  0  0  0  0  0  0  0  0  0  0  0
  154.4054  143.1559  159.5113 H   0  0  0  0  0  0  0  0  0  0  0  0
  1  2  1  0  0  0  0
  1 19  1  0  0  0  0
  1 20  1  0  0  0  0
  1 21  1  0  0  0  0
  2 18  2  0  0  0  0
  2  3  1  0  0  0  0
  3  4  2  0  0  0  0
  3 22  1  0  0  0  0
  4  5  1  0  0  0  0
  4 17  1  0  0  0  0
  5  6  1  0  0  0  0
  5 23  1  0  0  0  0
  6  7  2  0  0  0  0
  6  8  1  0  0  0  0
  8  9  1  0  0  0  0
  8 24  1  0  0  0  0
  9 10  1  0  0  0  0
  9 25  1  0  0  0  0
  9 26  1  0  0  0  0
 10 11  2  0  0  0  0
 10 12  1  0  0  0  0
 12 16  1  0  0  0  0
 12 13  1  0  0  0  0
 13 14  1  0  0  0  0
 13 27  1  0  0  0  0
 13 28  1  0  0  0  0
 14 15  1  0  0  0  0
 14 29  1  0  0  0  0
 14 30  1  0  0  0  0
 15 16  1  0  0  0  0
 15 31  1  0  0  0  0
 15 32  1  0  0  0  0
 16 33  1  0  0  0  0
 16 34  1  0  0  0  0
 17 18  1  0  0  0  0
M  END
> <s_m_source_file>
AV-unprocessed.smi

> <i_m_source_file_index>
929

> <i_lp_mmshare_version>
43012

> <i_f3d_flags>
0

> <s_epik_input>
W0NIM11jMVtjSF1jKHNuMSlbTkhdQyg9TylbTkhdW0NIMl1DKD1PKU4yW0NIMl1bQ0gyXVtDSDJdW0NIMl0y

> <s_epik_cmdline>
J2VwaWtfcHl0aG9uJywgJy1waCcsICc3LjAnLCAnLXRuJywgJzgnLCAnLW1hJywgJzIwMCcsICctbWV0YWxfYmluZGluZycsICctaW1hZScsICc8aW5maWxlLm1hZT4nLCAnLW9tYWUnLCAnPG91dGZpbGUubWFlPic=

> <r_lp_tautomer_probability>
1

> <r_epik_Ionization_Penalty>
3.14678e-05

> <r_epik_Ionization_Penalty_Charging>
0

> <r_epik_Ionization_Penalty_Neutral>
3.14678e-05

> <r_epik_State_Penalty>
-0

> <r_epik_Charging_Adjusted_Penalty>
0

> <i_epik_Tot_Q>
0

> <i_epik_Tot_abs_Q>
0

> <r_epik_Metal_State_Penalty>
-0

> <b_epik_Metal_Only>
0

> <s_lp_Force_Field>
OPLS_2005

> <r_lp_Energy>
23.5851

> <b_lp_Chiralities_Consistent>
1

> <s_lp_Variant>
AV-unprocessed.smi:929-1

> <Gold.Version>
5.8.1

> <Gold.Id.Protein>
6NUR|6NUR_protein|mol2

> <Gold.PLP.Fitness>
50.1699

> <Gold.PLP.PLP>
-44.7644

> <Gold.PLP.part.hbond>
-2.0000

> <Gold.PLP.part.metal>
0.0000

> <Gold.PLP.part.buried>
-4.1258

> <Gold.PLP.part.nonpolar>
-38.8499

> <Gold.PLP.part.repulsive>
0.5559

> <Gold.PLP.ligand.clash>
0.0000

> <Gold.PLP.ligand.torsion>
0.1918

> <Gold.PLP.Chemscore.Hbond>
1.9280

> <Gold.PLP.Chemscore.CHOScore>
0.0000

> <Gold.PLP.Chemscore.Metal>
0.0000

> <Gold.Chemscore.Hbonds>
donor molecule, donor type, donor heavy atom, donor atom, acceptor molecule, acceptor atom, score
      L1  H     5    23       P1  8028  1.00
      L1  H     8    24       P1  8028  0.90

> <Gold.PLP.Chemscore.Internal.Correction>
0.0051

> <Gold.Rescore>
     Score         DG    S(hbond)    S(metal)    S(lipo)     H(rot)  DE(clash)    DE(int)     intcor
     17.81     -19.39       1.93        0.00      92.18       1.29       0.04       1.54       ----

> <Gold.Chemscore.Fitness>
17.8068

> <Gold.Chemscore.DG>
-19.3896

> <Gold.Chemscore.ZeroCoef>
-5.4800

> <Gold.Chemscore.Hbond>
1.9268

> <Gold.Chemscore.Metal>
0.0000

> <Gold.Chemscore.Lipo>
92.1763

> <Gold.Chemscore.Internal_Hbond>
0.0000

> <Gold.Chemscore.DEClash>
0.0385

> <Gold.Chemscore.DEInternal>
1.5444

> <Gold.Chemscore.Rot>
1.2931

> <Gold.Chemscore.Internal.Correction>
   9.000000E+99

> <Gold.Chemscore.Hbonds>
donor molecule, donor type, donor heavy atom, donor atom, acceptor molecule, acceptor atom, score
      L1  H     5    23       P1  8028  0.94
      L1  H     8    24       P1  8028  0.87

> <Gold.Chemscore.Hbond.Weighted>
-6.4355

> <Gold.Chemscore.Metal.Weighted>
-0.0000

> <Gold.Chemscore.Lipo.Weighted>
-10.7846

> <Gold.Chemscore.Internal_Hbond.Weighted>
0.0000

> <Gold.Chemscore.DEClash.Weighted>
0.0385

> <Gold.Chemscore.DEInternal.Weighted>
1.5444

> <Gold.Chemscore.Rot.Weighted>
3.3105

> <Gold.Chemscore.Internal.Correction.Weighted>
   9.000000E+99

> <Gold.Protein.RotatedTorsions>
[ 6907 6896 6895 6894 ] final   66.29 input  -60.11 | X-H torsion
[ 7974 7965 7964 7962 ] final   46.05 input  175.53 | X-H torsion
[ 8008 7997 7996 7995 ] final  122.11 input   59.86 | X-H torsion
[ 10167 10162 10161 10158 ] final   41.76 input  -65.29 | X-H torsion
[ 10718 10713 10712 10709 ] final   92.62 input   66.30 | X-H torsion
[ 10763 10752 10751 10750 ] final  170.01 input  -60.55 | X-H torsion
[ 11005 11000 10999 10996 ] final  -51.98 input  -57.11 | X-H torsion

> <Gold.Protein.ActiveResidues>
 VAL166  LYS551  ARG553  GLY616  TRP617  ASP618  TYR619  PRO620  LYS621  CYS622 
 ASP623  PHE694  ASN695  SER759  ASP760  ASP761  ALA762  ILE779  LEU786  VAL792 
 PHE793  MET794  SER795  GLU796  ALA797  LYS798  CYS799  TRP800  GLU811  SER814 

> <Gold.Protein.RotatedAtoms>
  152.4470  134.5474  159.9856 H   0  0  0  0  0  0  0  0  0  0  0  0  # atno 6907 bound_to 6896
  151.5556  133.3405  159.2969 H   0  0  0  0  0  0  0  0  0  0  0  0  # atno 6908 bound_to 6896
  150.8389  134.7705  159.6979 H   0  0  0  0  0  0  0  0  0  0  0  0  # atno 6909 bound_to 6896
  146.0425  139.4898  142.9769 H   0  0  0  0  0  0  0  0  0  0  0  0  # atno 7974 bound_to 7965
  156.2714  140.2793  156.1414 H   0  0  0  0  0  0  0  0  0  0  0  0  # atno 8008 bound_to 7997
  155.0949  140.0389  157.2697 H   0  0  0  0  0  0  0  0  0  0  0  0  # atno 8009 bound_to 7997
  154.6860  140.2619  155.6866 H   0  0  0  0  0  0  0  0  0  0  0  0  # atno 8010 bound_to 7997
  140.3611  144.2227  150.6138 H   0  0  0  0  0  0  0  0  0  0  0  0  # atno 10167 bound_to 10162
  157.6958  131.0450  150.3910 H   0  0  0  0  0  0  0  0  0  0  0  0  # atno 10718 bound_to 10713
  154.3914  135.2754  155.2152 H   0  0  0  0  0  0  0  0  0  0  0  0  # atno 10763 bound_to 10752
  154.4217  135.5998  153.6017 H   0  0  0  0  0  0  0  0  0  0  0  0  # atno 10764 bound_to 10752
  152.9832  135.5974  154.4169 H   0  0  0  0  0  0  0  0  0  0  0  0  # atno 10765 bound_to 10752
  141.0900  133.6634  156.3957 H   0  0  0  0  0  0  0  0  0  0  0  0  # atno 11005 bound_to 11000
  145.6860  141.0178  143.1581 LP  0  0  0  0  0  0  0  0  0  0  0  0  # atno 17320 bound_to 7965
  144.7081  139.8477  143.7423 LP  0  0  0  0  0  0  0  0  0  0  0  0  # atno 17321 bound_to 7965
  140.5126  143.2286  151.8512 LP  0  0  0  0  0  0  0  0  0  0  0  0  # atno 17342 bound_to 10162
  139.4814  144.4931  151.9158 LP  0  0  0  0  0  0  0  0  0  0  0  0  # atno 17343 bound_to 10162
  156.4313  130.3972  149.6758 LP  0  0  0  0  0  0  0  0  0  0  0  0  # atno 17370 bound_to 10713
  156.3974  130.7658  151.2663 LP  0  0  0  0  0  0  0  0  0  0  0  0  # atno 17371 bound_to 10713
  140.5274  134.6246  157.5338 LP  0  0  0  0  0  0  0  0  0  0  0  0  # atno 17394 bound_to 11000
  139.9724  134.7270  156.0015 LP  0  0  0  0  0  0  0  0  0  0  0  0  # atno 17395 bound_to 11000

$$$$
