#       Name:                AV-unprocessed.smi:1730
#       Creating user name   scv26
#       Creation time:       Fri Mar 27 08:18:35 2020


#       File generated by GOLD software.
#

@<TRIPOS>MOLECULE
AV-unprocessed.smi:1730
    45    46     1
SMALL
NO_CHARGES


@<TRIPOS>ATOM
      1 ****        -3.0490  -4.0145   0.4480 C.3            1 S1                 0.0000
      2 ****        -2.3890  -2.7538   0.4726 O.3            1 S1                 0.0000
      3 ****        -3.1576  -1.6056   0.4500 C.ar           1 S1                 0.0000
      4 ****        -4.5080  -1.7334   0.4190 N.ar           1 S1                 0.0000
      5 ****        -5.2589  -0.6134   0.3903 C.ar           1 S1                 0.0000
      6 ****        -4.7102   0.6818   0.3832 C.ar           1 S1                 0.0000
      7 ****        -3.3100   0.8173   0.4160 C.ar           1 S1                 0.0000
      8 ****        -2.5079  -0.3491   0.4620 C.ar           1 S1                 0.0000
      9 ****        -1.0857  -0.3322   0.4799 N.am           1 S1                 0.0000
     10 ****        -0.2588   0.6630   0.8415 C.2            1 S1                 0.0000
     11 ****        -0.6107   1.7687   1.2512 O.2            1 S1                 0.0000
     12 ****         1.0224   0.2916   0.7097 N.am           1 S1                 0.0000
     13 ****         2.1929   1.1181   1.0017 C.3            1 S1                 0.0000
     14 ****         2.9882   0.4906   2.1557 C.3            1 S1                 0.0000
     15 ****         3.0558   1.3089  -0.2625 C.3            1 S1                 0.0000
     16 ****         2.3768   2.0554  -1.4148 C.3            1 S1                 0.0000
     17 ****         3.1729   1.5639  -2.6019 C.3            1 S1                 0.0000
     18 ****         3.4024   0.1004  -2.2357 C.3            1 S1                 0.0000
     19 ****         3.4583   0.0552  -0.8123 O.3            1 S1                 0.0000
     20 ****        -2.3050  -4.8106   0.4673 H              1 S1                 0.0000
     21 ****        -3.6409  -4.1368  -0.4602 H              1 S1                 0.0000
     22 ****        -3.6947  -4.1440   1.3178 H              1 S1                 0.0000
     23 ****        -6.3294  -0.7538   0.3651 H              1 S1                 0.0000
     24 ****        -5.3487   1.5520   0.3489 H              1 S1                 0.0000
     25 ****        -2.8849   1.8082   0.3899 H              1 S1                 0.0000
     26 ****        -0.6443  -1.2081   0.2405 H              1 S1                 0.0000
     27 ****         1.2096  -0.6397   0.3673 H              1 S1                 0.0000
     28 ****         1.8785   2.1094   1.3321 H              1 S1                 0.0000
     29 ****         3.8583   1.0969   2.4088 H              1 S1                 0.0000
     30 ****         3.3421  -0.5084   1.8992 H              1 S1                 0.0000
     31 ****         2.3752   0.4063   3.0538 H              1 S1                 0.0000
     32 ****         3.9665   1.8497   0.0004 H              1 S1                 0.0000
     33 ****         1.3336   1.7585  -1.5268 H              1 S1                 0.0000
     34 ****         2.4101   3.1385  -1.2962 H              1 S1                 0.0000
     35 ****         2.6523   1.6893  -3.5517 H              1 S1                 0.0000
     36 ****         4.1253   2.0928  -2.6593 H              1 S1                 0.0000
     37 ****         2.5613  -0.5100  -2.5668 H              1 S1                 0.0000
     38 ****         4.3107  -0.3031  -2.6834 H              1 S1                 0.0000
     39 ****        -1.7860  -2.7209  -0.3245 LP             1 S1                 0.0000
     40 ****        -1.8396  -2.7247   1.3076 LP             1 S1                 0.0000
     41 ****        -4.9365  -2.6369   0.4175 LP             1 S1                 0.0000
     42 ****        -1.5835   1.9839   1.3366 LP             1 S1                 0.0000
     43 ****         0.0762   2.4520   1.4987 LP             1 S1                 0.0000
     44 ****         2.8463  -0.6626  -0.4805 LP             1 S1                 0.0000
     45 ****         4.3947  -0.1460  -0.5249 LP             1 S1                 0.0000
@<TRIPOS>BOND
    1    1    2 1     
    2    1   20 1     
    3    1   21 1     
    4    1   22 1     
    5    2    3 1     
    6    3    8 ar    
    7    3    4 ar    
    8    4    5 ar    
    9    5    6 ar    
   10    5   23 1     
   11    6    7 ar    
   12    6   24 1     
   13    7    8 ar    
   14    7   25 1     
   15    8    9 1     
   16    9   10 am    
   17    9   26 1     
   18   10   11 2     
   19   10   12 am    
   20   12   13 1     
   21   12   27 1     
   22   13   14 1     
   23   13   15 1     
   24   13   28 1     
   25   14   29 1     
   26   14   30 1     
   27   14   31 1     
   28   15   19 1     
   29   15   16 1     
   30   15   32 1     
   31   16   17 1     
   32   16   33 1     
   33   16   34 1     
   34   17   18 1     
   35   17   35 1     
   36   17   36 1     
   37   18   19 1     
   38   18   37 1     
   39   18   38 1     
   40    2   39 1     
   41    2   40 1     
   42    4   41 1     
   43   11   42 1     
   44   11   43 1     
   45   19   44 1     
   46   19   45 1     
@<TRIPOS>SUBSTRUCTURE
      1 S1             1
@<TRIPOS>SET
LONE_PAIRS      STATIC     ATOMS    <user>   **** ""
7 39 40 41 42 43 44 45
DONOR_HYDROGENS      STATIC     ATOMS    <user>   **** ""
2 26 27
ATOM$BLUE        STATIC     ATOMS    COLORGROUP SYSTEM
7 39 40 41 42 43 44 45
ATOM$RED        STATIC     ATOMS    COLORGROUP SYSTEM
2 26 27
