AV-unprocessed.smi:1913|AV-procd|sdf|7754|dock1
  -GOLD-   22720 9493D 1   1.00000     0.00000
 Structure written by MMmdl.
 41 43  0  0  0  0  0  0  0  0  2 V2000
  151.7729  145.4581  159.6103 C   0  0  0  0  0  0  0  0  0  0  0  0
  151.6383  144.2889  158.8160 O   0  0  0  0  0  0  0  0  0  0  0  0
  152.2149  143.1241  159.2745 C   0  0  0  0  0  0  0  0  0  0  0  0
  153.0437  143.0415  160.4176 C   0  0  0  0  0  0  0  0  0  0  0  0
  153.5823  141.8057  160.8200 C   0  0  0  0  0  0  0  0  0  0  0  0
  153.3084  140.6214  160.0920 C   0  0  0  0  0  0  0  0  0  0  0  0
  153.7907  139.3807  160.4572 O   0  0  0  0  0  0  0  0  0  0  0  0
  154.6710  139.2977  161.5677 C   0  0  0  0  0  0  0  0  0  0  0  0
  152.4855  140.7022  158.9413 C   0  0  0  0  0  0  0  0  0  0  0  0
  152.1353  139.4453  158.1454 C   0  0  2  0  0  0  0  0  0  0  0  0
  153.2806  138.7233  157.7402 O   0  0  0  0  0  0  0  0  0  0  0  0
  151.3019  139.7594  156.8851 C   0  0  0  0  0  0  0  0  0  0  0  0
  151.0849  138.5747  156.0428 N   0  0  0  0  0  0  0  0  0  0  0  0
  151.3463  138.3942  154.7200 C   0  0  0  0  0  0  0  0  0  0  0  0
  151.0036  137.1152  154.4029 N   0  3  0  0  0  0  0  0  0  0  0  0
  150.5136  136.4683  155.5391 C   0  0  0  0  0  0  0  0  0  0  0  0
  150.0516  135.1682  155.7180 C   0  0  0  0  0  0  0  0  0  0  0  0
  149.6234  134.8214  157.0161 C   0  0  0  0  0  0  0  0  0  0  0  0
  149.6626  135.7513  158.0753 C   0  0  0  0  0  0  0  0  0  0  0  0
  150.1309  137.0673  157.8818 C   0  0  0  0  0  0  0  0  0  0  0  0
  150.5556  137.4022  156.5961 C   0  0  0  0  0  0  0  0  0  0  0  0
  151.9476  141.9483  158.5488 C   0  0  0  0  0  0  0  0  0  0  0  0
  151.2642  146.2875  159.1191 H   0  0  0  0  0  0  0  0  0  0  0  0
  152.8197  145.7397  159.7324 H   0  0  0  0  0  0  0  0  0  0  0  0
  151.3168  145.3266  160.5925 H   0  0  0  0  0  0  0  0  0  0  0  0
  153.2808  143.9139  161.0072 H   0  0  0  0  0  0  0  0  0  0  0  0
  154.2055  141.7954  161.7010 H   0  0  0  0  0  0  0  0  0  0  0  0
  154.9003  138.2507  161.7649 H   0  0  0  0  0  0  0  0  0  0  0  0
  154.2142  139.7088  162.4693 H   0  0  0  0  0  0  0  0  0  0  0  0
  155.6131  139.8104  161.3697 H   0  0  0  0  0  0  0  0  0  0  0  0
  151.5732  138.7605  158.7806 H   0  0  0  0  0  0  0  0  0  0  0  0
  153.7987  138.5292  158.5065 H   0  0  0  0  0  0  0  0  0  0  0  0
  150.3436  140.2141  157.1372 H   0  0  0  0  0  0  0  0  0  0  0  0
  151.8301  140.4852  156.2648 H   0  0  0  0  0  0  0  0  0  0  0  0
  151.7619  139.1297  154.0465 H   0  0  0  0  0  0  0  0  0  0  0  0
  150.0218  134.4535  154.9087 H   0  0  0  0  0  0  0  0  0  0  0  0
  149.2577  133.8223  157.2033 H   0  0  0  0  0  0  0  0  0  0  0  0
  149.3279  135.4495  159.0572 H   0  0  0  0  0  0  0  0  0  0  0  0
  150.1618  137.7677  158.7031 H   0  0  0  0  0  0  0  0  0  0  0  0
  151.3055  142.0081  157.6819 H   0  0  0  0  0  0  0  0  0  0  0  0
  151.1009  136.7157  153.4784 H   0  0  0  0  0  0  0  0  0  0  0  0
  1  2  1  0  0  0  0
  1 23  1  0  0  0  0
  1 24  1  0  0  0  0
  1 25  1  0  0  0  0
  2  3  1  0  0  0  0
  3 22  1  0  0  0  0
  3  4  2  0  0  0  0
  4  5  1  0  0  0  0
  4 26  1  0  0  0  0
  5  6  2  0  0  0  0
  5 27  1  0  0  0  0
  6  7  1  0  0  0  0
  6  9  1  0  0  0  0
  7  8  1  0  0  0  0
  8 28  1  0  0  0  0
  8 29  1  0  0  0  0
  8 30  1  0  0  0  0
  9 10  1  0  0  0  0
  9 22  2  0  0  0  0
 10 11  1  0  0  0  0
 10 12  1  0  0  0  0
 10 31  1  0  0  0  0
 11 32  1  0  0  0  0
 12 13  1  0  0  0  0
 12 33  1  0  0  0  0
 12 34  1  0  0  0  0
 13 21  1  0  0  0  0
 13 14  1  0  0  0  0
 14 15  2  0  0  0  0
 14 35  1  0  0  0  0
 15 16  1  0  0  0  0
 15 41  1  0  0  0  0
 16 21  2  0  0  0  0
 16 17  1  0  0  0  0
 17 18  2  0  0  0  0
 17 36  1  0  0  0  0
 18 19  1  0  0  0  0
 18 37  1  0  0  0  0
 19 20  2  0  0  0  0
 19 38  1  0  0  0  0
 20 21  1  0  0  0  0
 20 39  1  0  0  0  0
 22 40  1  0  0  0  0
M  CHG  1  15   1
M  END
> <s_m_source_file>
AV-unprocessed.smi

> <i_m_source_file_index>
1913

> <i_lp_mmshare_version>
43012

> <i_f3d_flags>
0

> <s_epik_input>
W0NIM11PYzFbY0hdW2NIXWMoT1tDSDNdKWMoW2NIXTEpW0NASF0oW09IXSlbQ0gyXW4oW2NIXW4yKWMoYzIzKVtjSF1bY0hdW2NIXVtjSF0z

> <s_epik_cmdline>
J2VwaWtfcHl0aG9uJywgJy1waCcsICc3LjAnLCAnLXRuJywgJzgnLCAnLW1hJywgJzIwMCcsICctbWV0YWxfYmluZGluZycsICctaW1hZScsICc8aW5maWxlLm1hZT4nLCAnLW9tYWUnLCAnPG91dGZpbGUubWFlPic=

> <r_lp_tautomer_probability>
1

> <r_epik_Ionization_Penalty>
1.3029

> <r_epik_Ionization_Penalty_Charging>
1.3029

> <r_epik_Ionization_Penalty_Neutral>
1.34362e-06

> <r_epik_State_Penalty>
1.377

> <r_epik_Charging_Adjusted_Penalty>
2.6799

> <i_epik_Tot_Q>
1

> <i_epik_Tot_abs_Q>
1

> <r_epik_Metal_State_Penalty>
5.40879

> <b_epik_Metal_Only>
0

> <s_lp_Force_Field>
OPLS_2005

> <r_lp_Energy>
23.3485

> <b_lp_Chiralities_Consistent>
1

> <s_lp_Variant>
AV-unprocessed.smi:1913-3

> <Gold.Version>
5.8.1

> <Gold.Id.Protein>
6NUR|6NUR_protein|mol2

> <Gold.PLP.Fitness>
50.5763

> <Gold.PLP.PLP>
-41.9197

> <Gold.PLP.part.hbond>
-2.0000

> <Gold.PLP.part.metal>
0.0000

> <Gold.PLP.part.buried>
-6.4584

> <Gold.PLP.part.nonpolar>
-33.4922

> <Gold.PLP.part.repulsive>
0.1988

> <Gold.PLP.ligand.clash>
0.0000

> <Gold.PLP.ligand.torsion>
0.2052

> <Gold.PLP.Chemscore.Hbond>
2.9920

> <Gold.PLP.Chemscore.CHOScore>
0.0000

> <Gold.PLP.Chemscore.Metal>
0.0000

> <Gold.Chemscore.Hbonds>
donor molecule, donor type, donor heavy atom, donor atom, acceptor molecule, acceptor atom, score
      L1  H    15    41       P1  7949  1.56
      P1  H  7997  8009       L1    11  0.98

> <Gold.PLP.Chemscore.Internal.Correction>
0.0909

> <Gold.Rescore>
     Score         DG    S(hbond)    S(metal)    S(lipo)     H(rot)  DE(clash)    DE(int)     intcor
     17.46     -17.75       1.64        0.00     110.82       2.41       0.16       0.14       ----

> <Gold.Chemscore.Fitness>
17.4613

> <Gold.Chemscore.DG>
-17.7533

> <Gold.Chemscore.ZeroCoef>
-5.4800

> <Gold.Chemscore.Hbond>
1.6406

> <Gold.Chemscore.Metal>
0.0000

> <Gold.Chemscore.Lipo>
110.8175

> <Gold.Chemscore.Internal_Hbond>
0.0000

> <Gold.Chemscore.DEClash>
0.1551

> <Gold.Chemscore.DEInternal>
0.1369

> <Gold.Chemscore.Rot>
2.4109

> <Gold.Chemscore.Internal.Correction>
   9.000000E+99

> <Gold.Chemscore.Hbonds>
donor molecule, donor type, donor heavy atom, donor atom, acceptor molecule, acceptor atom, score
      L1  H    15    41       P1  7949  0.30
      P1  H  7997  8009       L1    11  0.22

> <Gold.Chemscore.Hbond.Weighted>
-5.4797

> <Gold.Chemscore.Metal.Weighted>
-0.0000

> <Gold.Chemscore.Lipo.Weighted>
-12.9656

> <Gold.Chemscore.Internal_Hbond.Weighted>
0.0000

> <Gold.Chemscore.DEClash.Weighted>
0.1551

> <Gold.Chemscore.DEInternal.Weighted>
0.1369

> <Gold.Chemscore.Rot.Weighted>
6.1720

> <Gold.Chemscore.Internal.Correction.Weighted>
   9.000000E+99

> <Gold.Protein.RotatedTorsions>
[ 6907 6896 6895 6894 ] final   95.43 input  -60.11 | X-H torsion
[ 7974 7965 7964 7962 ] final  -72.52 input  175.53 | X-H torsion
[ 8008 7997 7996 7995 ] final  178.86 input   59.86 | X-H torsion
[ 10167 10162 10161 10158 ] final   45.29 input  -65.29 | X-H torsion
[ 10718 10713 10712 10709 ] final  -94.70 input   66.30 | X-H torsion
[ 10763 10752 10751 10750 ] final   68.24 input  -60.55 | X-H torsion
[ 11005 11000 10999 10996 ] final  -46.40 input  -57.11 | X-H torsion

> <Gold.Protein.ActiveResidues>
 VAL166  LYS551  ARG553  GLY616  TRP617  ASP618  TYR619  PRO620  LYS621  CYS622 
 ASP623  PHE694  ASN695  SER759  ASP760  ASP761  ALA762  ILE779  LEU786  VAL792 
 PHE793  MET794  SER795  GLU796  ALA797  LYS798  CYS799  TRP800  GLU811  SER814 

> <Gold.Protein.RotatedAtoms>
  152.5443  134.1041  159.8330 H   0  0  0  0  0  0  0  0  0  0  0  0  # atno 6907 bound_to 6896
  151.1115  133.5162  159.2613 H   0  0  0  0  0  0  0  0  0  0  0  0  # atno 6908 bound_to 6896
  151.1878  135.0399  159.8874 H   0  0  0  0  0  0  0  0  0  0  0  0  # atno 6909 bound_to 6896
  145.6641  140.9243  143.0918 H   0  0  0  0  0  0  0  0  0  0  0  0  # atno 7974 bound_to 7965
  156.0499  140.1323  157.0061 H   0  0  0  0  0  0  0  0  0  0  0  0  # atno 8008 bound_to 7997
  154.4430  140.1013  156.6432 H   0  0  0  0  0  0  0  0  0  0  0  0  # atno 8009 bound_to 7997
  155.5539  140.3463  155.4477 H   0  0  0  0  0  0  0  0  0  0  0  0  # atno 8010 bound_to 7997
  140.3257  144.2651  150.6175 H   0  0  0  0  0  0  0  0  0  0  0  0  # atno 10167 bound_to 10162
  156.0031  130.5079  150.5966 H   0  0  0  0  0  0  0  0  0  0  0  0  # atno 10718 bound_to 10713
  153.0225  135.5254  154.7104 H   0  0  0  0  0  0  0  0  0  0  0  0  # atno 10763 bound_to 10752
  154.6188  135.2886  155.0352 H   0  0  0  0  0  0  0  0  0  0  0  0  # atno 10764 bound_to 10752
  154.1346  135.6587  153.4982 H   0  0  0  0  0  0  0  0  0  0  0  0  # atno 10765 bound_to 10752
  141.0577  133.6720  156.3150 H   0  0  0  0  0  0  0  0  0  0  0  0  # atno 11005 bound_to 11000
  144.7079  139.8487  143.7424 LP  0  0  0  0  0  0  0  0  0  0  0  0  # atno 17320 bound_to 7965
  146.1101  139.4105  143.0293 LP  0  0  0  0  0  0  0  0  0  0  0  0  # atno 17321 bound_to 7965
  140.5443  143.2217  151.8033 LP  0  0  0  0  0  0  0  0  0  0  0  0  # atno 17342 bound_to 10162
  139.4866  144.4559  151.9598 LP  0  0  0  0  0  0  0  0  0  0  0  0  # atno 17343 bound_to 10162
  157.3822  131.0782  151.1467 LP  0  0  0  0  0  0  0  0  0  0  0  0  # atno 17370 bound_to 10713
  157.2185  130.6470  149.5802 LP  0  0  0  0  0  0  0  0  0  0  0  0  # atno 17371 bound_to 10713
  140.5932  134.5630  157.5503 LP  0  0  0  0  0  0  0  0  0  0  0  0  # atno 17394 bound_to 11000
  139.9404  134.7797  156.0693 LP  0  0  0  0  0  0  0  0  0  0  0  0  # atno 17395 bound_to 11000

$$$$
