#       Name:                AV-unprocessed.smi:21
#       Creating user name   scv26
#       Creation time:       Thu Mar 26 15:34:35 2020


#       File generated by GOLD software.
#

@<TRIPOS>MOLECULE
AV-unprocessed.smi:21
    71    74     1
SMALL
NO_CHARGES


@<TRIPOS>ATOM
      1 ****        -1.4507   0.8408   5.5645 C.3            1 S1                 0.0000
      2 ****        -2.2408  -0.3298   5.4310 O.3            1 S1                 0.0000
      3 ****        -3.1426  -0.2840   4.3354 C.3            1 S1                 0.0000
      4 ****        -2.4563  -0.4429   2.9825 C.3            1 S1                 0.0000
      5 ****        -3.5801  -0.9458   2.0656 C.3            1 S1                 0.0000
      6 ****        -3.0749  -1.7180   0.8217 C.3            1 S1                 0.0000
      7 ****        -2.2719  -0.8766  -0.0713 N.pl3          1 S1                 0.0000
      8 ****        -2.9747   0.0975  -0.8980 C.3            1 S1                 0.0000
      9 ****        -0.9094  -0.8407   0.0248 C.ar           1 S1                 0.0000
     10 ****        -0.2834  -1.8448   0.6958 N.ar           1 S1                 0.0000
     11 ****         1.0450  -1.8667   0.8230 C.ar           1 S1                 0.0000
     12 ****         1.9383  -0.9948   0.3591 N.ar           1 S1                 0.0000
     13 ****         1.3326   0.0189  -0.3206 C.ar           1 S1                 0.0000
     14 ****        -0.0700   0.1773  -0.5297 C.ar           1 S1                 0.0000
     15 ****        -0.2931   1.3465  -1.2498 N.2            1 S1                 0.0000
     16 ****         0.8955   1.8399  -1.4574 C.2            1 S1                 0.0000
     17 ****         1.9349   1.0967  -0.9489 N.pl3          1 S1                 0.0000
     18 ****         3.3561   1.4065  -1.0353 C.3            1 S1                 0.0000
     19 ****         4.0520   0.8828  -2.3223 C.3            1 S1                 0.0000
     20 ****         3.9926  -0.6592  -2.4297 C.3            1 S1                 0.0000
     21 ****         4.6839  -1.2641  -1.3570 O.3            1 S1                 0.0000
     22 ****         3.5096   1.5625  -3.6077 C.3            1 S1                 0.0000
     23 ****         4.2247   1.1777  -4.8926 C.3            1 S1                 0.0000
     24 ****         3.8365   2.3076  -5.8419 C.3            1 S1                 0.0000
     25 ****         3.6144   3.4493  -5.0214 O.3            1 S1                 0.0000
     26 ****         3.7006   3.0826  -3.6495 C.3            1 S1                 0.0000
     27 ****        -4.5236  -1.6857   2.9558 N.4            1 S1                 1.0000
     28 ****        -4.8169  -3.1011   2.6282 C.3            1 S1                 0.0000
     29 ****        -4.0746  -1.4934   4.3539 C.3            1 S1                 0.0000
     30 ****        -3.7378   0.6312   4.3555 H              1 S1                 0.0000
     31 ****        -4.1420  -0.0756   1.7230 H              1 S1                 0.0000
     32 ****        -0.8129   0.7510   6.4437 H              1 S1                 0.0000
     33 ****        -2.0748   1.7261   5.6930 H              1 S1                 0.0000
     34 ****        -0.8044   0.9900   4.6992 H              1 S1                 0.0000
     35 ****        -2.0024   0.4810   2.6226 H              1 S1                 0.0000
     36 ****        -1.6704  -1.1953   3.0616 H              1 S1                 0.0000
     37 ****        -2.5436  -2.6220   1.1176 H              1 S1                 0.0000
     38 ****        -3.9279  -2.0660   0.2388 H              1 S1                 0.0000
     39 ****        -2.8754   1.0997  -0.4805 H              1 S1                 0.0000
     40 ****        -4.0385  -0.1334  -0.9562 H              1 S1                 0.0000
     41 ****        -2.5842   0.0958  -1.9159 H              1 S1                 0.0000
     42 ****         1.4500  -2.7033   1.3732 H              1 S1                 0.0000
     43 ****         1.0423   2.7646  -1.9947 H              1 S1                 0.0000
     44 ****         3.4734   2.4872  -0.9523 H              1 S1                 0.0000
     45 ****         3.8474   0.9966  -0.1523 H              1 S1                 0.0000
     46 ****         5.1058   1.1544  -2.2422 H              1 S1                 0.0000
     47 ****         2.9638  -1.0186  -2.4539 H              1 S1                 0.0000
     48 ****         4.4681  -1.0078  -3.3455 H              1 S1                 0.0000
     49 ****         4.6082  -2.2024  -1.4408 H              1 S1                 0.0000
     50 ****         2.4506   1.3330  -3.7318 H              1 S1                 0.0000
     51 ****         5.3052   1.1735  -4.7405 H              1 S1                 0.0000
     52 ****         3.9304   0.2005  -5.2763 H              1 S1                 0.0000
     53 ****         4.6039   2.4997  -6.5919 H              1 S1                 0.0000
     54 ****         2.9075   2.0691  -6.3610 H              1 S1                 0.0000
     55 ****         2.9645   3.6241  -3.0569 H              1 S1                 0.0000
     56 ****         4.6911   3.3568  -3.2832 H              1 S1                 0.0000
     57 ****        -3.9147  -3.7134   2.6547 H              1 S1                 0.0000
     58 ****        -5.2764  -3.1916   1.6439 H              1 S1                 0.0000
     59 ****        -5.5215  -3.5129   3.3515 H              1 S1                 0.0000
     60 ****        -3.5162  -2.3728   4.6808 H              1 S1                 0.0000
     61 ****        -4.9171  -1.3633   5.0338 H              1 S1                 0.0000
     62 ****        -5.4027  -1.1945   2.8751 H              1 S1                 0.0000
     63 ****        -2.7696  -0.4520   6.2709 LP             1 S1                 0.0000
     64 ****        -1.6297  -1.1113   5.3052 LP             1 S1                 0.0000
     65 ****        -0.8280  -2.5793   1.1008 LP             1 S1                 0.0000
     66 ****         2.9262  -1.0739   0.4924 LP             1 S1                 0.0000
     67 ****        -1.1711   1.7248  -1.5433 LP             1 S1                 0.0000
     68 ****         4.2833  -0.9699  -0.4893 LP             1 S1                 0.0000
     69 ****         5.6479  -0.9999  -1.3857 LP             1 S1                 0.0000
     70 ****         2.7051   3.8208  -5.2090 LP             1 S1                 0.0000
     71 ****         4.3060   4.1427  -5.2235 LP             1 S1                 0.0000
@<TRIPOS>BOND
    1    1    2 1     
    2    1   32 1     
    3    1   33 1     
    4    1   34 1     
    5    2    3 1     
    6    3   30 1     
    7    3   29 1     
    8    3    4 1     
    9    4    5 1     
   10    4   35 1     
   11    4   36 1     
   12    5   31 1     
   13    5    6 1     
   14    5   27 1     
   15    6    7 1     
   16    6   37 1     
   17    6   38 1     
   18    7    8 1     
   19    7    9 1     
   20    8   39 1     
   21    8   40 1     
   22    8   41 1     
   23    9   14 ar    
   24    9   10 ar    
   25   10   11 ar    
   26   11   12 ar    
   27   11   42 1     
   28   12   13 ar    
   29   13   17 1     
   30   13   14 ar    
   31   14   15 1     
   32   15   16 2     
   33   16   17 1     
   34   16   43 1     
   35   17   18 1     
   36   18   19 1     
   37   18   44 1     
   38   18   45 1     
   39   19   20 1     
   40   19   22 1     
   41   19   46 1     
   42   20   21 1     
   43   20   47 1     
   44   20   48 1     
   45   21   49 1     
   46   22   26 1     
   47   22   23 1     
   48   22   50 1     
   49   23   24 1     
   50   23   51 1     
   51   23   52 1     
   52   24   25 1     
   53   24   53 1     
   54   24   54 1     
   55   25   26 1     
   56   26   55 1     
   57   26   56 1     
   58   27   28 1     
   59   27   29 1     
   60   27   62 1     
   61   28   57 1     
   62   28   58 1     
   63   28   59 1     
   64   29   60 1     
   65   29   61 1     
   66    2   63 1     
   67    2   64 1     
   68   10   65 1     
   69   12   66 1     
   70   15   67 1     
   71   21   68 1     
   72   21   69 1     
   73   25   70 1     
   74   25   71 1     
@<TRIPOS>SUBSTRUCTURE
      1 S1             1
@<TRIPOS>SET
LONE_PAIRS      STATIC     ATOMS    <user>   **** ""
9 63 64 65 66 67 68 69 70 71
DONOR_HYDROGENS      STATIC     ATOMS    <user>   **** ""
2 49 62
ATOM$BLUE        STATIC     ATOMS    COLORGROUP SYSTEM
9 63 64 65 66 67 68 69 70 71
ATOM$RED        STATIC     ATOMS    COLORGROUP SYSTEM
2 49 62
