AV-unprocessed.smi:2630|AV-procd|sdf|10247|dock2
  -GOLD-   2272014253D 1   1.00000     0.00000
 Structure written by MMmdl.
 34 35  0  0  0  0  0  0  0  0  2 V2000
  145.6236  138.8143  154.6109 C   0  0  0  0  0  0  0  0  0  0  0  0
  146.4276  139.7980  155.2364 O   0  0  0  0  0  0  0  0  0  0  0  0
  146.5147  140.9940  154.4800 C   0  0  0  0  0  0  0  0  0  0  0  0
  147.4602  141.9870  155.1775 C   0  0  0  0  0  0  0  0  0  0  0  0
  148.7893  141.3925  155.4356 N   0  0  0  0  0  0  0  0  0  0  0  0
  149.2829  141.3682  156.7670 C   0  0  0  0  0  0  0  0  0  0  0  0
  148.5254  141.8997  157.7980 N   0  0  0  0  0  0  0  0  0  0  0  0
  150.4923  140.8177  157.0154 C   0  0  0  0  0  0  0  0  0  0  0  0
  151.2658  140.6770  158.6117 S   0  0  0  0  0  0  0  0  0  0  0  0
  151.5365  142.3743  159.0019 C   0  0  0  0  0  0  0  0  0  0  0  0
  151.3340  143.3633  158.0189 C   0  0  0  0  0  0  0  0  0  0  0  0
  151.5457  144.7198  158.3343 C   0  0  0  0  0  0  0  0  0  0  0  0
  151.9605  145.0862  159.6300 C   0  0  0  0  0  0  0  0  0  0  0  0
  152.1649  144.0960  160.6112 C   0  0  0  0  0  0  0  0  0  0  0  0
  151.9537  142.7392  160.2976 C   0  0  0  0  0  0  0  0  0  0  0  0
  151.2919  140.2560  155.9249 C   0  0  0  0  0  0  0  0  0  0  0  0
  152.4005  139.7613  156.1336 O   0  0  0  0  0  0  0  0  0  0  0  0
  150.7458  140.3084  154.6796 N   0  5  0  0  0  0  0  0  0  0  0  0
  149.5212  140.8520  154.4100 C   0  0  0  0  0  0  0  0  0  0  0  0
  149.0612  140.8668  153.2676 O   0  0  0  0  0  0  0  0  0  0  0  0
  145.5891  137.9206  155.2338 H   0  0  0  0  0  0  0  0  0  0  0  0
  146.0298  138.5323  153.6389 H   0  0  0  0  0  0  0  0  0  0  0  0
  144.6012  139.1692  154.4749 H   0  0  0  0  0  0  0  0  0  0  0  0
  146.9004  140.7635  153.4859 H   0  0  0  0  0  0  0  0  0  0  0  0
  145.5251  141.4340  154.3477 H   0  0  0  0  0  0  0  0  0  0  0  0
  147.5259  142.9025  154.5879 H   0  0  0  0  0  0  0  0  0  0  0  0
  147.0136  142.3196  156.1146 H   0  0  0  0  0  0  0  0  0  0  0  0
  147.6186  142.3106  157.6293 H   0  0  0  0  0  0  0  0  0  0  0  0
  148.7984  141.7947  158.7643 H   0  0  0  0  0  0  0  0  0  0  0  0
  151.0146  143.0852  157.0254 H   0  0  0  0  0  0  0  0  0  0  0  0
  151.3896  145.4793  157.5827 H   0  0  0  0  0  0  0  0  0  0  0  0
  152.1216  146.1264  159.8717 H   0  0  0  0  0  0  0  0  0  0  0  0
  152.4825  144.3762  161.6047 H   0  0  0  0  0  0  0  0  0  0  0  0
  152.1084  141.9817  161.0522 H   0  0  0  0  0  0  0  0  0  0  0  0
  1  2  1  0  0  0  0
  1 21  1  0  0  0  0
  1 22  1  0  0  0  0
  1 23  1  0  0  0  0
  2  3  1  0  0  0  0
  3  4  1  0  0  0  0
  3 24  1  0  0  0  0
  3 25  1  0  0  0  0
  4  5  1  0  0  0  0
  4 26  1  0  0  0  0
  4 27  1  0  0  0  0
  5 19  1  0  0  0  0
  5  6  1  0  0  0  0
  6  7  1  0  0  0  0
  6  8  2  0  0  0  0
  7 28  1  0  0  0  0
  7 29  1  0  0  0  0
  8  9  1  0  0  0  0
  8 16  1  0  0  0  0
  9 10  1  0  0  0  0
 10 15  1  0  0  0  0
 10 11  2  0  0  0  0
 11 12  1  0  0  0  0
 11 30  1  0  0  0  0
 12 13  2  0  0  0  0
 12 31  1  0  0  0  0
 13 14  1  0  0  0  0
 13 32  1  0  0  0  0
 14 15  2  0  0  0  0
 14 33  1  0  0  0  0
 15 34  1  0  0  0  0
 16 17  2  0  0  0  0
 16 18  1  0  0  0  0
 18 19  1  0  0  0  0
 19 20  2  0  0  0  0
M  CHG  1  18  -1
M  END
> <s_m_source_file>
AV-unprocessed.smi

> <i_m_source_file_index>
2630

> <i_lp_mmshare_version>
43012

> <i_f3d_flags>
0

> <s_epik_input>
W0NIM11PW0NIMl1bQ0gyXW4xYyhbTkgyXSljKGMoPU8pW25IXWMxPU8pU2MyW2NIXVtjSF1bY0hdW2NIXVtjSF0y

> <s_epik_cmdline>
J2VwaWtfcHl0aG9uJywgJy1waCcsICc3LjAnLCAnLXRuJywgJzgnLCAnLW1hJywgJzIwMCcsICctbWV0YWxfYmluZGluZycsICctaW1hZScsICc8aW5maWxlLm1hZT4nLCAnLW9tYWUnLCAnPG91dGZpbGUubWFlPic=

> <r_lp_tautomer_probability>
1

> <r_epik_Ionization_Penalty>
6.52921

> <r_epik_Ionization_Penalty_Charging>
0.111036

> <r_epik_Ionization_Penalty_Neutral>
6.41817

> <r_epik_State_Penalty>
6.41816

> <r_epik_Charging_Adjusted_Penalty>
6.5292

> <i_epik_Tot_Q>
-1

> <i_epik_Tot_abs_Q>
1

> <r_epik_Metal_State_Penalty>
2.337

> <b_epik_Metal_Only>
1

> <s_epik_Chemistry_Notes>
This compound has an imine and may undergo hydrolysis.

> <s_lp_Force_Field>
OPLS_2005

> <r_lp_Energy>
30.4306

> <b_lp_Chiralities_Consistent>
1

> <s_lp_Variant>
AV-unprocessed.smi:2630-2

> <Gold.Version>
5.8.1

> <Gold.Id.Protein>
6NUR|6NUR_protein|mol2

> <Gold.PLP.Fitness>
44.9755

> <Gold.PLP.PLP>
-36.1860

> <Gold.PLP.part.hbond>
-3.6757

> <Gold.PLP.part.metal>
0.0000

> <Gold.PLP.part.buried>
-3.9628

> <Gold.PLP.part.nonpolar>
-33.4410

> <Gold.PLP.part.repulsive>
5.3035

> <Gold.PLP.ligand.clash>
0.0000

> <Gold.PLP.ligand.torsion>
0.1485

> <Gold.PLP.Chemscore.Hbond>
3.0000

> <Gold.PLP.Chemscore.CHOScore>
0.0000

> <Gold.PLP.Chemscore.Metal>
0.0000

> <Gold.Chemscore.Hbonds>
donor molecule, donor type, donor heavy atom, donor atom, acceptor molecule, acceptor atom, score
      P1  H  7989  7998       L1    18  1.00
      P1  H  7997  8008       L1    17  1.00
      P1  H  8011  8017       L1    20  1.00

> <Gold.PLP.Chemscore.Internal.Correction>
0.0865

> <Gold.Rescore>
     Score         DG    S(hbond)    S(metal)    S(lipo)     H(rot)  DE(clash)    DE(int)     intcor
     14.06     -17.92       2.05        0.00      92.17       2.02       2.28       1.58       ----

> <Gold.Chemscore.Fitness>
14.0591

> <Gold.Chemscore.DG>
-17.9182

> <Gold.Chemscore.ZeroCoef>
-5.4800

> <Gold.Chemscore.Hbond>
2.0461

> <Gold.Chemscore.Metal>
0.0000

> <Gold.Chemscore.Lipo>
92.1708

> <Gold.Chemscore.Internal_Hbond>
0.0000

> <Gold.Chemscore.DEClash>
2.2802

> <Gold.Chemscore.DEInternal>
1.5790

> <Gold.Chemscore.Rot>
2.0234

> <Gold.Chemscore.Internal.Correction>
   9.000000E+99

> <Gold.Chemscore.Hbonds>
donor molecule, donor type, donor heavy atom, donor atom, acceptor molecule, acceptor atom, score
      P1  H  7989  7998       L1    18  0.32
      P1  H  7997  8008       L1    17  0.97
      P1  H  8011  8017       L1    20  0.69

> <Gold.Chemscore.Hbond.Weighted>
-6.8341

> <Gold.Chemscore.Metal.Weighted>
-0.0000

> <Gold.Chemscore.Lipo.Weighted>
-10.7840

> <Gold.Chemscore.Internal_Hbond.Weighted>
0.0000

> <Gold.Chemscore.DEClash.Weighted>
2.2802

> <Gold.Chemscore.DEInternal.Weighted>
1.5790

> <Gold.Chemscore.Rot.Weighted>
5.1798

> <Gold.Chemscore.Internal.Correction.Weighted>
   9.000000E+99

> <Gold.Protein.RotatedTorsions>
[ 6907 6896 6895 6894 ] final  -21.30 input  -60.11 | X-H torsion
[ 7974 7965 7964 7962 ] final  146.56 input  175.53 | X-H torsion
[ 8008 7997 7996 7995 ] final  -31.89 input   59.86 | X-H torsion
[ 10167 10162 10161 10158 ] final   84.99 input  -65.29 | X-H torsion
[ 10718 10713 10712 10709 ] final   12.34 input   66.30 | X-H torsion
[ 10763 10752 10751 10750 ] final  109.33 input  -60.55 | X-H torsion
[ 11005 11000 10999 10996 ] final   15.51 input  -57.11 | X-H torsion

> <Gold.Protein.ActiveResidues>
 VAL166  LYS551  ARG553  GLY616  TRP617  ASP618  TYR619  PRO620  LYS621  CYS622 
 ASP623  PHE694  ASN695  SER759  ASP760  ASP761  ALA762  ILE779  LEU786  VAL792 
 PHE793  MET794  SER795  GLU796  ALA797  LYS798  CYS799  TRP800  GLU811  SER814 

> <Gold.Protein.RotatedAtoms>
  151.2354  135.0569  159.9003 H   0  0  0  0  0  0  0  0  0  0  0  0  # atno 6907 bound_to 6896
  152.5400  134.0492  159.8112 H   0  0  0  0  0  0  0  0  0  0  0  0  # atno 6908 bound_to 6896
  151.0677  133.5443  159.2661 H   0  0  0  0  0  0  0  0  0  0  0  0  # atno 6909 bound_to 6896
  144.8661  139.5920  143.5908 H   0  0  0  0  0  0  0  0  0  0  0  0  # atno 7974 bound_to 7965
  154.4198  140.1752  156.1639 H   0  0  0  0  0  0  0  0  0  0  0  0  # atno 8008 bound_to 7997
  155.9816  140.3377  155.6644 H   0  0  0  0  0  0  0  0  0  0  0  0  # atno 8009 bound_to 7997
  155.6493  140.0688  157.2583 H   0  0  0  0  0  0  0  0  0  0  0  0  # atno 8010 bound_to 7997
  139.9024  144.6321  150.8623 H   0  0  0  0  0  0  0  0  0  0  0  0  # atno 10167 bound_to 10162
  157.0088  130.6108  149.5705 H   0  0  0  0  0  0  0  0  0  0  0  0  # atno 10718 bound_to 10713
  153.4333  135.3783  155.2183 H   0  0  0  0  0  0  0  0  0  0  0  0  # atno 10763 bound_to 10752
  154.8751  135.3845  154.4242 H   0  0  0  0  0  0  0  0  0  0  0  0  # atno 10764 bound_to 10752
  153.4777  135.7088  153.6019 H   0  0  0  0  0  0  0  0  0  0  0  0  # atno 10765 bound_to 10752
  140.4575  134.1161  155.7711 H   0  0  0  0  0  0  0  0  0  0  0  0  # atno 11005 bound_to 11000
  146.2897  139.7103  142.9170 LP  0  0  0  0  0  0  0  0  0  0  0  0  # atno 17320 bound_to 7965
  145.4218  141.0407  143.2959 LP  0  0  0  0  0  0  0  0  0  0  0  0  # atno 17321 bound_to 7965
  140.7704  143.3427  151.2175 LP  0  0  0  0  0  0  0  0  0  0  0  0  # atno 17342 bound_to 10162
  139.7014  143.9527  152.2907 LP  0  0  0  0  0  0  0  0  0  0  0  0  # atno 17343 bound_to 10162
  156.0144  130.5237  150.8088 LP  0  0  0  0  0  0  0  0  0  0  0  0  # atno 17370 bound_to 10713
  157.5336  131.0938  150.9922 LP  0  0  0  0  0  0  0  0  0  0  0  0  # atno 17371 bound_to 10713
  141.1636  133.8745  157.1778 LP  0  0  0  0  0  0  0  0  0  0  0  0  # atno 17394 bound_to 11000
  139.9967  135.0044  157.0098 LP  0  0  0  0  0  0  0  0  0  0  0  0  # atno 17395 bound_to 11000

$$$$
