#       Name:                AV-unprocessed.smi:2069
#       Creating user name   scv26
#       Creation time:       Fri Mar 27 11:13:37 2020


#       File generated by GOLD software.
#

@<TRIPOS>MOLECULE
AV-unprocessed.smi:2069
    45    46     1
SMALL
NO_CHARGES


@<TRIPOS>ATOM
      1 ****        -6.6696   4.5521  -0.4535 C.3            1 S1                 0.0000
      2 ****        -5.6961   3.5542   0.0729 C.2            1 S1                 0.0000
      3 ****        -5.4007   3.4486   1.3708 N.2            1 S1                 0.0000
      4 ****        -4.4677   2.4511   1.6149 N.2            1 S1                 0.0000
      5 ****        -4.0617   1.8265   0.5005 C.2            1 S1                 0.0000
      6 ****        -3.1609   0.8301   0.5211 N.pl3          1 S1                -1.0000
      7 ****        -1.8657   1.0853   0.2295 C.2            1 S1                 0.0000
      8 ****        -1.3836   2.1794  -0.0723 O.2            1 S1                 0.0000
      9 ****        -1.0777   0.0043   0.2889 N.am           1 S1                 0.0000
     10 ****         0.3560  -0.0044   0.0223 C.3            1 S1                 0.0000
     11 ****         0.9932  -1.3966   0.2728 C.3            1 S1                 0.0000
     12 ****         0.6900  -1.8713   1.7144 C.3            1 S1                 0.0000
     13 ****         2.4702  -1.4251   0.0052 N.4            1 S1                 1.0000
     14 ****         3.0259  -2.8066  -0.0312 C.3            1 S1                 0.0000
     15 ****         4.5471  -2.7944  -0.2532 C.3            1 S1                 0.0000
     16 ****         4.8468  -2.1098  -1.4594 O.3            1 S1                 0.0000
     17 ****         4.4297  -0.7550  -1.3993 C.3            1 S1                 0.0000
     18 ****         2.9048  -0.6831  -1.2116 C.3            1 S1                 0.0000
     19 ****        -4.8412   2.4247  -0.9640 S.3            1 S1                 0.0000
     20 ****        -6.2008   5.5344  -0.5105 H              1 S1                 0.0000
     21 ****        -7.5390   4.6140   0.2014 H              1 S1                 0.0000
     22 ****        -7.0044   4.2650  -1.4504 H              1 S1                 0.0000
     23 ****        -1.5082  -0.8737   0.5403 H              1 S1                 0.0000
     24 ****         0.4701   0.2975  -1.0190 H              1 S1                 0.0000
     25 ****         0.8449   0.7501   0.6410 H              1 S1                 0.0000
     26 ****         0.5202  -2.0933  -0.4217 H              1 S1                 0.0000
     27 ****        -0.3757  -1.8403   1.9400 H              1 S1                 0.0000
     28 ****         1.1962  -1.2449   2.4494 H              1 S1                 0.0000
     29 ****         0.9905  -2.9024   1.8901 H              1 S1                 0.0000
     30 ****         2.8313  -3.3359   0.8990 H              1 S1                 0.0000
     31 ****         2.5419  -3.3734  -0.8281 H              1 S1                 0.0000
     32 ****         5.0619  -2.3265   0.5876 H              1 S1                 0.0000
     33 ****         4.9222  -3.8153  -0.3271 H              1 S1                 0.0000
     34 ****         4.9466  -0.2370  -0.5896 H              1 S1                 0.0000
     35 ****         4.7159  -0.2580  -2.3263 H              1 S1                 0.0000
     36 ****         2.3983  -1.0892  -2.0887 H              1 S1                 0.0000
     37 ****         2.6437   0.3717  -1.1395 H              1 S1                 0.0000
     38 ****         2.9064  -0.9543   0.7851 H              1 S1                 0.0000
     39 ****        -5.8048   4.0217   2.0837 LP             1 S1                 0.0000
     40 ****        -4.1325   2.2217   2.5286 LP             1 S1                 0.0000
     41 ****        -3.4482  -0.0995   0.7519 LP             1 S1                 0.0000
     42 ****        -1.9697   2.9883  -0.1192 LP             1 S1                 0.0000
     43 ****        -0.4065   2.2578  -0.2703 LP             1 S1                 0.0000
     44 ****         4.3761  -2.5624  -2.2168 LP             1 S1                 0.0000
     45 ****         5.8342  -2.1402  -1.6148 LP             1 S1                 0.0000
@<TRIPOS>BOND
    1    1    2 1     
    2    1   20 1     
    3    1   21 1     
    4    1   22 1     
    5    2   19 1     
    6    2    3 2     
    7    3    4 1     
    8    4    5 2     
    9    5    6 1     
   10    5   19 1     
   11    6    7 1     
   12    7    8 2     
   13    7    9 am    
   14    9   10 1     
   15    9   23 1     
   16   10   11 1     
   17   10   24 1     
   18   10   25 1     
   19   11   12 1     
   20   11   13 1     
   21   11   26 1     
   22   12   27 1     
   23   12   28 1     
   24   12   29 1     
   25   13   18 1     
   26   13   14 1     
   27   13   38 1     
   28   14   15 1     
   29   14   30 1     
   30   14   31 1     
   31   15   16 1     
   32   15   32 1     
   33   15   33 1     
   34   16   17 1     
   35   17   18 1     
   36   17   34 1     
   37   17   35 1     
   38   18   36 1     
   39   18   37 1     
   40    3   39 1     
   41    4   40 1     
   42    6   41 1     
   43    8   42 1     
   44    8   43 1     
   45   16   44 1     
   46   16   45 1     
@<TRIPOS>SUBSTRUCTURE
      1 S1             1
@<TRIPOS>SET
LONE_PAIRS      STATIC     ATOMS    <user>   **** ""
7 39 40 41 42 43 44 45
DONOR_HYDROGENS      STATIC     ATOMS    <user>   **** ""
2 23 38
ATOM$BLUE        STATIC     ATOMS    COLORGROUP SYSTEM
7 39 40 41 42 43 44 45
ATOM$RED        STATIC     ATOMS    COLORGROUP SYSTEM
2 23 38
