AV-unprocessed.smi:794|AV-procd|sdf|3762|dock3
  -GOLD-   22720 1193D 1   1.00000     0.00000
 Structure written by MMmdl.
 41 43  0  0  0  0  0  0  0  0  1 V2000
  147.4977  136.9941  163.6214 C   0  0  0  0  0  0  0  0  0  0  0  0
  147.6233  136.3408  162.2771 C   0  0  0  0  0  0  0  0  0  0  0  0
  147.9826  137.1392  161.1870 N   0  0  0  0  0  0  0  0  0  0  0  0
  148.0609  136.4450  160.0482 C   0  0  0  0  0  0  0  0  0  0  0  0
  148.4022  137.0060  158.7895 N   0  0  0  0  0  0  0  0  0  0  0  0
  149.3576  137.9119  158.5165 C   0  0  0  0  0  0  0  0  0  0  0  0
  150.1270  138.4033  159.3426 O   0  0  0  0  0  0  0  0  0  0  0  0
  149.3755  138.2159  157.2109 N   0  0  0  0  0  0  0  0  0  0  0  0
  150.2896  139.1589  156.5620 C   0  0  2  0  0  0  0  0  0  0  0  0
  150.1291  140.6045  157.0961 C   0  0  2  0  0  0  0  0  0  0  0  0
  148.6484  141.0406  157.1067 C   0  0  0  0  0  0  0  0  0  0  0  0
  148.3285  141.1735  155.6068 C   0  0  0  0  0  0  0  0  0  0  0  0
  149.6772  140.8403  154.9336 C   0  0  1  0  0  0  0  0  0  0  0  0
  150.6620  141.4358  155.9331 C   0  0  0  0  0  0  0  0  0  0  0  0
  150.0276  139.3357  155.0394 C   0  0  2  0  0  0  0  0  0  0  0  0
  149.0358  138.3552  154.3733 C   0  0  0  0  0  0  0  0  0  0  0  0
  148.9319  138.6268  152.9917 O   0  0  0  0  0  0  0  0  0  0  0  0
  147.6899  134.7421  160.2390 S   0  0  0  0  0  0  0  0  0  0  0  0
  147.4293  135.0162  161.9446 C   0  0  0  0  0  0  0  0  0  0  0  0
  147.0469  133.8692  162.8234 C   0  0  0  0  0  0  0  0  0  0  0  0
  147.2094  136.2934  164.4029 H   0  0  0  0  0  0  0  0  0  0  0  0
  146.7468  137.7843  163.6021 H   0  0  0  0  0  0  0  0  0  0  0  0
  148.4417  137.4475  163.9245 H   0  0  0  0  0  0  0  0  0  0  0  0
  147.8562  136.6778  158.0066 H   0  0  0  0  0  0  0  0  0  0  0  0
  148.7020  137.7616  156.6119 H   0  0  0  0  0  0  0  0  0  0  0  0
  151.3266  138.8476  156.7025 H   0  0  0  0  0  0  0  0  0  0  0  0
  150.6357  140.7735  158.0466 H   0  0  0  0  0  0  0  0  0  0  0  0
  147.9856  140.3444  157.6204 H   0  0  0  0  0  0  0  0  0  0  0  0
  148.5427  142.0073  157.6008 H   0  0  0  0  0  0  0  0  0  0  0  0
  147.5153  140.5219  155.2906 H   0  0  0  0  0  0  0  0  0  0  0  0
  148.0296  142.1970  155.3764 H   0  0  0  0  0  0  0  0  0  0  0  0
  149.7671  141.2360  153.9216 H   0  0  0  0  0  0  0  0  0  0  0  0
  150.5400  142.5113  156.0755 H   0  0  0  0  0  0  0  0  0  0  0  0
  151.7061  141.2267  155.6933 H   0  0  0  0  0  0  0  0  0  0  0  0
  150.9847  139.1933  154.5337 H   0  0  0  0  0  0  0  0  0  0  0  0
  149.3900  137.3305  154.4906 H   0  0  0  0  0  0  0  0  0  0  0  0
  148.0446  138.3994  154.8230 H   0  0  0  0  0  0  0  0  0  0  0  0
  149.0404  137.8171  152.5164 H   0  0  0  0  0  0  0  0  0  0  0  0
  146.8898  134.1740  163.8566 H   0  0  0  0  0  0  0  0  0  0  0  0
  147.8258  133.1066  162.8185 H   0  0  0  0  0  0  0  0  0  0  0  0
  146.1242  133.4074  162.4717 H   0  0  0  0  0  0  0  0  0  0  0  0
  1  2  1  0  0  0  0
  1 21  1  0  0  0  0
  1 22  1  0  0  0  0
  1 23  1  0  0  0  0
  2 19  2  0  0  0  0
  2  3  1  0  0  0  0
  3  4  2  0  0  0  0
  4  5  1  0  0  0  0
  4 18  1  0  0  0  0
  5  6  1  0  0  0  0
  5 24  1  0  0  0  0
  6  7  2  0  0  0  0
  6  8  1  0  0  0  0
  8  9  1  0  0  0  0
  8 25  1  0  0  0  0
  9 15  1  0  0  0  0
  9 10  1  0  0  0  0
  9 26  1  0  0  0  0
 10 14  1  0  0  0  0
 10 11  1  0  0  0  0
 10 27  1  0  0  0  0
 11 12  1  0  0  0  0
 11 28  1  0  0  0  0
 11 29  1  0  0  0  0
 12 13  1  0  0  0  0
 12 30  1  0  0  0  0
 12 31  1  0  0  0  0
 13 14  1  0  0  0  0
 13 15  1  0  0  0  0
 13 32  1  0  0  0  0
 14 33  1  0  0  0  0
 14 34  1  0  0  0  0
 15 16  1  0  0  0  0
 15 35  1  0  0  0  0
 16 17  1  0  0  0  0
 16 36  1  0  0  0  0
 16 37  1  0  0  0  0
 17 38  1  0  0  0  0
 18 19  1  0  0  0  0
 19 20  1  0  0  0  0
 20 39  1  0  0  0  0
 20 40  1  0  0  0  0
 20 41  1  0  0  0  0
M  END
> <s_m_source_file>
AV-unprocessed.smi

> <i_m_source_file_index>
794

> <i_lp_mmshare_version>
43012

> <i_f3d_flags>
0

> <s_epik_input>
W0NIM11jMW5jKHNjMVtDSDNdKVtOSF1DKD1PKVtOSF1bQ0BIXShbQ0BASF0yMylbQ0BIXShbQ0gyXVtPSF0pW0NAQEhdKFtDSDJdMylbQ0gyXVtDSDJdMg==

> <s_epik_cmdline>
J2VwaWtfcHl0aG9uJywgJy1waCcsICc3LjAnLCAnLXRuJywgJzgnLCAnLW1hJywgJzIwMCcsICctbWV0YWxfYmluZGluZycsICctaW1hZScsICc8aW5maWxlLm1hZT4nLCAnLW9tYWUnLCAnPG91dGZpbGUubWFlPic=

> <r_lp_tautomer_probability>
0.999

> <r_epik_Ionization_Penalty>
0.000713029

> <r_epik_Ionization_Penalty_Charging>
0

> <r_epik_Ionization_Penalty_Neutral>
0.000713029

> <r_epik_State_Penalty>
0.000177984

> <r_epik_Charging_Adjusted_Penalty>
0.000177984

> <i_epik_Tot_Q>
0

> <i_epik_Tot_abs_Q>
0

> <r_epik_Metal_State_Penalty>
-0

> <b_epik_Metal_Only>
0

> <s_lp_Force_Field>
OPLS_2005

> <r_lp_Energy>
49.8561

> <b_lp_Chiralities_Consistent>
1

> <s_lp_Variant>
AV-unprocessed.smi:794-7

> <Gold.Version>
5.8.1

> <Gold.Id.Protein>
6NUR|6NUR_protein|mol2

> <Gold.PLP.Fitness>
42.9785

> <Gold.PLP.PLP>
-35.7906

> <Gold.PLP.part.hbond>
-3.6855

> <Gold.PLP.part.metal>
0.0000

> <Gold.PLP.part.buried>
-1.8868

> <Gold.PLP.part.nonpolar>
-28.5418

> <Gold.PLP.part.repulsive>
0.1471

> <Gold.PLP.ligand.clash>
0.0000

> <Gold.PLP.ligand.torsion>
0.3381

> <Gold.PLP.Chemscore.Hbond>
2.6178

> <Gold.PLP.Chemscore.CHOScore>
0.0000

> <Gold.PLP.Chemscore.Metal>
0.0000

> <Gold.Chemscore.Hbonds>
donor molecule, donor type, donor heavy atom, donor atom, acceptor molecule, acceptor atom, score
      L1  H    17    38       P1  7948  1.00
      P1  H  6931  6943       L1     3  1.00
      P1  H  6934  6947       L1     3  0.68

> <Gold.PLP.Chemscore.Internal.Correction>
0.0108

> <Gold.Rescore>
     Score         DG    S(hbond)    S(metal)    S(lipo)     H(rot)  DE(clash)    DE(int)     intcor
     16.52     -17.21       1.87        0.00      85.72       1.78       0.14       0.55       ----

> <Gold.Chemscore.Fitness>
16.5165

> <Gold.Chemscore.DG>
-17.2067

> <Gold.Chemscore.ZeroCoef>
-5.4800

> <Gold.Chemscore.Hbond>
1.8722

> <Gold.Chemscore.Metal>
0.0000

> <Gold.Chemscore.Lipo>
85.7231

> <Gold.Chemscore.Internal_Hbond>
0.0000

> <Gold.Chemscore.DEClash>
0.1358

> <Gold.Chemscore.DEInternal>
0.5543

> <Gold.Chemscore.Rot>
1.7798

> <Gold.Chemscore.Internal.Correction>
   9.000000E+99

> <Gold.Chemscore.Hbonds>
donor molecule, donor type, donor heavy atom, donor atom, acceptor molecule, acceptor atom, score
      L1  H    17    38       P1  7948  0.99
      P1  H  6931  6943       L1     3  0.33
      P1  H  6934  6947       L1     3  0.54

> <Gold.Chemscore.Hbond.Weighted>
-6.2533

> <Gold.Chemscore.Metal.Weighted>
-0.0000

> <Gold.Chemscore.Lipo.Weighted>
-10.0296

> <Gold.Chemscore.Internal_Hbond.Weighted>
0.0000

> <Gold.Chemscore.DEClash.Weighted>
0.1358

> <Gold.Chemscore.DEInternal.Weighted>
0.5543

> <Gold.Chemscore.Rot.Weighted>
4.5562

> <Gold.Chemscore.Internal.Correction.Weighted>
   9.000000E+99

> <Gold.Protein.RotatedTorsions>
[ 6907 6896 6895 6894 ] final -168.81 input  -60.11 | X-H torsion
[ 7974 7965 7964 7962 ] final  -87.29 input  175.53 | X-H torsion
[ 8008 7997 7996 7995 ] final  -32.15 input   59.86 | X-H torsion
[ 10167 10162 10161 10158 ] final -139.50 input  -65.29 | X-H torsion
[ 10718 10713 10712 10709 ] final  171.67 input   66.30 | X-H torsion
[ 10763 10752 10751 10750 ] final  105.94 input  -60.55 | X-H torsion
[ 11005 11000 10999 10996 ] final  -61.92 input  -57.11 | X-H torsion

> <Gold.Protein.ActiveResidues>
 VAL166  LYS551  ARG553  GLY616  TRP617  ASP618  TYR619  PRO620  LYS621  CYS622 
 ASP623  PHE694  ASN695  SER759  ASP760  ASP761  ALA762  ILE779  LEU786  VAL792 
 PHE793  MET794  SER795  GLU796  ALA797  LYS798  CYS799  TRP800  GLU811  SER814 

> <Gold.Protein.RotatedAtoms>
  151.4815  133.3545  159.2838 H   0  0  0  0  0  0  0  0  0  0  0  0  # atno 6907 bound_to 6896
  150.8894  134.8298  159.7293 H   0  0  0  0  0  0  0  0  0  0  0  0  # atno 6908 bound_to 6896
  152.4813  134.4723  159.9691 H   0  0  0  0  0  0  0  0  0  0  0  0  # atno 6909 bound_to 6896
  145.4685  140.9560  143.1930 H   0  0  0  0  0  0  0  0  0  0  0  0  # atno 7974 bound_to 7965
  154.4189  140.1745  156.1680 H   0  0  0  0  0  0  0  0  0  0  0  0  # atno 8008 bound_to 7997
  155.9784  140.3379  155.6615 H   0  0  0  0  0  0  0  0  0  0  0  0  # atno 8009 bound_to 7997
  155.6533  140.0693  157.2570 H   0  0  0  0  0  0  0  0  0  0  0  0  # atno 8010 bound_to 7997
  139.8373  143.7368  152.2664 H   0  0  0  0  0  0  0  0  0  0  0  0  # atno 10167 bound_to 10162
  156.9902  131.0145  151.2859 H   0  0  0  0  0  0  0  0  0  0  0  0  # atno 10718 bound_to 10713
  153.3861  135.3893  155.1891 H   0  0  0  0  0  0  0  0  0  0  0  0  # atno 10763 bound_to 10752
  154.8714  135.3737  154.4796 H   0  0  0  0  0  0  0  0  0  0  0  0  # atno 10764 bound_to 10752
  153.5277  135.7086  153.5760 H   0  0  0  0  0  0  0  0  0  0  0  0  # atno 10765 bound_to 10752
  141.1342  133.6635  156.5449 H   0  0  0  0  0  0  0  0  0  0  0  0  # atno 11005 bound_to 11000
  144.7960  139.6234  143.7093 LP  0  0  0  0  0  0  0  0  0  0  0  0  # atno 17320 bound_to 7965
  146.2410  139.6002  142.9491 LP  0  0  0  0  0  0  0  0  0  0  0  0  # atno 17321 bound_to 7965
  139.7594  144.7511  151.0387 LP  0  0  0  0  0  0  0  0  0  0  0  0  # atno 17342 bound_to 10162
  140.7801  143.4768  151.0071 LP  0  0  0  0  0  0  0  0  0  0  0  0  # atno 17343 bound_to 10162
  157.5464  130.8153  149.8091 LP  0  0  0  0  0  0  0  0  0  0  0  0  # atno 17370 bound_to 10713
  156.0210  130.3795  150.1962 LP  0  0  0  0  0  0  0  0  0  0  0  0  # atno 17371 bound_to 10713
  140.4110  134.7272  157.4836 LP  0  0  0  0  0  0  0  0  0  0  0  0  # atno 17394 bound_to 11000
  140.0427  134.6244  155.8960 LP  0  0  0  0  0  0  0  0  0  0  0  0  # atno 17395 bound_to 11000

$$$$
