AV-unprocessed.smi:1326|AV-procd|sdf|5474|dock7
  -GOLD-   22720 5 43D 1   1.00000     0.00000
 Structure written by MMmdl.
 39 39  0  0  0  0  0  0  0  0  1 V2000
  151.3570  143.3186  157.4771 C   0  0  0  0  0  0  0  0  0  0  0  0
  150.9475  142.1141  156.6560 C   0  0  0  0  0  0  0  0  0  0  0  0
  151.4057  140.9209  156.8476 N   0  0  0  0  0  0  0  0  0  0  0  0
  150.9534  139.8831  156.0207 C   0  0  0  0  0  0  0  0  0  0  0  0
  151.5373  138.5121  156.3176 C   0  0  0  0  0  0  0  0  0  0  0  0
  150.0455  140.1065  155.0248 C   0  0  0  0  0  0  0  0  0  0  0  0
  149.5330  139.0094  154.0913 C   0  0  0  0  0  0  0  0  0  0  0  0
  148.0168  138.7913  154.0710 C   0  0  0  0  0  0  0  0  0  0  0  0
  147.2945  139.4446  154.8230 O   0  0  0  0  0  0  0  0  0  0  0  0
  147.5444  137.8688  153.2199 N   0  0  0  0  0  0  0  0  0  0  0  0
  146.1384  137.5249  153.0676 C   0  0  0  0  0  0  0  0  0  0  0  0
  145.8877  136.8978  151.6866 C   0  0  0  0  0  0  0  0  0  0  0  0
  144.7557  135.8503  151.6659 C   0  0  0  0  0  0  0  0  0  0  0  0
  144.4083  135.3860  150.2411 C   0  0  0  0  0  0  0  0  0  0  0  0
  143.5026  136.3911  152.3714 C   0  0  0  0  0  0  0  0  0  0  0  0
  149.5287  141.4729  154.8160 C   0  0  0  0  0  0  0  0  0  0  0  0
  148.7143  141.7838  153.9484 O   0  0  0  0  0  0  0  0  0  0  0  0
  150.0192  142.4085  155.6593 N   0  0  0  0  0  0  0  0  0  0  0  0
  149.6957  143.3593  155.5560 H   0  0  0  0  0  0  0  0  0  0  0  0
  150.8530  144.2259  157.1412 H   0  0  0  0  0  0  0  0  0  0  0  0
  152.4330  143.4777  157.3990 H   0  0  0  0  0  0  0  0  0  0  0  0
  151.1088  143.1588  158.5266 H   0  0  0  0  0  0  0  0  0  0  0  0
  150.7562  137.8324  156.6588 H   0  0  0  0  0  0  0  0  0  0  0  0
  152.2967  138.5658  157.0988 H   0  0  0  0  0  0  0  0  0  0  0  0
  152.0051  138.0856  155.4311 H   0  0  0  0  0  0  0  0  0  0  0  0
  149.8460  139.2186  153.0690 H   0  0  0  0  0  0  0  0  0  0  0  0
  150.0232  138.0668  154.3400 H   0  0  0  0  0  0  0  0  0  0  0  0
  148.2045  137.3731  152.6382 H   0  0  0  0  0  0  0  0  0  0  0  0
  145.8543  136.8328  153.8610 H   0  0  0  0  0  0  0  0  0  0  0  0
  145.5345  138.4253  153.1890 H   0  0  0  0  0  0  0  0  0  0  0  0
  145.6390  137.6980  150.9878 H   0  0  0  0  0  0  0  0  0  0  0  0
  146.8097  136.4491  151.3136 H   0  0  0  0  0  0  0  0  0  0  0  0
  145.0919  134.9789  152.2296 H   0  0  0  0  0  0  0  0  0  0  0  0
  144.1100  136.2253  149.6120 H   0  0  0  0  0  0  0  0  0  0  0  0
  143.5841  134.6723  150.2528 H   0  0  0  0  0  0  0  0  0  0  0  0
  145.2519  134.8910  149.7609 H   0  0  0  0  0  0  0  0  0  0  0  0
  143.1107  137.2723  151.8621 H   0  0  0  0  0  0  0  0  0  0  0  0
  143.7196  136.6716  153.4025 H   0  0  0  0  0  0  0  0  0  0  0  0
  142.7105  135.6421  152.3972 H   0  0  0  0  0  0  0  0  0  0  0  0
  1  2  1  0  0  0  0
  1 20  1  0  0  0  0
  1 21  1  0  0  0  0
  1 22  1  0  0  0  0
  2 18  1  0  0  0  0
  2  3  2  0  0  0  0
  3  4  1  0  0  0  0
  4  5  1  0  0  0  0
  4  6  2  0  0  0  0
  5 23  1  0  0  0  0
  5 24  1  0  0  0  0
  5 25  1  0  0  0  0
  6  7  1  0  0  0  0
  6 16  1  0  0  0  0
  7  8  1  0  0  0  0
  7 26  1  0  0  0  0
  7 27  1  0  0  0  0
  8  9  2  0  0  0  0
  8 10  1  0  0  0  0
 10 11  1  0  0  0  0
 10 28  1  0  0  0  0
 11 12  1  0  0  0  0
 11 29  1  0  0  0  0
 11 30  1  0  0  0  0
 12 13  1  0  0  0  0
 12 31  1  0  0  0  0
 12 32  1  0  0  0  0
 13 14  1  0  0  0  0
 13 15  1  0  0  0  0
 13 33  1  0  0  0  0
 14 34  1  0  0  0  0
 14 35  1  0  0  0  0
 14 36  1  0  0  0  0
 15 37  1  0  0  0  0
 15 38  1  0  0  0  0
 15 39  1  0  0  0  0
 16 17  2  0  0  0  0
 16 18  1  0  0  0  0
 18 19  1  0  0  0  0
M  END
> <s_m_source_file>
AV-unprocessed.smi

> <i_m_source_file_index>
1326

> <i_lp_mmshare_version>
43012

> <i_f3d_flags>
0

> <s_epik_input>
W0NIM11jMW5jKFtDSDNdKWMoYyg9TylbbkhdMSlbQ0gyXUMoPU8pW05IXVtDSDJdW0NIMl1bQ0hdKFtDSDNdKVtDSDNd

> <s_epik_cmdline>
J2VwaWtfcHl0aG9uJywgJy1waCcsICc3LjAnLCAnLXRuJywgJzgnLCAnLW1hJywgJzIwMCcsICctbWV0YWxfYmluZGluZycsICctaW1hZScsICc8aW5maWxlLm1hZT4nLCAnLW9tYWUnLCAnPG91dGZpbGUubWFlPic=

> <r_lp_tautomer_probability>
0.839158

> <r_epik_Ionization_Penalty>
0.000369141

> <r_epik_Ionization_Penalty_Charging>
0.00033405

> <r_epik_Ionization_Penalty_Neutral>
3.5091e-05

> <r_epik_State_Penalty>
0.09125

> <r_epik_Charging_Adjusted_Penalty>
0.0915841

> <i_epik_Tot_Q>
0

> <i_epik_Tot_abs_Q>
0

> <r_epik_Metal_State_Penalty>
0.250923

> <b_epik_Metal_Only>
0

> <s_lp_Force_Field>
OPLS_2005

> <r_lp_Energy>
6.99246

> <b_lp_Chiralities_Consistent>
1

> <s_lp_Variant>
AV-unprocessed.smi:1326-1

> <Gold.Version>
5.8.1

> <Gold.Id.Protein>
6NUR|6NUR_protein|mol2

> <Gold.PLP.Fitness>
37.1930

> <Gold.PLP.PLP>
-30.4189

> <Gold.PLP.part.hbond>
-3.0000

> <Gold.PLP.part.metal>
0.0000

> <Gold.PLP.part.buried>
-0.3966

> <Gold.PLP.part.nonpolar>
-26.8266

> <Gold.PLP.part.repulsive>
0.4869

> <Gold.PLP.ligand.clash>
0.0000

> <Gold.PLP.ligand.torsion>
0.4282

> <Gold.PLP.Chemscore.Hbond>
2.5392

> <Gold.PLP.Chemscore.CHOScore>
0.0000

> <Gold.PLP.Chemscore.Metal>
0.0000

> <Gold.Chemscore.Hbonds>
donor molecule, donor type, donor heavy atom, donor atom, acceptor molecule, acceptor atom, score
      L1  H    10    28       P1  7948  1.00
      L1  H    18    19       P1  8028  1.00
      P1  H  8011  8017       L1    17  0.53

> <Gold.PLP.Chemscore.Internal.Correction>
0.0128

> <Gold.Rescore>
     Score         DG    S(hbond)    S(metal)    S(lipo)     H(rot)  DE(clash)    DE(int)     intcor
     15.73     -16.11       2.54        0.00      59.70       1.89       0.05       0.33       ----

> <Gold.Chemscore.Fitness>
15.7295

> <Gold.Chemscore.DG>
-16.1069

> <Gold.Chemscore.ZeroCoef>
-5.4800

> <Gold.Chemscore.Hbond>
2.5402

> <Gold.Chemscore.Metal>
0.0000

> <Gold.Chemscore.Lipo>
59.7023

> <Gold.Chemscore.Internal_Hbond>
0.0000

> <Gold.Chemscore.DEClash>
0.0459

> <Gold.Chemscore.DEInternal>
0.3315

> <Gold.Chemscore.Rot>
1.8916

> <Gold.Chemscore.Internal.Correction>
   9.000000E+99

> <Gold.Chemscore.Hbonds>
donor molecule, donor type, donor heavy atom, donor atom, acceptor molecule, acceptor atom, score
      L1  H    10    28       P1  7948  0.96
      L1  H    18    19       P1  8028  0.98
      P1  H  8011  8017       L1    17  0.30

> <Gold.Chemscore.Hbond.Weighted>
-8.4841

> <Gold.Chemscore.Metal.Weighted>
-0.0000

> <Gold.Chemscore.Lipo.Weighted>
-6.9852

> <Gold.Chemscore.Internal_Hbond.Weighted>
0.0000

> <Gold.Chemscore.DEClash.Weighted>
0.0459

> <Gold.Chemscore.DEInternal.Weighted>
0.3315

> <Gold.Chemscore.Rot.Weighted>
4.8424

> <Gold.Chemscore.Internal.Correction.Weighted>
   9.000000E+99

> <Gold.Protein.RotatedTorsions>
[ 6907 6896 6895 6894 ] final   59.38 input  -60.11 | X-H torsion
[ 7974 7965 7964 7962 ] final -117.90 input  175.53 | X-H torsion
[ 8008 7997 7996 7995 ] final  140.58 input   59.86 | X-H torsion
[ 10167 10162 10161 10158 ] final  -53.67 input  -65.29 | X-H torsion
[ 10718 10713 10712 10709 ] final   32.70 input   66.30 | X-H torsion
[ 10763 10752 10751 10750 ] final  -45.20 input  -60.55 | X-H torsion
[ 11005 11000 10999 10996 ] final   83.14 input  -57.11 | X-H torsion

> <Gold.Protein.ActiveResidues>
 VAL166  LYS551  ARG553  GLY616  TRP617  ASP618  TYR619  PRO620  LYS621  CYS622 
 ASP623  PHE694  ASN695  SER759  ASP760  ASP761  ALA762  ILE779  LEU786  VAL792 
 PHE793  MET794  SER795  GLU796  ALA797  LYS798  CYS799  TRP800  GLU811  SER814 

> <Gold.Protein.RotatedAtoms>
  152.3909  134.6443  160.0107 H   0  0  0  0  0  0  0  0  0  0  0  0  # atno 6907 bound_to 6896
  151.6677  133.3309  159.3197 H   0  0  0  0  0  0  0  0  0  0  0  0  # atno 6908 bound_to 6896
  150.7825  134.6826  159.6497 H   0  0  0  0  0  0  0  0  0  0  0  0  # atno 6909 bound_to 6896
  145.0800  140.8419  143.4045 H   0  0  0  0  0  0  0  0  0  0  0  0  # atno 7974 bound_to 7965
  156.2977  140.2338  156.4424 H   0  0  0  0  0  0  0  0  0  0  0  0  # atno 8008 bound_to 7997
  154.8174  140.0439  157.1407 H   0  0  0  0  0  0  0  0  0  0  0  0  # atno 8009 bound_to 7997
  154.9354  140.3022  155.5150 H   0  0  0  0  0  0  0  0  0  0  0  0  # atno 8010 bound_to 7997
  140.6472  143.2543  151.4825 H   0  0  0  0  0  0  0  0  0  0  0  0  # atno 10167 bound_to 10162
  157.2886  130.7291  149.6597 H   0  0  0  0  0  0  0  0  0  0  0  0  # atno 10718 bound_to 10713
  154.0247  135.6664  153.4775 H   0  0  0  0  0  0  0  0  0  0  0  0  # atno 10763 bound_to 10752
  153.0565  135.5053  154.7990 H   0  0  0  0  0  0  0  0  0  0  0  0  # atno 10764 bound_to 10752
  154.6915  135.3062  154.9437 H   0  0  0  0  0  0  0  0  0  0  0  0  # atno 10765 bound_to 10752
  139.9040  134.8123  156.2269 H   0  0  0  0  0  0  0  0  0  0  0  0  # atno 11005 bound_to 11000
  145.1190  139.2706  143.5598 LP  0  0  0  0  0  0  0  0  0  0  0  0  # atno 17320 bound_to 7965
  146.3531  140.0808  142.8618 LP  0  0  0  0  0  0  0  0  0  0  0  0  # atno 17321 bound_to 7965
  139.5684  144.1987  152.1799 LP  0  0  0  0  0  0  0  0  0  0  0  0  # atno 17342 bound_to 10162
  140.1276  144.5317  150.6823 LP  0  0  0  0  0  0  0  0  0  0  0  0  # atno 17343 bound_to 10162
  155.9666  130.4316  150.4926 LP  0  0  0  0  0  0  0  0  0  0  0  0  # atno 17370 bound_to 10713
  157.2884  131.0621  151.2150 LP  0  0  0  0  0  0  0  0  0  0  0  0  # atno 17371 bound_to 10713
  141.0370  133.6958  156.1530 LP  0  0  0  0  0  0  0  0  0  0  0  0  # atno 17394 bound_to 11000
  140.7012  134.4562  157.5586 LP  0  0  0  0  0  0  0  0  0  0  0  0  # atno 17395 bound_to 11000

$$$$
