AV-unprocessed.smi:999|AV-procd|sdf|4354|dock7
  -GOLD-   22720 2253D 1   1.00000     0.00000
 Structure written by MMmdl.
 37 38  0  0  0  0  0  0  0  0  2 V2000
  153.4521  141.6540  161.3781 C   0  0  0  0  0  0  0  0  0  0  0  0
  153.4853  142.2054  159.9377 C   0  0  1  0  0  0  0  0  0  0  0  0
  152.9196  141.2155  158.9069 C   0  0  0  0  0  0  0  0  0  0  0  0
  153.6333  140.3400  158.4157 O   0  0  0  0  0  0  0  0  0  0  0  0
  151.6259  141.3741  158.5857 N   0  0  0  0  0  0  0  0  0  0  0  0
  150.8803  140.5558  157.6353 C   0  0  2  0  0  0  0  0  0  0  0  0
  151.2442  139.0661  157.8048 C   0  0  0  0  0  0  0  0  0  0  0  0
  150.5529  138.1916  156.7418 C   0  0  0  0  0  0  0  0  0  0  0  0
  150.8632  138.6601  155.2988 C   0  0  2  0  0  0  0  0  0  0  0  0
  152.3224  138.3692  154.8752 C   0  0  0  0  0  0  0  0  0  0  0  0
  153.2269  139.0719  155.3788 O   0  0  0  0  0  0  0  0  0  0  0  0
  152.5182  137.4687  154.0290 O   0  5  0  0  0  0  0  0  0  0  0  0
  150.4864  140.1545  155.1497 C   0  0  0  0  0  0  0  0  0  0  0  0
  151.1756  141.0419  156.2034 C   0  0  0  0  0  0  0  0  0  0  0  0
  152.8150  143.4957  159.8207 N   0  0  0  0  0  0  0  0  0  0  0  0
  152.1596  144.2022  160.8092 C   0  0  0  0  0  0  0  0  0  0  0  0
  151.7242  145.3731  160.2585 C   0  0  0  0  0  0  0  0  0  0  0  0
  152.1790  145.3028  158.9127 C   0  0  0  0  0  0  0  0  0  0  0  0
  152.8382  144.1852  158.6560 N   0  0  0  0  0  0  0  0  0  0  0  0
  154.0187  140.7252  161.4548 H   0  0  0  0  0  0  0  0  0  0  0  0
  152.4359  141.4489  161.7173 H   0  0  0  0  0  0  0  0  0  0  0  0
  153.8957  142.3649  162.0761 H   0  0  0  0  0  0  0  0  0  0  0  0
  154.5343  142.3683  159.6845 H   0  0  0  0  0  0  0  0  0  0  0  0
  151.1161  142.1219  159.0330 H   0  0  0  0  0  0  0  0  0  0  0  0
  149.8109  140.6789  157.8180 H   0  0  0  0  0  0  0  0  0  0  0  0
  152.3257  138.9393  157.7407 H   0  0  0  0  0  0  0  0  0  0  0  0
  150.9570  138.7210  158.7985 H   0  0  0  0  0  0  0  0  0  0  0  0
  150.8265  137.1455  156.8834 H   0  0  0  0  0  0  0  0  0  0  0  0
  149.4746  138.2314  156.9001 H   0  0  0  0  0  0  0  0  0  0  0  0
  150.2389  138.0838  154.6152 H   0  0  0  0  0  0  0  0  0  0  0  0
  150.7149  140.5202  154.1478 H   0  0  0  0  0  0  0  0  0  0  0  0
  149.4059  140.2567  155.2541 H   0  0  0  0  0  0  0  0  0  0  0  0
  150.8396  142.0728  156.0856 H   0  0  0  0  0  0  0  0  0  0  0  0
  152.2525  141.0510  156.0286 H   0  0  0  0  0  0  0  0  0  0  0  0
  152.0591  143.8159  161.8131 H   0  0  0  0  0  0  0  0  0  0  0  0
  151.1707  146.1628  160.7442 H   0  0  0  0  0  0  0  0  0  0  0  0
  152.0551  146.0276  158.1217 H   0  0  0  0  0  0  0  0  0  0  0  0
  1  2  1  0  0  0  0
  1 20  1  0  0  0  0
  1 21  1  0  0  0  0
  1 22  1  0  0  0  0
  2  3  1  0  0  0  0
  2 15  1  0  0  0  0
  2 23  1  0  0  0  0
  3  4  2  0  0  0  0
  3  5  1  0  0  0  0
  5  6  1  0  0  0  0
  5 24  1  0  0  0  0
  6 14  1  0  0  0  0
  6  7  1  0  0  0  0
  6 25  1  0  0  0  0
  7  8  1  0  0  0  0
  7 26  1  0  0  0  0
  7 27  1  0  0  0  0
  8  9  1  0  0  0  0
  8 28  1  0  0  0  0
  8 29  1  0  0  0  0
  9 10  1  0  0  0  0
  9 13  1  0  0  0  0
  9 30  1  0  0  0  0
 10 11  2  0  0  0  0
 10 12  1  0  0  0  0
 13 14  1  0  0  0  0
 13 31  1  0  0  0  0
 13 32  1  0  0  0  0
 14 33  1  0  0  0  0
 14 34  1  0  0  0  0
 15 19  1  0  0  0  0
 15 16  1  0  0  0  0
 16 17  2  0  0  0  0
 16 35  1  0  0  0  0
 17 18  1  0  0  0  0
 17 36  1  0  0  0  0
 18 19  2  0  0  0  0
 18 37  1  0  0  0  0
M  CHG  1  12  -1
M  END
> <s_m_source_file>
AV-unprocessed.smi

> <i_m_source_file_index>
999

> <i_lp_mmshare_version>
43012

> <i_f3d_flags>
0

> <s_epik_input>
bjFbY0hdW2NIXVtjSF1uMVtDQEhdKFtDSDNdKUMoPU8pW05IXVtDQEBIXTJbQ0gyXVtDSDJdW0NAQEhdKEMoPU8pW09IXSlbQ0gyXVtDSDJdMg==

> <s_epik_cmdline>
J2VwaWtfcHl0aG9uJywgJy1waCcsICc3LjAnLCAnLXRuJywgJzgnLCAnLW1hJywgJzIwMCcsICctbWV0YWxfYmluZGluZycsICctaW1hZScsICc8aW5maWxlLm1hZT4nLCAnLW9tYWUnLCAnPG91dGZpbGUubWFlPic=

> <r_lp_tautomer_probability>
1

> <r_epik_Ionization_Penalty>
0.00221712

> <r_epik_Ionization_Penalty_Charging>
0.00217268

> <r_epik_Ionization_Penalty_Neutral>
4.44343e-05

> <r_epik_State_Penalty>
0.0014925

> <r_epik_Charging_Adjusted_Penalty>
0.00366518

> <i_epik_Tot_Q>
-1

> <i_epik_Tot_abs_Q>
1

> <r_epik_Metal_State_Penalty>
-0

> <b_epik_Metal_Only>
0

> <s_lp_Force_Field>
OPLS_2005

> <r_lp_Energy>
8.81329

> <b_lp_Chiralities_Consistent>
1

> <s_lp_Variant>
AV-unprocessed.smi:999-4

> <Gold.Version>
5.8.1

> <Gold.Id.Protein>
6NUR|6NUR_protein|mol2

> <Gold.PLP.Fitness>
53.0146

> <Gold.PLP.PLP>
-43.6926

> <Gold.PLP.part.hbond>
-3.0000

> <Gold.PLP.part.metal>
0.0000

> <Gold.PLP.part.buried>
-5.2936

> <Gold.PLP.part.nonpolar>
-35.5036

> <Gold.PLP.part.repulsive>
0.2621

> <Gold.PLP.ligand.clash>
0.0000

> <Gold.PLP.ligand.torsion>
1.2137

> <Gold.PLP.Chemscore.Hbond>
3.8688

> <Gold.PLP.Chemscore.CHOScore>
0.0000

> <Gold.PLP.Chemscore.Metal>
0.0000

> <Gold.Chemscore.Hbonds>
donor molecule, donor type, donor heavy atom, donor atom, acceptor molecule, acceptor atom, score
      P1  H  7997  8008       L1     4  0.34
      P1  H  7997  8009       L1    11  2.00
      P1  H 10752 10765       L1    12  1.41

> <Gold.PLP.Chemscore.Internal.Correction>
0.1429

> <Gold.Rescore>
     Score         DG    S(hbond)    S(metal)    S(lipo)     H(rot)  DE(clash)    DE(int)     intcor
     12.91     -18.29       2.17        0.00      90.91       1.98       0.07       5.31       ----

> <Gold.Chemscore.Fitness>
12.9093

> <Gold.Chemscore.DG>
-18.2939

> <Gold.Chemscore.ZeroCoef>
-5.4800

> <Gold.Chemscore.Hbond>
2.1676

> <Gold.Chemscore.Metal>
0.0000

> <Gold.Chemscore.Lipo>
90.9087

> <Gold.Chemscore.Internal_Hbond>
0.0000

> <Gold.Chemscore.DEClash>
0.0735

> <Gold.Chemscore.DEInternal>
5.3112

> <Gold.Chemscore.Rot>
1.9774

> <Gold.Chemscore.Internal.Correction>
   9.000000E+99

> <Gold.Chemscore.Hbonds>
donor molecule, donor type, donor heavy atom, donor atom, acceptor molecule, acceptor atom, score
      P1  H  7997  8008       L1     4  0.34
      P1  H  7997  8009       L1    11  0.96
      P1  H 10752 10765       L1    12  0.72

> <Gold.Chemscore.Hbond.Weighted>
-7.2396

> <Gold.Chemscore.Metal.Weighted>
-0.0000

> <Gold.Chemscore.Lipo.Weighted>
-10.6363

> <Gold.Chemscore.Internal_Hbond.Weighted>
0.0000

> <Gold.Chemscore.DEClash.Weighted>
0.0735

> <Gold.Chemscore.DEInternal.Weighted>
5.3112

> <Gold.Chemscore.Rot.Weighted>
5.0620

> <Gold.Chemscore.Internal.Correction.Weighted>
   9.000000E+99

> <Gold.Protein.RotatedTorsions>
[ 6907 6896 6895 6894 ] final  125.75 input  -60.11 | X-H torsion
[ 7974 7965 7964 7962 ] final  -81.78 input  175.53 | X-H torsion
[ 8008 7997 7996 7995 ] final -129.66 input   59.86 | X-H torsion
[ 10167 10162 10161 10158 ] final   88.45 input  -65.29 | X-H torsion
[ 10718 10713 10712 10709 ] final -157.19 input   66.30 | X-H torsion
[ 10763 10752 10751 10750 ] final  145.00 input  -60.55 | X-H torsion
[ 11005 11000 10999 10996 ] final  -30.15 input  -57.11 | X-H torsion

> <Gold.Protein.ActiveResidues>
 VAL166  LYS551  ARG553  GLY616  TRP617  ASP618  TYR619  PRO620  LYS621  CYS622 
 ASP623  PHE694  ASN695  SER759  ASP760  ASP761  ALA762  ILE779  LEU786  VAL792 
 PHE793  MET794  SER795  GLU796  ALA797  LYS798  CYS799  TRP800  GLU811  SER814 

> <Gold.Protein.RotatedAtoms>
  152.3965  133.6754  159.6280 H   0  0  0  0  0  0  0  0  0  0  0  0  # atno 6907 bound_to 6896
  150.7863  133.8865  159.3310 H   0  0  0  0  0  0  0  0  0  0  0  0  # atno 6908 bound_to 6896
  151.6641  135.0987  160.0236 H   0  0  0  0  0  0  0  0  0  0  0  0  # atno 6909 bound_to 6896
  145.5420  140.9508  143.1546 H   0  0  0  0  0  0  0  0  0  0  0  0  # atno 7974 bound_to 7965
  155.2829  140.0445  157.3017 H   0  0  0  0  0  0  0  0  0  0  0  0  # atno 8008 bound_to 7997
  154.5586  140.2339  155.8339 H   0  0  0  0  0  0  0  0  0  0  0  0  # atno 8009 bound_to 7997
  156.2028  140.3021  155.9570 H   0  0  0  0  0  0  0  0  0  0  0  0  # atno 8010 bound_to 7997
  139.8671  144.6513  150.8992 H   0  0  0  0  0  0  0  0  0  0  0  0  # atno 10167 bound_to 10162
  156.5369  130.8546  151.2735 H   0  0  0  0  0  0  0  0  0  0  0  0  # atno 10718 bound_to 10713
  153.9981  135.2926  155.3405 H   0  0  0  0  0  0  0  0  0  0  0  0  # atno 10763 bound_to 10752
  154.7175  135.5123  153.8764 H   0  0  0  0  0  0  0  0  0  0  0  0  # atno 10764 bound_to 10752
  153.0778  135.6669  154.0226 H   0  0  0  0  0  0  0  0  0  0  0  0  # atno 10765 bound_to 10752
  140.9358  133.7309  156.1002 H   0  0  0  0  0  0  0  0  0  0  0  0  # atno 11005 bound_to 11000
  144.7572  139.7045  143.7249 LP  0  0  0  0  0  0  0  0  0  0  0  0  # atno 17320 bound_to 7965
  146.1974  139.5249  142.9765 LP  0  0  0  0  0  0  0  0  0  0  0  0  # atno 17321 bound_to 7965
  140.7766  143.3695  151.1676 LP  0  0  0  0  0  0  0  0  0  0  0  0  # atno 17342 bound_to 10162
  139.7319  143.9060  152.3022 LP  0  0  0  0  0  0  0  0  0  0  0  0  # atno 17343 bound_to 10162
  157.7412  130.9865  150.2430 LP  0  0  0  0  0  0  0  0  0  0  0  0  # atno 17370 bound_to 10713
  156.3008  130.3758  149.7752 LP  0  0  0  0  0  0  0  0  0  0  0  0  # atno 17371 bound_to 10713
  140.7801  134.3735  157.5489 LP  0  0  0  0  0  0  0  0  0  0  0  0  # atno 17394 bound_to 11000
  139.8807  134.9076  156.2950 LP  0  0  0  0  0  0  0  0  0  0  0  0  # atno 17395 bound_to 11000

$$$$
