AV-unprocessed.smi:474|AV-procd|sdf|2665|dock10
  -GOLD-   2262023 83D 1   1.00000     0.00000
 Structure written by MMmdl.
 37 38  0  0  0  0  0  0  0  0  1 V2000
  151.7608  139.7734  158.2804 C   0  0  0  0  0  0  0  0  0  0  0  0
  151.3894  139.7054  156.8388 C   0  0  0  0  0  0  0  0  0  0  0  0
  150.2094  139.4661  156.1929 C   0  0  0  0  0  0  0  0  0  0  0  0
  150.5751  139.5518  154.8178 C   0  0  0  0  0  0  0  0  0  0  0  0
  149.7104  139.3861  153.7052 N   0  0  0  0  0  0  0  0  0  0  0  0
  148.4345  138.9649  153.6934 C   0  0  0  0  0  0  0  0  0  0  0  0
  147.7876  138.6195  154.6821 O   0  0  0  0  0  0  0  0  0  0  0  0
  147.9358  138.9664  152.4487 N   0  0  0  0  0  0  0  0  0  0  0  0
  146.5776  138.5764  152.0884 C   0  0  0  0  0  0  0  0  0  0  0  0
  146.5720  137.5113  150.9779 C   0  0  0  0  0  0  0  0  0  0  0  0
  145.5168  136.4399  151.1961 C   0  0  0  0  0  0  0  0  0  0  0  0
  144.5055  136.6029  152.0712 C   0  0  0  0  0  0  0  0  0  0  0  0
  143.4333  135.5616  152.3403 C   0  0  0  0  0  0  0  0  0  0  0  0
  143.8012  134.1801  151.7736 C   0  0  0  0  0  0  0  0  0  0  0  0
  144.3975  134.2999  150.3658 C   0  0  0  0  0  0  0  0  0  0  0  0
  145.6681  135.1686  150.3680 C   0  0  0  0  0  0  0  0  0  0  0  0
  151.8575  139.8159  154.6481 N   0  0  0  0  0  0  0  0  0  0  0  0
  152.3881  139.9156  155.9396 O   0  0  0  0  0  0  0  0  0  0  0  0
  150.8730  139.8574  158.9074 H   0  0  0  0  0  0  0  0  0  0  0  0
  152.3952  140.6379  158.4774 H   0  0  0  0  0  0  0  0  0  0  0  0
  152.3045  138.8780  158.5813 H   0  0  0  0  0  0  0  0  0  0  0  0
  149.2507  139.2663  156.6467 H   0  0  0  0  0  0  0  0  0  0  0  0
  150.1095  139.6304  152.8109 H   0  0  0  0  0  0  0  0  0  0  0  0
  148.5376  139.2640  151.6946 H   0  0  0  0  0  0  0  0  0  0  0  0
  146.0969  138.1897  152.9869 H   0  0  0  0  0  0  0  0  0  0  0  0
  146.0041  139.4526  151.7812 H   0  0  0  0  0  0  0  0  0  0  0  0
  146.4011  137.9892  150.0121 H   0  0  0  0  0  0  0  0  0  0  0  0
  147.5486  137.0304  150.9120 H   0  0  0  0  0  0  0  0  0  0  0  0
  144.4195  137.5252  152.6273 H   0  0  0  0  0  0  0  0  0  0  0  0
  143.2647  135.4881  153.4151 H   0  0  0  0  0  0  0  0  0  0  0  0
  142.5027  135.9153  151.8960 H   0  0  0  0  0  0  0  0  0  0  0  0
  144.5283  133.6990  152.4291 H   0  0  0  0  0  0  0  0  0  0  0  0
  142.9219  133.5355  151.7617 H   0  0  0  0  0  0  0  0  0  0  0  0
  144.6232  133.3120  149.9635 H   0  0  0  0  0  0  0  0  0  0  0  0
  143.6551  134.7418  149.6995 H   0  0  0  0  0  0  0  0  0  0  0  0
  145.9312  135.4296  149.3423 H   0  0  0  0  0  0  0  0  0  0  0  0
  146.5028  134.5957  150.7727 H   0  0  0  0  0  0  0  0  0  0  0  0
  1  2  1  0  0  0  0
  1 19  1  0  0  0  0
  1 20  1  0  0  0  0
  1 21  1  0  0  0  0
  2 18  1  0  0  0  0
  2  3  2  0  0  0  0
  3  4  1  0  0  0  0
  3 22  1  0  0  0  0
  4  5  1  0  0  0  0
  4 17  2  0  0  0  0
  5  6  1  0  0  0  0
  5 23  1  0  0  0  0
  6  7  2  0  0  0  0
  6  8  1  0  0  0  0
  8  9  1  0  0  0  0
  8 24  1  0  0  0  0
  9 10  1  0  0  0  0
  9 25  1  0  0  0  0
  9 26  1  0  0  0  0
 10 11  1  0  0  0  0
 10 27  1  0  0  0  0
 10 28  1  0  0  0  0
 11 16  1  0  0  0  0
 11 12  2  0  0  0  0
 12 13  1  0  0  0  0
 12 29  1  0  0  0  0
 13 14  1  0  0  0  0
 13 30  1  0  0  0  0
 13 31  1  0  0  0  0
 14 15  1  0  0  0  0
 14 32  1  0  0  0  0
 14 33  1  0  0  0  0
 15 16  1  0  0  0  0
 15 34  1  0  0  0  0
 15 35  1  0  0  0  0
 16 36  1  0  0  0  0
 16 37  1  0  0  0  0
 17 18  1  0  0  0  0
M  END
> <s_m_source_file>
AV-unprocessed.smi

> <i_m_source_file_index>
474

> <i_lp_mmshare_version>
43012

> <i_f3d_flags>
0

> <s_epik_input>
W0NIM11jMVtjSF1jKG5vMSlbTkhdQyg9TylbTkhdW0NIMl1bQ0gyXUMyPVtDSF1bQ0gyXVtDSDJdW0NIMl1bQ0gyXTI=

> <s_epik_cmdline>
J2VwaWtfcHl0aG9uJywgJy1waCcsICc3LjAnLCAnLXRuJywgJzgnLCAnLW1hJywgJzIwMCcsICctbWV0YWxfYmluZGluZycsICctaW1hZScsICc8aW5maWxlLm1hZT4nLCAnLW9tYWUnLCAnPG91dGZpbGUubWFlPic=

> <r_lp_tautomer_probability>
1

> <r_epik_Ionization_Penalty>
2.87157e-05

> <r_epik_Ionization_Penalty_Charging>
0

> <r_epik_Ionization_Penalty_Neutral>
2.87157e-05

> <r_epik_State_Penalty>
-0

> <r_epik_Charging_Adjusted_Penalty>
0

> <i_epik_Tot_Q>
0

> <i_epik_Tot_abs_Q>
0

> <r_epik_Metal_State_Penalty>
0.00793999

> <b_epik_Metal_Only>
0

> <s_lp_Force_Field>
OPLS_2005

> <r_lp_Energy>
6.67712

> <b_lp_Chiralities_Consistent>
1

> <s_lp_Variant>
AV-unprocessed.smi:474-1

> <Gold.Version>
5.8.1

> <Gold.Id.Protein>
6NUR|6NUR_protein|mol2

> <Gold.PLP.Fitness>
41.6117

> <Gold.PLP.PLP>
-31.2137

> <Gold.PLP.part.hbond>
-5.0000

> <Gold.PLP.part.metal>
0.0000

> <Gold.PLP.part.buried>
0.8029

> <Gold.PLP.part.nonpolar>
-27.1171

> <Gold.PLP.part.repulsive>
0.3211

> <Gold.PLP.ligand.clash>
0.0000

> <Gold.PLP.ligand.torsion>
0.5157

> <Gold.PLP.Chemscore.Hbond>
3.8048

> <Gold.PLP.Chemscore.CHOScore>
0.0000

> <Gold.PLP.Chemscore.Metal>
0.0000

> <Gold.Chemscore.Hbonds>
donor molecule, donor type, donor heavy atom, donor atom, acceptor molecule, acceptor atom, score
      L1  H     5    23       P1  7957  0.83
      L1  H     8    24       P1  7957  0.67
      P1  H  7989  7998       L1    17  0.78
      P1  H  7997  8008       L1    18  1.00

> <Gold.PLP.Chemscore.Internal.Correction>
0.0150

> <Gold.Rescore>
     Score         DG    S(hbond)    S(metal)    S(lipo)     H(rot)  DE(clash)    DE(int)     intcor
     17.34     -20.02       3.35        0.00      61.20       1.48       1.14       1.54       ----

> <Gold.Chemscore.Fitness>
17.3443

> <Gold.Chemscore.DG>
-20.0245

> <Gold.Chemscore.ZeroCoef>
-5.4800

> <Gold.Chemscore.Hbond>
3.3464

> <Gold.Chemscore.Metal>
0.0000

> <Gold.Chemscore.Lipo>
61.2042

> <Gold.Chemscore.Internal_Hbond>
0.0000

> <Gold.Chemscore.DEClash>
1.1434

> <Gold.Chemscore.DEInternal>
1.5367

> <Gold.Chemscore.Rot>
1.4818

> <Gold.Chemscore.Internal.Correction>
   9.000000E+99

> <Gold.Chemscore.Hbonds>
donor molecule, donor type, donor heavy atom, donor atom, acceptor molecule, acceptor atom, score
      L1  H     5    23       P1  7957  0.80
      L1  H     8    24       P1  7957  0.63
      P1  H  7989  7998       L1    17  0.11
      P1  H  7997  8008       L1    18  0.83

> <Gold.Chemscore.Hbond.Weighted>
-11.1769

> <Gold.Chemscore.Metal.Weighted>
-0.0000

> <Gold.Chemscore.Lipo.Weighted>
-7.1609

> <Gold.Chemscore.Internal_Hbond.Weighted>
0.0000

> <Gold.Chemscore.DEClash.Weighted>
1.1434

> <Gold.Chemscore.DEInternal.Weighted>
1.5367

> <Gold.Chemscore.Rot.Weighted>
3.7933

> <Gold.Chemscore.Internal.Correction.Weighted>
   9.000000E+99

> <Gold.Protein.RotatedTorsions>
[ 6907 6896 6895 6894 ] final  122.58 input  -60.11 | X-H torsion
[ 7974 7965 7964 7962 ] final   21.12 input  175.53 | X-H torsion
[ 8008 7997 7996 7995 ] final  -22.14 input   59.86 | X-H torsion
[ 10167 10162 10161 10158 ] final  109.25 input  -65.29 | X-H torsion
[ 10718 10713 10712 10709 ] final  -52.24 input   66.30 | X-H torsion
[ 10763 10752 10751 10750 ] final  113.86 input  -60.55 | X-H torsion
[ 11005 11000 10999 10996 ] final   85.67 input  -57.11 | X-H torsion

> <Gold.Protein.ActiveResidues>
 VAL166  LYS551  ARG553  GLY616  TRP617  ASP618  TYR619  PRO620  LYS621  CYS622 
 ASP623  PHE694  ASN695  SER759  ASP760  ASP761  ALA762  ILE779  LEU786  VAL792 
 PHE793  MET794  SER795  GLU796  ALA797  LYS798  CYS799  TRP800  GLU811  SER814 

> <Gold.Protein.RotatedAtoms>
  152.4231  133.7150  159.6500 H   0  0  0  0  0  0  0  0  0  0  0  0  # atno 6907 bound_to 6896
  150.8107  133.8415  159.3189 H   0  0  0  0  0  0  0  0  0  0  0  0  # atno 6908 bound_to 6896
  151.6126  135.1041  160.0136 H   0  0  0  0  0  0  0  0  0  0  0  0  # atno 6909 bound_to 6896
  146.2084  139.8072  142.8708 H   0  0  0  0  0  0  0  0  0  0  0  0  # atno 7974 bound_to 7965
  154.4662  140.2016  156.0112 H   0  0  0  0  0  0  0  0  0  0  0  0  # atno 8008 bound_to 7997
  156.0931  140.3255  155.7813 H   0  0  0  0  0  0  0  0  0  0  0  0  # atno 8009 bound_to 7997
  155.4923  140.0547  157.2942 H   0  0  0  0  0  0  0  0  0  0  0  0  # atno 8010 bound_to 7997
  139.6782  144.7120  151.1564 H   0  0  0  0  0  0  0  0  0  0  0  0  # atno 10167 bound_to 10162
  156.1638  130.4149  149.9751 H   0  0  0  0  0  0  0  0  0  0  0  0  # atno 10718 bound_to 10713
  153.4987  135.3643  155.2529 H   0  0  0  0  0  0  0  0  0  0  0  0  # atno 10763 bound_to 10752
  154.8749  135.3994  154.3504 H   0  0  0  0  0  0  0  0  0  0  0  0  # atno 10764 bound_to 10752
  153.4136  135.7078  153.6408 H   0  0  0  0  0  0  0  0  0  0  0  0  # atno 10765 bound_to 10752
  139.8965  134.8303  156.2614 H   0  0  0  0  0  0  0  0  0  0  0  0  # atno 11005 bound_to 11000
  145.3234  141.0249  143.3487 LP  0  0  0  0  0  0  0  0  0  0  0  0  # atno 17320 bound_to 7965
  144.8850  139.4851  143.6705 LP  0  0  0  0  0  0  0  0  0  0  0  0  # atno 17321 bound_to 7965
  140.7643  143.5740  150.8965 LP  0  0  0  0  0  0  0  0  0  0  0  0  # atno 17342 bound_to 10162
  139.9410  143.6382  152.3053 LP  0  0  0  0  0  0  0  0  0  0  0  0  # atno 17343 bound_to 10162
  156.7572  130.9137  151.3640 LP  0  0  0  0  0  0  0  0  0  0  0  0  # atno 17370 bound_to 10713
  157.6753  130.9088  150.0135 LP  0  0  0  0  0  0  0  0  0  0  0  0  # atno 17371 bound_to 10713
  141.0160  133.7068  156.1189 LP  0  0  0  0  0  0  0  0  0  0  0  0  # atno 17394 bound_to 11000
  140.7301  134.4264  157.5566 LP  0  0  0  0  0  0  0  0  0  0  0  0  # atno 17395 bound_to 11000

$$$$
