#       Name:                AV-unprocessed.smi:210
#       Creating user name   scv26
#       Creation time:       Thu Mar 26 19:53:55 2020


#       File generated by GOLD software.
#

@<TRIPOS>MOLECULE
AV-unprocessed.smi:210
    67    71     1
SMALL
NO_CHARGES


@<TRIPOS>ATOM
      1 ****        -6.1993  -1.4456  -1.3597 C.3            1 S1                 0.0000
      2 ****        -5.0979  -2.0119  -0.6718 O.3            1 S1                 0.0000
      3 ****        -4.2408  -1.0282  -0.1141 C.3            1 S1                 0.0000
      4 ****        -4.7431  -0.4141   1.1991 C.3            1 S1                 0.0000
      5 ****        -3.2949  -0.4706   1.7262 C.3            1 S1                 0.0000
      6 ****        -2.5669   0.7782   1.4553 N.3            1 S1                 0.0000
      7 ****        -3.0503   1.9720   2.1421 C.3            1 S1                 0.0000
      8 ****        -1.2234   0.6966   1.5800 C.ar           1 S1                 0.0000
      9 ****        -0.6736   0.1305   2.6872 N.ar           1 S1                 0.0000
     10 ****         0.6555   0.0493   2.8023 C.ar           1 S1                 0.0000
     11 ****         1.5949   0.4605   1.9472 N.ar           1 S1                 0.0000
     12 ****         1.0422   1.0317   0.8381 C.ar           1 S1                 0.0000
     13 ****        -0.3470   1.1986   0.5832 C.ar           1 S1                 0.0000
     14 ****        -0.5377   1.8346  -0.6362 N.2            1 S1                 0.0000
     15 ****         0.6742   2.0360  -1.0779 C.2            1 S1                 0.0000
     16 ****         1.6825   1.5570  -0.2707 N.pl3          1 S1                 0.0000
     17 ****         3.0935   1.6689  -0.4977 C.3            1 S1                 0.0000
     18 ****         3.6709   1.7066  -1.9169 C.3            1 S1                 0.0000
     19 ****         4.9290   0.9627  -1.4119 C.3            1 S1                 0.0000
     20 ****         5.5158  -0.1128  -2.3476 C.3            1 S1                 0.0000
     21 ****         4.5338  -1.0066  -2.8328 O.3            1 S1                 0.0000
     22 ****         6.0879   1.8914  -1.0014 C.3            1 S1                 0.0000
     23 ****         7.0291   1.2206  -0.1879 O.3            1 S1                 0.0000
     24 ****         4.0262   0.4788  -0.2537 C.3            1 S1                 0.0000
     25 ****        -3.0649  -1.6076   0.6928 C.3            1 S1                 0.0000
     26 ****        -3.1051  -3.0750   1.1577 C.3            1 S1                 0.0000
     27 ****        -2.1665  -3.4126  -0.0042 C.3            1 S1                 0.0000
     28 ****        -1.7241  -1.9473   0.0141 C.3            1 S1                 0.0000
     29 ****        -6.8231  -2.2401  -1.7686 H              1 S1                 0.0000
     30 ****        -5.8654  -0.8196  -2.1882 H              1 S1                 0.0000
     31 ****        -6.8169  -0.8432  -0.6926 H              1 S1                 0.0000
     32 ****        -3.9069  -0.2791  -0.8354 H              1 S1                 0.0000
     33 ****        -5.1893   0.5738   1.0898 H              1 S1                 0.0000
     34 ****        -5.4088  -1.0839   1.7461 H              1 S1                 0.0000
     35 ****        -3.2356  -0.8031   2.7634 H              1 S1                 0.0000
     36 ****        -2.3226   2.7849   2.1115 H              1 S1                 0.0000
     37 ****        -3.2699   1.7526   3.1875 H              1 S1                 0.0000
     38 ****        -3.9612   2.3411   1.6722 H              1 S1                 0.0000
     39 ****         1.0186  -0.4145   3.7075 H              1 S1                 0.0000
     40 ****         0.8646   2.5355  -2.0168 H              1 S1                 0.0000
     41 ****         3.4215   2.5378   0.0754 H              1 S1                 0.0000
     42 ****         3.0717   1.1286  -2.6221 H              1 S1                 0.0000
     43 ****         3.8554   2.7107  -2.3002 H              1 S1                 0.0000
     44 ****         6.0032   0.3464  -3.2082 H              1 S1                 0.0000
     45 ****         6.2736  -0.7071  -1.8361 H              1 S1                 0.0000
     46 ****         4.9562  -1.6444  -3.3875 H              1 S1                 0.0000
     47 ****         6.6023   2.2874  -1.8776 H              1 S1                 0.0000
     48 ****         5.7251   2.7560  -0.4453 H              1 S1                 0.0000
     49 ****         7.7048   1.8335   0.0587 H              1 S1                 0.0000
     50 ****         4.4979   0.4739   0.7295 H              1 S1                 0.0000
     51 ****         3.5356  -0.4759  -0.4507 H              1 S1                 0.0000
     52 ****        -2.6335  -3.2191   2.1310 H              1 S1                 0.0000
     53 ****        -4.0816  -3.5578   1.1140 H              1 S1                 0.0000
     54 ****        -1.3822  -4.1312   0.2347 H              1 S1                 0.0000
     55 ****        -2.7016  -3.6822  -0.9162 H              1 S1                 0.0000
     56 ****        -1.5788  -1.4993  -0.9693 H              1 S1                 0.0000
     57 ****        -0.8535  -1.8056   0.6546 H              1 S1                 0.0000
     58 ****        -4.5713  -2.5693  -1.3137 LP             1 S1                 0.0000
     59 ****        -5.4442  -2.5909   0.0662 LP             1 S1                 0.0000
     60 ****        -2.7844   0.8971   0.4865 LP             1 S1                 0.0000
     61 ****        -1.2622  -0.2242   3.4136 LP             1 S1                 0.0000
     62 ****         2.5783   0.3624   2.1001 LP             1 S1                 0.0000
     63 ****        -1.4022   2.0811  -1.0742 LP             1 S1                 0.0000
     64 ****         3.8495  -0.5022  -3.3594 LP             1 S1                 0.0000
     65 ****         4.0897  -1.4687  -2.0652 LP             1 S1                 0.0000
     66 ****         7.4331   0.4604  -0.6967 LP             1 S1                 0.0000
     67 ****         6.5766   0.8700   0.6320 LP             1 S1                 0.0000
@<TRIPOS>BOND
    1    1    2 1     
    2    1   29 1     
    3    1   30 1     
    4    1   31 1     
    5    2    3 1     
    6    3   25 1     
    7    3    4 1     
    8    3   32 1     
    9    4    5 1     
   10    4   33 1     
   11    4   34 1     
   12    5    6 1     
   13    5   25 1     
   14    5   35 1     
   15    6    7 1     
   16    6    8 1     
   17    7   36 1     
   18    7   37 1     
   19    7   38 1     
   20    8   13 ar    
   21    8    9 ar    
   22    9   10 ar    
   23   10   11 ar    
   24   10   39 1     
   25   11   12 ar    
   26   12   16 1     
   27   12   13 ar    
   28   13   14 1     
   29   14   15 2     
   30   15   16 1     
   31   15   40 1     
   32   16   17 1     
   33   17   24 1     
   34   17   18 1     
   35   17   41 1     
   36   18   19 1     
   37   18   42 1     
   38   18   43 1     
   39   19   20 1     
   40   19   22 1     
   41   19   24 1     
   42   20   21 1     
   43   20   44 1     
   44   20   45 1     
   45   21   46 1     
   46   22   23 1     
   47   22   47 1     
   48   22   48 1     
   49   23   49 1     
   50   24   50 1     
   51   24   51 1     
   52   25   28 1     
   53   25   26 1     
   54   26   27 1     
   55   26   52 1     
   56   26   53 1     
   57   27   28 1     
   58   27   54 1     
   59   27   55 1     
   60   28   56 1     
   61   28   57 1     
   62    2   58 1     
   63    2   59 1     
   64    6   60 1     
   65    9   61 1     
   66   11   62 1     
   67   14   63 1     
   68   21   64 1     
   69   21   65 1     
   70   23   66 1     
   71   23   67 1     
@<TRIPOS>SUBSTRUCTURE
      1 S1             1
@<TRIPOS>SET
LONE_PAIRS      STATIC     ATOMS    <user>   **** ""
10 58 59 60 61 62 63 64 65 66 67
DONOR_HYDROGENS      STATIC     ATOMS    <user>   **** ""
2 46 49
ATOM$BLUE        STATIC     ATOMS    COLORGROUP SYSTEM
10 58 59 60 61 62 63 64 65 66 67
ATOM$RED        STATIC     ATOMS    COLORGROUP SYSTEM
2 46 49
