AV-unprocessed.smi:1820|AV-procd|sdf|7384|dock8
  -GOLD-   22720 9 53D 1   1.00000     0.00000
 Structure written by MMmdl.
 34 35  0  0  0  0  0  0  0  0  1 V2000
  144.5401  136.6626  151.6401 O   0  0  0  0  0  0  0  0  0  0  0  0
  145.7518  136.4567  151.7023 C   0  0  0  0  0  0  0  0  0  0  0  0
  146.6365  137.3705  152.1252 N   0  0  0  0  0  0  0  0  0  0  0  0
  146.3024  138.7114  152.5982 C   0  0  0  0  0  0  0  0  0  0  0  0
  147.4350  139.3616  153.4344 C   0  0  0  0  0  0  0  0  0  0  0  0
  148.6665  138.7924  153.0343 O   0  0  0  0  0  0  0  0  0  0  0  0
  147.4824  140.8969  153.3743 C   0  0  0  0  0  0  0  0  0  0  0  0
  146.4354  141.3618  154.3915 C   0  0  0  0  0  0  0  0  0  0  0  0
  146.3263  140.2351  155.4310 C   0  0  0  0  0  0  0  0  0  0  0  0
  147.2346  139.1013  154.9346 C   0  0  0  0  0  0  0  0  0  0  0  0
  146.3690  135.3158  151.3483 N   0  0  0  0  0  0  0  0  0  0  0  0
  145.8022  134.1097  150.8529 C   0  0  0  0  0  0  0  0  0  0  0  0
  144.4056  134.0754  150.6588 C   0  0  0  0  0  0  0  0  0  0  0  0
  143.8176  132.8977  150.1562 C   0  0  0  0  0  0  0  0  0  0  0  0
  144.5243  131.7925  149.8398 N   0  0  0  0  0  0  0  0  0  0  0  0
  145.8623  131.8311  150.0129 C   0  0  0  0  0  0  0  0  0  0  0  0
  146.5495  132.9576  150.5078 C   0  0  0  0  0  0  0  0  0  0  0  0
  147.6130  137.1160  152.1392 H   0  0  0  0  0  0  0  0  0  0  0  0
  146.1165  139.3087  151.7052 H   0  0  0  0  0  0  0  0  0  0  0  0
  145.3613  138.7129  153.1512 H   0  0  0  0  0  0  0  0  0  0  0  0
  148.8688  139.0942  152.1621 H   0  0  0  0  0  0  0  0  0  0  0  0
  148.4628  141.2445  153.7045 H   0  0  0  0  0  0  0  0  0  0  0  0
  147.3202  141.3138  152.3803 H   0  0  0  0  0  0  0  0  0  0  0  0
  146.7089  142.3157  154.8439 H   0  0  0  0  0  0  0  0  0  0  0  0
  145.4729  141.4992  153.8972 H   0  0  0  0  0  0  0  0  0  0  0  0
  146.6254  140.5704  156.4246 H   0  0  0  0  0  0  0  0  0  0  0  0
  145.2930  139.8931  155.5007 H   0  0  0  0  0  0  0  0  0  0  0  0
  146.8259  138.1124  155.1461 H   0  0  0  0  0  0  0  0  0  0  0  0
  148.1908  139.1709  155.4564 H   0  0  0  0  0  0  0  0  0  0  0  0
  147.3772  135.3298  151.3913 H   0  0  0  0  0  0  0  0  0  0  0  0
  143.7907  134.9319  150.8935 H   0  0  0  0  0  0  0  0  0  0  0  0
  142.7500  132.8433  150.0032 H   0  0  0  0  0  0  0  0  0  0  0  0
  146.4046  130.9371  149.7427 H   0  0  0  0  0  0  0  0  0  0  0  0
  147.6237  132.9159  150.5993 H   0  0  0  0  0  0  0  0  0  0  0  0
  1  2  2  0  0  0  0
  2  3  1  0  0  0  0
  2 11  1  0  0  0  0
  3  4  1  0  0  0  0
  3 18  1  0  0  0  0
  4  5  1  0  0  0  0
  4 19  1  0  0  0  0
  4 20  1  0  0  0  0
  5 10  1  0  0  0  0
  5  6  1  0  0  0  0
  5  7  1  0  0  0  0
  6 21  1  0  0  0  0
  7  8  1  0  0  0  0
  7 22  1  0  0  0  0
  7 23  1  0  0  0  0
  8  9  1  0  0  0  0
  8 24  1  0  0  0  0
  8 25  1  0  0  0  0
  9 10  1  0  0  0  0
  9 26  1  0  0  0  0
  9 27  1  0  0  0  0
 10 28  1  0  0  0  0
 10 29  1  0  0  0  0
 11 12  1  0  0  0  0
 11 30  1  0  0  0  0
 12 17  1  0  0  0  0
 12 13  2  0  0  0  0
 13 14  1  0  0  0  0
 13 31  1  0  0  0  0
 14 15  2  0  0  0  0
 14 32  1  0  0  0  0
 15 16  1  0  0  0  0
 16 17  2  0  0  0  0
 16 33  1  0  0  0  0
 17 34  1  0  0  0  0
M  END
> <s_m_source_file>
AV-unprocessed.smi

> <i_m_source_file_index>
1820

> <i_lp_mmshare_version>
43012

> <i_f3d_flags>
0

> <s_epik_input>
W2NIXTFbY0hdbltjSF1bY0hdYzFbTkhdQyg9TylbTkhdW0NIMl1DMihbT0hdKVtDSDJdW0NIMl1bQ0gyXVtDSDJdMg==

> <s_epik_cmdline>
J2VwaWtfcHl0aG9uJywgJy1waCcsICc3LjAnLCAnLXRuJywgJzgnLCAnLW1hJywgJzIwMCcsICctbWV0YWxfYmluZGluZycsICctaW1hZScsICc8aW5maWxlLm1hZT4nLCAnLW9tYWUnLCAnPG91dGZpbGUubWFlPic=

> <r_epik_Ionization_Penalty>
0.127626

> <r_epik_Ionization_Penalty_Charging>
0

> <r_epik_Ionization_Penalty_Neutral>
0.127626

> <r_epik_State_Penalty>
0.11702

> <r_epik_Charging_Adjusted_Penalty>
0.11702

> <i_epik_Tot_Q>
0

> <i_epik_Tot_abs_Q>
0

> <r_epik_Metal_State_Penalty>
0.0961027

> <b_epik_Metal_Only>
0

> <s_lp_Force_Field>
OPLS_2005

> <r_lp_Energy>
30.5055

> <b_lp_Chiralities_Consistent>
1

> <s_lp_Variant>
AV-unprocessed.smi:1820-1

> <Gold.Version>
5.8.1

> <Gold.Id.Protein>
6NUR|6NUR_protein|mol2

> <Gold.PLP.Fitness>
41.9994

> <Gold.PLP.PLP>
-29.2986

> <Gold.PLP.part.hbond>
-4.4152

> <Gold.PLP.part.metal>
0.0000

> <Gold.PLP.part.buried>
-3.5290

> <Gold.PLP.part.nonpolar>
-23.1858

> <Gold.PLP.part.repulsive>
2.0170

> <Gold.PLP.ligand.clash>
0.0000

> <Gold.PLP.ligand.torsion>
0.7500

> <Gold.PLP.Chemscore.Hbond>
3.0416

> <Gold.PLP.Chemscore.CHOScore>
1.6889

> <Gold.PLP.Chemscore.Metal>
0.0000

> <Gold.Chemscore.Hbonds>
donor molecule, donor type, donor heavy atom, donor atom, acceptor molecule, acceptor atom, score
      L1  H     3    18       P1  7948  1.00
      L1  H     6    21       P1  7957  1.00
      L1  H    11    30       P1  7948  1.00
      P1  H 10785 10796       L1    15  0.08
      L1  C    14    32       P1 10186  1.00
      L1  C    16    33       P1 10747  0.63

> <Gold.PLP.Chemscore.Internal.Correction>
0.0096

> <Gold.Rescore>
     Score         DG    S(hbond)    S(metal)    S(lipo)     H(rot)  DE(clash)    DE(int)     intcor
     16.80     -19.00       3.06        0.00      66.64       1.76       0.08       2.12       ----

> <Gold.Chemscore.Fitness>
16.7955

> <Gold.Chemscore.DG>
-18.9958

> <Gold.Chemscore.ZeroCoef>
-5.4800

> <Gold.Chemscore.Hbond>
3.0586

> <Gold.Chemscore.Metal>
0.0000

> <Gold.Chemscore.Lipo>
66.6354

> <Gold.Chemscore.Internal_Hbond>
0.0000

> <Gold.Chemscore.DEClash>
0.0824

> <Gold.Chemscore.DEInternal>
2.1178

> <Gold.Chemscore.Rot>
1.7564

> <Gold.Chemscore.Internal.Correction>
   9.000000E+99

> <Gold.Chemscore.Hbonds>
donor molecule, donor type, donor heavy atom, donor atom, acceptor molecule, acceptor atom, score
      L1  H     3    18       P1  7948  0.98
      L1  H     6    21       P1  7957  0.91
      L1  H    11    30       P1  7948  0.78
      P1  H 10785 10796       L1    15  0.07

> <Gold.Chemscore.Hbond.Weighted>
-10.2157

> <Gold.Chemscore.Metal.Weighted>
-0.0000

> <Gold.Chemscore.Lipo.Weighted>
-7.7963

> <Gold.Chemscore.Internal_Hbond.Weighted>
0.0000

> <Gold.Chemscore.DEClash.Weighted>
0.0824

> <Gold.Chemscore.DEInternal.Weighted>
2.1178

> <Gold.Chemscore.Rot.Weighted>
4.4963

> <Gold.Chemscore.Internal.Correction.Weighted>
   9.000000E+99

> <Gold.Protein.RotatedTorsions>
[ 6907 6896 6895 6894 ] final  158.05 input  -60.11 | X-H torsion
[ 7974 7965 7964 7962 ] final  146.93 input  175.53 | X-H torsion
[ 8008 7997 7996 7995 ] final -137.18 input   59.86 | X-H torsion
[ 10167 10162 10161 10158 ] final  140.15 input  -65.29 | X-H torsion
[ 10718 10713 10712 10709 ] final  139.92 input   66.30 | X-H torsion
[ 10763 10752 10751 10750 ] final  -32.50 input  -60.55 | X-H torsion
[ 11005 11000 10999 10996 ] final  -21.17 input  -57.11 | X-H torsion

> <Gold.Protein.ActiveResidues>
 VAL166  LYS551  ARG553  GLY616  TRP617  ASP618  TYR619  PRO620  LYS621  CYS622 
 ASP623  PHE694  ASN695  SER759  ASP760  ASP761  ALA762  ILE779  LEU786  VAL792 
 PHE793  MET794  SER795  GLU796  ALA797  LYS798  CYS799  TRP800  GLU811  SER814 

> <Gold.Protein.RotatedAtoms>
  152.0060  133.3843  159.4200 H   0  0  0  0  0  0  0  0  0  0  0  0  # atno 6907 bound_to 6896
  150.6904  134.3782  159.5031 H   0  0  0  0  0  0  0  0  0  0  0  0  # atno 6908 bound_to 6896
  152.1536  134.8968  160.0597 H   0  0  0  0  0  0  0  0  0  0  0  0  # atno 6909 bound_to 6896
  144.8632  139.5966  143.5921 H   0  0  0  0  0  0  0  0  0  0  0  0  # atno 7974 bound_to 7965
  155.4075  140.0510  157.3033 H   0  0  0  0  0  0  0  0  0  0  0  0  # atno 8008 bound_to 7997
  154.4961  140.2139  155.9403 H   0  0  0  0  0  0  0  0  0  0  0  0  # atno 8009 bound_to 7997
  156.1408  140.3154  155.8497 H   0  0  0  0  0  0  0  0  0  0  0  0  # atno 8010 bound_to 7997
  139.5057  144.6252  151.5955 H   0  0  0  0  0  0  0  0  0  0  0  0  # atno 10167 bound_to 10162
  157.4090  131.1026  151.0474 H   0  0  0  0  0  0  0  0  0  0  0  0  # atno 10718 bound_to 10713
  153.8148  135.6879  153.4835 H   0  0  0  0  0  0  0  0  0  0  0  0  # atno 10763 bound_to 10752
  153.1606  135.4581  154.9764 H   0  0  0  0  0  0  0  0  0  0  0  0  # atno 10764 bound_to 10752
  154.7952  135.3316  154.7625 H   0  0  0  0  0  0  0  0  0  0  0  0  # atno 10765 bound_to 10752
  140.8535  133.7839  155.9993 H   0  0  0  0  0  0  0  0  0  0  0  0  # atno 11005 bound_to 11000
  146.2876  139.7048  142.9184 LP  0  0  0  0  0  0  0  0  0  0  0  0  # atno 17320 bound_to 7965
  145.4272  141.0412  143.2931 LP  0  0  0  0  0  0  0  0  0  0  0  0  # atno 17321 bound_to 7965
  140.5966  143.9685  150.6358 LP  0  0  0  0  0  0  0  0  0  0  0  0  # atno 17342 bound_to 10162
  140.2883  143.3342  152.1087 LP  0  0  0  0  0  0  0  0  0  0  0  0  # atno 17343 bound_to 10162
  157.1445  130.6157  149.5564 LP  0  0  0  0  0  0  0  0  0  0  0  0  # atno 17370 bound_to 10713
  155.9845  130.4870  150.6986 LP  0  0  0  0  0  0  0  0  0  0  0  0  # atno 17371 bound_to 10713
  140.8763  134.2665  157.5166 LP  0  0  0  0  0  0  0  0  0  0  0  0  # atno 17394 bound_to 11000
  139.8704  134.9593  156.4326 LP  0  0  0  0  0  0  0  0  0  0  0  0  # atno 17395 bound_to 11000

$$$$
