AV-unprocessed.smi:3156|AV-procd|sdf|12035|dock4
  -GOLD-   2272017453D 1   1.00000     0.00000
 Structure written by MMmdl.
 41 42  0  0  0  0  0  0  0  0  2 V2000
  150.0072  139.6789  154.8780 C   0  0  0  0  0  0  0  0  0  0  0  0
  149.3071  141.0354  154.6787 C   0  0  2  0  0  0  0  0  0  0  0  0
  149.8983  142.0191  155.6137 N   0  3  0  0  0  0  0  0  0  0  0  0
  150.0116  141.5576  157.0126 C   0  0  0  0  0  0  0  0  0  0  0  0
  151.1861  142.2413  157.7407 C   0  0  1  0  0  0  0  0  0  0  0  0
  151.1960  143.7696  157.5358 C   0  0  0  0  0  0  0  0  0  0  0  0
  152.3257  144.4164  158.3452 C   0  0  0  0  0  0  0  0  0  0  0  0
  152.2218  143.9837  159.8112 C   0  0  0  0  0  0  0  0  0  0  0  0
  152.1556  142.4518  159.9117 C   0  0  0  0  0  0  0  0  0  0  0  0
  151.0672  141.9606  159.1343 O   0  0  0  0  0  0  0  0  0  0  0  0
  147.7687  140.9664  154.8738 C   0  0  1  0  0  0  0  0  0  0  0  0
  147.0579  142.2686  154.4572 C   0  0  0  0  0  0  0  0  0  0  0  0
  147.1756  139.8302  154.1794 N   0  0  0  0  0  0  0  0  0  0  0  0
  147.2243  139.5320  152.8331 C   0  0  0  0  0  0  0  0  0  0  0  0
  146.5307  138.3710  152.6463 C   0  0  0  0  0  0  0  0  0  0  0  0
  146.0898  138.0259  153.9539 C   0  0  0  0  0  0  0  0  0  0  0  0
  146.4772  138.8998  154.8690 N   0  0  0  0  0  0  0  0  0  0  0  0
  149.6783  138.9399  154.1469 H   0  0  0  0  0  0  0  0  0  0  0  0
  149.8124  139.2739  155.8716 H   0  0  0  0  0  0  0  0  0  0  0  0
  151.0875  139.7779  154.7657 H   0  0  0  0  0  0  0  0  0  0  0  0
  149.5084  141.3509  153.6531 H   0  0  0  0  0  0  0  0  0  0  0  0
  150.8213  142.2578  155.2801 H   0  0  0  0  0  0  0  0  0  0  0  0
  149.0689  141.7528  157.5257 H   0  0  0  0  0  0  0  0  0  0  0  0
  150.1457  140.4748  157.0152 H   0  0  0  0  0  0  0  0  0  0  0  0
  152.1320  141.8252  157.3876 H   0  0  0  0  0  0  0  0  0  0  0  0
  151.3128  144.0087  156.4783 H   0  0  0  0  0  0  0  0  0  0  0  0
  150.2394  144.1907  157.8486 H   0  0  0  0  0  0  0  0  0  0  0  0
  153.2912  144.1119  157.9392 H   0  0  0  0  0  0  0  0  0  0  0  0
  152.2795  145.5028  158.2643 H   0  0  0  0  0  0  0  0  0  0  0  0
  153.0713  144.3642  160.3789 H   0  0  0  0  0  0  0  0  0  0  0  0
  151.3262  144.4166  160.2588 H   0  0  0  0  0  0  0  0  0  0  0  0
  153.0901  141.9986  159.5771 H   0  0  0  0  0  0  0  0  0  0  0  0
  152.0112  142.1509  160.9495 H   0  0  0  0  0  0  0  0  0  0  0  0
  147.5740  140.8141  155.9366 H   0  0  0  0  0  0  0  0  0  0  0  0
  147.3843  143.1145  155.0622 H   0  0  0  0  0  0  0  0  0  0  0  0
  145.9780  142.1816  154.5821 H   0  0  0  0  0  0  0  0  0  0  0  0
  147.2515  142.5146  153.4126 H   0  0  0  0  0  0  0  0  0  0  0  0
  147.7423  140.1641  152.1267 H   0  0  0  0  0  0  0  0  0  0  0  0
  146.3650  137.8467  151.7169 H   0  0  0  0  0  0  0  0  0  0  0  0
  145.5048  137.1723  154.2634 H   0  0  0  0  0  0  0  0  0  0  0  0
  149.3278  142.8525  155.5997 H   0  0  0  0  0  0  0  0  0  0  0  0
  1  2  1  0  0  0  0
  1 18  1  0  0  0  0
  1 19  1  0  0  0  0
  1 20  1  0  0  0  0
  2  3  1  0  0  0  0
  2 11  1  0  0  0  0
  2 21  1  0  0  0  0
  3  4  1  0  0  0  0
  3 22  1  0  0  0  0
  3 41  1  0  0  0  0
  4  5  1  0  0  0  0
  4 23  1  0  0  0  0
  4 24  1  0  0  0  0
  5 10  1  0  0  0  0
  5  6  1  0  0  0  0
  5 25  1  0  0  0  0
  6  7  1  0  0  0  0
  6 26  1  0  0  0  0
  6 27  1  0  0  0  0
  7  8  1  0  0  0  0
  7 28  1  0  0  0  0
  7 29  1  0  0  0  0
  8  9  1  0  0  0  0
  8 30  1  0  0  0  0
  8 31  1  0  0  0  0
  9 10  1  0  0  0  0
  9 32  1  0  0  0  0
  9 33  1  0  0  0  0
 11 12  1  0  0  0  0
 11 13  1  0  0  0  0
 11 34  1  0  0  0  0
 12 35  1  0  0  0  0
 12 36  1  0  0  0  0
 12 37  1  0  0  0  0
 13 17  1  0  0  0  0
 13 14  1  0  0  0  0
 14 15  2  0  0  0  0
 14 38  1  0  0  0  0
 15 16  1  0  0  0  0
 15 39  1  0  0  0  0
 16 17  2  0  0  0  0
 16 40  1  0  0  0  0
M  CHG  1   3   1
M  END
> <s_m_source_file>
AV-unprocessed.smi

> <i_m_source_file_index>
3156

> <i_lp_mmshare_version>
43012

> <i_f3d_flags>
0

> <s_epik_input>
bjFbY0hdW2NIXVtjSF1uMVtDQEBIXShbQ0gzXSlbQ0BIXShbQ0gzXSlbTkhdW0NIMl1bQ0BASF0yW0NIMl1bQ0gyXVtDSDJdW0NIMl1PMg==

> <s_epik_cmdline>
J2VwaWtfcHl0aG9uJywgJy1waCcsICc3LjAnLCAnLXRuJywgJzgnLCAnLW1hJywgJzIwMCcsICctbWV0YWxfYmluZGluZycsICctaW1hZScsICc8aW5maWxlLm1hZT4nLCAnLW9tYWUnLCAnPG91dGZpbGUubWFlPic=

> <r_lp_tautomer_probability>
1

> <r_epik_Ionization_Penalty>
0.00658015

> <r_epik_Ionization_Penalty_Charging>
0.00656881

> <r_epik_Ionization_Penalty_Neutral>
1.13431e-05

> <r_epik_State_Penalty>
0.0048654

> <r_epik_Charging_Adjusted_Penalty>
0.0114342

> <i_epik_Tot_Q>
1

> <i_epik_Tot_abs_Q>
1

> <r_epik_Metal_State_Penalty>
-0

> <b_epik_Metal_Only>
0

> <s_lp_Force_Field>
OPLS_2005

> <r_lp_Energy>
21.7915

> <b_lp_Chiralities_Consistent>
1

> <s_lp_Variant>
AV-unprocessed.smi:3156-7

> <Gold.Version>
5.8.1

> <Gold.Id.Protein>
6NUR|6NUR_protein|mol2

> <Gold.PLP.Fitness>
45.3462

> <Gold.PLP.PLP>
-37.2886

> <Gold.PLP.part.hbond>
-1.0000

> <Gold.PLP.part.metal>
0.0000

> <Gold.PLP.part.buried>
0.6013

> <Gold.PLP.part.nonpolar>
-37.3531

> <Gold.PLP.part.repulsive>
0.2558

> <Gold.PLP.ligand.clash>
0.0000

> <Gold.PLP.ligand.torsion>
0.5125

> <Gold.PLP.Chemscore.Hbond>
2.0000

> <Gold.PLP.Chemscore.CHOScore>
0.9995

> <Gold.PLP.Chemscore.Metal>
0.0000

> <Gold.Chemscore.Hbonds>
donor molecule, donor type, donor heavy atom, donor atom, acceptor molecule, acceptor atom, score
      L1  H     3    41       P1  8028  2.00
      L1  C    14    38       P1  7957  1.00

> <Gold.PLP.Chemscore.Internal.Correction>
0.0842

> <Gold.Rescore>
     Score         DG    S(hbond)    S(metal)    S(lipo)     H(rot)  DE(clash)    DE(int)     intcor
     16.74     -17.24       1.00        0.00     106.88       1.59       0.04       0.46       ----

> <Gold.Chemscore.Fitness>
16.7407

> <Gold.Chemscore.DG>
-17.2413

> <Gold.Chemscore.ZeroCoef>
-5.4800

> <Gold.Chemscore.Hbond>
0.9989

> <Gold.Chemscore.Metal>
0.0000

> <Gold.Chemscore.Lipo>
106.8815

> <Gold.Chemscore.Internal_Hbond>
0.0000

> <Gold.Chemscore.DEClash>
0.0372

> <Gold.Chemscore.DEInternal>
0.4634

> <Gold.Chemscore.Rot>
1.5938

> <Gold.Chemscore.Internal.Correction>
   9.000000E+99

> <Gold.Chemscore.Hbonds>
donor molecule, donor type, donor heavy atom, donor atom, acceptor molecule, acceptor atom, score
      L1  H     3    41       P1  8028  0.99

> <Gold.Chemscore.Hbond.Weighted>
-3.3364

> <Gold.Chemscore.Metal.Weighted>
-0.0000

> <Gold.Chemscore.Lipo.Weighted>
-12.5051

> <Gold.Chemscore.Internal_Hbond.Weighted>
0.0000

> <Gold.Chemscore.DEClash.Weighted>
0.0372

> <Gold.Chemscore.DEInternal.Weighted>
0.4634

> <Gold.Chemscore.Rot.Weighted>
4.0802

> <Gold.Chemscore.Internal.Correction.Weighted>
   9.000000E+99

> <Gold.Protein.RotatedTorsions>
[ 6907 6896 6895 6894 ] final   37.68 input  -60.11 | X-H torsion
[ 7974 7965 7964 7962 ] final  109.97 input  175.53 | X-H torsion
[ 8008 7997 7996 7995 ] final  108.95 input   59.86 | X-H torsion
[ 10167 10162 10161 10158 ] final  -33.05 input  -65.29 | X-H torsion
[ 10718 10713 10712 10709 ] final  -94.12 input   66.30 | X-H torsion
[ 10763 10752 10751 10750 ] final  -77.52 input  -60.55 | X-H torsion
[ 11005 11000 10999 10996 ] final  129.75 input  -57.11 | X-H torsion

> <Gold.Protein.ActiveResidues>
 VAL166  LYS551  ARG553  GLY616  TRP617  ASP618  TYR619  PRO620  LYS621  CYS622 
 ASP623  PHE694  ASN695  SER759  ASP760  ASP761  ALA762  ILE779  LEU786  VAL792 
 PHE793  MET794  SER795  GLU796  ALA797  LYS798  CYS799  TRP800  GLU811  SER814 

> <Gold.Protein.RotatedAtoms>
  152.1464  134.9022  160.0550 H   0  0  0  0  0  0  0  0  0  0  0  0  # atno 6907 bound_to 6896
  152.0071  133.3842  159.4213 H   0  0  0  0  0  0  0  0  0  0  0  0  # atno 6908 bound_to 6896
  150.6870  134.3693  159.5029 H   0  0  0  0  0  0  0  0  0  0  0  0  # atno 6909 bound_to 6896
  145.2609  139.2702  143.4017 H   0  0  0  0  0  0  0  0  0  0  0  0  # atno 7974 bound_to 7965
  156.1942  140.3067  155.9394 H   0  0  0  0  0  0  0  0  0  0  0  0  # atno 8008 bound_to 7997
  155.3104  140.0451  157.3051 H   0  0  0  0  0  0  0  0  0  0  0  0  # atno 8009 bound_to 7997
  154.5489  140.2285  155.8526 H   0  0  0  0  0  0  0  0  0  0  0  0  # atno 8010 bound_to 7997
  140.7211  143.3649  151.1891 H   0  0  0  0  0  0  0  0  0  0  0  0  # atno 10167 bound_to 10162
  156.0022  130.5055  150.5879 H   0  0  0  0  0  0  0  0  0  0  0  0  # atno 10718 bound_to 10713
  154.5140  135.5761  153.6627 H   0  0  0  0  0  0  0  0  0  0  0  0  # atno 10763 bound_to 10752
  152.9903  135.6165  154.2842 H   0  0  0  0  0  0  0  0  0  0  0  0  # atno 10764 bound_to 10752
  154.2759  135.2852  155.2698 H   0  0  0  0  0  0  0  0  0  0  0  0  # atno 10765 bound_to 10752
  139.9633  134.9597  156.9194 H   0  0  0  0  0  0  0  0  0  0  0  0  # atno 11005 bound_to 11000
  146.3275  140.3026  142.8621 LP  0  0  0  0  0  0  0  0  0  0  0  0  # atno 17320 bound_to 7965
  144.9419  140.8087  143.5625 LP  0  0  0  0  0  0  0  0  0  0  0  0  # atno 17321 bound_to 7965
  139.7208  143.9226  152.2984 LP  0  0  0  0  0  0  0  0  0  0  0  0  # atno 17342 bound_to 10162
  139.8982  144.6927  150.8694 LP  0  0  0  0  0  0  0  0  0  0  0  0  # atno 17343 bound_to 10162
  157.3748  131.0771  151.1527 LP  0  0  0  0  0  0  0  0  0  0  0  0  # atno 17370 bound_to 10713
  157.2268  130.6507  149.5833 LP  0  0  0  0  0  0  0  0  0  0  0  0  # atno 17371 bound_to 10713
  140.5452  134.0681  155.7353 LP  0  0  0  0  0  0  0  0  0  0  0  0  # atno 17394 bound_to 11000
  141.1312  133.9299  157.2532 LP  0  0  0  0  0  0  0  0  0  0  0  0  # atno 17395 bound_to 11000

$$$$
