AV-unprocessed.smi:2172|AV-procd|sdf|8836|dock1
  -GOLD-   2272012 33D 1   1.00000     0.00000
 Structure written by MMmdl.
 37 39  0  0  0  0  0  0  0  0  2 V2000
  152.2240  137.1282  153.7058 O   0  0  0  0  0  0  0  0  0  0  0  0
  152.0680  138.1999  154.6095 C   0  0  0  0  0  0  0  0  0  0  0  0
  150.7917  138.9436  154.3900 C   0  0  0  0  0  0  0  0  0  0  0  0
  149.7901  138.5668  153.5466 N   0  3  0  0  0  0  0  0  0  0  0  0
  148.7653  139.5127  153.5762 C   0  0  0  0  0  0  0  0  0  0  0  0
  147.5573  139.5659  152.8877 C   0  0  0  0  0  0  0  0  0  0  0  0
  146.7338  140.6825  153.1396 C   0  0  0  0  0  0  0  0  0  0  0  0
  147.1209  141.6894  154.0471 C   0  0  0  0  0  0  0  0  0  0  0  0
  148.3459  141.6218  154.7425 C   0  0  0  0  0  0  0  0  0  0  0  0
  149.1575  140.5158  154.4865 C   0  0  0  0  0  0  0  0  0  0  0  0
  150.4155  140.1236  154.9637 N   0  0  0  0  0  0  0  0  0  0  0  0
  151.1278  140.9760  155.9311 C   0  0  0  0  0  0  0  0  0  0  0  0
  151.3558  140.2702  157.2831 C   0  0  2  0  0  0  0  0  0  0  0  0
  150.2370  139.4491  157.5463 O   0  0  0  0  0  0  0  0  0  0  0  0
  151.6308  141.2545  158.4114 C   0  0  0  0  0  0  0  0  0  0  0  0
  150.8905  142.4536  158.4924 C   0  0  0  0  0  0  0  0  0  0  0  0
  151.1116  143.3550  159.5515 C   0  0  0  0  0  0  0  0  0  0  0  0
  152.0765  143.0636  160.5351 C   0  0  0  0  0  0  0  0  0  0  0  0
  152.3441  144.1652  161.8355 Cl  0  0  0  0  0  0  0  0  0  0  0  0
  152.8206  141.8704  160.4580 C   0  0  0  0  0  0  0  0  0  0  0  0
  152.5986  140.9683  159.3997 C   0  0  0  0  0  0  0  0  0  0  0  0
  151.4684  137.1002  153.1384 H   0  0  0  0  0  0  0  0  0  0  0  0
  152.0883  137.8105  155.6275 H   0  0  0  0  0  0  0  0  0  0  0  0
  152.9152  138.8784  154.5111 H   0  0  0  0  0  0  0  0  0  0  0  0
  147.2597  138.7966  152.1904 H   0  0  0  0  0  0  0  0  0  0  0  0
  145.7875  140.7694  152.6256 H   0  0  0  0  0  0  0  0  0  0  0  0
  146.4656  142.5320  154.2136 H   0  0  0  0  0  0  0  0  0  0  0  0
  148.6295  142.4039  155.4305 H   0  0  0  0  0  0  0  0  0  0  0  0
  152.0667  141.3220  155.4990 H   0  0  0  0  0  0  0  0  0  0  0  0
  150.5205  141.8700  156.0749 H   0  0  0  0  0  0  0  0  0  0  0  0
  152.2109  139.5995  157.1938 H   0  0  0  0  0  0  0  0  0  0  0  0
  150.3401  139.0681  158.4051 H   0  0  0  0  0  0  0  0  0  0  0  0
  150.1416  142.6804  157.7474 H   0  0  0  0  0  0  0  0  0  0  0  0
  150.5381  144.2685  159.6089 H   0  0  0  0  0  0  0  0  0  0  0  0
  153.5600  141.6437  161.2120 H   0  0  0  0  0  0  0  0  0  0  0  0
  153.1669  140.0507  159.3558 H   0  0  0  0  0  0  0  0  0  0  0  0
  149.8135  137.7257  152.9848 H   0  0  0  0  0  0  0  0  0  0  0  0
  1  2  1  0  0  0  0
  1 22  1  0  0  0  0
  2  3  1  0  0  0  0
  2 23  1  0  0  0  0
  2 24  1  0  0  0  0
  3 11  1  0  0  0  0
  3  4  2  0  0  0  0
  4  5  1  0  0  0  0
  4 37  1  0  0  0  0
  5 10  2  0  0  0  0
  5  6  1  0  0  0  0
  6  7  2  0  0  0  0
  6 25  1  0  0  0  0
  7  8  1  0  0  0  0
  7 26  1  0  0  0  0
  8  9  2  0  0  0  0
  8 27  1  0  0  0  0
  9 10  1  0  0  0  0
  9 28  1  0  0  0  0
 10 11  1  0  0  0  0
 11 12  1  0  0  0  0
 12 13  1  0  0  0  0
 12 29  1  0  0  0  0
 12 30  1  0  0  0  0
 13 14  1  0  0  0  0
 13 15  1  0  0  0  0
 13 31  1  0  0  0  0
 14 32  1  0  0  0  0
 15 21  1  0  0  0  0
 15 16  2  0  0  0  0
 16 17  1  0  0  0  0
 16 33  1  0  0  0  0
 17 18  2  0  0  0  0
 17 34  1  0  0  0  0
 18 19  1  0  0  0  0
 18 20  1  0  0  0  0
 20 21  2  0  0  0  0
 20 35  1  0  0  0  0
 21 36  1  0  0  0  0
M  CHG  1   4   1
M  END
> <s_m_source_file>
AV-unprocessed.smi

> <i_m_source_file_index>
2172

> <i_lp_mmshare_version>
43012

> <i_f3d_flags>
0

> <s_epik_input>
W2NIXTFbY0hdW2NIXVtjSF1jKGMxMiluKGMobjIpW0NIMl1bT0hdKVtDSDJdW0NASF0oW09IXSljM1tjSF1bY0hdYyhDbClbY0hdW2NIXTM=

> <s_epik_cmdline>
J2VwaWtfcHl0aG9uJywgJy1waCcsICc3LjAnLCAnLXRuJywgJzgnLCAnLW1hJywgJzIwMCcsICctbWV0YWxfYmluZGluZycsICctaW1hZScsICc8aW5maWxlLm1hZT4nLCAnLW9tYWUnLCAnPG91dGZpbGUubWFlPic=

> <r_epik_Ionization_Penalty>
1.35643

> <r_epik_Ionization_Penalty_Charging>
1.35557

> <r_epik_Ionization_Penalty_Neutral>
0.000858184

> <r_epik_State_Penalty>
1.43401

> <r_epik_Charging_Adjusted_Penalty>
2.78958

> <i_epik_Tot_Q>
1

> <i_epik_Tot_abs_Q>
1

> <r_epik_Metal_State_Penalty>
5.47166

> <b_epik_Metal_Only>
0

> <s_lp_Force_Field>
OPLS_2005

> <r_lp_Energy>
15.2583

> <b_lp_Chiralities_Consistent>
1

> <s_lp_Variant>
AV-unprocessed.smi:2172-3

> <Gold.Version>
5.8.1

> <Gold.Id.Protein>
6NUR|6NUR_protein|mol2

> <Gold.PLP.Fitness>
56.6449

> <Gold.PLP.PLP>
-47.6799

> <Gold.PLP.part.hbond>
-3.9350

> <Gold.PLP.part.metal>
0.0000

> <Gold.PLP.part.buried>
3.2425

> <Gold.PLP.part.nonpolar>
-45.9519

> <Gold.PLP.part.repulsive>
0.0819

> <Gold.PLP.ligand.clash>
0.0000

> <Gold.PLP.ligand.torsion>
0.9012

> <Gold.PLP.Chemscore.Hbond>
3.5760

> <Gold.PLP.Chemscore.CHOScore>
0.0000

> <Gold.PLP.Chemscore.Metal>
0.0000

> <Gold.Chemscore.Hbonds>
donor molecule, donor type, donor heavy atom, donor atom, acceptor molecule, acceptor atom, score
      L1  H     1    22       P1  7949  0.58
      L1  H     4    37       P1  7948  2.00
      P1  H 10752 10765       L1     1  1.00

> <Gold.PLP.Chemscore.Internal.Correction>
0.0393

> <Gold.Rescore>
     Score         DG    S(hbond)    S(metal)    S(lipo)     H(rot)  DE(clash)    DE(int)     intcor
     17.99     -20.77       2.10        0.00     129.67       2.70       2.26       0.52       ----

> <Gold.Chemscore.Fitness>
17.9903

> <Gold.Chemscore.DG>
-20.7692

> <Gold.Chemscore.ZeroCoef>
-5.4800

> <Gold.Chemscore.Hbond>
2.1018

> <Gold.Chemscore.Metal>
0.0000

> <Gold.Chemscore.Lipo>
129.6718

> <Gold.Chemscore.Internal_Hbond>
0.0000

> <Gold.Chemscore.DEClash>
2.2570

> <Gold.Chemscore.DEInternal>
0.5219

> <Gold.Chemscore.Rot>
2.6963

> <Gold.Chemscore.Internal.Correction>
   9.000000E+99

> <Gold.Chemscore.Hbonds>
donor molecule, donor type, donor heavy atom, donor atom, acceptor molecule, acceptor atom, score
      L1  H     1    22       P1  7949  0.49
      L1  H     4    37       P1  7948  0.47
      P1  H 10752 10765       L1     1  0.90

> <Gold.Chemscore.Hbond.Weighted>
-7.0200

> <Gold.Chemscore.Metal.Weighted>
-0.0000

> <Gold.Chemscore.Lipo.Weighted>
-15.1716

> <Gold.Chemscore.Internal_Hbond.Weighted>
0.0000

> <Gold.Chemscore.DEClash.Weighted>
2.2570

> <Gold.Chemscore.DEInternal.Weighted>
0.5219

> <Gold.Chemscore.Rot.Weighted>
6.9024

> <Gold.Chemscore.Internal.Correction.Weighted>
   9.000000E+99

> <Gold.Protein.RotatedTorsions>
[ 6907 6896 6895 6894 ] final  -46.16 input  -60.11 | X-H torsion
[ 7974 7965 7964 7962 ] final   72.30 input  175.53 | X-H torsion
[ 8008 7997 7996 7995 ] final   82.46 input   59.86 | X-H torsion
[ 10167 10162 10161 10158 ] final   36.58 input  -65.29 | X-H torsion
[ 10718 10713 10712 10709 ] final  119.34 input   66.30 | X-H torsion
[ 10763 10752 10751 10750 ] final  134.31 input  -60.55 | X-H torsion
[ 11005 11000 10999 10996 ] final -100.28 input  -57.11 | X-H torsion

> <Gold.Protein.ActiveResidues>
 VAL166  LYS551  ARG553  GLY616  TRP617  ASP618  TYR619  PRO620  LYS621  CYS622 
 ASP623  PHE694  ASN695  SER759  ASP760  ASP761  ALA762  ILE779  LEU786  VAL792 
 PHE793  MET794  SER795  GLU796  ALA797  LYS798  CYS799  TRP800  GLU811  SER814 

> <Gold.Protein.RotatedAtoms>
  150.9142  134.8559  159.7445 H   0  0  0  0  0  0  0  0  0  0  0  0  # atno 6907 bound_to 6896
  152.4960  134.4314  159.9523 H   0  0  0  0  0  0  0  0  0  0  0  0  # atno 6908 bound_to 6896
  151.4354  133.3619  159.2809 H   0  0  0  0  0  0  0  0  0  0  0  0  # atno 6909 bound_to 6896
  145.7551  139.2776  143.1408 H   0  0  0  0  0  0  0  0  0  0  0  0  # atno 7974 bound_to 7965
  155.9110  140.3427  155.6098 H   0  0  0  0  0  0  0  0  0  0  0  0  # atno 8008 bound_to 7997
  155.7388  140.0805  157.2274 H   0  0  0  0  0  0  0  0  0  0  0  0  # atno 8009 bound_to 7997
  154.4056  140.1574  156.2579 H   0  0  0  0  0  0  0  0  0  0  0  0  # atno 8010 bound_to 7997
  140.4114  144.1587  150.6140 H   0  0  0  0  0  0  0  0  0  0  0  0  # atno 10167 bound_to 10162
  157.5968  131.1057  150.7883 H   0  0  0  0  0  0  0  0  0  0  0  0  # atno 10718 bound_to 10713
  153.8214  135.3116  155.3410 H   0  0  0  0  0  0  0  0  0  0  0  0  # atno 10763 bound_to 10752
  154.8011  135.4726  154.0281 H   0  0  0  0  0  0  0  0  0  0  0  0  # atno 10764 bound_to 10752
  153.1691  135.6874  153.8723 H   0  0  0  0  0  0  0  0  0  0  0  0  # atno 10765 bound_to 10752
  141.1277  133.8386  157.1081 H   0  0  0  0  0  0  0  0  0  0  0  0  # atno 11005 bound_to 11000
  146.0318  140.8250  142.9872 LP  0  0  0  0  0  0  0  0  0  0  0  0  # atno 17320 bound_to 7965
  144.6841  140.2780  143.7296 LP  0  0  0  0  0  0  0  0  0  0  0  0  # atno 17321 bound_to 7965
  140.4633  143.2440  151.9189 LP  0  0  0  0  0  0  0  0  0  0  0  0  # atno 17342 bound_to 10162
  139.4782  144.5445  151.8479 LP  0  0  0  0  0  0  0  0  0  0  0  0  # atno 17343 bound_to 10162
  156.8291  130.5010  149.5333 LP  0  0  0  0  0  0  0  0  0  0  0  0  # atno 17370 bound_to 10713
  156.1033  130.5985  150.9929 LP  0  0  0  0  0  0  0  0  0  0  0  0  # atno 17371 bound_to 10713
  140.0292  134.9909  157.0746 LP  0  0  0  0  0  0  0  0  0  0  0  0  # atno 17394 bound_to 11000
  140.4313  134.1777  155.7168 LP  0  0  0  0  0  0  0  0  0  0  0  0  # atno 17395 bound_to 11000

$$$$
