AV-unprocessed.smi:2879|AV-procd|sdf|11050|dock6
  -GOLD-   2272015513D 1   1.00000     0.00000
 Structure written by MMmdl.
 44 45  0  0  0  0  0  0  0  0  1 V2000
  151.4985  145.5351  159.7796 C   0  0  0  0  0  0  0  0  0  0  0  0
  152.1369  144.3035  160.3512 C   0  0  0  0  0  0  0  0  0  0  0  0
  153.0029  143.3769  159.6998 C   0  0  0  0  0  0  0  0  0  0  0  0
  153.2928  142.4501  160.6617 C   0  0  0  0  0  0  0  0  0  0  0  0
  154.1511  141.2249  160.6249 C   0  0  0  0  0  0  0  0  0  0  0  0
  153.6371  140.1941  159.6153 C   0  0  0  0  0  0  0  0  0  0  0  0
  154.4248  139.5848  158.8908 O   0  0  0  0  0  0  0  0  0  0  0  0
  152.3087  140.0034  159.5864 N   0  0  0  0  0  0  0  0  0  0  0  0
  151.5984  139.0861  158.6996 C   0  0  0  0  0  0  0  0  0  0  0  0
  150.6105  139.8143  157.7635 C   0  0  0  0  0  0  0  0  0  0  0  0
  149.5231  138.8796  157.1923 C   0  0  0  0  0  0  0  0  0  0  0  0
  148.5734  139.6179  156.2318 C   0  0  0  0  0  0  0  0  0  0  0  0
  149.3039  140.3379  155.0731 C   0  0  0  0  0  0  0  0  0  0  0  0
  149.8956  139.3181  154.0753 C   0  0  0  0  0  0  0  0  0  0  0  0
  148.2906  141.2124  154.3097 C   0  0  0  0  0  0  0  0  0  0  0  0
  150.4109  141.2468  155.6594 C   0  0  0  0  0  0  0  0  0  0  0  0
  151.3657  140.5066  156.6131 C   0  0  0  0  0  0  0  0  0  0  0  0
  152.6194  142.8516  161.7941 N   0  0  0  0  0  0  0  0  0  0  0  0
  151.9087  143.9803  161.6154 N   0  0  0  0  0  0  0  0  0  0  0  0
  152.6310  142.3687  162.6812 H   0  0  0  0  0  0  0  0  0  0  0  0
  151.8263  145.7092  158.7546 H   0  0  0  0  0  0  0  0  0  0  0  0
  151.7554  146.4188  160.3642 H   0  0  0  0  0  0  0  0  0  0  0  0
  150.4120  145.4450  159.7701 H   0  0  0  0  0  0  0  0  0  0  0  0
  153.3571  143.3913  158.6795 H   0  0  0  0  0  0  0  0  0  0  0  0
  154.2012  140.7831  161.6213 H   0  0  0  0  0  0  0  0  0  0  0  0
  155.1719  141.4946  160.3527 H   0  0  0  0  0  0  0  0  0  0  0  0
  151.7418  140.5431  160.2243 H   0  0  0  0  0  0  0  0  0  0  0  0
  152.3527  138.5713  158.1038 H   0  0  0  0  0  0  0  0  0  0  0  0
  151.0835  138.3092  159.2677 H   0  0  0  0  0  0  0  0  0  0  0  0
  150.1121  140.5917  158.3449 H   0  0  0  0  0  0  0  0  0  0  0  0
  149.9885  138.0351  156.6835 H   0  0  0  0  0  0  0  0  0  0  0  0
  148.9306  138.4531  158.0014 H   0  0  0  0  0  0  0  0  0  0  0  0
  147.8387  138.9165  155.8343 H   0  0  0  0  0  0  0  0  0  0  0  0
  148.0050  140.3482  156.8094 H   0  0  0  0  0  0  0  0  0  0  0  0
  150.4000  139.8216  153.2498 H   0  0  0  0  0  0  0  0  0  0  0  0
  149.1148  138.6900  153.6448 H   0  0  0  0  0  0  0  0  0  0  0  0
  150.6230  138.6529  154.5385 H   0  0  0  0  0  0  0  0  0  0  0  0
  148.7673  141.7453  153.4862 H   0  0  0  0  0  0  0  0  0  0  0  0
  147.8345  141.9589  154.9610 H   0  0  0  0  0  0  0  0  0  0  0  0
  147.4845  140.6105  153.8886 H   0  0  0  0  0  0  0  0  0  0  0  0
  150.9840  141.7088  154.8545 H   0  0  0  0  0  0  0  0  0  0  0  0
  149.9500  142.0699  156.2077 H   0  0  0  0  0  0  0  0  0  0  0  0
  152.0830  141.2192  157.0217 H   0  0  0  0  0  0  0  0  0  0  0  0
  151.9536  139.7742  156.0595 H   0  0  0  0  0  0  0  0  0  0  0  0
  1 21  1  0  0  0  0
  1 22  1  0  0  0  0
  1 23  1  0  0  0  0
  1  2  1  0  0  0  0
  2 19  2  0  0  0  0
  2  3  1  0  0  0  0
  3  4  2  0  0  0  0
  3 24  1  0  0  0  0
  4 18  1  0  0  0  0
  4  5  1  0  0  0  0
  5  6  1  0  0  0  0
  5 25  1  0  0  0  0
  5 26  1  0  0  0  0
  6  7  2  0  0  0  0
  6  8  1  0  0  0  0
  8  9  1  0  0  0  0
  8 27  1  0  0  0  0
  9 10  1  0  0  0  0
  9 28  1  0  0  0  0
  9 29  1  0  0  0  0
 10 17  1  0  0  0  0
 10 11  1  0  0  0  0
 10 30  1  0  0  0  0
 11 12  1  0  0  0  0
 11 31  1  0  0  0  0
 11 32  1  0  0  0  0
 12 13  1  0  0  0  0
 12 33  1  0  0  0  0
 12 34  1  0  0  0  0
 13 14  1  0  0  0  0
 13 15  1  0  0  0  0
 13 16  1  0  0  0  0
 14 35  1  0  0  0  0
 14 36  1  0  0  0  0
 14 37  1  0  0  0  0
 15 38  1  0  0  0  0
 15 39  1  0  0  0  0
 15 40  1  0  0  0  0
 16 17  1  0  0  0  0
 16 41  1  0  0  0  0
 16 42  1  0  0  0  0
 17 43  1  0  0  0  0
 17 44  1  0  0  0  0
 18 19  1  0  0  0  0
 18 20  1  0  0  0  0
M  END
> <s_m_source_file>
AV-unprocessed.smi

> <i_m_source_file_index>
2879

> <i_lp_mmshare_version>
43012

> <i_f3d_flags>
0

> <s_epik_input>
W0NIM11jMVtjSF1jKG5bbkhdMSlbQ0gyXUMoPU8pW05IXVtDSDJdW0NIXShbQ0gyXVtDSDJdMilbQ0gyXVtDSDJdQzIoW0NIM10pW0NIM10=

> <s_epik_cmdline>
J2VwaWtfcHl0aG9uJywgJy1waCcsICc3LjAnLCAnLXRuJywgJzgnLCAnLW1hJywgJzIwMCcsICctbWV0YWxfYmluZGluZycsICctaW1hZScsICc8aW5maWxlLm1hZT4nLCAnLW9tYWUnLCAnPG91dGZpbGUubWFlPic=

> <r_lp_tautomer_probability>
0.5

> <r_epik_Ionization_Penalty>
0.000119486

> <r_epik_Ionization_Penalty_Charging>
0

> <r_epik_Ionization_Penalty_Neutral>
0.000119486

> <r_epik_State_Penalty>
0.41068

> <r_epik_Charging_Adjusted_Penalty>
0.41068

> <i_epik_Tot_Q>
0

> <i_epik_Tot_abs_Q>
0

> <r_epik_Metal_State_Penalty>
0.41066

> <b_epik_Metal_Only>
0

> <s_lp_Force_Field>
OPLS_2005

> <r_lp_Energy>
12.3825

> <b_lp_Chiralities_Consistent>
1

> <s_lp_Variant>
AV-unprocessed.smi:2879-2

> <Gold.Version>
5.8.1

> <Gold.Id.Protein>
6NUR|6NUR_protein|mol2

> <Gold.PLP.Fitness>
40.9648

> <Gold.PLP.PLP>
-38.7856

> <Gold.PLP.part.hbond>
-1.0000

> <Gold.PLP.part.metal>
0.0000

> <Gold.PLP.part.buried>
-4.5935

> <Gold.PLP.part.nonpolar>
-33.8188

> <Gold.PLP.part.repulsive>
0.3965

> <Gold.PLP.ligand.clash>
0.0000

> <Gold.PLP.ligand.torsion>
0.4129

> <Gold.PLP.Chemscore.Hbond>
1.0000

> <Gold.PLP.Chemscore.CHOScore>
0.0000

> <Gold.PLP.Chemscore.Metal>
0.0000

> <Gold.Chemscore.Hbonds>
donor molecule, donor type, donor heavy atom, donor atom, acceptor molecule, acceptor atom, score
      P1  H  7997  8008       L1     7  1.00

> <Gold.PLP.Chemscore.Internal.Correction>
0.0051

> <Gold.Rescore>
     Score         DG    S(hbond)    S(metal)    S(lipo)     H(rot)  DE(clash)    DE(int)     intcor
     16.82     -17.34       1.00        0.00     106.75       1.55       0.11       0.41       ----

> <Gold.Chemscore.Fitness>
16.8223

> <Gold.Chemscore.DG>
-17.3364

> <Gold.Chemscore.ZeroCoef>
-5.4800

> <Gold.Chemscore.Hbond>
0.9976

> <Gold.Chemscore.Metal>
0.0000

> <Gold.Chemscore.Lipo>
106.7493

> <Gold.Chemscore.Internal_Hbond>
0.0000

> <Gold.Chemscore.DEClash>
0.1051

> <Gold.Chemscore.DEInternal>
0.4091

> <Gold.Chemscore.Rot>
1.5489

> <Gold.Chemscore.Internal.Correction>
   9.000000E+99

> <Gold.Chemscore.Hbonds>
donor molecule, donor type, donor heavy atom, donor atom, acceptor molecule, acceptor atom, score
      P1  H  7997  8008       L1     7  1.00

> <Gold.Chemscore.Hbond.Weighted>
-3.3320

> <Gold.Chemscore.Metal.Weighted>
-0.0000

> <Gold.Chemscore.Lipo.Weighted>
-12.4897

> <Gold.Chemscore.Internal_Hbond.Weighted>
0.0000

> <Gold.Chemscore.DEClash.Weighted>
0.1051

> <Gold.Chemscore.DEInternal.Weighted>
0.4091

> <Gold.Chemscore.Rot.Weighted>
3.9652

> <Gold.Chemscore.Internal.Correction.Weighted>
   9.000000E+99

> <Gold.Protein.RotatedTorsions>
[ 6907 6896 6895 6894 ] final   19.71 input  -60.11 | X-H torsion
[ 7974 7965 7964 7962 ] final  -97.87 input  175.53 | X-H torsion
[ 8008 7997 7996 7995 ] final -120.23 input   59.86 | X-H torsion
[ 10167 10162 10161 10158 ] final  -84.50 input  -65.29 | X-H torsion
[ 10718 10713 10712 10709 ] final  -76.46 input   66.30 | X-H torsion
[ 10763 10752 10751 10750 ] final   -2.70 input  -60.55 | X-H torsion
[ 11005 11000 10999 10996 ] final   30.76 input  -57.11 | X-H torsion

> <Gold.Protein.ActiveResidues>
 VAL166  LYS551  ARG553  GLY616  TRP617  ASP618  TYR619  PRO620  LYS621  CYS622 
 ASP623  PHE694  ASN695  SER759  ASP760  ASP761  ALA762  ILE779  LEU786  VAL792 
 PHE793  MET794  SER795  GLU796  ALA797  LYS798  CYS799  TRP800  GLU811  SER814 

> <Gold.Protein.RotatedAtoms>
  151.8851  135.0438  160.0492 H   0  0  0  0  0  0  0  0  0  0  0  0  # atno 6907 bound_to 6896
  152.2481  133.5187  159.5318 H   0  0  0  0  0  0  0  0  0  0  0  0  # atno 6908 bound_to 6896
  150.7075  134.0913  159.3975 H   0  0  0  0  0  0  0  0  0  0  0  0  # atno 6909 bound_to 6896
  145.3281  140.9436  143.2677 H   0  0  0  0  0  0  0  0  0  0  0  0  # atno 7974 bound_to 7965
  155.1285  140.0400  157.2769 H   0  0  0  0  0  0  0  0  0  0  0  0  # atno 8008 bound_to 7997
  154.6560  140.2580  155.7135 H   0  0  0  0  0  0  0  0  0  0  0  0  # atno 8009 bound_to 7997
  156.2598  140.2826  156.1013 H   0  0  0  0  0  0  0  0  0  0  0  0  # atno 8010 bound_to 7997
  140.4126  143.2616  151.8997 H   0  0  0  0  0  0  0  0  0  0  0  0  # atno 10167 bound_to 10162
  156.0174  130.4466  150.3198 H   0  0  0  0  0  0  0  0  0  0  0  0  # atno 10718 bound_to 10713
  153.3615  135.6990  153.6708 H   0  0  0  0  0  0  0  0  0  0  0  0  # atno 10763 bound_to 10752
  153.5395  135.3576  155.2712 H   0  0  0  0  0  0  0  0  0  0  0  0  # atno 10764 bound_to 10752
  154.8669  135.4200  154.2873 H   0  0  0  0  0  0  0  0  0  0  0  0  # atno 10765 bound_to 10752
  140.2910  134.2864  155.7776 H   0  0  0  0  0  0  0  0  0  0  0  0  # atno 11005 bound_to 11000
  144.8886  139.4805  143.6689 LP  0  0  0  0  0  0  0  0  0  0  0  0  # atno 17320 bound_to 7965
  146.3056  139.7570  142.9058 LP  0  0  0  0  0  0  0  0  0  0  0  0  # atno 17321 bound_to 7965
  139.4782  144.5521  151.8370 LP  0  0  0  0  0  0  0  0  0  0  0  0  # atno 17342 bound_to 10162
  140.4621  144.1707  150.5907 LP  0  0  0  0  0  0  0  0  0  0  0  0  # atno 17343 bound_to 10162
  157.1298  131.0269  151.2974 LP  0  0  0  0  0  0  0  0  0  0  0  0  # atno 17370 bound_to 10713
  157.4560  130.7625  149.7193 LP  0  0  0  0  0  0  0  0  0  0  0  0  # atno 17371 bound_to 10713
  141.2146  133.7585  156.9625 LP  0  0  0  0  0  0  0  0  0  0  0  0  # atno 17394 bound_to 11000
  140.1195  134.9426  157.2183 LP  0  0  0  0  0  0  0  0  0  0  0  0  # atno 17395 bound_to 11000

$$$$
