AV-unprocessed.smi:1147|AV-procd|sdf|4888|dock4
  -GOLD-   22720 3463D 1   1.00000     0.00000
 Structure written by MMmdl.
 41 42  0  0  0  0  0  0  0  0  1 V2000
  154.0747  135.0398  164.5077 C   0  0  0  0  0  0  0  0  0  0  0  0
  154.5501  134.9803  163.0544 C   0  0  0  0  0  0  0  0  0  0  0  0
  155.1913  133.9916  162.6981 O   0  0  0  0  0  0  0  0  0  0  0  0
  154.2556  136.0037  162.2167 N   0  0  0  0  0  0  0  0  0  0  0  0
  153.5280  137.2284  162.5881 C   0  0  0  0  0  0  0  0  0  0  0  0
  154.4541  138.4451  162.3895 C   0  0  0  0  0  0  0  0  0  0  0  0
  154.8921  138.4854  160.9814 N   0  0  0  0  0  0  0  0  0  0  0  0
  154.5189  139.3974  160.0483 C   0  0  0  0  0  0  0  0  0  0  0  0
  154.7402  139.2599  158.8443 O   0  0  0  0  0  0  0  0  0  0  0  0
  153.9156  140.4923  160.5428 N   0  0  0  0  0  0  0  0  0  0  0  0
  153.4299  141.6268  159.7621 C   0  0  1  0  0  0  0  0  0  0  0  0
  152.4534  141.1407  158.6752 C   0  0  0  0  0  0  0  0  0  0  0  0
  152.8094  142.6654  160.7179 C   0  0  0  0  0  0  0  0  0  0  0  0
  152.1075  143.7258  160.0168 N   0  0  0  0  0  0  0  0  0  0  0  0
  152.6328  144.6967  159.1904 C   0  0  0  0  0  0  0  0  0  0  0  0
  151.5932  145.4700  158.7597 C   0  0  0  0  0  0  0  0  0  0  0  0
  150.4565  144.8873  159.3869 C   0  0  0  0  0  0  0  0  0  0  0  0
  150.7677  143.8455  160.1410 N   0  0  0  0  0  0  0  0  0  0  0  0
  155.6354  137.2669  160.6279 C   0  0  0  0  0  0  0  0  0  0  0  0
  154.7151  136.0450  160.8195 C   0  0  0  0  0  0  0  0  0  0  0  0
  154.4963  135.9066  165.0176 H   0  0  0  0  0  0  0  0  0  0  0  0
  154.3900  134.1489  165.0518 H   0  0  0  0  0  0  0  0  0  0  0  0
  152.9867  135.0914  164.5575 H   0  0  0  0  0  0  0  0  0  0  0  0
  152.6446  137.3220  161.9546 H   0  0  0  0  0  0  0  0  0  0  0  0
  153.1564  137.2241  163.6113 H   0  0  0  0  0  0  0  0  0  0  0  0
  153.9389  139.3465  162.7204 H   0  0  0  0  0  0  0  0  0  0  0  0
  155.3307  138.3576  163.0335 H   0  0  0  0  0  0  0  0  0  0  0  0
  153.7810  140.5406  161.5422 H   0  0  0  0  0  0  0  0  0  0  0  0
  154.2801  142.1005  159.2673 H   0  0  0  0  0  0  0  0  0  0  0  0
  152.1339  141.9593  158.0301 H   0  0  0  0  0  0  0  0  0  0  0  0
  151.5606  140.6965  159.1164 H   0  0  0  0  0  0  0  0  0  0  0  0
  152.9162  140.3899  158.0342 H   0  0  0  0  0  0  0  0  0  0  0  0
  152.1178  142.1800  161.4091 H   0  0  0  0  0  0  0  0  0  0  0  0
  153.5874  143.1252  161.3291 H   0  0  0  0  0  0  0  0  0  0  0  0
  153.6905  144.7538  158.9787 H   0  0  0  0  0  0  0  0  0  0  0  0
  151.6378  146.3220  158.0977 H   0  0  0  0  0  0  0  0  0  0  0  0
  149.4218  145.1890  159.3177 H   0  0  0  0  0  0  0  0  0  0  0  0
  156.0157  137.2853  159.6056 H   0  0  0  0  0  0  0  0  0  0  0  0
  156.5141  137.1821  161.2691 H   0  0  0  0  0  0  0  0  0  0  0  0
  155.2479  135.1412  160.5219 H   0  0  0  0  0  0  0  0  0  0  0  0
  153.8501  136.1148  160.1582 H   0  0  0  0  0  0  0  0  0  0  0  0
  1  2  1  0  0  0  0
  1 21  1  0  0  0  0
  1 22  1  0  0  0  0
  1 23  1  0  0  0  0
  2  3  2  0  0  0  0
  2  4  1  0  0  0  0
  4 20  1  0  0  0  0
  4  5  1  0  0  0  0
  5  6  1  0  0  0  0
  5 24  1  0  0  0  0
  5 25  1  0  0  0  0
  6  7  1  0  0  0  0
  6 26  1  0  0  0  0
  6 27  1  0  0  0  0
  7  8  1  0  0  0  0
  7 19  1  0  0  0  0
  8  9  2  0  0  0  0
  8 10  1  0  0  0  0
 10 11  1  0  0  0  0
 10 28  1  0  0  0  0
 11 12  1  0  0  0  0
 11 13  1  0  0  0  0
 11 29  1  0  0  0  0
 12 30  1  0  0  0  0
 12 31  1  0  0  0  0
 12 32  1  0  0  0  0
 13 14  1  0  0  0  0
 13 33  1  0  0  0  0
 13 34  1  0  0  0  0
 14 18  1  0  0  0  0
 14 15  1  0  0  0  0
 15 16  2  0  0  0  0
 15 35  1  0  0  0  0
 16 17  1  0  0  0  0
 16 36  1  0  0  0  0
 17 18  2  0  0  0  0
 17 37  1  0  0  0  0
 19 20  1  0  0  0  0
 19 38  1  0  0  0  0
 19 39  1  0  0  0  0
 20 40  1  0  0  0  0
 20 41  1  0  0  0  0
M  END
> <s_m_source_file>
AV-unprocessed.smi

> <i_m_source_file_index>
1147

> <i_lp_mmshare_version>
43012

> <i_f3d_flags>
0

> <s_epik_input>
W0NIM11DKD1PKU4xW0NIMl1bQ0gyXU4oW0NIMl1bQ0gyXTEpQyg9TylbTkhdW0NASF0oW0NIM10pW0NIMl1uMltjSF1bY0hdW2NIXW4y

> <s_epik_cmdline>
J2VwaWtfcHl0aG9uJywgJy1waCcsICc3LjAnLCAnLXRuJywgJzgnLCAnLW1hJywgJzIwMCcsICctbWV0YWxfYmluZGluZycsICctaW1hZScsICc8aW5maWxlLm1hZT4nLCAnLW9tYWUnLCAnPG91dGZpbGUubWFlPic=

> <r_lp_tautomer_probability>
1

> <r_epik_Ionization_Penalty>
5.58143e-05

> <r_epik_Ionization_Penalty_Charging>
0

> <r_epik_Ionization_Penalty_Neutral>
5.58143e-05

> <r_epik_State_Penalty>
-0

> <r_epik_Charging_Adjusted_Penalty>
0

> <i_epik_Tot_Q>
0

> <i_epik_Tot_abs_Q>
0

> <r_epik_Metal_State_Penalty>
-0

> <b_epik_Metal_Only>
0

> <s_lp_Force_Field>
OPLS_2005

> <r_lp_Energy>
47.733

> <b_lp_Chiralities_Consistent>
1

> <s_lp_Variant>
AV-unprocessed.smi:1147-2

> <Gold.Version>
5.8.1

> <Gold.Id.Protein>
6NUR|6NUR_protein|mol2

> <Gold.PLP.Fitness>
45.5919

> <Gold.PLP.PLP>
-39.8514

> <Gold.PLP.part.hbond>
-2.0000

> <Gold.PLP.part.metal>
0.0000

> <Gold.PLP.part.buried>
-4.4194

> <Gold.PLP.part.nonpolar>
-33.2645

> <Gold.PLP.part.repulsive>
0.1377

> <Gold.PLP.ligand.clash>
0.0000

> <Gold.PLP.ligand.torsion>
0.1521

> <Gold.PLP.Chemscore.Hbond>
1.0000

> <Gold.PLP.Chemscore.CHOScore>
1.0000

> <Gold.PLP.Chemscore.Metal>
0.0000

> <Gold.Chemscore.Hbonds>
donor molecule, donor type, donor heavy atom, donor atom, acceptor molecule, acceptor atom, score
      P1  H  7997  8010       L1     9  1.00
      L1  C    17    37       P1  8029  0.69

> <Gold.PLP.Chemscore.Internal.Correction>
0.0447

> <Gold.Rescore>
     Score         DG    S(hbond)    S(metal)    S(lipo)     H(rot)  DE(clash)    DE(int)     intcor
     16.09     -16.34       1.00        0.00      96.44       1.46       0.06       0.19       ----

> <Gold.Chemscore.Fitness>
16.0946

> <Gold.Chemscore.DG>
-16.3405

> <Gold.Chemscore.ZeroCoef>
-5.4800

> <Gold.Chemscore.Hbond>
0.9953

> <Gold.Chemscore.Metal>
0.0000

> <Gold.Chemscore.Lipo>
96.4435

> <Gold.Chemscore.Internal_Hbond>
0.0000

> <Gold.Chemscore.DEClash>
0.0551

> <Gold.Chemscore.DEInternal>
0.1908

> <Gold.Chemscore.Rot>
1.4640

> <Gold.Chemscore.Internal.Correction>
   9.000000E+99

> <Gold.Chemscore.Hbonds>
donor molecule, donor type, donor heavy atom, donor atom, acceptor molecule, acceptor atom, score
      P1  H  7997  8010       L1     9  0.98

> <Gold.Chemscore.Hbond.Weighted>
-3.3243

> <Gold.Chemscore.Metal.Weighted>
-0.0000

> <Gold.Chemscore.Lipo.Weighted>
-11.2839

> <Gold.Chemscore.Internal_Hbond.Weighted>
0.0000

> <Gold.Chemscore.DEClash.Weighted>
0.0551

> <Gold.Chemscore.DEInternal.Weighted>
0.1908

> <Gold.Chemscore.Rot.Weighted>
3.7477

> <Gold.Chemscore.Internal.Correction.Weighted>
   9.000000E+99

> <Gold.Protein.RotatedTorsions>
[ 6907 6896 6895 6894 ] final -153.38 input  -60.11 | X-H torsion
[ 7974 7965 7964 7962 ] final -151.94 input  175.53 | X-H torsion
[ 8008 7997 7996 7995 ] final  -16.89 input   59.86 | X-H torsion
[ 10167 10162 10161 10158 ] final -112.53 input  -65.29 | X-H torsion
[ 10718 10713 10712 10709 ] final -166.51 input   66.30 | X-H torsion
[ 10763 10752 10751 10750 ] final   -1.20 input  -60.55 | X-H torsion
[ 11005 11000 10999 10996 ] final   90.92 input  -57.11 | X-H torsion

> <Gold.Protein.ActiveResidues>
 VAL166  LYS551  ARG553  GLY616  TRP617  ASP618  TYR619  PRO620  LYS621  CYS622 
 ASP623  PHE694  ASN695  SER759  ASP760  ASP761  ALA762  ILE779  LEU786  VAL792 
 PHE793  MET794  SER795  GLU796  ALA797  LYS798  CYS799  TRP800  GLU811  SER814 

> <Gold.Protein.RotatedAtoms>
  151.2417  133.4396  159.2607 H   0  0  0  0  0  0  0  0  0  0  0  0  # atno 6907 bound_to 6896
  151.0699  134.9791  159.8313 H   0  0  0  0  0  0  0  0  0  0  0  0  # atno 6908 bound_to 6896
  152.5410  134.2363  159.8897 H   0  0  0  0  0  0  0  0  0  0  0  0  # atno 6909 bound_to 6896
  144.7821  140.4729  143.5832 H   0  0  0  0  0  0  0  0  0  0  0  0  # atno 7974 bound_to 7965
  154.5019  140.2157  155.9329 H   0  0  0  0  0  0  0  0  0  0  0  0  # atno 8008 bound_to 7997
  156.1445  140.3173  155.8515 H   0  0  0  0  0  0  0  0  0  0  0  0  # atno 8009 bound_to 7997
  155.4058  140.0487  157.3025 H   0  0  0  0  0  0  0  0  0  0  0  0  # atno 8010 bound_to 7997
  140.1217  143.4438  152.1686 H   0  0  0  0  0  0  0  0  0  0  0  0  # atno 10167 bound_to 10162
  156.6690  130.9076  151.3041 H   0  0  0  0  0  0  0  0  0  0  0  0  # atno 10718 bound_to 10713
  153.3418  135.6981  153.6861 H   0  0  0  0  0  0  0  0  0  0  0  0  # atno 10763 bound_to 10752
  153.5623  135.3532  155.2805 H   0  0  0  0  0  0  0  0  0  0  0  0  # atno 10764 bound_to 10752
  154.8638  135.4252  154.2632 H   0  0  0  0  0  0  0  0  0  0  0  0  # atno 10765 bound_to 10752
  139.8847  134.8643  156.3353 H   0  0  0  0  0  0  0  0  0  0  0  0  # atno 11005 bound_to 11000
  145.6021  139.1505  143.3123 LP  0  0  0  0  0  0  0  0  0  0  0  0  # atno 17320 bound_to 7965
  146.2035  140.6141  142.9091 LP  0  0  0  0  0  0  0  0  0  0  0  0  # atno 17321 bound_to 7965
  139.5565  144.7376  151.4278 LP  0  0  0  0  0  0  0  0  0  0  0  0  # atno 17342 bound_to 10162
  140.6868  143.7954  150.7198 LP  0  0  0  0  0  0  0  0  0  0  0  0  # atno 17343 bound_to 10162
  157.7084  130.9411  150.1006 LP  0  0  0  0  0  0  0  0  0  0  0  0  # atno 17370 bound_to 10713
  156.1953  130.3657  149.8857 LP  0  0  0  0  0  0  0  0  0  0  0  0  # atno 17371 bound_to 10713
  140.9695  133.7336  156.0514 LP  0  0  0  0  0  0  0  0  0  0  0  0  # atno 17394 bound_to 11000
  140.7889  134.3640  157.5469 LP  0  0  0  0  0  0  0  0  0  0  0  0  # atno 17395 bound_to 11000

$$$$
