AV-unprocessed.smi:20|AV-procd|sdf|120|dock4
  -GOLD-   2262015293D 1   1.00000     0.00000
 Structure written by MMmdl.
 57 61  0  0  0  0  0  0  0  0  1 V2000
  157.4874  140.5525  160.4083 O   0  0  0  0  0  0  0  0  0  0  0  0
  156.2801  140.3400  160.4926 C   0  0  0  0  0  0  0  0  0  0  0  0
  155.2296  141.1227  159.7240 C   0  0  0  0  0  0  0  0  0  0  0  0
  153.9092  140.7526  160.4424 C   0  0  1  0  0  0  0  0  0  0  0  0
  153.5389  141.7919  161.5348 C   0  0  0  0  0  0  0  0  0  0  0  0
  153.0398  143.1170  160.9314 C   0  0  0  0  0  0  0  0  0  0  0  0
  151.8997  142.8751  159.9327 C   0  0  0  0  0  0  0  0  0  0  0  0
  152.2954  141.8911  158.9280 N   0  0  0  0  0  0  0  0  0  0  0  0
  151.5372  141.8908  157.8032 C   0  0  0  0  0  0  0  0  0  0  0  0
  151.4284  143.0222  157.0561 N   0  0  0  0  0  0  0  0  0  0  0  0
  150.6849  143.0291  155.9459 C   0  0  0  0  0  0  0  0  0  0  0  0
  149.9743  142.0343  155.4115 N   0  0  0  0  0  0  0  0  0  0  0  0
  150.0763  140.8982  156.1586 C   0  0  0  0  0  0  0  0  0  0  0  0
  150.8295  140.7400  157.3558 C   0  0  0  0  0  0  0  0  0  0  0  0
  150.6799  139.4458  157.8409 N   0  0  0  0  0  0  0  0  0  0  0  0
  149.8884  138.8703  156.9775 C   0  0  0  0  0  0  0  0  0  0  0  0
  149.4707  139.6733  155.9409 N   0  0  0  0  0  0  0  0  0  0  0  0
  148.5826  139.2947  154.8562 C   0  0  0  0  0  0  0  0  0  0  0  0
  148.0162  140.4987  154.0577 C   0  0  1  0  0  0  0  0  0  0  0  0
  147.0637  140.0582  152.9161 C   0  0  0  0  0  0  0  0  0  0  0  0
  145.9561  139.3277  153.4015 O   0  0  0  0  0  0  0  0  0  0  0  0
  147.3079  141.4952  155.0121 C   0  0  1  0  0  0  0  0  0  0  0  0
  146.4408  142.5385  154.3268 C   0  0  0  0  0  0  0  0  0  0  0  0
  145.5550  143.0185  155.4689 C   0  0  0  0  0  0  0  0  0  0  0  0
  145.3183  141.8649  156.2645 O   0  0  0  0  0  0  0  0  0  0  0  0
  146.2818  140.8601  155.9620 C   0  0  0  0  0  0  0  0  0  0  0  0
  152.7244  140.5978  159.4623 C   0  0  0  0  0  0  0  0  0  0  0  0
  154.2569  139.3997  161.1080 C   0  0  0  0  0  0  0  0  0  0  0  0
  155.6997  139.4132  161.2506 N   0  0  0  0  0  0  0  0  0  0  0  0
  155.4491  142.1897  159.7283 H   0  0  0  0  0  0  0  0  0  0  0  0
  155.2349  140.7812  158.6882 H   0  0  0  0  0  0  0  0  0  0  0  0
  152.7479  141.3861  162.1668 H   0  0  0  0  0  0  0  0  0  0  0  0
  154.3867  141.9801  162.1949 H   0  0  0  0  0  0  0  0  0  0  0  0
  152.6998  143.7820  161.7257 H   0  0  0  0  0  0  0  0  0  0  0  0
  153.8564  143.6369  160.4308 H   0  0  0  0  0  0  0  0  0  0  0  0
  151.0200  142.5011  160.4581 H   0  0  0  0  0  0  0  0  0  0  0  0
  151.6113  143.8220  159.4772 H   0  0  0  0  0  0  0  0  0  0  0  0
  150.6543  143.9661  155.4096 H   0  0  0  0  0  0  0  0  0  0  0  0
  149.5762  137.8408  157.0785 H   0  0  0  0  0  0  0  0  0  0  0  0
  149.1193  138.6210  154.1870 H   0  0  0  0  0  0  0  0  0  0  0  0
  147.7741  138.7095  155.2944 H   0  0  0  0  0  0  0  0  0  0  0  0
  148.8572  141.0285  153.6070 H   0  0  0  0  0  0  0  0  0  0  0  0
  146.7146  140.9207  152.3474 H   0  0  0  0  0  0  0  0  0  0  0  0
  147.5698  139.4036  152.2084 H   0  0  0  0  0  0  0  0  0  0  0  0
  145.1742  139.8387  153.2582 H   0  0  0  0  0  0  0  0  0  0  0  0
  148.0576  142.0160  155.6104 H   0  0  0  0  0  0  0  0  0  0  0  0
  147.0138  143.3518  153.8812 H   0  0  0  0  0  0  0  0  0  0  0  0
  145.8309  142.0795  153.5473 H   0  0  0  0  0  0  0  0  0  0  0  0
  146.0818  143.7583  156.0731 H   0  0  0  0  0  0  0  0  0  0  0  0
  144.6232  143.4640  155.1204 H   0  0  0  0  0  0  0  0  0  0  0  0
  145.7649  140.0301  155.4789 H   0  0  0  0  0  0  0  0  0  0  0  0
  146.7407  140.4834  156.8761 H   0  0  0  0  0  0  0  0  0  0  0  0
  153.0073  139.9295  158.6473 H   0  0  0  0  0  0  0  0  0  0  0  0
  151.8796  140.1333  159.9734 H   0  0  0  0  0  0  0  0  0  0  0  0
  153.7656  139.2571  162.0711 H   0  0  0  0  0  0  0  0  0  0  0  0
  153.9852  138.5579  160.4692 H   0  0  0  0  0  0  0  0  0  0  0  0
  156.1984  138.7721  161.8508 H   0  0  0  0  0  0  0  0  0  0  0  0
  1  2  2  0  0  0  0
  2 29  1  0  0  0  0
  2  3  1  0  0  0  0
  3  4  1  0  0  0  0
  3 30  1  0  0  0  0
  3 31  1  0  0  0  0
  4 27  1  0  0  0  0
  4  5  1  0  0  0  0
  4 28  1  0  0  0  0
  5  6  1  0  0  0  0
  5 32  1  0  0  0  0
  5 33  1  0  0  0  0
  6  7  1  0  0  0  0
  6 34  1  0  0  0  0
  6 35  1  0  0  0  0
  7  8  1  0  0  0  0
  7 36  1  0  0  0  0
  7 37  1  0  0  0  0
  8  9  1  0  0  0  0
  8 27  1  0  0  0  0
  9 14  1  0  0  0  0
  9 10  2  0  0  0  0
 10 11  1  0  0  0  0
 11 12  2  0  0  0  0
 11 38  1  0  0  0  0
 12 13  1  0  0  0  0
 13 17  1  0  0  0  0
 13 14  2  0  0  0  0
 14 15  1  0  0  0  0
 15 16  2  0  0  0  0
 16 17  1  0  0  0  0
 16 39  1  0  0  0  0
 17 18  1  0  0  0  0
 18 19  1  0  0  0  0
 18 40  1  0  0  0  0
 18 41  1  0  0  0  0
 19 20  1  0  0  0  0
 19 22  1  0  0  0  0
 19 42  1  0  0  0  0
 20 21  1  0  0  0  0
 20 43  1  0  0  0  0
 20 44  1  0  0  0  0
 21 45  1  0  0  0  0
 22 26  1  0  0  0  0
 22 23  1  0  0  0  0
 22 46  1  0  0  0  0
 23 24  1  0  0  0  0
 23 47  1  0  0  0  0
 23 48  1  0  0  0  0
 24 25  1  0  0  0  0
 24 49  1  0  0  0  0
 24 50  1  0  0  0  0
 25 26  1  0  0  0  0
 26 51  1  0  0  0  0
 26 52  1  0  0  0  0
 27 53  1  0  0  0  0
 27 54  1  0  0  0  0
 28 29  1  0  0  0  0
 28 55  1  0  0  0  0
 28 56  1  0  0  0  0
 29 57  1  0  0  0  0
M  END
> <s_m_source_file>
AV-unprocessed.smi

> <i_m_source_file_index>
20

> <i_lp_mmshare_version>
43012

> <i_f3d_flags>
0

> <s_epik_input>
W0NIMl0xW05IXUMoPU8pW0NIMl1bQ0BAXTEyW0NIMl1bQ0gyXVtDSDJdTihbQ0gyXTIpYyhuW2NIXW4zKWMoYzM0KW5bY0hdbjRbQ0gyXVtDQEhdKFtDSDJdW09IXSlbQ0BASF01W0NIMl1bQ0gyXU9bQ0gyXTU=

> <s_epik_cmdline>
J2VwaWtfcHl0aG9uJywgJy1waCcsICc3LjAnLCAnLXRuJywgJzgnLCAnLW1hJywgJzIwMCcsICctbWV0YWxfYmluZGluZycsICctaW1hZScsICc8aW5maWxlLm1hZT4nLCAnLW9tYWUnLCAnPG91dGZpbGUubWFlPic=

> <r_lp_tautomer_probability>
1

> <r_epik_Ionization_Penalty>
0.0019697

> <r_epik_Ionization_Penalty_Charging>
0

> <r_epik_Ionization_Penalty_Neutral>
0.0019697

> <r_epik_State_Penalty>
0.00113613

> <r_epik_Charging_Adjusted_Penalty>
0.00113613

> <i_epik_Tot_Q>
0

> <i_epik_Tot_abs_Q>
0

> <r_epik_Metal_State_Penalty>
-0

> <b_epik_Metal_Only>
0

> <s_lp_Force_Field>
OPLS_2005

> <r_lp_Energy>
57.3449

> <b_lp_Chiralities_Consistent>
1

> <s_lp_Variant>
AV-unprocessed.smi:20-8

> <Gold.Version>
5.8.1

> <Gold.Id.Protein>
6NUR|6NUR_protein|mol2

> <Gold.PLP.Fitness>
41.1681

> <Gold.PLP.PLP>
-37.5007

> <Gold.PLP.part.hbond>
-2.1135

> <Gold.PLP.part.metal>
0.0000

> <Gold.PLP.part.buried>
0.5589

> <Gold.PLP.part.nonpolar>
-36.4479

> <Gold.PLP.part.repulsive>
1.4463

> <Gold.PLP.ligand.clash>
0.0166

> <Gold.PLP.ligand.torsion>
0.6680

> <Gold.PLP.Chemscore.Hbond>
1.0000

> <Gold.PLP.Chemscore.CHOScore>
0.5115

> <Gold.PLP.Chemscore.Metal>
0.0000

> <Gold.Chemscore.Hbonds>
donor molecule, donor type, donor heavy atom, donor atom, acceptor molecule, acceptor atom, score
      L1  H    21    45       P1 10175  1.00
      L1  C    11    38       P1  8028  0.41

> <Gold.PLP.Chemscore.Internal.Correction>
0.4853

> <Gold.Rescore>
     Score         DG    S(hbond)    S(metal)    S(lipo)     H(rot)  DE(clash)    DE(int)     intcor
      6.15     -13.56       1.00        0.00     100.54       2.74       2.77       4.65       ----

> <Gold.Chemscore.Fitness>
6.1516

> <Gold.Chemscore.DG>
-13.5645

> <Gold.Chemscore.ZeroCoef>
-5.4800

> <Gold.Chemscore.Hbond>
0.9999

> <Gold.Chemscore.Metal>
0.0000

> <Gold.Chemscore.Lipo>
100.5403

> <Gold.Chemscore.Internal_Hbond>
0.0000

> <Gold.Chemscore.DEClash>
2.7665

> <Gold.Chemscore.DEInternal>
4.6464

> <Gold.Chemscore.Rot>
2.7415

> <Gold.Chemscore.Internal.Correction>
   9.000000E+99

> <Gold.Chemscore.Hbonds>
donor molecule, donor type, donor heavy atom, donor atom, acceptor molecule, acceptor atom, score
      L1  H    21    45       P1 10175  1.00

> <Gold.Chemscore.Hbond.Weighted>
-3.3395

> <Gold.Chemscore.Metal.Weighted>
-0.0000

> <Gold.Chemscore.Lipo.Weighted>
-11.7632

> <Gold.Chemscore.Internal_Hbond.Weighted>
0.0000

> <Gold.Chemscore.DEClash.Weighted>
2.7665

> <Gold.Chemscore.DEInternal.Weighted>
4.6464

> <Gold.Chemscore.Rot.Weighted>
7.0182

> <Gold.Chemscore.Internal.Correction.Weighted>
   9.000000E+99

> <Gold.Protein.RotatedTorsions>
[ 6907 6896 6895 6894 ] final -137.98 input  -60.11 | X-H torsion
[ 7974 7965 7964 7962 ] final -150.23 input  175.53 | X-H torsion
[ 8008 7997 7996 7995 ] final  -10.02 input   59.86 | X-H torsion
[ 10167 10162 10161 10158 ] final  -72.63 input  -65.29 | X-H torsion
[ 10718 10713 10712 10709 ] final   98.26 input   66.30 | X-H torsion
[ 10763 10752 10751 10750 ] final   33.60 input  -60.55 | X-H torsion
[ 11005 11000 10999 10996 ] final   31.33 input  -57.11 | X-H torsion

> <Gold.Protein.ActiveResidues>
 VAL166  LYS551  ARG553  GLY616  TRP617  ASP618  TYR619  PRO620  LYS621  CYS622 
 ASP623  PHE694  ASN695  SER759  ASP760  ASP761  ALA762  ILE779  LEU786  VAL792 
 PHE793  MET794  SER795  GLU796  ALA797  LYS798  CYS799  TRP800  GLU811  SER814 

> <Gold.Protein.RotatedAtoms>
  151.0293  133.5805  159.2662 H   0  0  0  0  0  0  0  0  0  0  0  0  # atno 6907 bound_to 6896
  151.2893  135.0736  159.9208 H   0  0  0  0  0  0  0  0  0  0  0  0  # atno 6908 bound_to 6896
  152.5341  133.9994  159.7941 H   0  0  0  0  0  0  0  0  0  0  0  0  # atno 6909 bound_to 6896
  144.7920  140.4959  143.5766 H   0  0  0  0  0  0  0  0  0  0  0  0  # atno 7974 bound_to 7965
  154.5592  140.2339  155.8361 H   0  0  0  0  0  0  0  0  0  0  0  0  # atno 8008 bound_to 7997
  156.2015  140.3051  155.9496 H   0  0  0  0  0  0  0  0  0  0  0  0  # atno 8009 bound_to 7997
  155.2920  140.0427  157.3014 H   0  0  0  0  0  0  0  0  0  0  0  0  # atno 8010 bound_to 7997
  140.5176  143.2336  151.7485 H   0  0  0  0  0  0  0  0  0  0  0  0  # atno 10167 bound_to 10162
  157.6898  131.0634  150.4769 H   0  0  0  0  0  0  0  0  0  0  0  0  # atno 10718 bound_to 10713
  153.0204  135.6383  154.1536 H   0  0  0  0  0  0  0  0  0  0  0  0  # atno 10763 bound_to 10752
  154.1271  135.2843  155.3196 H   0  0  0  0  0  0  0  0  0  0  0  0  # atno 10764 bound_to 10752
  154.6221  135.5521  153.7648 H   0  0  0  0  0  0  0  0  0  0  0  0  # atno 10765 bound_to 10752
  140.2850  134.2929  155.7790 H   0  0  0  0  0  0  0  0  0  0  0  0  # atno 11005 bound_to 11000
  145.5771  139.1486  143.3256 LP  0  0  0  0  0  0  0  0  0  0  0  0  # atno 17320 bound_to 7965
  146.2175  140.5902  142.9032 LP  0  0  0  0  0  0  0  0  0  0  0  0  # atno 17321 bound_to 7965
  139.4914  144.4301  151.9882 LP  0  0  0  0  0  0  0  0  0  0  0  0  # atno 17342 bound_to 10162
  140.3396  144.3219  150.5970 LP  0  0  0  0  0  0  0  0  0  0  0  0  # atno 17343 bound_to 10162
  156.5103  130.4138  149.6304 LP  0  0  0  0  0  0  0  0  0  0  0  0  # atno 17370 bound_to 10713
  156.3246  130.7299  151.2217 LP  0  0  0  0  0  0  0  0  0  0  0  0  # atno 17371 bound_to 10713
  141.2156  133.7549  156.9538 LP  0  0  0  0  0  0  0  0  0  0  0  0  # atno 17394 bound_to 11000
  140.1248  134.9394  157.2254 LP  0  0  0  0  0  0  0  0  0  0  0  0  # atno 17395 bound_to 11000

$$$$
