AV-unprocessed.smi:2003|AV-procd|sdf|8119|dock1
  -GOLD-   2272010353D 1   1.00000     0.00000
 Structure written by MMmdl.
 44 45  0  0  0  0  0  0  0  0  2 V2000
  145.7860  129.6174  151.8828 C   0  0  0  0  0  0  0  0  0  0  0  0
  146.4664  130.9166  152.1990 C   0  0  0  0  0  0  0  0  0  0  0  0
  146.0523  132.2337  151.8449 C   0  0  0  0  0  0  0  0  0  0  0  0
  147.0367  133.0145  152.3863 C   0  0  0  0  0  0  0  0  0  0  0  0
  147.1698  134.3672  152.3556 N   0  0  0  0  0  0  0  0  0  0  0  0
  146.2915  135.3065  152.7472 C   0  0  0  0  0  0  0  0  0  0  0  0
  145.1875  135.0893  153.2457 O   0  0  0  0  0  0  0  0  0  0  0  0
  146.7705  136.5384  152.5228 N   0  0  0  0  0  0  0  0  0  0  0  0
  146.0768  137.7885  152.8306 C   0  0  0  0  0  0  0  0  0  0  0  0
  147.0345  138.9933  153.0369 C   0  0  2  0  0  0  0  0  0  0  0  0
  148.2732  138.5491  153.8452 C   0  0  0  0  0  0  0  0  0  0  0  0
  146.3440  140.1796  153.6403 N   0  3  0  0  0  0  0  0  0  0  0  0
  145.9260  139.9938  155.0570 C   0  0  0  0  0  0  0  0  0  0  0  0
  145.2053  141.2432  155.5918 C   0  0  0  0  0  0  0  0  0  0  0  0
  146.0444  142.3801  155.4552 O   0  0  0  0  0  0  0  0  0  0  0  0
  146.3578  142.6340  154.0942 C   0  0  0  0  0  0  0  0  0  0  0  0
  147.1285  141.4381  153.5119 C   0  0  0  0  0  0  0  0  0  0  0  0
  147.9571  132.2019  153.0095 N   0  0  0  0  0  0  0  0  0  0  0  0
  149.1710  132.5582  153.7179 C   0  0  0  0  0  0  0  0  0  0  0  0
  147.6010  130.9049  152.8897 N   0  0  0  0  0  0  0  0  0  0  0  0
  144.8417  129.7830  151.3634 H   0  0  0  0  0  0  0  0  0  0  0  0
  145.5696  129.0551  152.7915 H   0  0  0  0  0  0  0  0  0  0  0  0
  146.4109  128.9931  151.2437 H   0  0  0  0  0  0  0  0  0  0  0  0
  145.1776  132.5309  151.2864 H   0  0  0  0  0  0  0  0  0  0  0  0
  148.0457  134.7024  151.9829 H   0  0  0  0  0  0  0  0  0  0  0  0
  147.6945  136.6194  152.1244 H   0  0  0  0  0  0  0  0  0  0  0  0
  145.3330  138.0131  152.0641 H   0  0  0  0  0  0  0  0  0  0  0  0
  145.4945  137.6198  153.7363 H   0  0  0  0  0  0  0  0  0  0  0  0
  147.3982  139.2902  152.0517 H   0  0  0  0  0  0  0  0  0  0  0  0
  148.6742  137.6086  153.4660 H   0  0  0  0  0  0  0  0  0  0  0  0
  148.0368  138.4047  154.8997 H   0  0  0  0  0  0  0  0  0  0  0  0
  149.0848  139.2733  153.7775 H   0  0  0  0  0  0  0  0  0  0  0  0
  145.2399  139.1537  155.1553 H   0  0  0  0  0  0  0  0  0  0  0  0
  146.8008  139.7734  155.6708 H   0  0  0  0  0  0  0  0  0  0  0  0
  144.2632  141.4049  155.0653 H   0  0  0  0  0  0  0  0  0  0  0  0
  144.9603  141.1115  156.6459 H   0  0  0  0  0  0  0  0  0  0  0  0
  145.4469  142.8270  153.5248 H   0  0  0  0  0  0  0  0  0  0  0  0
  146.9664  143.5365  154.0361 H   0  0  0  0  0  0  0  0  0  0  0  0
  148.0845  141.3266  154.0261 H   0  0  0  0  0  0  0  0  0  0  0  0
  147.3513  141.6550  152.4683 H   0  0  0  0  0  0  0  0  0  0  0  0
  148.9535  133.3320  154.4546 H   0  0  0  0  0  0  0  0  0  0  0  0
  149.9088  132.9363  153.0100 H   0  0  0  0  0  0  0  0  0  0  0  0
  149.5846  131.6898  154.2326 H   0  0  0  0  0  0  0  0  0  0  0  0
  145.4939  140.3113  153.1112 H   0  0  0  0  0  0  0  0  0  0  0  0
  1  2  1  0  0  0  0
  1 21  1  0  0  0  0
  1 22  1  0  0  0  0
  1 23  1  0  0  0  0
  2 20  2  0  0  0  0
  2  3  1  0  0  0  0
  3  4  2  0  0  0  0
  3 24  1  0  0  0  0
  4  5  1  0  0  0  0
  4 18  1  0  0  0  0
  5  6  1  0  0  0  0
  5 25  1  0  0  0  0
  6  7  2  0  0  0  0
  6  8  1  0  0  0  0
  8  9  1  0  0  0  0
  8 26  1  0  0  0  0
  9 10  1  0  0  0  0
  9 27  1  0  0  0  0
  9 28  1  0  0  0  0
 10 11  1  0  0  0  0
 10 12  1  0  0  0  0
 10 29  1  0  0  0  0
 11 30  1  0  0  0  0
 11 31  1  0  0  0  0
 11 32  1  0  0  0  0
 12 17  1  0  0  0  0
 12 13  1  0  0  0  0
 12 44  1  0  0  0  0
 13 14  1  0  0  0  0
 13 33  1  0  0  0  0
 13 34  1  0  0  0  0
 14 15  1  0  0  0  0
 14 35  1  0  0  0  0
 14 36  1  0  0  0  0
 15 16  1  0  0  0  0
 16 17  1  0  0  0  0
 16 37  1  0  0  0  0
 16 38  1  0  0  0  0
 17 39  1  0  0  0  0
 17 40  1  0  0  0  0
 18 19  1  0  0  0  0
 18 20  1  0  0  0  0
 19 41  1  0  0  0  0
 19 42  1  0  0  0  0
 19 43  1  0  0  0  0
M  CHG  1  12   1
M  END
> <s_m_source_file>
AV-unprocessed.smi

> <i_m_source_file_index>
2003

> <i_lp_mmshare_version>
43012

> <i_f3d_flags>
0

> <s_epik_input>
W0NIM11jMVtjSF1jKG4objEpW0NIM10pW05IXUMoPU8pW05IXVtDSDJdW0NASF0oW0NIM10pTjJbQ0gyXVtDSDJdT1tDSDJdW0NIMl0y

> <s_epik_cmdline>
J2VwaWtfcHl0aG9uJywgJy1waCcsICc3LjAnLCAnLXRuJywgJzgnLCAnLW1hJywgJzIwMCcsICctbWV0YWxfYmluZGluZycsICctaW1hZScsICc8aW5maWxlLm1hZT4nLCAnLW9tYWUnLCAnPG91dGZpbGUubWFlPic=

> <r_lp_tautomer_probability>
1

> <r_epik_Ionization_Penalty>
0.663903

> <r_epik_Ionization_Penalty_Charging>
0.663826

> <r_epik_Ionization_Penalty_Neutral>
7.78239e-05

> <r_epik_State_Penalty>
0.683414

> <r_epik_Charging_Adjusted_Penalty>
1.34724

> <i_epik_Tot_Q>
1

> <i_epik_Tot_abs_Q>
1

> <r_epik_Metal_State_Penalty>
0.683419

> <b_epik_Metal_Only>
0

> <s_lp_Force_Field>
OPLS_2005

> <r_lp_Energy>
28.7948

> <b_lp_Chiralities_Consistent>
1

> <s_lp_Variant>
AV-unprocessed.smi:2003-3

> <Gold.Version>
5.8.1

> <Gold.Id.Protein>
6NUR|6NUR_protein|mol2

> <Gold.PLP.Fitness>
41.5178

> <Gold.PLP.PLP>
-31.3410

> <Gold.PLP.part.hbond>
-2.9177

> <Gold.PLP.part.metal>
0.0000

> <Gold.PLP.part.buried>
-4.4759

> <Gold.PLP.part.nonpolar>
-25.6733

> <Gold.PLP.part.repulsive>
0.7635

> <Gold.PLP.ligand.clash>
0.0000

> <Gold.PLP.ligand.torsion>
0.9040

> <Gold.PLP.Chemscore.Hbond>
3.9760

> <Gold.PLP.Chemscore.CHOScore>
0.0000

> <Gold.PLP.Chemscore.Metal>
0.0000

> <Gold.Chemscore.Hbonds>
donor molecule, donor type, donor heavy atom, donor atom, acceptor molecule, acceptor atom, score
      L1  H     5    25       P1  7948  0.78
      L1  H     8    26       P1  7948  0.50
      L1  H    12    44       P1 10175  2.00

> <Gold.PLP.Chemscore.Internal.Correction>
0.0569

> <Gold.Rescore>
     Score         DG    S(hbond)    S(metal)    S(lipo)     H(rot)  DE(clash)    DE(int)     intcor
     16.88     -17.78       2.78        0.00      59.39       1.54       0.00       0.90       ----

> <Gold.Chemscore.Fitness>
16.8765

> <Gold.Chemscore.DG>
-17.7840

> <Gold.Chemscore.ZeroCoef>
-5.4800

> <Gold.Chemscore.Hbond>
2.7836

> <Gold.Chemscore.Metal>
0.0000

> <Gold.Chemscore.Lipo>
59.3906

> <Gold.Chemscore.Internal_Hbond>
0.0000

> <Gold.Chemscore.DEClash>
0.0030

> <Gold.Chemscore.DEInternal>
0.9044

> <Gold.Chemscore.Rot>
1.5398

> <Gold.Chemscore.Internal.Correction>
   9.000000E+99

> <Gold.Chemscore.Hbonds>
donor molecule, donor type, donor heavy atom, donor atom, acceptor molecule, acceptor atom, score
      L1  H     5    25       P1  7948  0.18
      L1  H     8    26       P1  7948  0.49
      L1  H    12    44       P1 10175  0.97

> <Gold.Chemscore.Hbond.Weighted>
-9.2972

> <Gold.Chemscore.Metal.Weighted>
-0.0000

> <Gold.Chemscore.Lipo.Weighted>
-6.9487

> <Gold.Chemscore.Internal_Hbond.Weighted>
0.0000

> <Gold.Chemscore.DEClash.Weighted>
0.0030

> <Gold.Chemscore.DEInternal.Weighted>
0.9044

> <Gold.Chemscore.Rot.Weighted>
3.9420

> <Gold.Chemscore.Internal.Correction.Weighted>
   9.000000E+99

> <Gold.Protein.RotatedTorsions>
[ 6907 6896 6895 6894 ] final   30.34 input  -60.11 | X-H torsion
[ 7974 7965 7964 7962 ] final  164.47 input  175.53 | X-H torsion
[ 8008 7997 7996 7995 ] final  -39.88 input   59.86 | X-H torsion
[ 10167 10162 10161 10158 ] final  -69.59 input  -65.29 | X-H torsion
[ 10718 10713 10712 10709 ] final -142.49 input   66.30 | X-H torsion
[ 10763 10752 10751 10750 ] final -172.82 input  -60.55 | X-H torsion
[ 11005 11000 10999 10996 ] final  -87.44 input  -57.11 | X-H torsion

> <Gold.Protein.ActiveResidues>
 VAL166  LYS551  ARG553  GLY616  TRP617  ASP618  TYR619  PRO620  LYS621  CYS622 
 ASP623  PHE694  ASN695  SER759  ASP760  ASP761  ALA762  ILE779  LEU786  VAL792 
 PHE793  MET794  SER795  GLU796  ALA797  LYS798  CYS799  TRP800  GLU811  SER814 

> <Gold.Protein.RotatedAtoms>
  152.0446  134.9691  160.0574 H   0  0  0  0  0  0  0  0  0  0  0  0  # atno 6907 bound_to 6896
  152.1116  133.4299  159.4642 H   0  0  0  0  0  0  0  0  0  0  0  0  # atno 6908 bound_to 6896
  150.6844  134.2560  159.4573 H   0  0  0  0  0  0  0  0  0  0  0  0  # atno 6909 bound_to 6896
  144.7544  139.8330  143.6355 H   0  0  0  0  0  0  0  0  0  0  0  0  # atno 7974 bound_to 7965
  154.4018  140.1540  156.2935 H   0  0  0  0  0  0  0  0  0  0  0  0  # atno 8008 bound_to 7997
  155.8764  140.3446  155.5835 H   0  0  0  0  0  0  0  0  0  0  0  0  # atno 8009 bound_to 7997
  155.7717  140.0831  157.2095 H   0  0  0  0  0  0  0  0  0  0  0  0  # atno 8010 bound_to 7997
  140.5419  143.2314  151.7074 H   0  0  0  0  0  0  0  0  0  0  0  0  # atno 10167 bound_to 10162
  156.3465  130.7665  151.1811 H   0  0  0  0  0  0  0  0  0  0  0  0  # atno 10718 bound_to 10713
  154.6149  135.2868  155.0391 H   0  0  0  0  0  0  0  0  0  0  0  0  # atno 10763 bound_to 10752
  154.1607  135.6488  153.4989 H   0  0  0  0  0  0  0  0  0  0  0  0  # atno 10764 bound_to 10752
  153.0210  135.5377  154.6916 H   0  0  0  0  0  0  0  0  0  0  0  0  # atno 10765 bound_to 10752
  141.1617  133.7512  156.9307 H   0  0  0  0  0  0  0  0  0  0  0  0  # atno 11005 bound_to 11000
  146.1535  139.4626  143.0033 LP  0  0  0  0  0  0  0  0  0  0  0  0  # atno 17320 bound_to 7965
  145.6831  141.0185  143.1595 LP  0  0  0  0  0  0  0  0  0  0  0  0  # atno 17321 bound_to 7965
  139.4992  144.3956  152.0235 LP  0  0  0  0  0  0  0  0  0  0  0  0  # atno 17342 bound_to 10162
  140.3065  144.3586  150.6045 LP  0  0  0  0  0  0  0  0  0  0  0  0  # atno 17343 bound_to 10162
  157.7455  131.0439  150.4769 LP  0  0  0  0  0  0  0  0  0  0  0  0  # atno 17370 bound_to 10713
  156.4957  130.4105  149.6381 LP  0  0  0  0  0  0  0  0  0  0  0  0  # atno 17371 bound_to 10713
  140.1388  134.9307  157.2438 LP  0  0  0  0  0  0  0  0  0  0  0  0  # atno 17394 bound_to 11000
  140.2862  134.3293  155.7328 LP  0  0  0  0  0  0  0  0  0  0  0  0  # atno 17395 bound_to 11000

$$$$
