AV-unprocessed.smi:2667|AV-procd|sdf|10337|dock3
  -GOLD-   2272014363D 1   1.00000     0.00000
 Structure written by MMmdl.
 45 47  0  0  0  0  0  0  0  0  2 V2000
  152.8584  141.7423  158.9516 C   0  0  0  0  0  0  0  0  0  0  0  0
  152.1615  140.9000  157.8714 C   0  0  0  0  0  0  0  0  0  0  0  0
  151.0827  141.6614  157.0856 C   0  0  0  0  0  0  0  0  0  0  0  0
  150.9202  142.8670  157.2802 O   0  0  0  0  0  0  0  0  0  0  0  0
  150.2693  140.8827  156.1069 C   0  0  0  0  0  0  0  0  0  0  0  0
  150.2177  139.4693  156.1324 C   0  0  0  0  0  0  0  0  0  0  0  0
  149.4374  138.7664  155.1947 C   0  0  0  0  0  0  0  0  0  0  0  0
  148.6920  139.4505  154.2150 C   0  0  0  0  0  0  0  0  0  0  0  0
  147.9530  138.6813  153.3438 O   0  0  0  0  0  0  0  0  0  0  0  0
  146.7564  139.2258  152.8042 C   0  0  0  0  0  0  0  0  0  0  0  0
  145.9763  138.1634  152.0051 C   0  0  1  0  0  0  0  0  0  0  0  0
  146.4971  138.0966  150.6939 O   0  0  0  0  0  0  0  0  0  0  0  0
  145.8448  136.7656  152.6600 C   0  0  0  0  0  0  0  0  0  0  0  0
  145.0543  135.7836  151.9003 N   0  0  0  0  0  0  0  0  0  0  0  0
  143.9418  135.9674  151.1366 C   0  0  0  0  0  0  0  0  0  0  0  0
  143.5770  134.7540  150.6387 N   0  3  0  0  0  0  0  0  0  0  0  0
  144.4802  133.7820  151.0730 C   0  0  0  0  0  0  0  0  0  0  0  0
  144.5327  132.4134  150.8264 C   0  0  0  0  0  0  0  0  0  0  0  0
  145.5974  131.7034  151.4192 C   0  0  0  0  0  0  0  0  0  0  0  0
  146.5587  132.3547  152.2188 C   0  0  0  0  0  0  0  0  0  0  0  0
  146.4958  133.7427  152.4616 C   0  0  0  0  0  0  0  0  0  0  0  0
  145.4372  134.4373  151.8774 C   0  0  0  0  0  0  0  0  0  0  0  0
  148.7444  140.8650  154.1848 C   0  0  0  0  0  0  0  0  0  0  0  0
  149.5244  141.5697  155.1218 C   0  0  0  0  0  0  0  0  0  0  0  0
  153.6063  141.1483  159.4769 H   0  0  0  0  0  0  0  0  0  0  0  0
  152.1471  142.1065  159.6941 H   0  0  0  0  0  0  0  0  0  0  0  0
  153.3676  142.6039  158.5181 H   0  0  0  0  0  0  0  0  0  0  0  0
  152.9080  140.5297  157.1683 H   0  0  0  0  0  0  0  0  0  0  0  0
  151.7014  140.0289  158.3383 H   0  0  0  0  0  0  0  0  0  0  0  0
  150.7695  138.8986  156.8641 H   0  0  0  0  0  0  0  0  0  0  0  0
  149.4093  137.6870  155.2286 H   0  0  0  0  0  0  0  0  0  0  0  0
  146.1213  139.5845  153.6158 H   0  0  0  0  0  0  0  0  0  0  0  0
  146.9867  140.0785  152.1631 H   0  0  0  0  0  0  0  0  0  0  0  0
  144.9624  138.5473  151.8872 H   0  0  0  0  0  0  0  0  0  0  0  0
  145.8085  138.3164  150.0856 H   0  0  0  0  0  0  0  0  0  0  0  0
  146.8391  136.3361  152.7894 H   0  0  0  0  0  0  0  0  0  0  0  0
  145.4233  136.8473  153.6626 H   0  0  0  0  0  0  0  0  0  0  0  0
  143.4303  136.9045  150.9714 H   0  0  0  0  0  0  0  0  0  0  0  0
  143.7993  131.9124  150.2117 H   0  0  0  0  0  0  0  0  0  0  0  0
  145.6792  130.6383  151.2562 H   0  0  0  0  0  0  0  0  0  0  0  0
  147.3609  131.7779  152.6561 H   0  0  0  0  0  0  0  0  0  0  0  0
  147.2373  134.2307  153.0758 H   0  0  0  0  0  0  0  0  0  0  0  0
  148.1955  141.4353  153.4511 H   0  0  0  0  0  0  0  0  0  0  0  0
  149.5423  142.6489  155.0724 H   0  0  0  0  0  0  0  0  0  0  0  0
  142.7723  134.6044  150.0435 H   0  0  0  0  0  0  0  0  0  0  0  0
  1  2  1  0  0  0  0
  1 25  1  0  0  0  0
  1 26  1  0  0  0  0
  1 27  1  0  0  0  0
  2  3  1  0  0  0  0
  2 28  1  0  0  0  0
  2 29  1  0  0  0  0
  3  4  2  0  0  0  0
  3  5  1  0  0  0  0
  5 24  1  0  0  0  0
  5  6  2  0  0  0  0
  6  7  1  0  0  0  0
  6 30  1  0  0  0  0
  7  8  2  0  0  0  0
  7 31  1  0  0  0  0
  8  9  1  0  0  0  0
  8 23  1  0  0  0  0
  9 10  1  0  0  0  0
 10 11  1  0  0  0  0
 10 32  1  0  0  0  0
 10 33  1  0  0  0  0
 11 12  1  0  0  0  0
 11 13  1  0  0  0  0
 11 34  1  0  0  0  0
 12 35  1  0  0  0  0
 13 14  1  0  0  0  0
 13 36  1  0  0  0  0
 13 37  1  0  0  0  0
 14 22  1  0  0  0  0
 14 15  1  0  0  0  0
 15 16  2  0  0  0  0
 15 38  1  0  0  0  0
 16 17  1  0  0  0  0
 16 45  1  0  0  0  0
 17 22  2  0  0  0  0
 17 18  1  0  0  0  0
 18 19  2  0  0  0  0
 18 39  1  0  0  0  0
 19 20  1  0  0  0  0
 19 40  1  0  0  0  0
 20 21  2  0  0  0  0
 20 41  1  0  0  0  0
 21 22  1  0  0  0  0
 21 42  1  0  0  0  0
 23 24  2  0  0  0  0
 23 43  1  0  0  0  0
 24 44  1  0  0  0  0
M  CHG  1  16   1
M  END
> <s_m_source_file>
AV-unprocessed.smi

> <i_m_source_file_index>
2667

> <i_lp_mmshare_version>
43012

> <i_f3d_flags>
0

> <s_epik_input>
W0NIM11bQ0gyXUMoPU8pYzFbY0hdW2NIXWMoW2NIXVtjSF0xKU9bQ0gyXVtDQEhdKFtPSF0pW0NIMl1uKFtjSF1uMiljKGMyMylbY0hdW2NIXVtjSF1bY0hdMw==

> <s_epik_cmdline>
J2VwaWtfcHl0aG9uJywgJy1waCcsICc3LjAnLCAnLXRuJywgJzgnLCAnLW1hJywgJzIwMCcsICctbWV0YWxfYmluZGluZycsICctaW1hZScsICc8aW5maWxlLm1hZT4nLCAnLW9tYWUnLCAnPG91dGZpbGUubWFlPic=

> <r_lp_tautomer_probability>
0.9999

> <r_epik_Ionization_Penalty>
1.40272

> <r_epik_Ionization_Penalty_Charging>
1.40272

> <r_epik_Ionization_Penalty_Neutral>
2.3993e-06

> <r_epik_State_Penalty>
1.48501

> <r_epik_Charging_Adjusted_Penalty>
2.88772

> <i_epik_Tot_Q>
1

> <i_epik_Tot_abs_Q>
1

> <r_epik_Metal_State_Penalty>
5.5274

> <b_epik_Metal_Only>
0

> <s_lp_Force_Field>
OPLS_2005

> <r_lp_Energy>
30.2485

> <b_lp_Chiralities_Consistent>
1

> <s_lp_Variant>
AV-unprocessed.smi:2667-4

> <Gold.Version>
5.8.1

> <Gold.Id.Protein>
6NUR|6NUR_protein|mol2

> <Gold.PLP.Fitness>
55.4952

> <Gold.PLP.PLP>
-42.6006

> <Gold.PLP.part.hbond>
-3.6158

> <Gold.PLP.part.metal>
0.0000

> <Gold.PLP.part.buried>
-4.5182

> <Gold.PLP.part.nonpolar>
-37.7551

> <Gold.PLP.part.repulsive>
1.7563

> <Gold.PLP.ligand.clash>
0.0000

> <Gold.PLP.ligand.torsion>
1.0686

> <Gold.PLP.Chemscore.Hbond>
3.9199

> <Gold.PLP.Chemscore.CHOScore>
1.0000

> <Gold.PLP.Chemscore.Metal>
0.0000

> <Gold.Chemscore.Hbonds>
donor molecule, donor type, donor heavy atom, donor atom, acceptor molecule, acceptor atom, score
      L1  H    12    35       P1 10171  0.96
      L1  H    16    45       P1 10186  2.00
      P1  H  7954  7966       L1    12  1.00
      L1  C    15    38       P1 10171  1.00

> <Gold.PLP.Chemscore.Internal.Correction>
0.2720

> <Gold.Rescore>
     Score         DG    S(hbond)    S(metal)    S(lipo)     H(rot)  DE(clash)    DE(int)     intcor
     18.57     -20.13       2.54        0.00     109.25       2.59       0.39       1.17       ----

> <Gold.Chemscore.Fitness>
18.5699

> <Gold.Chemscore.DG>
-20.1260

> <Gold.Chemscore.ZeroCoef>
-5.4800

> <Gold.Chemscore.Hbond>
2.5411

> <Gold.Chemscore.Metal>
0.0000

> <Gold.Chemscore.Lipo>
109.2487

> <Gold.Chemscore.Internal_Hbond>
0.0000

> <Gold.Chemscore.DEClash>
0.3853

> <Gold.Chemscore.DEInternal>
1.1708

> <Gold.Chemscore.Rot>
2.5873

> <Gold.Chemscore.Internal.Correction>
   9.000000E+99

> <Gold.Chemscore.Hbonds>
donor molecule, donor type, donor heavy atom, donor atom, acceptor molecule, acceptor atom, score
      L1  H    12    35       P1 10171  0.91
      L1  H    16    45       P1 10186  0.70
      P1  H  7954  7966       L1    12  0.81

> <Gold.Chemscore.Hbond.Weighted>
-8.4874

> <Gold.Chemscore.Metal.Weighted>
-0.0000

> <Gold.Chemscore.Lipo.Weighted>
-12.7821

> <Gold.Chemscore.Internal_Hbond.Weighted>
0.0000

> <Gold.Chemscore.DEClash.Weighted>
0.3853

> <Gold.Chemscore.DEInternal.Weighted>
1.1708

> <Gold.Chemscore.Rot.Weighted>
6.6235

> <Gold.Chemscore.Internal.Correction.Weighted>
   9.000000E+99

> <Gold.Protein.RotatedTorsions>
[ 6907 6896 6895 6894 ] final  150.14 input  -60.11 | X-H torsion
[ 7974 7965 7964 7962 ] final   64.22 input  175.53 | X-H torsion
[ 8008 7997 7996 7995 ] final  -16.69 input   59.86 | X-H torsion
[ 10167 10162 10161 10158 ] final  157.90 input  -65.29 | X-H torsion
[ 10718 10713 10712 10709 ] final  -32.04 input   66.30 | X-H torsion
[ 10763 10752 10751 10750 ] final   23.45 input  -60.55 | X-H torsion
[ 11005 11000 10999 10996 ] final  -27.36 input  -57.11 | X-H torsion

> <Gold.Protein.ActiveResidues>
 VAL166  LYS551  ARG553  GLY616  TRP617  ASP618  TYR619  PRO620  LYS621  CYS622 
 ASP623  PHE694  ASN695  SER759  ASP760  ASP761  ALA762  ILE779  LEU786  VAL792 
 PHE793  MET794  SER795  GLU796  ALA797  LYS798  CYS799  TRP800  GLU811  SER814 

> <Gold.Protein.RotatedAtoms>
  152.1184  133.4340  159.4663 H   0  0  0  0  0  0  0  0  0  0  0  0  # atno 6907 bound_to 6896
  150.6870  134.2564  159.4540 H   0  0  0  0  0  0  0  0  0  0  0  0  # atno 6908 bound_to 6896
  152.0438  134.9695  160.0625 H   0  0  0  0  0  0  0  0  0  0  0  0  # atno 6909 bound_to 6896
  145.8527  139.3264  143.0865 H   0  0  0  0  0  0  0  0  0  0  0  0  # atno 7974 bound_to 7965
  154.5034  140.2163  155.9300 H   0  0  0  0  0  0  0  0  0  0  0  0  # atno 8008 bound_to 7997
  156.1463  140.3170  155.8543 H   0  0  0  0  0  0  0  0  0  0  0  0  # atno 8009 bound_to 7997
  155.4024  140.0485  157.3027 H   0  0  0  0  0  0  0  0  0  0  0  0  # atno 8010 bound_to 7997
  139.4824  144.4875  151.8356 H   0  0  0  0  0  0  0  0  0  0  0  0  # atno 10167 bound_to 10162
  156.3798  130.4354  149.7478 H   0  0  0  0  0  0  0  0  0  0  0  0  # atno 10718 bound_to 10713
  153.0837  135.6626  153.9992 H   0  0  0  0  0  0  0  0  0  0  0  0  # atno 10763 bound_to 10752
  153.9607  135.2974  155.3435 H   0  0  0  0  0  0  0  0  0  0  0  0  # atno 10764 bound_to 10752
  154.7241  135.5152  153.8931 H   0  0  0  0  0  0  0  0  0  0  0  0  # atno 10765 bound_to 10752
  140.9112  133.7459  156.0673 H   0  0  0  0  0  0  0  0  0  0  0  0  # atno 11005 bound_to 11000
  145.9339  140.9029  143.0342 LP  0  0  0  0  0  0  0  0  0  0  0  0  # atno 17320 bound_to 7965
  144.6728  140.1455  143.7434 LP  0  0  0  0  0  0  0  0  0  0  0  0  # atno 17321 bound_to 7965
  140.4356  144.2056  150.5889 LP  0  0  0  0  0  0  0  0  0  0  0  0  # atno 17342 bound_to 10162
  140.4735  143.2404  151.9055 LP  0  0  0  0  0  0  0  0  0  0  0  0  # atno 17343 bound_to 10162
  156.4572  130.7935  151.2955 LP  0  0  0  0  0  0  0  0  0  0  0  0  # atno 17370 bound_to 10713
  157.7491  131.0077  150.3199 LP  0  0  0  0  0  0  0  0  0  0  0  0  # atno 17371 bound_to 10713
  140.8107  134.3402  157.5412 LP  0  0  0  0  0  0  0  0  0  0  0  0  # atno 17394 bound_to 11000
  139.8758  134.9252  156.3370 LP  0  0  0  0  0  0  0  0  0  0  0  0  # atno 17395 bound_to 11000

$$$$
