AV-unprocessed.smi:101|AV-procd|sdf|939|dock8
  -GOLD-   2262017463D 1   1.00000     0.00000
 Structure written by MMmdl.
 43 45  0  0  0  0  0  0  0  0  2 V2000
  141.7747  141.4209  156.2217 C   0  0  0  0  0  0  0  0  0  0  0  0
  143.2616  141.5584  156.4976 C   0  0  0  0  0  0  0  0  0  0  0  0
  144.1985  141.0127  155.6907 C   0  0  0  0  0  0  0  0  0  0  0  0
  145.5520  141.1432  155.9474 N   0  0  0  0  0  0  0  0  0  0  0  0
  146.5786  140.5163  155.0288 C   0  0  2  0  0  0  0  0  0  0  0  0
  147.5180  139.8389  155.8006 O   0  0  0  0  0  0  0  0  0  0  0  0
  148.7410  139.8082  155.0872 C   0  0  2  0  0  0  0  0  0  0  0  0
  149.8902  139.5242  156.0620 C   0  0  0  0  0  0  0  0  0  0  0  0
  150.2425  140.7166  156.7443 O   0  0  0  0  0  0  0  0  0  0  0  0
  151.1609  140.6828  157.7291 C   0  0  0  0  0  0  0  0  0  0  0  0
  151.6093  139.6389  158.2078 O   0  0  0  0  0  0  0  0  0  0  0  0
  151.5825  142.0413  158.1780 C   0  0  0  0  0  0  0  0  0  0  0  0
  152.3183  142.1765  159.3785 C   0  0  0  0  0  0  0  0  0  0  0  0
  152.7337  143.4454  159.8267 C   0  0  0  0  0  0  0  0  0  0  0  0
  152.4175  144.5953  159.0802 C   0  0  0  0  0  0  0  0  0  0  0  0
  151.6847  144.4746  157.8850 C   0  0  0  0  0  0  0  0  0  0  0  0
  151.2685  143.2063  157.4350 C   0  0  0  0  0  0  0  0  0  0  0  0
  148.8080  141.1842  154.4133 C   0  0  1  0  0  0  0  0  0  0  0  0
  149.5152  141.0934  153.1918 O   0  0  0  0  0  0  0  0  0  0  0  0
  147.3434  141.5435  154.1626 C   0  0  2  0  0  0  0  0  0  0  0  0
  147.0989  142.8943  154.5117 O   0  0  0  0  0  0  0  0  0  0  0  0
  145.9852  141.8390  157.1048 C   0  0  0  0  0  0  0  0  0  0  0  0
  147.1951  141.8948  157.3259 O   0  0  0  0  0  0  0  0  0  0  0  0
  145.0480  142.3997  157.9211 N   0  5  0  0  0  0  0  0  0  0  0  0
  143.7081  142.3046  157.6808 C   0  0  0  0  0  0  0  0  0  0  0  0
  142.8729  142.8199  158.4231 O   0  0  0  0  0  0  0  0  0  0  0  0
  141.5914  140.8419  155.3163 H   0  0  0  0  0  0  0  0  0  0  0  0
  141.3201  142.4036  156.0917 H   0  0  0  0  0  0  0  0  0  0  0  0
  141.2777  140.9176  157.0514 H   0  0  0  0  0  0  0  0  0  0  0  0
  143.8758  140.4535  154.8250 H   0  0  0  0  0  0  0  0  0  0  0  0
  146.0492  139.7711  154.4322 H   0  0  0  0  0  0  0  0  0  0  0  0
  148.6629  139.0127  154.3431 H   0  0  0  0  0  0  0  0  0  0  0  0
  149.6037  138.7444  156.7693 H   0  0  0  0  0  0  0  0  0  0  0  0
  150.7604  139.1629  155.5127 H   0  0  0  0  0  0  0  0  0  0  0  0
  152.5734  141.3079  159.9685 H   0  0  0  0  0  0  0  0  0  0  0  0
  153.2959  143.5356  160.7447 H   0  0  0  0  0  0  0  0  0  0  0  0
  152.7366  145.5684  159.4239 H   0  0  0  0  0  0  0  0  0  0  0  0
  151.4410  145.3566  157.3115 H   0  0  0  0  0  0  0  0  0  0  0  0
  150.7067  143.1491  156.5141 H   0  0  0  0  0  0  0  0  0  0  0  0
  149.2828  141.9094  155.0765 H   0  0  0  0  0  0  0  0  0  0  0  0
  149.1109  140.4244  152.6609 H   0  0  0  0  0  0  0  0  0  0  0  0
  147.0502  141.3846  153.1239 H   0  0  0  0  0  0  0  0  0  0  0  0
  147.9047  143.2660  154.8382 H   0  0  0  0  0  0  0  0  0  0  0  0
  1  2  1  0  0  0  0
  1 27  1  0  0  0  0
  1 28  1  0  0  0  0
  1 29  1  0  0  0  0
  2 25  1  0  0  0  0
  2  3  2  0  0  0  0
  3  4  1  0  0  0  0
  3 30  1  0  0  0  0
  4  5  1  0  0  0  0
  4 22  1  0  0  0  0
  5 20  1  0  0  0  0
  5  6  1  0  0  0  0
  5 31  1  0  0  0  0
  6  7  1  0  0  0  0
  7  8  1  0  0  0  0
  7 18  1  0  0  0  0
  7 32  1  0  0  0  0
  8  9  1  0  0  0  0
  8 33  1  0  0  0  0
  8 34  1  0  0  0  0
  9 10  1  0  0  0  0
 10 11  2  0  0  0  0
 10 12  1  0  0  0  0
 12 17  1  0  0  0  0
 12 13  2  0  0  0  0
 13 14  1  0  0  0  0
 13 35  1  0  0  0  0
 14 15  2  0  0  0  0
 14 36  1  0  0  0  0
 15 16  1  0  0  0  0
 15 37  1  0  0  0  0
 16 17  2  0  0  0  0
 16 38  1  0  0  0  0
 17 39  1  0  0  0  0
 18 19  1  0  0  0  0
 18 20  1  0  0  0  0
 18 40  1  0  0  0  0
 19 41  1  0  0  0  0
 20 21  1  0  0  0  0
 20 42  1  0  0  0  0
 21 43  1  0  0  0  0
 22 23  2  0  0  0  0
 22 24  1  0  0  0  0
 24 25  1  0  0  0  0
 25 26  2  0  0  0  0
M  CHG  1  24  -1
M  END
> <s_m_source_file>
AV-unprocessed.smi

> <i_m_source_file_index>
101

> <i_lp_mmshare_version>
43012

> <i_f3d_flags>
0

> <s_epik_input>
Tz1jMVtuSF1jKD1PKW4oW2NIXWMxW0NIM10pW0NAQEhdMk9bQ0BIXShbQ0BASF0oW09IXSlbQ0BIXTJbT0hdKVtDSDJdT0MoPU8pYzNbY0hdW2NIXVtjSF1bY0hdW2NIXTM=

> <s_epik_cmdline>
J2VwaWtfcHl0aG9uJywgJy1waCcsICc3LjAnLCAnLXRuJywgJzgnLCAnLW1hJywgJzIwMCcsICctbWV0YWxfYmluZGluZycsICctaW1hZScsICc8aW5maWxlLm1hZT4nLCAnLW9tYWUnLCAnPG91dGZpbGUubWFlPic=

> <r_lp_tautomer_probability>
0.999537

> <r_epik_Ionization_Penalty>
3.21006

> <r_epik_Ionization_Penalty_Charging>
5.75142e-08

> <r_epik_Ionization_Penalty_Neutral>
3.21006

> <r_epik_State_Penalty>
3.20925

> <r_epik_Charging_Adjusted_Penalty>
3.20925

> <i_epik_Tot_Q>
-1

> <i_epik_Tot_abs_Q>
1

> <r_epik_Metal_State_Penalty>
0.119957

> <b_epik_Metal_Only>
1

> <s_epik_Chemistry_Notes>
This compound has an ester and may undergo hydrolysis at high or low pH. This compound contains an acetal/aminal-like group ( X-CH(R)-Y where X, Y are N, S, or O) that may be acid/base labile, releasing an aldehyde.

> <s_lp_Force_Field>
OPLS_2005

> <r_lp_Energy>
44.2535

> <b_lp_Chiralities_Consistent>
1

> <s_lp_Variant>
AV-unprocessed.smi:101-27

> <Gold.Version>
5.8.1

> <Gold.Id.Protein>
6NUR|6NUR_protein|mol2

> <Gold.PLP.Fitness>
47.4899

> <Gold.PLP.PLP>
-38.1733

> <Gold.PLP.part.hbond>
-3.4148

> <Gold.PLP.part.metal>
0.0000

> <Gold.PLP.part.buried>
-5.3816

> <Gold.PLP.part.nonpolar>
-30.1952

> <Gold.PLP.part.repulsive>
0.1900

> <Gold.PLP.ligand.clash>
0.0000

> <Gold.PLP.ligand.torsion>
0.7111

> <Gold.PLP.Chemscore.Hbond>
2.4960

> <Gold.PLP.Chemscore.CHOScore>
1.0000

> <Gold.PLP.Chemscore.Metal>
0.0000

> <Gold.Chemscore.Hbonds>
donor molecule, donor type, donor heavy atom, donor atom, acceptor molecule, acceptor atom, score
      L1  H    19    41       P1  7957  0.46
      L1  H    21    43       P1  8028  0.99
      P1  H  7989  7998       L1    19  0.09
      P1  H  8011  8017       L1    19  1.00
      L1  C     3    30       P1 10175  1.00

> <Gold.PLP.Chemscore.Internal.Correction>
0.2507

> <Gold.Rescore>
     Score         DG    S(hbond)    S(metal)    S(lipo)     H(rot)  DE(clash)    DE(int)     intcor
     13.12     -15.87       2.19        0.00      97.82       3.27       0.10       2.65       ----

> <Gold.Chemscore.Fitness>
13.1205

> <Gold.Chemscore.DG>
-15.8744

> <Gold.Chemscore.ZeroCoef>
-5.4800

> <Gold.Chemscore.Hbond>
2.1884

> <Gold.Chemscore.Metal>
0.0000

> <Gold.Chemscore.Lipo>
97.8213

> <Gold.Chemscore.Internal_Hbond>
0.0000

> <Gold.Chemscore.DEClash>
0.1042

> <Gold.Chemscore.DEInternal>
2.6497

> <Gold.Chemscore.Rot>
3.2656

> <Gold.Chemscore.Internal.Correction>
   9.000000E+99

> <Gold.Chemscore.Hbonds>
donor molecule, donor type, donor heavy atom, donor atom, acceptor molecule, acceptor atom, score
      L1  H    19    41       P1  7957  0.46
      L1  H    21    43       P1  8028  0.73
      P1  H  7989  7998       L1    19  0.08
      P1  H  8011  8017       L1    19  0.75

> <Gold.Chemscore.Hbond.Weighted>
-7.3091

> <Gold.Chemscore.Metal.Weighted>
-0.0000

> <Gold.Chemscore.Lipo.Weighted>
-11.4451

> <Gold.Chemscore.Internal_Hbond.Weighted>
0.0000

> <Gold.Chemscore.DEClash.Weighted>
0.1042

> <Gold.Chemscore.DEInternal.Weighted>
2.6497

> <Gold.Chemscore.Rot.Weighted>
8.3598

> <Gold.Chemscore.Internal.Correction.Weighted>
   9.000000E+99

> <Gold.Protein.RotatedTorsions>
[ 6907 6896 6895 6894 ] final -113.16 input  -60.11 | X-H torsion
[ 7974 7965 7964 7962 ] final   91.49 input  175.53 | X-H torsion
[ 8008 7997 7996 7995 ] final  164.70 input   59.86 | X-H torsion
[ 10167 10162 10161 10158 ] final  -39.86 input  -65.29 | X-H torsion
[ 10718 10713 10712 10709 ] final  135.56 input   66.30 | X-H torsion
[ 10763 10752 10751 10750 ] final  140.45 input  -60.55 | X-H torsion
[ 11005 11000 10999 10996 ] final    4.45 input  -57.11 | X-H torsion

> <Gold.Protein.ActiveResidues>
 VAL166  LYS551  ARG553  GLY616  TRP617  ASP618  TYR619  PRO620  LYS621  CYS622 
 ASP623  PHE694  ASN695  SER759  ASP760  ASP761  ALA762  ILE779  LEU786  VAL792 
 PHE793  MET794  SER795  GLU796  ALA797  LYS798  CYS799  TRP800  GLU811  SER814 

> <Gold.Protein.RotatedAtoms>
  150.7809  133.8984  159.3333 H   0  0  0  0  0  0  0  0  0  0  0  0  # atno 6907 bound_to 6896
  151.6847  135.0954  160.0232 H   0  0  0  0  0  0  0  0  0  0  0  0  # atno 6908 bound_to 6896
  152.3861  133.6574  159.6235 H   0  0  0  0  0  0  0  0  0  0  0  0  # atno 6909 bound_to 6896
  145.5049  139.2276  143.2757 H   0  0  0  0  0  0  0  0  0  0  0  0  # atno 7974 bound_to 7965
  156.1859  140.1690  156.8185 H   0  0  0  0  0  0  0  0  0  0  0  0  # atno 8008 bound_to 7997
  154.5414  140.0736  156.8548 H   0  0  0  0  0  0  0  0  0  0  0  0  # atno 8009 bound_to 7997
  155.3207  140.3373  155.4243 H   0  0  0  0  0  0  0  0  0  0  0  0  # atno 8010 bound_to 7997
  140.7051  143.3188  151.2842 H   0  0  0  0  0  0  0  0  0  0  0  0  # atno 10167 bound_to 10162
  157.4558  131.1069  150.9979 H   0  0  0  0  0  0  0  0  0  0  0  0  # atno 10718 bound_to 10713
  153.9229  135.2998  155.3447 H   0  0  0  0  0  0  0  0  0  0  0  0  # atno 10763 bound_to 10752
  154.7566  135.4954  153.9389 H   0  0  0  0  0  0  0  0  0  0  0  0  # atno 10764 bound_to 10752
  153.1132  135.6764  153.9567 H   0  0  0  0  0  0  0  0  0  0  0  0  # atno 10765 bound_to 10752
  140.5818  134.0006  155.8051 H   0  0  0  0  0  0  0  0  0  0  0  0  # atno 11005 bound_to 11000
  146.2203  140.5852  142.9020 LP  0  0  0  0  0  0  0  0  0  0  0  0  # atno 17320 bound_to 7965
  144.7759  140.5739  143.6638 LP  0  0  0  0  0  0  0  0  0  0  0  0  # atno 17321 bound_to 7965
  139.6636  144.0146  152.2708 LP  0  0  0  0  0  0  0  0  0  0  0  0  # atno 17342 bound_to 10162
  139.9721  144.6486  150.7979 LP  0  0  0  0  0  0  0  0  0  0  0  0  # atno 17343 bound_to 10162
  157.0793  130.5896  149.5417 LP  0  0  0  0  0  0  0  0  0  0  0  0  # atno 17370 bound_to 10713
  156.0007  130.5085  150.7650 LP  0  0  0  0  0  0  0  0  0  0  0  0  # atno 17371 bound_to 10713
  141.0991  133.9796  157.3109 LP  0  0  0  0  0  0  0  0  0  0  0  0  # atno 17394 bound_to 11000
  139.9314  135.0199  156.8411 LP  0  0  0  0  0  0  0  0  0  0  0  0  # atno 17395 bound_to 11000

$$$$
