AV-unprocessed.smi:148|AV-procd|sdf|1207|dock1
  -GOLD-   2262018373D 1   1.00000     0.00000
 Structure written by MMmdl.
 63 67  0  0  0  0  0  0  0  0  1 V2000
  157.0917  133.6251  159.7525 O   0  0  0  0  0  0  0  0  0  0  0  0
  156.0988  133.7544  160.7495 C   0  0  0  0  0  0  0  0  0  0  0  0
  155.4213  135.1491  160.7202 C   0  0  1  0  0  0  0  0  0  0  0  0
  154.7326  135.4381  159.3583 C   0  0  0  0  0  0  0  0  0  0  0  0
  154.4380  136.8424  159.1410 N   0  0  0  0  0  0  0  0  0  0  0  0
  155.3371  137.8436  158.8494 C   0  0  0  0  0  0  0  0  0  0  0  0
  154.8199  139.0354  158.7228 N   0  0  0  0  0  0  0  0  0  0  0  0
  153.4608  138.8369  158.9355 C   0  0  0  0  0  0  0  0  0  0  0  0
  152.3236  139.6920  158.9767 C   0  0  0  0  0  0  0  0  0  0  0  0
  152.3619  141.0304  158.8032 N   0  0  0  0  0  0  0  0  0  0  0  0
  152.6351  141.6741  160.0895 C   0  0  0  0  0  0  0  0  0  0  0  0
  152.9840  143.1548  159.9115 C   0  0  0  0  0  0  0  0  0  0  0  0
  151.8630  143.8641  159.1511 C   0  0  0  0  0  0  0  0  0  0  0  0
  151.6063  143.1539  157.8160 C   0  0  0  0  0  0  0  0  0  0  0  0
  151.2909  141.6419  157.9866 C   0  0  1  0  0  0  0  0  0  0  0  0
  151.0931  140.9683  156.5826 C   0  0  1  0  0  0  0  0  0  0  0  0
  150.4763  139.5517  156.5595 C   0  0  0  0  0  0  0  0  0  0  0  0
  149.8324  139.3584  155.1793 C   0  0  0  0  0  0  0  0  0  0  0  0
  149.9081  140.7182  154.4805 C   0  0  0  0  0  0  0  0  0  0  0  0
  150.1812  141.7284  155.5956 C   0  0  1  0  0  0  0  0  0  0  0  0
  148.9470  142.0777  156.1973 O   0  0  0  0  0  0  0  0  0  0  0  0
  151.1098  139.1313  159.2017 N   0  0  0  0  0  0  0  0  0  0  0  0
  151.0124  137.8136  159.4036 C   0  0  0  0  0  0  0  0  0  0  0  0
  151.9827  136.8969  159.4225 N   0  0  0  0  0  0  0  0  0  0  0  0
  153.2016  137.4601  159.1812 C   0  0  0  0  0  0  0  0  0  0  0  0
  154.4029  135.3109  161.8797 C   0  0  2  0  0  0  0  0  0  0  0  0
  153.8866  136.7365  162.0759 C   0  0  0  0  0  0  0  0  0  0  0  0
  153.7014  136.8879  163.5889 C   0  0  0  0  0  0  0  0  0  0  0  0
  154.0101  135.6167  164.1387 O   0  0  0  0  0  0  0  0  0  0  0  0
  154.9443  134.9927  163.2764 C   0  0  0  0  0  0  0  0  0  0  0  0
  156.7554  133.9828  158.9449 H   0  0  0  0  0  0  0  0  0  0  0  0
  155.3592  132.9613  160.6351 H   0  0  0  0  0  0  0  0  0  0  0  0
  156.6037  133.5758  161.6970 H   0  0  0  0  0  0  0  0  0  0  0  0
  156.1986  135.8990  160.8764 H   0  0  0  0  0  0  0  0  0  0  0  0
  155.3600  135.0850  158.5388 H   0  0  0  0  0  0  0  0  0  0  0  0
  153.7896  134.8980  159.2755 H   0  0  0  0  0  0  0  0  0  0  0  0
  156.3976  137.6638  158.7492 H   0  0  0  0  0  0  0  0  0  0  0  0
  151.7615  141.5815  160.7362 H   0  0  0  0  0  0  0  0  0  0  0  0
  153.4592  141.1685  160.5957 H   0  0  0  0  0  0  0  0  0  0  0  0
  153.1362  143.6248  160.8834 H   0  0  0  0  0  0  0  0  0  0  0  0
  153.9231  143.2503  159.3651 H   0  0  0  0  0  0  0  0  0  0  0  0
  150.9515  143.8666  159.7501 H   0  0  0  0  0  0  0  0  0  0  0  0
  152.1276  144.9076  158.9775 H   0  0  0  0  0  0  0  0  0  0  0  0
  150.7876  143.6720  157.3189 H   0  0  0  0  0  0  0  0  0  0  0  0
  152.4797  143.2730  157.1734 H   0  0  0  0  0  0  0  0  0  0  0  0
  150.3574  141.5600  158.5445 H   0  0  0  0  0  0  0  0  0  0  0  0
  152.0744  140.9026  156.1089 H   0  0  0  0  0  0  0  0  0  0  0  0
  151.2127  138.7704  156.7419 H   0  0  0  0  0  0  0  0  0  0  0  0
  149.7066  139.4652  157.3271 H   0  0  0  0  0  0  0  0  0  0  0  0
  150.3498  138.5943  154.5983 H   0  0  0  0  0  0  0  0  0  0  0  0
  148.7964  139.0368  155.2922 H   0  0  0  0  0  0  0  0  0  0  0  0
  150.7503  140.7156  153.7870 H   0  0  0  0  0  0  0  0  0  0  0  0
  149.0129  140.9472  153.9007 H   0  0  0  0  0  0  0  0  0  0  0  0
  150.6545  142.6279  155.2005 H   0  0  0  0  0  0  0  0  0  0  0  0
  148.7474  142.9730  155.9705 H   0  0  0  0  0  0  0  0  0  0  0  0
  150.0144  137.4416  159.5831 H   0  0  0  0  0  0  0  0  0  0  0  0
  153.5458  134.6603  161.6986 H   0  0  0  0  0  0  0  0  0  0  0  0
  154.6072  137.4757  161.7228 H   0  0  0  0  0  0  0  0  0  0  0  0
  152.9537  136.8975  161.5347 H   0  0  0  0  0  0  0  0  0  0  0  0
  154.3929  137.6317  163.9872 H   0  0  0  0  0  0  0  0  0  0  0  0
  152.6883  137.1874  163.8575 H   0  0  0  0  0  0  0  0  0  0  0  0
  154.9970  133.9235  163.4820 H   0  0  0  0  0  0  0  0  0  0  0  0
  155.9342  135.4260  163.4296 H   0  0  0  0  0  0  0  0  0  0  0  0
  1  2  1  0  0  0  0
  1 31  1  0  0  0  0
  2  3  1  0  0  0  0
  2 32  1  0  0  0  0
  2 33  1  0  0  0  0
  3  4  1  0  0  0  0
  3 26  1  0  0  0  0
  3 34  1  0  0  0  0
  4  5  1  0  0  0  0
  4 35  1  0  0  0  0
  4 36  1  0  0  0  0
  5 25  1  0  0  0  0
  5  6  1  0  0  0  0
  6  7  2  0  0  0  0
  6 37  1  0  0  0  0
  7  8  1  0  0  0  0
  8 25  2  0  0  0  0
  8  9  1  0  0  0  0
  9 10  1  0  0  0  0
  9 22  2  0  0  0  0
 10 15  1  0  0  0  0
 10 11  1  0  0  0  0
 11 12  1  0  0  0  0
 11 38  1  0  0  0  0
 11 39  1  0  0  0  0
 12 13  1  0  0  0  0
 12 40  1  0  0  0  0
 12 41  1  0  0  0  0
 13 14  1  0  0  0  0
 13 42  1  0  0  0  0
 13 43  1  0  0  0  0
 14 15  1  0  0  0  0
 14 44  1  0  0  0  0
 14 45  1  0  0  0  0
 15 16  1  0  0  0  0
 15 46  1  0  0  0  0
 16 20  1  0  0  0  0
 16 17  1  0  0  0  0
 16 47  1  0  0  0  0
 17 18  1  0  0  0  0
 17 48  1  0  0  0  0
 17 49  1  0  0  0  0
 18 19  1  0  0  0  0
 18 50  1  0  0  0  0
 18 51  1  0  0  0  0
 19 20  1  0  0  0  0
 19 52  1  0  0  0  0
 19 53  1  0  0  0  0
 20 21  1  0  0  0  0
 20 54  1  0  0  0  0
 21 55  1  0  0  0  0
 22 23  1  0  0  0  0
 23 24  2  0  0  0  0
 23 56  1  0  0  0  0
 24 25  1  0  0  0  0
 26 30  1  0  0  0  0
 26 27  1  0  0  0  0
 26 57  1  0  0  0  0
 27 28  1  0  0  0  0
 27 58  1  0  0  0  0
 27 59  1  0  0  0  0
 28 29  1  0  0  0  0
 28 60  1  0  0  0  0
 28 61  1  0  0  0  0
 29 30  1  0  0  0  0
 30 62  1  0  0  0  0
 30 63  1  0  0  0  0
M  END
> <s_m_source_file>
AV-unprocessed.smi

> <i_m_source_file_index>
148

> <i_lp_mmshare_version>
43012

> <i_f3d_flags>
0

> <s_epik_input>
W0NIMl0xT1tDSDJdW0NIMl1bQ0BIXTFbQ0BIXShbQ0gyXVtPSF0pW0NIMl1uKFtjSF1uMiljKGMyMyluW2NIXW5jM040W0NIMl1bQ0gyXVtDSDJdW0NIMl1bQ0BIXTRbQ0BASF01W0NIMl1bQ0gyXVtDSDJdW0NASF01W09IXQ==

> <s_epik_cmdline>
J2VwaWtfcHl0aG9uJywgJy1waCcsICc3LjAnLCAnLXRuJywgJzgnLCAnLW1hJywgJzIwMCcsICctbWV0YWxfYmluZGluZycsICctaW1hZScsICc8aW5maWxlLm1hZT4nLCAnLW9tYWUnLCAnPG91dGZpbGUubWFlPic=

> <r_lp_tautomer_probability>
1

> <r_epik_Ionization_Penalty>
0.00556303

> <r_epik_Ionization_Penalty_Charging>
0

> <r_epik_Ionization_Penalty_Neutral>
0.00556303

> <r_epik_State_Penalty>
0.00401767

> <r_epik_Charging_Adjusted_Penalty>
0.00401767

> <i_epik_Tot_Q>
0

> <i_epik_Tot_abs_Q>
0

> <r_epik_Metal_State_Penalty>
-0

> <b_epik_Metal_Only>
0

> <s_lp_Force_Field>
OPLS_2005

> <r_lp_Energy>
70.4735

> <b_lp_Chiralities_Consistent>
1

> <s_lp_Variant>
AV-unprocessed.smi:148-6

> <Gold.Version>
5.8.1

> <Gold.Id.Protein>
6NUR|6NUR_protein|mol2

> <Gold.PLP.Fitness>
54.7989

> <Gold.PLP.PLP>
-46.8407

> <Gold.PLP.part.hbond>
-3.2555

> <Gold.PLP.part.metal>
0.0000

> <Gold.PLP.part.buried>
-4.0744

> <Gold.PLP.part.nonpolar>
-39.2172

> <Gold.PLP.part.repulsive>
0.0748

> <Gold.PLP.ligand.clash>
0.0179

> <Gold.PLP.ligand.torsion>
1.0874

> <Gold.PLP.Chemscore.Hbond>
3.0000

> <Gold.PLP.Chemscore.CHOScore>
0.0000

> <Gold.PLP.Chemscore.Metal>
0.0000

> <Gold.Chemscore.Hbonds>
donor molecule, donor type, donor heavy atom, donor atom, acceptor molecule, acceptor atom, score
      L1  H    21    55       P1  8028  1.00
      P1  H  6896  6907       L1    24  1.00
      P1  H  7997  8009       L1     7  1.00

> <Gold.PLP.Chemscore.Internal.Correction>
1.1508

> <Gold.Rescore>
     Score         DG    S(hbond)    S(metal)    S(lipo)     H(rot)  DE(clash)    DE(int)     intcor
     17.39     -20.52       2.82        0.00     120.56       3.32       0.18       2.95       ----

> <Gold.Chemscore.Fitness>
17.3928

> <Gold.Chemscore.DG>
-20.5186

> <Gold.Chemscore.ZeroCoef>
-5.4800

> <Gold.Chemscore.Hbond>
2.8244

> <Gold.Chemscore.Metal>
0.0000

> <Gold.Chemscore.Lipo>
120.5577

> <Gold.Chemscore.Internal_Hbond>
0.0000

> <Gold.Chemscore.DEClash>
0.1766

> <Gold.Chemscore.DEInternal>
2.9492

> <Gold.Chemscore.Rot>
3.3203

> <Gold.Chemscore.Internal.Correction>
   9.000000E+99

> <Gold.Chemscore.Hbonds>
donor molecule, donor type, donor heavy atom, donor atom, acceptor molecule, acceptor atom, score
      L1  H    21    55       P1  8028  1.00
      P1  H  6896  6907       L1    24  0.96
      P1  H  7997  8009       L1     7  0.92

> <Gold.Chemscore.Hbond.Weighted>
-9.4334

> <Gold.Chemscore.Metal.Weighted>
-0.0000

> <Gold.Chemscore.Lipo.Weighted>
-14.1052

> <Gold.Chemscore.Internal_Hbond.Weighted>
0.0000

> <Gold.Chemscore.DEClash.Weighted>
0.1766

> <Gold.Chemscore.DEInternal.Weighted>
2.9492

> <Gold.Chemscore.Rot.Weighted>
8.5000

> <Gold.Chemscore.Internal.Correction.Weighted>
   9.000000E+99

> <Gold.Protein.RotatedTorsions>
[ 6907 6896 6895 6894 ] final   15.89 input  -60.11 | X-H torsion
[ 7974 7965 7964 7962 ] final   52.42 input  175.53 | X-H torsion
[ 8008 7997 7996 7995 ] final  108.07 input   59.86 | X-H torsion
[ 10167 10162 10161 10158 ] final -129.53 input  -65.29 | X-H torsion
[ 10718 10713 10712 10709 ] final  -84.34 input   66.30 | X-H torsion
[ 10763 10752 10751 10750 ] final   60.30 input  -60.55 | X-H torsion
[ 11005 11000 10999 10996 ] final  -70.26 input  -57.11 | X-H torsion

> <Gold.Protein.ActiveResidues>
 VAL166  LYS551  ARG553  GLY616  TRP617  ASP618  TYR619  PRO620  LYS621  CYS622 
 ASP623  PHE694  ASN695  SER759  ASP760  ASP761  ALA762  ILE779  LEU786  VAL792 
 PHE793  MET794  SER795  GLU796  ALA797  LYS798  CYS799  TRP800  GLU811  SER814 

> <Gold.Protein.RotatedAtoms>
  151.8253  135.0639  160.0429 H   0  0  0  0  0  0  0  0  0  0  0  0  # atno 6907 bound_to 6896
  152.2921  133.5567  159.5572 H   0  0  0  0  0  0  0  0  0  0  0  0  # atno 6908 bound_to 6896
  150.7234  134.0330  159.3782 H   0  0  0  0  0  0  0  0  0  0  0  0  # atno 6909 bound_to 6896
  145.9815  139.4247  143.0129 H   0  0  0  0  0  0  0  0  0  0  0  0  # atno 7974 bound_to 7965
  156.1874  140.3083  155.9265 H   0  0  0  0  0  0  0  0  0  0  0  0  # atno 8008 bound_to 7997
  155.3250  140.0458  157.3057 H   0  0  0  0  0  0  0  0  0  0  0  0  # atno 8009 bound_to 7997
  154.5412  140.2262  155.8648 H   0  0  0  0  0  0  0  0  0  0  0  0  # atno 8010 bound_to 7997
  139.9389  143.6186  152.2509 H   0  0  0  0  0  0  0  0  0  0  0  0  # atno 10167 bound_to 10162
  156.0007  130.4695  150.4395 H   0  0  0  0  0  0  0  0  0  0  0  0  # atno 10718 bound_to 10713
  152.9917  135.5541  154.5851 H   0  0  0  0  0  0  0  0  0  0  0  0  # atno 10763 bound_to 10752
  154.5225  135.2808  155.1253 H   0  0  0  0  0  0  0  0  0  0  0  0  # atno 10764 bound_to 10752
  154.2600  135.6383  153.5324 H   0  0  0  0  0  0  0  0  0  0  0  0  # atno 10765 bound_to 10752
  141.1570  133.6785  156.6725 H   0  0  0  0  0  0  0  0  0  0  0  0  # atno 11005 bound_to 11000
  145.7763  140.9875  143.1123 LP  0  0  0  0  0  0  0  0  0  0  0  0  # atno 17320 bound_to 7965
  144.6863  139.9509  143.7478 LP  0  0  0  0  0  0  0  0  0  0  0  0  # atno 17321 bound_to 7965
  139.6721  144.7660  151.1764 LP  0  0  0  0  0  0  0  0  0  0  0  0  # atno 17342 bound_to 10162
  140.7617  143.5849  150.8856 LP  0  0  0  0  0  0  0  0  0  0  0  0  # atno 17343 bound_to 10162
  157.2437  131.0531  151.2421 LP  0  0  0  0  0  0  0  0  0  0  0  0  # atno 17370 bound_to 10713
  157.3595  130.7124  149.6492 LP  0  0  0  0  0  0  0  0  0  0  0  0  # atno 17371 bound_to 10713
  140.3164  134.8044  157.4217 LP  0  0  0  0  0  0  0  0  0  0  0  0  # atno 17394 bound_to 11000
  140.1134  134.5315  155.8246 LP  0  0  0  0  0  0  0  0  0  0  0  0  # atno 17395 bound_to 11000

$$$$
