AV-unprocessed.smi:1376|AV-procd|sdf|5592|dock1
  -GOLD-   22720 5193D 1   1.00000     0.00000
 Structure written by MMmdl.
 42 43  0  0  0  0  0  0  0  0  1 V2000
  148.8567  140.6772  157.7906 O   0  0  0  0  0  0  0  0  0  0  0  0
  149.1607  141.5573  156.9840 C   0  0  0  0  0  0  0  0  0  0  0  0
  150.6318  141.8758  156.6802 C   0  0  0  0  0  0  0  0  0  0  0  0
  151.3750  142.3730  157.8499 N   0  0  0  0  0  0  0  0  0  0  0  0
  150.9991  143.6318  158.3594 C   0  0  0  0  0  0  0  0  0  0  0  0
  151.6142  144.1817  159.4181 C   0  0  0  0  0  0  0  0  0  0  0  0
  152.6897  143.4467  160.0403 C   0  0  0  0  0  0  0  0  0  0  0  0
  153.0604  142.2438  159.5581 C   0  0  0  0  0  0  0  0  0  0  0  0
  152.3933  141.6407  158.3983 C   0  0  0  0  0  0  0  0  0  0  0  0
  152.7295  140.5452  157.9475 O   0  0  0  0  0  0  0  0  0  0  0  0
  148.2532  142.2773  156.3072 N   0  0  0  0  0  0  0  0  0  0  0  0
  146.8053  142.1371  156.4304 C   0  0  2  0  0  0  0  0  0  0  0  0
  146.1001  142.6548  155.1609 C   0  0  0  0  0  0  0  0  0  0  0  0
  144.5719  142.5806  155.3017 C   0  0  0  0  0  0  0  0  0  0  0  0
  144.0910  143.3331  156.5519 C   0  0  0  0  0  0  0  0  0  0  0  0
  144.7804  142.8085  157.8229 C   0  0  2  0  0  0  0  0  0  0  0  0
  144.3208  143.6003  158.9106 O   0  0  0  0  0  0  0  0  0  0  0  0
  144.7859  143.1822  160.1870 C   0  0  0  0  0  0  0  0  0  0  0  0
  143.7426  143.5463  161.2503 C   0  0  0  0  0  0  0  0  0  0  0  0
  143.2448  144.7531  160.9827 F   0  0  0  0  0  0  0  0  0  0  0  0
  142.7464  142.6611  161.2414 F   0  0  0  0  0  0  0  0  0  0  0  0
  144.3062  143.5743  162.4577 F   0  0  0  0  0  0  0  0  0  0  0  0
  146.3145  142.8944  157.6785 C   0  0  0  0  0  0  0  0  0  0  0  0
  151.1010  140.9723  156.2884 H   0  0  0  0  0  0  0  0  0  0  0  0
  150.6836  142.5997  155.8647 H   0  0  0  0  0  0  0  0  0  0  0  0
  150.1917  144.1192  157.8322 H   0  0  0  0  0  0  0  0  0  0  0  0
  151.3159  145.1506  159.7910 H   0  0  0  0  0  0  0  0  0  0  0  0
  153.2007  143.8640  160.8953 H   0  0  0  0  0  0  0  0  0  0  0  0
  153.8682  141.7087  160.0358 H   0  0  0  0  0  0  0  0  0  0  0  0
  148.5898  142.9746  155.6590 H   0  0  0  0  0  0  0  0  0  0  0  0
  146.5606  141.0814  156.5629 H   0  0  0  0  0  0  0  0  0  0  0  0
  146.3960  143.6870  154.9681 H   0  0  0  0  0  0  0  0  0  0  0  0
  146.4145  142.0761  154.2914 H   0  0  0  0  0  0  0  0  0  0  0  0
  144.0965  142.9952  154.4127 H   0  0  0  0  0  0  0  0  0  0  0  0
  144.2606  141.5369  155.3609 H   0  0  0  0  0  0  0  0  0  0  0  0
  144.2945  144.3985  156.4360 H   0  0  0  0  0  0  0  0  0  0  0  0
  143.0092  143.2344  156.6482 H   0  0  0  0  0  0  0  0  0  0  0  0
  144.4809  141.7688  157.9688 H   0  0  0  0  0  0  0  0  0  0  0  0
  144.9528  142.1039  160.1914 H   0  0  0  0  0  0  0  0  0  0  0  0
  145.7354  143.6605  160.4278 H   0  0  0  0  0  0  0  0  0  0  0  0
  146.8038  142.4834  158.5612 H   0  0  0  0  0  0  0  0  0  0  0  0
  146.6142  143.9418  157.6176 H   0  0  0  0  0  0  0  0  0  0  0  0
  1  2  2  0  0  0  0
  2  3  1  0  0  0  0
  2 11  1  0  0  0  0
  3  4  1  0  0  0  0
  3 24  1  0  0  0  0
  3 25  1  0  0  0  0
  4  9  1  0  0  0  0
  4  5  1  0  0  0  0
  5  6  2  0  0  0  0
  5 26  1  0  0  0  0
  6  7  1  0  0  0  0
  6 27  1  0  0  0  0
  7  8  2  0  0  0  0
  7 28  1  0  0  0  0
  8  9  1  0  0  0  0
  8 29  1  0  0  0  0
  9 10  2  0  0  0  0
 11 12  1  0  0  0  0
 11 30  1  0  0  0  0
 12 23  1  0  0  0  0
 12 13  1  0  0  0  0
 12 31  1  0  0  0  0
 13 14  1  0  0  0  0
 13 32  1  0  0  0  0
 13 33  1  0  0  0  0
 14 15  1  0  0  0  0
 14 34  1  0  0  0  0
 14 35  1  0  0  0  0
 15 16  1  0  0  0  0
 15 36  1  0  0  0  0
 15 37  1  0  0  0  0
 16 17  1  0  0  0  0
 16 23  1  0  0  0  0
 16 38  1  0  0  0  0
 17 18  1  0  0  0  0
 18 19  1  0  0  0  0
 18 39  1  0  0  0  0
 18 40  1  0  0  0  0
 19 20  1  0  0  0  0
 19 21  1  0  0  0  0
 19 22  1  0  0  0  0
 23 41  1  0  0  0  0
 23 42  1  0  0  0  0
M  END
> <s_m_source_file>
AV-unprocessed.smi

> <i_m_source_file_index>
1376

> <i_lp_mmshare_version>
43012

> <i_f3d_flags>
0

> <s_epik_input>
Tz1jMVtjSF1bY0hdW2NIXVtjSF1uMVtDSDJdQyg9TylbTkhdW0NAQEhdMltDSDJdW0NIMl1bQ0gyXVtDQEhdKFtDSDJdMilPW0NIMl1DKEYpKEYpRg==

> <s_epik_cmdline>
J2VwaWtfcHl0aG9uJywgJy1waCcsICc3LjAnLCAnLXRuJywgJzgnLCAnLW1hJywgJzIwMCcsICctbWV0YWxfYmluZGluZycsICctaW1hZScsICc8aW5maWxlLm1hZT4nLCAnLW9tYWUnLCAnPG91dGZpbGUubWFlPic=

> <r_lp_tautomer_probability>
1

> <r_epik_Ionization_Penalty>
4.08567e-07

> <r_epik_Ionization_Penalty_Charging>
3.90028e-07

> <r_epik_Ionization_Penalty_Neutral>
1.85393e-08

> <r_epik_State_Penalty>
-0

> <r_epik_Charging_Adjusted_Penalty>
3.90028e-07

> <i_epik_Tot_Q>
0

> <i_epik_Tot_abs_Q>
0

> <r_epik_Metal_State_Penalty>
-0

> <b_epik_Metal_Only>
0

> <s_lp_Force_Field>
OPLS_2005

> <r_lp_Energy>
18.479

> <b_lp_Chiralities_Consistent>
1

> <s_lp_Variant>
AV-unprocessed.smi:1376-3

> <Gold.Version>
5.8.1

> <Gold.Id.Protein>
6NUR|6NUR_protein|mol2

> <Gold.PLP.Fitness>
43.8416

> <Gold.PLP.PLP>
-38.5798

> <Gold.PLP.part.hbond>
-2.0000

> <Gold.PLP.part.metal>
0.0000

> <Gold.PLP.part.buried>
-3.8058

> <Gold.PLP.part.nonpolar>
-32.5630

> <Gold.PLP.part.repulsive>
0.0829

> <Gold.PLP.ligand.clash>
0.0000

> <Gold.PLP.ligand.torsion>
0.8242

> <Gold.PLP.Chemscore.Hbond>
1.2742

> <Gold.PLP.Chemscore.CHOScore>
0.9969

> <Gold.PLP.Chemscore.Metal>
0.0000

> <Gold.Chemscore.Hbonds>
donor molecule, donor type, donor heavy atom, donor atom, acceptor molecule, acceptor atom, score
      L1  H    11    30       P1  8028  0.75
      P1  H  7997  8010       L1    10  0.68
      L1  C     5    26       P1  8028  0.89

> <Gold.PLP.Chemscore.Internal.Correction>
0.0970

> <Gold.Rescore>
     Score         DG    S(hbond)    S(metal)    S(lipo)     H(rot)  DE(clash)    DE(int)     intcor
     13.64     -14.44       1.86        0.00      71.19       2.18       0.00       0.80       ----

> <Gold.Chemscore.Fitness>
13.6374

> <Gold.Chemscore.DG>
-14.4397

> <Gold.Chemscore.ZeroCoef>
-5.4800

> <Gold.Chemscore.Hbond>
1.8594

> <Gold.Chemscore.Metal>
0.0000

> <Gold.Chemscore.Lipo>
71.1919

> <Gold.Chemscore.Internal_Hbond>
0.0000

> <Gold.Chemscore.DEClash>
0.0045

> <Gold.Chemscore.DEInternal>
0.7978

> <Gold.Chemscore.Rot>
2.1797

> <Gold.Chemscore.Internal.Correction>
   9.000000E+99

> <Gold.Chemscore.Hbonds>
donor molecule, donor type, donor heavy atom, donor atom, acceptor molecule, acceptor atom, score
      L1  H    11    30       P1  8028  0.76
      P1  H  7997  8010       L1    10  0.65

> <Gold.Chemscore.Hbond.Weighted>
-6.2104

> <Gold.Chemscore.Metal.Weighted>
-0.0000

> <Gold.Chemscore.Lipo.Weighted>
-8.3295

> <Gold.Chemscore.Internal_Hbond.Weighted>
0.0000

> <Gold.Chemscore.DEClash.Weighted>
0.0045

> <Gold.Chemscore.DEInternal.Weighted>
0.7978

> <Gold.Chemscore.Rot.Weighted>
5.5802

> <Gold.Chemscore.Internal.Correction.Weighted>
   9.000000E+99

> <Gold.Protein.RotatedTorsions>
[ 6907 6896 6895 6894 ] final -131.21 input  -60.11 | X-H torsion
[ 7974 7965 7964 7962 ] final -170.19 input  175.53 | X-H torsion
[ 8008 7997 7996 7995 ] final   45.90 input   59.86 | X-H torsion
[ 10167 10162 10161 10158 ] final  135.97 input  -65.29 | X-H torsion
[ 10718 10713 10712 10709 ] final  -67.74 input   66.30 | X-H torsion
[ 10763 10752 10751 10750 ] final   -7.23 input  -60.55 | X-H torsion
[ 11005 11000 10999 10996 ] final  -33.92 input  -57.11 | X-H torsion

> <Gold.Protein.ActiveResidues>
 VAL166  LYS551  ARG553  GLY616  TRP617  ASP618  TYR619  PRO620  LYS621  CYS622 
 ASP623  PHE694  ASN695  SER759  ASP760  ASP761  ALA762  ILE779  LEU786  VAL792 
 PHE793  MET794  SER795  GLU796  ALA797  LYS798  CYS799  TRP800  GLU811  SER814 

> <Gold.Protein.RotatedAtoms>
  150.9484  133.6577  159.2776 H   0  0  0  0  0  0  0  0  0  0  0  0  # atno 6907 bound_to 6896
  151.3941  135.0959  159.9545 H   0  0  0  0  0  0  0  0  0  0  0  0  # atno 6908 bound_to 6896
  152.5100  133.8992  159.7487 H   0  0  0  0  0  0  0  0  0  0  0  0  # atno 6909 bound_to 6896
  144.7174  140.2109  143.6327 H   0  0  0  0  0  0  0  0  0  0  0  0  # atno 7974 bound_to 7965
  155.3436  140.3409  155.4239 H   0  0  0  0  0  0  0  0  0  0  0  0  # atno 8008 bound_to 7997
  156.1800  140.1661  156.8327 H   0  0  0  0  0  0  0  0  0  0  0  0  # atno 8009 bound_to 7997
  154.5324  140.0742  156.8350 H   0  0  0  0  0  0  0  0  0  0  0  0  # atno 8010 bound_to 7997
  139.5197  144.6489  151.5360 H   0  0  0  0  0  0  0  0  0  0  0  0  # atno 10167 bound_to 10162
  156.0541  130.4283  150.1899 H   0  0  0  0  0  0  0  0  0  0  0  0  # atno 10718 bound_to 10713
  153.4234  135.7010  153.6279 H   0  0  0  0  0  0  0  0  0  0  0  0  # atno 10763 bound_to 10752
  153.4723  135.3712  155.2398 H   0  0  0  0  0  0  0  0  0  0  0  0  # atno 10764 bound_to 10752
  154.8723  135.4046  154.3606 H   0  0  0  0  0  0  0  0  0  0  0  0  # atno 10765 bound_to 10752
  140.9674  133.7129  156.1468 H   0  0  0  0  0  0  0  0  0  0  0  0  # atno 11005 bound_to 11000
  145.8592  139.2214  143.1727 LP  0  0  0  0  0  0  0  0  0  0  0  0  # atno 17320 bound_to 7965
  146.0189  140.8366  142.9933 LP  0  0  0  0  0  0  0  0  0  0  0  0  # atno 17321 bound_to 7965
  140.6285  143.9122  150.6585 LP  0  0  0  0  0  0  0  0  0  0  0  0  # atno 17342 bound_to 10162
  140.2418  143.3658  152.1480 LP  0  0  0  0  0  0  0  0  0  0  0  0  # atno 17343 bound_to 10162
  156.9977  130.9913  151.3399 LP  0  0  0  0  0  0  0  0  0  0  0  0  # atno 17370 bound_to 10713
  157.5496  130.8173  149.8128 LP  0  0  0  0  0  0  0  0  0  0  0  0  # atno 17371 bound_to 10713
  140.7379  134.4183  157.5558 LP  0  0  0  0  0  0  0  0  0  0  0  0  # atno 17394 bound_to 11000
  139.8899  134.8817  156.2394 LP  0  0  0  0  0  0  0  0  0  0  0  0  # atno 17395 bound_to 11000

$$$$
