#       Name:                AV-unprocessed.smi:1176
#       Creating user name   scv26
#       Creation time:       Fri Mar 27 03:54:16 2020


#       File generated by GOLD software.
#

@<TRIPOS>MOLECULE
AV-unprocessed.smi:1176
    56    57     1
SMALL
NO_CHARGES


@<TRIPOS>ATOM
      1 ****        -6.6159   1.7317   1.5074 C.3            1 S1                 0.0000
      2 ****        -5.1136   1.9762   1.3008 C.3            1 S1                 0.0000
      3 ****        -4.8730   3.3835   0.7291 C.3            1 S1                 0.0000
      4 ****        -4.5050   0.8778   0.4020 C.3            1 S1                 0.0000
      5 ****        -3.0266   0.9722   0.2821 N.4            1 S1                 1.0000
      6 ****        -2.5241   0.3356  -0.9632 C.3            1 S1                 0.0000
      7 ****        -1.0126   0.5600  -1.1365 C.3            1 S1                 0.0000
      8 ****        -0.2322   0.0440   0.0857 C.3            1 S1                 0.0000
      9 ****         1.1928   0.3345  -0.0393 N.am           1 S1                 0.0000
     10 ****         2.0671  -0.3887  -0.7554 C.2            1 S1                 0.0000
     11 ****         1.7419  -1.3747  -1.4182 O.2            1 S1                 0.0000
     12 ****         3.5236   0.0947  -0.7294 C.3            1 S1                 0.0000
     13 ****         4.4884  -0.9755  -1.0134 N.am           1 S1                 0.0000
     14 ****         5.0164  -1.1025  -2.2854 C.2            1 S1                 0.0000
     15 ****         5.8910  -2.0707  -2.6356 C.2            1 S1                 0.0000
     16 ****         6.3416  -3.0595  -1.6637 C.2            1 S1                 0.0000
     17 ****         7.1188  -3.9725  -1.9451 O.2            1 S1                 0.0000
     18 ****         5.8012  -2.8959  -0.3658 N.am           1 S1                 0.0000
     19 ****         6.1790  -3.8496   0.6566 C.3            1 S1                 0.0000
     20 ****         4.8716  -1.8923  -0.0106 C.2            1 S1                 0.0000
     21 ****         4.3967  -1.8126   1.1251 O.2            1 S1                 0.0000
     22 ****        -0.7904   0.6978   1.3590 C.3            1 S1                 0.0000
     23 ****        -2.3059   0.4670   1.4815 C.3            1 S1                 0.0000
     24 ****        -7.1587   1.7689   0.5622 H              1 S1                 0.0000
     25 ****        -7.0497   2.4818   2.1695 H              1 S1                 0.0000
     26 ****        -6.7982   0.7553   1.9571 H              1 S1                 0.0000
     27 ****        -4.6522   1.9324   2.2869 H              1 S1                 0.0000
     28 ****        -5.3172   3.4911  -0.2610 H              1 S1                 0.0000
     29 ****        -3.8088   3.6043   0.6431 H              1 S1                 0.0000
     30 ****        -5.3107   4.1475   1.3725 H              1 S1                 0.0000
     31 ****        -4.7705  -0.1143   0.7710 H              1 S1                 0.0000
     32 ****        -4.9576   0.9613  -0.5874 H              1 S1                 0.0000
     33 ****        -2.7467  -0.7325  -0.9429 H              1 S1                 0.0000
     34 ****        -3.0451   0.7520  -1.8263 H              1 S1                 0.0000
     35 ****        -0.6719   0.0585  -2.0431 H              1 S1                 0.0000
     36 ****        -0.8174   1.6238  -1.2804 H              1 S1                 0.0000
     37 ****        -0.3683  -1.0364   0.1675 H              1 S1                 0.0000
     38 ****         1.5448   1.1321   0.4705 H              1 S1                 0.0000
     39 ****         3.6294   0.8959  -1.4621 H              1 S1                 0.0000
     40 ****         3.7456   0.5495   0.2379 H              1 S1                 0.0000
     41 ****         4.7096  -0.3970  -3.0438 H              1 S1                 0.0000
     42 ****         6.2594  -2.1173  -3.6499 H              1 S1                 0.0000
     43 ****         6.2329  -3.3395   1.6196 H              1 S1                 0.0000
     44 ****         7.1660  -4.2589   0.4386 H              1 S1                 0.0000
     45 ****         5.4163  -4.6294   0.6590 H              1 S1                 0.0000
     46 ****        -0.2854   0.2961   2.2384 H              1 S1                 0.0000
     47 ****        -0.5873   1.7700   1.3478 H              1 S1                 0.0000
     48 ****        -2.6639   0.9674   2.3801 H              1 S1                 0.0000
     49 ****        -2.5121  -0.5969   1.6106 H              1 S1                 0.0000
     50 ****        -2.8112   1.9556   0.1993 H              1 S1                 0.0000
     51 ****         0.7867  -1.6700  -1.4395 LP             1 S1                 0.0000
     52 ****         2.4330  -1.8799  -1.9351 LP             1 S1                 0.0000
     53 ****         7.4706  -4.0602  -2.8771 LP             1 S1                 0.0000
     54 ****         7.3979  -4.6262  -1.2417 LP             1 S1                 0.0000
     55 ****         3.7350  -1.0947   1.3411 LP             1 S1                 0.0000
     56 ****         4.6734  -2.4660   1.8297 LP             1 S1                 0.0000
@<TRIPOS>BOND
    1    1    2 1     
    2    1   24 1     
    3    1   25 1     
    4    1   26 1     
    5    2    3 1     
    6    2    4 1     
    7    2   27 1     
    8    3   28 1     
    9    3   29 1     
   10    3   30 1     
   11    4    5 1     
   12    4   31 1     
   13    4   32 1     
   14    5   23 1     
   15    5    6 1     
   16    5   50 1     
   17    6    7 1     
   18    6   33 1     
   19    6   34 1     
   20    7    8 1     
   21    7   35 1     
   22    7   36 1     
   23    8    9 1     
   24    8   22 1     
   25    8   37 1     
   26    9   10 am    
   27    9   38 1     
   28   10   11 2     
   29   10   12 1     
   30   12   13 1     
   31   12   39 1     
   32   12   40 1     
   33   13   20 am    
   34   13   14 1     
   35   14   15 2     
   36   14   41 1     
   37   15   16 1     
   38   15   42 1     
   39   16   17 2     
   40   16   18 am    
   41   18   19 1     
   42   18   20 am    
   43   19   43 1     
   44   19   44 1     
   45   19   45 1     
   46   20   21 2     
   47   22   23 1     
   48   22   46 1     
   49   22   47 1     
   50   23   48 1     
   51   23   49 1     
   52   11   51 1     
   53   11   52 1     
   54   17   53 1     
   55   17   54 1     
   56   21   55 1     
   57   21   56 1     
@<TRIPOS>SUBSTRUCTURE
      1 S1             1
@<TRIPOS>SET
LONE_PAIRS      STATIC     ATOMS    <user>   **** ""
6 51 52 53 54 55 56
DONOR_HYDROGENS      STATIC     ATOMS    <user>   **** ""
2 50 38
ATOM$BLUE        STATIC     ATOMS    COLORGROUP SYSTEM
6 51 52 53 54 55 56
ATOM$RED        STATIC     ATOMS    COLORGROUP SYSTEM
2 50 38
