#       Name:                AV-unprocessed.smi:3031
#       Creating user name   scv26
#       Creation time:       Fri Mar 27 16:50:37 2020


#       File generated by GOLD software.
#

@<TRIPOS>MOLECULE
AV-unprocessed.smi:3031
    53    54     1
SMALL
NO_CHARGES


@<TRIPOS>ATOM
      1 ****        -2.8070   1.8235   4.9301 C.3            1 S1                 0.0000
      2 ****        -3.1361   1.0775   3.6691 C.2            1 S1                 0.0000
      3 ****        -3.7108   1.5944   2.4738 C.2            1 S1                 0.0000
      4 ****        -3.8782   0.6692   1.5430 N.2            1 S1                 0.0000
      5 ****        -3.4114  -0.4663   2.1052 N.pl3          1 S1                 0.0000
      6 ****        -3.4550  -1.7180   1.3662 C.3            1 S1                 0.0000
      7 ****        -2.7643  -1.6338  -0.0109 C.3            1 S1                 0.0000
      8 ****        -2.8684  -2.9733  -0.7578 C.3            1 S1                 0.0000
      9 ****        -1.3501  -1.2263   0.1536 N.4            1 S1                 1.0000
     10 ****        -0.7163  -0.6451  -1.0495 C.3            1 S1                 0.0000
     11 ****         0.7026  -0.1361  -0.7412 C.3            1 S1                 0.0000
     12 ****         0.5995   0.9695   0.1364 O.3            1 S1                 0.0000
     13 ****         1.4398   0.3202  -2.0181 C.3            1 S1                 0.0000
     14 ****         2.8514   0.7088  -1.7625 N.4            1 S1                 1.0000
     15 ****         3.7649  -0.4467  -1.5755 C.3            1 S1                 0.0000
     16 ****         5.1950   0.0394  -1.2823 C.3            1 S1                 0.0000
     17 ****         5.6382   0.8829  -2.3374 O.3            1 S1                 0.0000
     18 ****         4.8245   2.0414  -2.4689 C.3            1 S1                 0.0000
     19 ****         3.3824   1.6227  -2.8024 C.3            1 S1                 0.0000
     20 ****        -2.9689  -0.2500   3.3933 C.2            1 S1                 0.0000
     21 ****        -3.6527   1.8410   5.6177 H              1 S1                 0.0000
     22 ****        -2.5359   2.8598   4.7272 H              1 S1                 0.0000
     23 ****        -1.9691   1.3717   5.4616 H              1 S1                 0.0000
     24 ****        -4.0117   2.6089   2.2573 H              1 S1                 0.0000
     25 ****        -2.9911  -2.4955   1.9751 H              1 S1                 0.0000
     26 ****        -4.5021  -1.9992   1.2462 H              1 S1                 0.0000
     27 ****        -3.2775  -0.8742  -0.6024 H              1 S1                 0.0000
     28 ****        -3.9095  -3.2812  -0.8602 H              1 S1                 0.0000
     29 ****        -2.3403  -3.7665  -0.2275 H              1 S1                 0.0000
     30 ****        -2.4530  -2.9092  -1.7634 H              1 S1                 0.0000
     31 ****        -1.3268  -0.5136   0.8695 H              1 S1                 0.0000
     32 ****        -0.6689  -1.4102  -1.8246 H              1 S1                 0.0000
     33 ****        -1.3327   0.1665  -1.4395 H              1 S1                 0.0000
     34 ****         1.2600  -0.9294  -0.2434 H              1 S1                 0.0000
     35 ****         0.1022   1.6533  -0.2877 H              1 S1                 0.0000
     36 ****         1.4189  -0.4658  -2.7748 H              1 S1                 0.0000
     37 ****         0.8993   1.1660  -2.4471 H              1 S1                 0.0000
     38 ****         3.4257  -1.0761  -0.7537 H              1 S1                 0.0000
     39 ****         3.7622  -1.0659  -2.4741 H              1 S1                 0.0000
     40 ****         5.2398   0.5714  -0.3306 H              1 S1                 0.0000
     41 ****         5.8717  -0.8116  -1.2034 H              1 S1                 0.0000
     42 ****         4.8574   2.6313  -1.5514 H              1 S1                 0.0000
     43 ****         5.2275   2.6682  -3.2648 H              1 S1                 0.0000
     44 ****         3.3515   1.1288  -3.7751 H              1 S1                 0.0000
     45 ****         2.7528   2.5109  -2.8726 H              1 S1                 0.0000
     46 ****        -2.5736  -1.0497   4.0026 H              1 S1                 0.0000
     47 ****        -0.8115  -2.0180   0.4747 H              1 S1                 0.0000
     48 ****         2.8543   1.2335  -0.8988 H              1 S1                 0.0000
     49 ****        -4.2641   0.7850   0.6277 LP             1 S1                 0.0000
     50 ****         1.5139   1.3081   0.3582 LP             1 S1                 0.0000
     51 ****         0.1352   0.6888   0.9764 LP             1 S1                 0.0000
     52 ****         5.6103   0.3694  -3.1950 LP             1 S1                 0.0000
     53 ****         6.5783   1.1679  -2.1501 LP             1 S1                 0.0000
@<TRIPOS>BOND
    1    1    2 1     
    2    1   21 1     
    3    1   22 1     
    4    1   23 1     
    5    2   20 2     
    6    2    3 1     
    7    3    4 2     
    8    3   24 1     
    9    4    5 1     
   10    5    6 1     
   11    5   20 1     
   12    6    7 1     
   13    6   25 1     
   14    6   26 1     
   15    7    8 1     
   16    7    9 1     
   17    7   27 1     
   18    8   28 1     
   19    8   29 1     
   20    8   30 1     
   21    9   10 1     
   22    9   31 1     
   23    9   47 1     
   24   10   11 1     
   25   10   32 1     
   26   10   33 1     
   27   11   12 1     
   28   11   13 1     
   29   11   34 1     
   30   12   35 1     
   31   13   14 1     
   32   13   36 1     
   33   13   37 1     
   34   14   19 1     
   35   14   15 1     
   36   14   48 1     
   37   15   16 1     
   38   15   38 1     
   39   15   39 1     
   40   16   17 1     
   41   16   40 1     
   42   16   41 1     
   43   17   18 1     
   44   18   19 1     
   45   18   42 1     
   46   18   43 1     
   47   19   44 1     
   48   19   45 1     
   49   20   46 1     
   50    4   49 1     
   51   12   50 1     
   52   12   51 1     
   53   17   52 1     
   54   17   53 1     
@<TRIPOS>SUBSTRUCTURE
      1 S1             1
@<TRIPOS>SET
LONE_PAIRS      STATIC     ATOMS    <user>   **** ""
5 49 50 51 52 53
DONOR_HYDROGENS      STATIC     ATOMS    <user>   **** ""
4 31 47 35 48
ATOM$BLUE        STATIC     ATOMS    COLORGROUP SYSTEM
5 49 50 51 52 53
ATOM$RED        STATIC     ATOMS    COLORGROUP SYSTEM
4 31 47 35 48
