AV-unprocessed.smi:1538|AV-procd|sdf|6192|dock8
  -GOLD-   22720 6353D 1   1.00000     0.00000
 Structure written by MMmdl.
 37 38  0  0  0  0  0  0  0  0  2 V2000
  148.6757  130.3781  158.2689 C   0  0  0  0  0  0  0  0  0  0  0  0
  149.1946  130.8840  156.9968 N   0  0  0  0  0  0  0  0  0  0  0  0
  148.7388  130.1535  155.8079 C   0  0  0  0  0  0  0  0  0  0  0  0
  149.6430  130.3641  154.5860 C   0  0  0  0  0  0  0  0  0  0  0  0
  149.9590  131.8484  154.3520 C   0  0  1  0  0  0  0  0  0  0  0  0
  148.7663  132.6333  153.7774 C   0  0  0  0  0  0  0  0  0  0  0  0
  148.3190  133.6149  154.3711 O   0  0  0  0  0  0  0  0  0  0  0  0
  148.2660  132.1983  152.6115 N   0  0  0  0  0  0  0  0  0  0  0  0
  147.1450  132.8175  151.9188 C   0  0  0  0  0  0  0  0  0  0  0  0
  145.8811  131.9584  152.0568 C   0  0  0  0  0  0  0  0  0  0  0  0
  144.8599  132.3376  151.0786 N   0  0  0  0  0  0  0  0  0  0  0  0
  144.9443  132.2496  149.7129 C   0  0  0  0  0  0  0  0  0  0  0  0
  143.7519  132.7114  149.2174 C   0  0  0  0  0  0  0  0  0  0  0  0
  142.9906  133.0596  150.3009 N   0  3  0  0  0  0  0  0  0  0  0  0
  143.6661  132.8314  151.4321 C   0  0  0  0  0  0  0  0  0  0  0  0
  150.5316  132.5097  155.6268 C   0  0  0  0  0  0  0  0  0  0  0  0
  149.9883  131.9819  156.9685 C   0  0  0  0  0  0  0  0  0  0  0  0
  150.3152  132.5819  157.9929 O   0  0  0  0  0  0  0  0  0  0  0  0
  148.1862  131.1722  158.8346 H   0  0  0  0  0  0  0  0  0  0  0  0
  149.4866  129.9755  158.8772 H   0  0  0  0  0  0  0  0  0  0  0  0
  147.9401  129.5851  158.1283 H   0  0  0  0  0  0  0  0  0  0  0  0
  148.6878  129.0852  156.0233 H   0  0  0  0  0  0  0  0  0  0  0  0
  147.7193  130.4684  155.5826 H   0  0  0  0  0  0  0  0  0  0  0  0
  150.5785  129.8240  154.7382 H   0  0  0  0  0  0  0  0  0  0  0  0
  149.1815  129.9230  153.7015 H   0  0  0  0  0  0  0  0  0  0  0  0
  150.7465  131.8873  153.5971 H   0  0  0  0  0  0  0  0  0  0  0  0
  148.6887  131.3884  152.1807 H   0  0  0  0  0  0  0  0  0  0  0  0
  146.9701  133.8116  152.3336 H   0  0  0  0  0  0  0  0  0  0  0  0
  147.3977  132.9469  150.8650 H   0  0  0  0  0  0  0  0  0  0  0  0
  146.1114  130.9007  151.9183 H   0  0  0  0  0  0  0  0  0  0  0  0
  145.4473  132.0667  153.0520 H   0  0  0  0  0  0  0  0  0  0  0  0
  145.8228  131.8743  149.2080 H   0  0  0  0  0  0  0  0  0  0  0  0
  143.3977  132.8144  148.2020 H   0  0  0  0  0  0  0  0  0  0  0  0
  143.3148  133.0096  152.4330 H   0  0  0  0  0  0  0  0  0  0  0  0
  151.6103  132.3498  155.6441 H   0  0  0  0  0  0  0  0  0  0  0  0
  150.3984  133.5927  155.5967 H   0  0  0  0  0  0  0  0  0  0  0  0
  142.0514  133.4349  150.2555 H   0  0  0  0  0  0  0  0  0  0  0  0
  1  2  1  0  0  0  0
  1 19  1  0  0  0  0
  1 20  1  0  0  0  0
  1 21  1  0  0  0  0
  2 17  1  0  0  0  0
  2  3  1  0  0  0  0
  3  4  1  0  0  0  0
  3 22  1  0  0  0  0
  3 23  1  0  0  0  0
  4  5  1  0  0  0  0
  4 24  1  0  0  0  0
  4 25  1  0  0  0  0
  5  6  1  0  0  0  0
  5 16  1  0  0  0  0
  5 26  1  0  0  0  0
  6  7  2  0  0  0  0
  6  8  1  0  0  0  0
  8  9  1  0  0  0  0
  8 27  1  0  0  0  0
  9 10  1  0  0  0  0
  9 28  1  0  0  0  0
  9 29  1  0  0  0  0
 10 11  1  0  0  0  0
 10 30  1  0  0  0  0
 10 31  1  0  0  0  0
 11 15  1  0  0  0  0
 11 12  1  0  0  0  0
 12 13  2  0  0  0  0
 12 32  1  0  0  0  0
 13 14  1  0  0  0  0
 13 33  1  0  0  0  0
 14 15  2  0  0  0  0
 14 37  1  0  0  0  0
 15 34  1  0  0  0  0
 16 17  1  0  0  0  0
 16 35  1  0  0  0  0
 16 36  1  0  0  0  0
 17 18  2  0  0  0  0
M  CHG  1  14   1
M  END
> <s_m_source_file>
AV-unprocessed.smi

> <i_m_source_file_index>
1538

> <i_lp_mmshare_version>
43012

> <i_f3d_flags>
0

> <s_epik_input>
W0NIM11OMVtDSDJdW0NIMl1bQ0BIXShbQ0gyXUMxPU8pQyg9TylbTkhdW0NIMl1bQ0gyXW4yW2NIXVtjSF1uW2NIXTI=

> <s_epik_cmdline>
J2VwaWtfcHl0aG9uJywgJy1waCcsICc3LjAnLCAnLXRuJywgJzgnLCAnLW1hJywgJzIwMCcsICctbWV0YWxfYmluZGluZycsICctaW1hZScsICc8aW5maWxlLm1hZT4nLCAnLW9tYWUnLCAnPG91dGZpbGUubWFlPic=

> <r_lp_tautomer_probability>
1

> <r_epik_Ionization_Penalty>
0.272873

> <r_epik_Ionization_Penalty_Charging>
0

> <r_epik_Ionization_Penalty_Neutral>
0.272873

> <r_epik_State_Penalty>
0.265096

> <r_epik_Charging_Adjusted_Penalty>
0.265096

> <i_epik_Tot_Q>
1

> <i_epik_Tot_abs_Q>
1

> <r_epik_Metal_State_Penalty>
0.549113

> <b_epik_Metal_Only>
0

> <s_lp_Force_Field>
OPLS_2005

> <r_lp_Energy>
17.3063

> <b_lp_Chiralities_Consistent>
1

> <s_lp_Variant>
AV-unprocessed.smi:1538-1

> <Gold.Version>
5.8.1

> <Gold.Id.Protein>
6NUR|6NUR_protein|mol2

> <Gold.PLP.Fitness>
43.0289

> <Gold.PLP.PLP>
-31.1442

> <Gold.PLP.part.hbond>
-3.0000

> <Gold.PLP.part.metal>
0.0000

> <Gold.PLP.part.buried>
-5.3641

> <Gold.PLP.part.nonpolar>
-23.4786

> <Gold.PLP.part.repulsive>
0.1302

> <Gold.PLP.ligand.clash>
0.0000

> <Gold.PLP.ligand.torsion>
0.1873

> <Gold.PLP.Chemscore.Hbond>
3.6880

> <Gold.PLP.Chemscore.CHOScore>
0.3821

> <Gold.PLP.Chemscore.Metal>
0.0000

> <Gold.Chemscore.Hbonds>
donor molecule, donor type, donor heavy atom, donor atom, acceptor molecule, acceptor atom, score
      L1  H     8    27       P1 10747  0.67
      L1  H    14    37       P1 10186  1.98
      P1  H  6896  6908       L1    18  1.00
      L1  C    15    34       P1 10957  0.50

> <Gold.PLP.Chemscore.Internal.Correction>
0.0488

> <Gold.Rescore>
     Score         DG    S(hbond)    S(metal)    S(lipo)     H(rot)  DE(clash)    DE(int)     intcor
     15.85     -16.31       2.77        0.00      58.16       2.05       0.14       0.32       ----

> <Gold.Chemscore.Fitness>
15.8521

> <Gold.Chemscore.DG>
-16.3104

> <Gold.Chemscore.ZeroCoef>
-5.4800

> <Gold.Chemscore.Hbond>
2.7749

> <Gold.Chemscore.Metal>
0.0000

> <Gold.Chemscore.Lipo>
58.1582

> <Gold.Chemscore.Internal_Hbond>
0.0000

> <Gold.Chemscore.DEClash>
0.1417

> <Gold.Chemscore.DEInternal>
0.3166

> <Gold.Chemscore.Rot>
2.0478

> <Gold.Chemscore.Internal.Correction>
   9.000000E+99

> <Gold.Chemscore.Hbonds>
donor molecule, donor type, donor heavy atom, donor atom, acceptor molecule, acceptor atom, score
      L1  H     8    27       P1 10747  0.63
      L1  H    14    37       P1 10186  0.92
      P1  H  6896  6908       L1    18  1.00

> <Gold.Chemscore.Hbond.Weighted>
-9.2682

> <Gold.Chemscore.Metal.Weighted>
-0.0000

> <Gold.Chemscore.Lipo.Weighted>
-6.8045

> <Gold.Chemscore.Internal_Hbond.Weighted>
0.0000

> <Gold.Chemscore.DEClash.Weighted>
0.1417

> <Gold.Chemscore.DEInternal.Weighted>
0.3166

> <Gold.Chemscore.Rot.Weighted>
5.2423

> <Gold.Chemscore.Internal.Correction.Weighted>
   9.000000E+99

> <Gold.Protein.RotatedTorsions>
[ 6907 6896 6895 6894 ] final   85.98 input  -60.11 | X-H torsion
[ 7974 7965 7964 7962 ] final -119.00 input  175.53 | X-H torsion
[ 8008 7997 7996 7995 ] final   98.78 input   59.86 | X-H torsion
[ 10167 10162 10161 10158 ] final  -67.10 input  -65.29 | X-H torsion
[ 10718 10713 10712 10709 ] final    9.94 input   66.30 | X-H torsion
[ 10763 10752 10751 10750 ] final   91.09 input  -60.55 | X-H torsion
[ 11005 11000 10999 10996 ] final -162.79 input  -57.11 | X-H torsion

> <Gold.Protein.ActiveResidues>
 VAL166  LYS551  ARG553  GLY616  TRP617  ASP618  TYR619  PRO620  LYS621  CYS622 
 ASP623  PHE694  ASN695  SER759  ASP760  ASP761  ALA762  ILE779  LEU786  VAL792 
 PHE793  MET794  SER795  GLU796  ALA797  LYS798  CYS799  TRP800  GLU811  SER814 

> <Gold.Protein.RotatedAtoms>
  152.5385  134.2502  159.8895 H   0  0  0  0  0  0  0  0  0  0  0  0  # atno 6907 bound_to 6896
  151.2466  133.4365  159.2617 H   0  0  0  0  0  0  0  0  0  0  0  0  # atno 6908 bound_to 6896
  151.0578  134.9730  159.8301 H   0  0  0  0  0  0  0  0  0  0  0  0  # atno 6909 bound_to 6896
  145.0674  140.8334  143.4116 H   0  0  0  0  0  0  0  0  0  0  0  0  # atno 7974 bound_to 7965
  156.1039  140.3238  155.7980 H   0  0  0  0  0  0  0  0  0  0  0  0  # atno 8008 bound_to 7997
  155.4789  140.0552  157.2987 H   0  0  0  0  0  0  0  0  0  0  0  0  # atno 8009 bound_to 7997
  154.4715  140.2013  155.9998 H   0  0  0  0  0  0  0  0  0  0  0  0  # atno 8010 bound_to 7997
  140.5608  143.2313  151.6732 H   0  0  0  0  0  0  0  0  0  0  0  0  # atno 10167 bound_to 10162
  156.9737  130.5979  149.5671 H   0  0  0  0  0  0  0  0  0  0  0  0  # atno 10718 bound_to 10713
  153.2045  135.4410  155.0306 H   0  0  0  0  0  0  0  0  0  0  0  0  # atno 10763 bound_to 10752
  154.8166  135.3318  154.7162 H   0  0  0  0  0  0  0  0  0  0  0  0  # atno 10764 bound_to 10752
  153.7604  135.6992  153.4982 H   0  0  0  0  0  0  0  0  0  0  0  0  # atno 10765 bound_to 10752
  140.6053  134.4905  157.5210 H   0  0  0  0  0  0  0  0  0  0  0  0  # atno 11005 bound_to 11000
  145.1334  139.2617  143.5527 LP  0  0  0  0  0  0  0  0  0  0  0  0  # atno 17320 bound_to 7965
  146.3527  140.0991  142.8609 LP  0  0  0  0  0  0  0  0  0  0  0  0  # atno 17321 bound_to 7965
  139.5069  144.3665  152.0512 LP  0  0  0  0  0  0  0  0  0  0  0  0  # atno 17342 bound_to 10162
  140.2791  144.3879  150.6125 LP  0  0  0  0  0  0  0  0  0  0  0  0  # atno 17343 bound_to 10162
  156.0272  130.5365  150.8439 LP  0  0  0  0  0  0  0  0  0  0  0  0  # atno 17370 bound_to 10713
  157.5574  131.0945  150.9608 LP  0  0  0  0  0  0  0  0  0  0  0  0  # atno 17371 bound_to 10713
  139.9215  134.8140  156.1198 LP  0  0  0  0  0  0  0  0  0  0  0  0  # atno 17394 bound_to 11000
  141.0845  133.6740  156.2406 LP  0  0  0  0  0  0  0  0  0  0  0  0  # atno 17395 bound_to 11000

$$$$
