AV-unprocessed.smi:3303|AV-procd|sdf|12670|dock7
  -GOLD-   2272019 03D 1   1.00000     0.00000
 Structure written by MMmdl.
 45 46  0  0  0  0  0  0  0  0  3 V2000
  147.2697  141.7706  154.2489 C   0  0  0  0  0  0  0  0  0  0  0  0
  148.2394  140.6593  154.6880 C   0  0  1  0  0  0  0  0  0  0  0  0
  148.2803  139.5437  153.6168 C   0  0  0  0  0  0  0  0  0  0  0  0
  149.2186  138.4468  153.9686 N   0  3  2  0  0  0  0  0  0  0  0  0
  148.6907  137.5523  155.0303 C   0  0  0  0  0  0  0  0  0  0  0  0
  150.6009  138.9608  154.1891 C   0  0  2  0  0  0  0  0  0  0  0  0
  151.6238  137.8409  154.4467 C   0  0  0  0  0  0  0  0  0  0  0  0
  150.6253  140.0451  155.2858 C   0  0  0  0  0  0  0  0  0  0  0  0
  149.6622  141.2024  154.9623 C   0  0  2  0  0  0  0  0  0  0  0  0
  149.6542  142.1672  156.0861 N   0  3  0  0  0  0  0  0  0  0  0  0
  150.9879  142.6447  156.5031 C   0  0  0  0  0  0  0  0  0  0  0  0
  151.4777  141.8912  157.7470 C   0  0  0  0  0  0  0  0  0  0  0  0
  151.7876  142.8270  158.8994 C   0  0  0  0  0  0  0  0  0  0  0  0
  152.4355  142.3527  160.0599 C   0  0  0  0  0  0  0  0  0  0  0  0
  152.6943  143.2634  161.1027 C   0  0  0  0  0  0  0  0  0  0  0  0
  152.2961  144.6049  160.9455 C   0  0  0  0  0  0  0  0  0  0  0  0
  151.6536  144.9780  159.7481 C   0  0  0  0  0  0  0  0  0  0  0  0
  151.3993  144.1122  158.7426 N   0  0  0  0  0  0  0  0  0  0  0  0
  147.6148  142.2620  153.3385 H   0  0  0  0  0  0  0  0  0  0  0  0
  147.1580  142.5354  155.0177 H   0  0  0  0  0  0  0  0  0  0  0  0
  146.2764  141.3670  154.0504 H   0  0  0  0  0  0  0  0  0  0  0  0
  147.8484  140.2322  155.6126 H   0  0  0  0  0  0  0  0  0  0  0  0
  147.2829  139.1335  153.4527 H   0  0  0  0  0  0  0  0  0  0  0  0
  148.5926  139.9654  152.6599 H   0  0  0  0  0  0  0  0  0  0  0  0
  148.6637  138.0408  156.0039 H   0  0  0  0  0  0  0  0  0  0  0  0
  149.2909  136.6473  155.1202 H   0  0  0  0  0  0  0  0  0  0  0  0
  147.6766  137.2322  154.7888 H   0  0  0  0  0  0  0  0  0  0  0  0
  150.8988  139.4363  153.2530 H   0  0  0  0  0  0  0  0  0  0  0  0
  152.6393  138.2381  154.4433 H   0  0  0  0  0  0  0  0  0  0  0  0
  151.5721  137.0731  153.6740 H   0  0  0  0  0  0  0  0  0  0  0  0
  151.4710  137.3602  155.4134 H   0  0  0  0  0  0  0  0  0  0  0  0
  150.3734  139.6061  156.2522 H   0  0  0  0  0  0  0  0  0  0  0  0
  151.6385  140.4361  155.3884 H   0  0  0  0  0  0  0  0  0  0  0  0
  150.0231  141.6974  154.0583 H   0  0  0  0  0  0  0  0  0  0  0  0
  149.1012  142.9677  155.8143 H   0  0  0  0  0  0  0  0  0  0  0  0
  151.6891  142.5082  155.6784 H   0  0  0  0  0  0  0  0  0  0  0  0
  150.9388  143.7139  156.7141 H   0  0  0  0  0  0  0  0  0  0  0  0
  150.7255  141.1684  158.0659 H   0  0  0  0  0  0  0  0  0  0  0  0
  152.3743  141.3166  157.5090 H   0  0  0  0  0  0  0  0  0  0  0  0
  152.7288  141.3172  160.1525 H   0  0  0  0  0  0  0  0  0  0  0  0
  153.1880  142.9389  162.0068 H   0  0  0  0  0  0  0  0  0  0  0  0
  152.4786  145.3310  161.7239 H   0  0  0  0  0  0  0  0  0  0  0  0
  151.3343  145.9981  159.5944 H   0  0  0  0  0  0  0  0  0  0  0  0
  149.2123  141.7300  156.8826 H   0  0  0  0  0  0  0  0  0  0  0  0
  149.2716  137.8637  153.1449 H   0  0  0  0  0  0  0  0  0  0  0  0
  1  2  1  0  0  0  0
  1 19  1  0  0  0  0
  1 20  1  0  0  0  0
  1 21  1  0  0  0  0
  2  9  1  0  0  0  0
  2  3  1  0  0  0  0
  2 22  1  0  0  0  0
  3  4  1  0  0  0  0
  3 23  1  0  0  0  0
  3 24  1  0  0  0  0
  4  5  1  0  0  0  0
  4  6  1  0  0  0  0
  4 45  1  0  0  0  0
  5 25  1  0  0  0  0
  5 26  1  0  0  0  0
  5 27  1  0  0  0  0
  6  7  1  0  0  0  0
  6  8  1  0  0  0  0
  6 28  1  0  0  0  0
  7 29  1  0  0  0  0
  7 30  1  0  0  0  0
  7 31  1  0  0  0  0
  8  9  1  0  0  0  0
  8 32  1  0  0  0  0
  8 33  1  0  0  0  0
  9 10  1  0  0  0  0
  9 34  1  0  0  0  0
 10 11  1  0  0  0  0
 10 35  1  0  0  0  0
 10 44  1  0  0  0  0
 11 12  1  0  0  0  0
 11 36  1  0  0  0  0
 11 37  1  0  0  0  0
 12 13  1  0  0  0  0
 12 38  1  0  0  0  0
 12 39  1  0  0  0  0
 13 18  1  0  0  0  0
 13 14  2  0  0  0  0
 14 15  1  0  0  0  0
 14 40  1  0  0  0  0
 15 16  2  0  0  0  0
 15 41  1  0  0  0  0
 16 17  1  0  0  0  0
 16 42  1  0  0  0  0
 17 18  2  0  0  0  0
 17 43  1  0  0  0  0
M  CHG  1   4   1
M  CHG  1  10   1
M  END
> <s_m_source_file>
AV-unprocessed.smi

> <i_m_source_file_index>
3303

> <i_lp_mmshare_version>
43012

> <i_f3d_flags>
0

> <s_epik_input>
W0NIM11bQ0BASF0xW0NIMl1OKFtDSDNdKVtDQEBIXShbQ0gzXSlbQ0gyXVtDQEhdMVtOSF1bQ0gyXVtDSDJdYzJbY0hdW2NIXVtjSF1bY0hdbjI=

> <s_epik_cmdline>
J2VwaWtfcHl0aG9uJywgJy1waCcsICc3LjAnLCAnLXRuJywgJzgnLCAnLW1hJywgJzIwMCcsICctbWV0YWxfYmluZGluZycsICctaW1hZScsICc8aW5maWxlLm1hZT4nLCAnLW9tYWUnLCAnPG91dGZpbGUubWFlPic=

> <r_epik_Ionization_Penalty>
0.0769462

> <r_epik_Ionization_Penalty_Charging>
0.0759813

> <r_epik_Ionization_Penalty_Neutral>
0.000964829

> <r_epik_State_Penalty>
0.0654373

> <r_epik_Charging_Adjusted_Penalty>
0.141419

> <i_epik_Tot_Q>
2

> <i_epik_Tot_abs_Q>
2

> <r_epik_Metal_State_Penalty>
0.0656439

> <b_epik_Metal_Only>
0

> <s_lp_Force_Field>
OPLS_2005

> <r_lp_Energy>
31.8581

> <b_lp_Chiralities_Consistent>
1

> <s_lp_Variant>
AV-unprocessed.smi:3303-14

> <Gold.Version>
5.8.1

> <Gold.Id.Protein>
6NUR|6NUR_protein|mol2

> <Gold.PLP.Fitness>
52.3455

> <Gold.PLP.PLP>
-41.8676

> <Gold.PLP.part.hbond>
-2.3719

> <Gold.PLP.part.metal>
0.0000

> <Gold.PLP.part.buried>
-2.5468

> <Gold.PLP.part.nonpolar>
-37.5032

> <Gold.PLP.part.repulsive>
0.2174

> <Gold.PLP.ligand.clash>
0.0000

> <Gold.PLP.ligand.torsion>
0.7625

> <Gold.PLP.Chemscore.Hbond>
4.0000

> <Gold.PLP.Chemscore.CHOScore>
0.0000

> <Gold.PLP.Chemscore.Metal>
0.0000

> <Gold.Chemscore.Hbonds>
donor molecule, donor type, donor heavy atom, donor atom, acceptor molecule, acceptor atom, score
      L1  H     4    45       P1  7948  1.82
      L1  H    10    35       P1  8028  2.00

> <Gold.PLP.Chemscore.Internal.Correction>
0.0029

> <Gold.Rescore>
     Score         DG    S(hbond)    S(metal)    S(lipo)     H(rot)  DE(clash)    DE(int)     intcor
     21.41     -22.61       1.91        0.00     122.04       1.37       0.44       0.76       ----

> <Gold.Chemscore.Fitness>
21.4097

> <Gold.Chemscore.DG>
-22.6116

> <Gold.Chemscore.ZeroCoef>
-5.4800

> <Gold.Chemscore.Hbond>
1.9076

> <Gold.Chemscore.Metal>
0.0000

> <Gold.Chemscore.Lipo>
122.0389

> <Gold.Chemscore.Internal_Hbond>
0.0000

> <Gold.Chemscore.DEClash>
0.4370

> <Gold.Chemscore.DEInternal>
0.7650

> <Gold.Chemscore.Rot>
1.3744

> <Gold.Chemscore.Internal.Correction>
   9.000000E+99

> <Gold.Chemscore.Hbonds>
donor molecule, donor type, donor heavy atom, donor atom, acceptor molecule, acceptor atom, score
      L1  H     4    45       P1  7948  0.85
      L1  H    10    35       P1  8028  0.95

> <Gold.Chemscore.Hbond.Weighted>
-6.3715

> <Gold.Chemscore.Metal.Weighted>
-0.0000

> <Gold.Chemscore.Lipo.Weighted>
-14.2786

> <Gold.Chemscore.Internal_Hbond.Weighted>
0.0000

> <Gold.Chemscore.DEClash.Weighted>
0.4370

> <Gold.Chemscore.DEInternal.Weighted>
0.7650

> <Gold.Chemscore.Rot.Weighted>
3.5185

> <Gold.Chemscore.Internal.Correction.Weighted>
   9.000000E+99

> <Gold.Protein.RotatedTorsions>
[ 6907 6896 6895 6894 ] final  173.05 input  -60.11 | X-H torsion
[ 7974 7965 7964 7962 ] final   44.32 input  175.53 | X-H torsion
[ 8008 7997 7996 7995 ] final  165.62 input   59.86 | X-H torsion
[ 10167 10162 10161 10158 ] final -120.43 input  -65.29 | X-H torsion
[ 10718 10713 10712 10709 ] final  125.85 input   66.30 | X-H torsion
[ 10763 10752 10751 10750 ] final   80.86 input  -60.55 | X-H torsion
[ 11005 11000 10999 10996 ] final  -16.92 input  -57.11 | X-H torsion

> <Gold.Protein.ActiveResidues>
 VAL166  LYS551  ARG553  GLY616  TRP617  ASP618  TYR619  PRO620  LYS621  CYS622 
 ASP623  PHE694  ASN695  SER759  ASP760  ASP761  ALA762  ILE779  LEU786  VAL792 
 PHE793  MET794  SER795  GLU796  ALA797  LYS798  CYS799  TRP800  GLU811  SER814 

> <Gold.Protein.RotatedAtoms>
  151.7745  133.3344  159.3453 H   0  0  0  0  0  0  0  0  0  0  0  0  # atno 6907 bound_to 6896
  150.7449  134.5988  159.6035 H   0  0  0  0  0  0  0  0  0  0  0  0  # atno 6908 bound_to 6896
  152.3318  134.7251  160.0339 H   0  0  0  0  0  0  0  0  0  0  0  0  # atno 6909 bound_to 6896
  146.0578  139.5087  142.9677 H   0  0  0  0  0  0  0  0  0  0  0  0  # atno 7974 bound_to 7965
  156.1785  140.1665  156.8317 H   0  0  0  0  0  0  0  0  0  0  0  0  # atno 8008 bound_to 7997
  154.5334  140.0752  156.8418 H   0  0  0  0  0  0  0  0  0  0  0  0  # atno 8009 bound_to 7997
  155.3360  140.3382  155.4241 H   0  0  0  0  0  0  0  0  0  0  0  0  # atno 8010 bound_to 7997
  140.0359  143.5202  152.2154 H   0  0  0  0  0  0  0  0  0  0  0  0  # atno 10167 bound_to 10162
  157.5469  131.1095  150.8767 H   0  0  0  0  0  0  0  0  0  0  0  0  # atno 10718 bound_to 10713
  153.1068  135.4787  154.8965 H   0  0  0  0  0  0  0  0  0  0  0  0  # atno 10763 bound_to 10752
  154.7438  135.3089  154.8683 H   0  0  0  0  0  0  0  0  0  0  0  0  # atno 10764 bound_to 10752
  153.9283  135.6847  153.4799 H   0  0  0  0  0  0  0  0  0  0  0  0  # atno 10765 bound_to 10752
  140.8116  133.8136  155.9569 H   0  0  0  0  0  0  0  0  0  0  0  0  # atno 11005 bound_to 11000
  145.6612  141.0240  143.1708 LP  0  0  0  0  0  0  0  0  0  0  0  0  # atno 17320 bound_to 7965
  144.7158  139.8203  143.7399 LP  0  0  0  0  0  0  0  0  0  0  0  0  # atno 17321 bound_to 7965
  139.6045  144.7592  151.3093 LP  0  0  0  0  0  0  0  0  0  0  0  0  # atno 17342 bound_to 10162
  140.7282  143.6943  150.7896 LP  0  0  0  0  0  0  0  0  0  0  0  0  # atno 17343 bound_to 10162
  156.9304  130.5347  149.5279 LP  0  0  0  0  0  0  0  0  0  0  0  0  # atno 17370 bound_to 10713
  156.0543  130.5607  150.9057 LP  0  0  0  0  0  0  0  0  0  0  0  0  # atno 17371 bound_to 10713
  140.9192  134.2163  157.4937 LP  0  0  0  0  0  0  0  0  0  0  0  0  # atno 17394 bound_to 11000
  139.8714  134.9784  156.4998 LP  0  0  0  0  0  0  0  0  0  0  0  0  # atno 17395 bound_to 11000

$$$$
