#       Name:                AV-unprocessed.smi:1047
#       Creating user name   scv26
#       Creation time:       Fri Mar 27 03:00:49 2020


#       File generated by GOLD software.
#

@<TRIPOS>MOLECULE
AV-unprocessed.smi:1047
    62    64     1
SMALL
NO_CHARGES


@<TRIPOS>ATOM
      1 ****        -3.3102   4.5561  -3.6232 C.3            1 S1                 0.0000
      2 ****        -2.2806   5.1305  -2.6397 C.3            1 S1                 0.0000
      3 ****        -2.2700   4.4108  -1.3413 N.4            1 S1                 1.0000
      4 ****        -1.6378   5.2058  -0.2614 C.3            1 S1                 0.0000
      5 ****        -1.7027   4.4493   1.0761 C.3            1 S1                 0.0000
      6 ****        -1.0760   3.1791   0.9409 O.3            1 S1                 0.0000
      7 ****        -1.7138   2.3656  -0.0380 C.3            1 S1                 0.0000
      8 ****        -1.0686   0.9690  -0.0273 C.3            1 S1                 0.0000
      9 ****         0.3796   1.0171  -0.3199 N.4            1 S1                 1.0000
     10 ****         1.0269  -0.3093  -0.3613 C.3            1 S1                 0.0000
     11 ****         2.5348  -0.1907  -0.6572 C.3            1 S1                 0.0000
     12 ****         2.7055   0.3475  -1.9532 O.3            1 S1                 0.0000
     13 ****         3.2897  -1.5349  -0.6062 C.3            1 S1                 0.0000
     14 ****         3.1919  -2.1861   0.6874 N.pl3          1 S1                 0.0000
     15 ****         3.9613  -1.9566   1.7689 C.2            1 S1                 0.0000
     16 ****         3.6950  -2.6602   2.8653 N.2            1 S1                 0.0000
     17 ****         2.6329  -3.4422   2.4452 C.ar           1 S1                 0.0000
     18 ****         1.8760  -4.4110   3.1395 C.ar           1 S1                 0.0000
     19 ****         0.8134  -5.0924   2.5042 C.ar           1 S1                 0.0000
     20 ****         0.0232  -6.1240   3.2901 C.3            1 S1                 0.0000
     21 ****         0.4961  -4.8102   1.1512 C.ar           1 S1                 0.0000
     22 ****        -0.6416  -5.5296   0.4487 C.3            1 S1                 0.0000
     23 ****         1.2441  -3.8474   0.4418 C.ar           1 S1                 0.0000
     24 ****         2.2965  -3.1732   1.0862 C.ar           1 S1                 0.0000
     25 ****        -1.6571   3.0608  -1.4148 C.3            1 S1                 0.0000
     26 ****        -3.3533   5.1621  -4.5287 H              1 S1                 0.0000
     27 ****        -4.3094   4.5459  -3.1869 H              1 S1                 0.0000
     28 ****        -3.0639   3.5395  -3.9283 H              1 S1                 0.0000
     29 ****        -1.2827   5.1253  -3.0807 H              1 S1                 0.0000
     30 ****        -2.5353   6.1767  -2.4644 H              1 S1                 0.0000
     31 ****        -0.5996   5.4180  -0.5217 H              1 S1                 0.0000
     32 ****        -2.1456   6.1660  -0.1614 H              1 S1                 0.0000
     33 ****        -1.1879   5.0156   1.8526 H              1 S1                 0.0000
     34 ****        -2.7359   4.3264   1.4051 H              1 S1                 0.0000
     35 ****        -2.7607   2.2428   0.2464 H              1 S1                 0.0000
     36 ****        -1.2167   0.5045   0.9484 H              1 S1                 0.0000
     37 ****        -1.5627   0.3298  -0.7601 H              1 S1                 0.0000
     38 ****         0.5186   1.4616  -1.2163 H              1 S1                 0.0000
     39 ****         0.8681  -0.7835   0.6073 H              1 S1                 0.0000
     40 ****         0.5397  -0.9367  -1.1093 H              1 S1                 0.0000
     41 ****         2.9890   0.4975   0.0571 H              1 S1                 0.0000
     42 ****         2.4282  -0.2958  -2.5881 H              1 S1                 0.0000
     43 ****         2.9072  -2.2179  -1.3660 H              1 S1                 0.0000
     44 ****         4.3465  -1.3831  -0.8312 H              1 S1                 0.0000
     45 ****         4.7585  -1.2278   1.7515 H              1 S1                 0.0000
     46 ****         2.1179  -4.6261   4.1701 H              1 S1                 0.0000
     47 ****         0.0956  -7.1030   2.8160 H              1 S1                 0.0000
     48 ****        -1.0283  -5.8410   3.3434 H              1 S1                 0.0000
     49 ****         0.3953  -6.2187   4.3107 H              1 S1                 0.0000
     50 ****        -0.7588  -5.1828  -0.5783 H              1 S1                 0.0000
     51 ****        -1.5836  -5.3558   0.9691 H              1 S1                 0.0000
     52 ****        -0.4543  -6.6031   0.4204 H              1 S1                 0.0000
     53 ****         1.0123  -3.6240  -0.5890 H              1 S1                 0.0000
     54 ****        -2.1802   2.4482  -2.1485 H              1 S1                 0.0000
     55 ****        -0.6245   3.1545  -1.7546 H              1 S1                 0.0000
     56 ****         0.8350   1.5739   0.3896 H              1 S1                 0.0000
     57 ****        -3.2363   4.2870  -1.0735 H              1 S1                 0.0000
     58 ****        -1.1096   2.7081   1.8223 LP             1 S1                 0.0000
     59 ****        -0.1226   3.3174   0.6729 LP             1 S1                 0.0000
     60 ****         3.6689   0.5716  -2.1002 LP             1 S1                 0.0000
     61 ****         2.1524   1.1751  -2.0493 LP             1 S1                 0.0000
     62 ****         4.1439  -2.6319   3.7584 LP             1 S1                 0.0000
@<TRIPOS>BOND
    1    1    2 1     
    2    1   26 1     
    3    1   27 1     
    4    1   28 1     
    5    2    3 1     
    6    2   29 1     
    7    2   30 1     
    8    3   25 1     
    9    3    4 1     
   10    3   57 1     
   11    4    5 1     
   12    4   31 1     
   13    4   32 1     
   14    5    6 1     
   15    5   33 1     
   16    5   34 1     
   17    6    7 1     
   18    7    8 1     
   19    7   25 1     
   20    7   35 1     
   21    8    9 1     
   22    8   36 1     
   23    8   37 1     
   24    9   10 1     
   25    9   38 1     
   26    9   56 1     
   27   10   11 1     
   28   10   39 1     
   29   10   40 1     
   30   11   12 1     
   31   11   13 1     
   32   11   41 1     
   33   12   42 1     
   34   13   14 1     
   35   13   43 1     
   36   13   44 1     
   37   14   24 1     
   38   14   15 1     
   39   15   16 2     
   40   15   45 1     
   41   16   17 1     
   42   17   24 ar    
   43   17   18 ar    
   44   18   19 ar    
   45   18   46 1     
   46   19   20 1     
   47   19   21 ar    
   48   20   47 1     
   49   20   48 1     
   50   20   49 1     
   51   21   22 1     
   52   21   23 ar    
   53   22   50 1     
   54   22   51 1     
   55   22   52 1     
   56   23   24 ar    
   57   23   53 1     
   58   25   54 1     
   59   25   55 1     
   60    6   58 1     
   61    6   59 1     
   62   12   60 1     
   63   12   61 1     
   64   16   62 1     
@<TRIPOS>SUBSTRUCTURE
      1 S1             1
@<TRIPOS>SET
LONE_PAIRS      STATIC     ATOMS    <user>   **** ""
5 58 59 60 61 62
DONOR_HYDROGENS      STATIC     ATOMS    <user>   **** ""
4 57 38 56 42
ATOM$BLUE        STATIC     ATOMS    COLORGROUP SYSTEM
5 58 59 60 61 62
ATOM$RED        STATIC     ATOMS    COLORGROUP SYSTEM
4 57 38 56 42
