#       Name:                AV-unprocessed.smi:1291
#       Creating user name   scv26
#       Creation time:       Fri Mar 27 04:54:51 2020


#       File generated by GOLD software.
#

@<TRIPOS>MOLECULE
AV-unprocessed.smi:1291
    50    52     1
SMALL
NO_CHARGES


@<TRIPOS>ATOM
      1 ****        -2.4346   2.4931   3.7063 O.3            1 S1                 0.0000
      2 ****        -2.1890   1.5082   2.7244 C.3            1 S1                 0.0000
      3 ****        -2.5987   1.9289   1.3484 C.2            1 S1                 0.0000
      4 ****        -3.1709   3.1174   1.0012 N.pl3          1 S1                 1.0000
      5 ****        -3.4018   3.1490  -0.3742 C.ar           1 S1                 0.0000
      6 ****        -3.9555   4.1375  -1.1823 C.ar           1 S1                 0.0000
      7 ****        -4.0401   3.8538  -2.5611 C.ar           1 S1                 0.0000
      8 ****        -3.5861   2.6269  -3.0871 C.ar           1 S1                 0.0000
      9 ****        -3.0317   1.6306  -2.2569 C.ar           1 S1                 0.0000
     10 ****        -2.9506   1.9185  -0.8942 C.ar           1 S1                 0.0000
     11 ****        -2.4687   1.1964   0.2051 N.pl3          1 S1                 0.0000
     12 ****        -1.9222  -0.1563   0.0076 C.3            1 S1                 0.0000
     13 ****        -0.3891  -0.1689  -0.1564 C.3            1 S1                 0.0000
     14 ****        -0.0324   0.5939  -1.2922 O.3            1 S1                 0.0000
     15 ****         0.1520  -1.5942  -0.3445 C.3            1 S1                 0.0000
     16 ****         1.5338  -1.6070  -0.0276 O.3            1 S1                 0.0000
     17 ****         2.1208  -2.8887  -0.1779 C.3            1 S1                 0.0000
     18 ****         3.6070  -2.8534   0.1199 C.ar           1 S1                 0.0000
     19 ****         4.1186  -3.5081   1.2603 C.ar           1 S1                 0.0000
     20 ****         5.4996  -3.4747   1.5359 C.ar           1 S1                 0.0000
     21 ****         6.3743  -2.7880   0.6718 C.ar           1 S1                 0.0000
     22 ****         5.8676  -2.1356  -0.4687 C.ar           1 S1                 0.0000
     23 ****         4.4867  -2.1675  -0.7455 C.ar           1 S1                 0.0000
     24 ****         4.0084  -1.5356  -1.8444 F              1 S1                 0.0000
     25 ****        -2.1472   2.1614   4.5436 H              1 S1                 0.0000
     26 ****        -1.1251   1.2704   2.7238 H              1 S1                 0.0000
     27 ****        -2.7248   0.5984   2.9953 H              1 S1                 0.0000
     28 ****        -4.3019   5.0787  -0.7815 H              1 S1                 0.0000
     29 ****        -4.4592   4.5926  -3.2288 H              1 S1                 0.0000
     30 ****        -3.6621   2.4459  -4.1496 H              1 S1                 0.0000
     31 ****        -2.6808   0.6978  -2.6728 H              1 S1                 0.0000
     32 ****        -2.2058  -0.7465   0.8798 H              1 S1                 0.0000
     33 ****        -2.4157  -0.6253  -0.8439 H              1 S1                 0.0000
     34 ****         0.0662   0.2810   0.7267 H              1 S1                 0.0000
     35 ****         0.9092   0.5790  -1.3762 H              1 S1                 0.0000
     36 ****        -0.3612  -2.2758   0.3360 H              1 S1                 0.0000
     37 ****        -0.0289  -1.9529  -1.3595 H              1 S1                 0.0000
     38 ****         1.6273  -3.6023   0.4836 H              1 S1                 0.0000
     39 ****         1.9797  -3.2476  -1.1987 H              1 S1                 0.0000
     40 ****         3.4545  -4.0356   1.9291 H              1 S1                 0.0000
     41 ****         5.8875  -3.9757   2.4108 H              1 S1                 0.0000
     42 ****         7.4331  -2.7614   0.8836 H              1 S1                 0.0000
     43 ****         6.5388  -1.6097  -1.1316 H              1 S1                 0.0000
     44 ****        -3.3821   3.8520   1.6644 H              1 S1                 0.0000
     45 ****        -3.4130   2.6967   3.7421 LP             1 S1                 0.0000
     46 ****        -1.9288   3.3261   3.4820 LP             1 S1                 0.0000
     47 ****        -0.3468   1.5364  -1.1789 LP             1 S1                 0.0000
     48 ****        -0.4511   0.1988  -2.1099 LP             1 S1                 0.0000
     49 ****         1.6465  -1.3135   0.9216 LP             1 S1                 0.0000
     50 ****         2.0063  -0.9664  -0.6330 LP             1 S1                 0.0000
@<TRIPOS>BOND
    1    1    2 1     
    2    1   25 1     
    3    2    3 1     
    4    2   26 1     
    5    2   27 1     
    6    3   11 1     
    7    3    4 2     
    8    4    5 1     
    9    4   44 1     
   10    5   10 ar    
   11    5    6 ar    
   12    6    7 ar    
   13    6   28 1     
   14    7    8 ar    
   15    7   29 1     
   16    8    9 ar    
   17    8   30 1     
   18    9   10 ar    
   19    9   31 1     
   20   10   11 1     
   21   11   12 1     
   22   12   13 1     
   23   12   32 1     
   24   12   33 1     
   25   13   14 1     
   26   13   15 1     
   27   13   34 1     
   28   14   35 1     
   29   15   16 1     
   30   15   36 1     
   31   15   37 1     
   32   16   17 1     
   33   17   18 1     
   34   17   38 1     
   35   17   39 1     
   36   18   23 ar    
   37   18   19 ar    
   38   19   20 ar    
   39   19   40 1     
   40   20   21 ar    
   41   20   41 1     
   42   21   22 ar    
   43   21   42 1     
   44   22   23 ar    
   45   22   43 1     
   46   23   24 1     
   47    1   45 1     
   48    1   46 1     
   49   14   47 1     
   50   14   48 1     
   51   16   49 1     
   52   16   50 1     
@<TRIPOS>SUBSTRUCTURE
      1 S1             1
@<TRIPOS>SET
LONE_PAIRS      STATIC     ATOMS    <user>   **** ""
6 45 46 47 48 49 50
DONOR_HYDROGENS      STATIC     ATOMS    <user>   **** ""
3 25 44 35
ATOM$BLUE        STATIC     ATOMS    COLORGROUP SYSTEM
6 45 46 47 48 49 50
ATOM$RED        STATIC     ATOMS    COLORGROUP SYSTEM
3 25 44 35
