#       Name:                AV-unprocessed.smi:409
#       Creating user name   scv26
#       Creation time:       Thu Mar 26 22:45:45 2020


#       File generated by GOLD software.
#

@<TRIPOS>MOLECULE
AV-unprocessed.smi:409
    41    42     1
SMALL
NO_CHARGES


@<TRIPOS>ATOM
      1 ****         0.3327   0.3659   1.5189 O.2            1 S1                 0.0000
      2 ****         0.8206   0.0741   0.4261 C.2            1 S1                 0.0000
      3 ****         2.3397   0.1124   0.2118 C.3            1 S1                 0.0000
      4 ****         2.9991   1.1802   0.9804 N.am           1 S1                 0.0000
      5 ****         3.5931   0.8330   2.2066 C.2            1 S1                 0.0000
      6 ****         4.2157   1.7448   2.9777 C.2            1 S1                 0.0000
      7 ****         4.2655   3.1249   2.5112 C.2            1 S1                 0.0000
      8 ****         4.8346   3.9698   3.1995 O.2            1 S1                 0.0000
      9 ****         3.6698   3.4130   1.3169 N.pl3          1 S1                -1.0000
     10 ****         3.0373   2.4756   0.5448 C.2            1 S1                 0.0000
     11 ****         2.5034   2.7577  -0.5287 O.2            1 S1                 0.0000
     12 ****         0.0868  -0.3195  -0.6259 N.am           1 S1                 0.0000
     13 ****        -1.3682  -0.4332  -0.6460 C.3            1 S1                 0.0000
     14 ****        -1.8183  -1.7776  -0.0373 C.3            1 S1                 0.0000
     15 ****        -3.3438  -1.9495  -0.1197 C.3            1 S1                 0.0000
     16 ****        -3.8453  -1.8027  -1.5648 C.3            1 S1                 0.0000
     17 ****        -3.4031  -0.4618  -2.1716 C.3            1 S1                 0.0000
     18 ****        -1.8773  -0.2905  -2.0928 C.3            1 S1                 0.0000
     19 ****         2.7449  -0.8617   0.4883 H              1 S1                 0.0000
     20 ****         2.5630   0.2237  -0.8511 H              1 S1                 0.0000
     21 ****         3.5061  -0.2077   2.4817 H              1 S1                 0.0000
     22 ****         4.6643   1.4626   3.9187 H              1 S1                 0.0000
     23 ****         0.5733  -0.5421  -1.4821 H              1 S1                 0.0000
     24 ****        -1.7948   0.3812  -0.0570 H              1 S1                 0.0000
     25 ****        -1.3330  -2.6018  -0.5623 H              1 S1                 0.0000
     26 ****        -1.5006  -1.8458   1.0036 H              1 S1                 0.0000
     27 ****        -3.6297  -2.9244   0.2763 H              1 S1                 0.0000
     28 ****        -3.8287  -1.2047   0.5127 H              1 S1                 0.0000
     29 ****        -3.4594  -2.6235  -2.1706 H              1 S1                 0.0000
     30 ****        -4.9324  -1.8826  -1.5915 H              1 S1                 0.0000
     31 ****        -3.7310  -0.3963  -3.2093 H              1 S1                 0.0000
     32 ****        -3.8897   0.3575  -1.6410 H              1 S1                 0.0000
     33 ****        -1.5969   0.6844  -2.4935 H              1 S1                 0.0000
     34 ****        -1.3979  -1.0356  -2.7295 H              1 S1                 0.0000
     35 ****         0.9279   0.6311   2.2774 LP             1 S1                 0.0000
     36 ****        -0.6586   0.3376   1.6475 LP             1 S1                 0.0000
     37 ****         5.2559   3.7066   4.0674 LP             1 S1                 0.0000
     38 ****         4.8762   4.9203   2.8915 LP             1 S1                 0.0000
     39 ****         3.6968   4.3574   0.9891 LP             1 S1                 0.0000
     40 ****         2.0522   2.0447  -1.0654 LP             1 S1                 0.0000
     41 ****         2.5211   3.6998  -0.8636 LP             1 S1                 0.0000
@<TRIPOS>BOND
    1    1    2 2     
    2    2    3 1     
    3    2   12 am    
    4    3    4 1     
    5    3   19 1     
    6    3   20 1     
    7    4   10 am    
    8    4    5 1     
    9    5    6 2     
   10    5   21 1     
   11    6    7 1     
   12    6   22 1     
   13    7    8 2     
   14    7    9 1     
   15    9   10 1     
   16   10   11 2     
   17   12   13 1     
   18   12   23 1     
   19   13   18 1     
   20   13   14 1     
   21   13   24 1     
   22   14   15 1     
   23   14   25 1     
   24   14   26 1     
   25   15   16 1     
   26   15   27 1     
   27   15   28 1     
   28   16   17 1     
   29   16   29 1     
   30   16   30 1     
   31   17   18 1     
   32   17   31 1     
   33   17   32 1     
   34   18   33 1     
   35   18   34 1     
   36    1   35 1     
   37    1   36 1     
   38    8   37 1     
   39    8   38 1     
   40    9   39 1     
   41   11   40 1     
   42   11   41 1     
@<TRIPOS>SUBSTRUCTURE
      1 S1             1
@<TRIPOS>SET
LONE_PAIRS      STATIC     ATOMS    <user>   **** ""
7 35 36 37 38 39 40 41
DONOR_HYDROGENS      STATIC     ATOMS    <user>   **** ""
1 23
ATOM$BLUE        STATIC     ATOMS    COLORGROUP SYSTEM
7 35 36 37 38 39 40 41
ATOM$RED        STATIC     ATOMS    COLORGROUP SYSTEM
1 23
