AV-unprocessed.smi:834|AV-procd|sdf|3885|dock2
  -GOLD-   22720 1343D 1   1.00000     0.00000
 Structure written by MMmdl.
 38 39  0  0  0  0  0  0  0  0  2 V2000
  144.9345  133.4646  162.6431 C   0  0  0  0  0  0  0  0  0  0  0  0
  145.9116  134.2826  161.8707 C   0  0  0  0  0  0  0  0  0  0  0  0
  146.7991  133.7455  161.0301 N   0  0  0  0  0  0  0  0  0  0  0  0
  147.5994  134.7071  160.4305 N   0  0  0  0  0  0  0  0  0  0  0  0
  147.3154  135.9536  160.8336 C   0  0  0  0  0  0  0  0  0  0  0  0
  147.9737  137.0282  160.3687 N   0  5  0  0  0  0  0  0  0  0  0  0
  148.9203  136.8810  159.4139 C   0  0  0  0  0  0  0  0  0  0  0  0
  149.1195  135.8729  158.7318 O   0  0  0  0  0  0  0  0  0  0  0  0
  149.6870  137.9673  159.2424 N   0  0  0  0  0  0  0  0  0  0  0  0
  150.7902  138.0955  158.2957 C   0  0  0  0  0  0  0  0  0  0  0  0
  150.8099  139.4903  157.6397 C   0  0  0  0  0  0  0  0  0  0  0  0
  151.7774  140.4728  158.3074 C   0  0  0  0  0  0  0  0  0  0  0  0
  152.9946  140.2865  158.2795 O   0  0  0  0  0  0  0  0  0  0  0  0
  151.2118  141.5327  158.9051 N   0  0  0  0  0  0  0  0  0  0  0  0
  151.9367  142.5942  159.5985 C   0  0  0  0  0  0  0  0  0  0  0  0
  150.9707  143.6926  160.0832 C   0  0  0  0  0  0  0  0  0  0  0  0
  151.5995  145.0237  159.6672 C   0  0  0  0  0  0  0  0  0  0  0  0
  152.3832  144.6902  158.4021 C   0  0  0  0  0  0  0  0  0  0  0  0
  152.9488  143.2951  158.6689 C   0  0  0  0  0  0  0  0  0  0  0  0
  145.9916  136.0319  161.9961 S   0  0  0  0  0  0  0  0  0  0  0  0
  145.4123  133.0591  163.5348 H   0  0  0  0  0  0  0  0  0  0  0  0
  144.5662  132.6389  162.0339 H   0  0  0  0  0  0  0  0  0  0  0  0
  144.0860  134.0776  162.9475 H   0  0  0  0  0  0  0  0  0  0  0  0
  149.4875  138.7701  159.8207 H   0  0  0  0  0  0  0  0  0  0  0  0
  151.7380  137.8868  158.7954 H   0  0  0  0  0  0  0  0  0  0  0  0
  150.6624  137.3241  157.5358 H   0  0  0  0  0  0  0  0  0  0  0  0
  151.0874  139.3984  156.5889 H   0  0  0  0  0  0  0  0  0  0  0  0
  149.8093  139.9242  157.6624 H   0  0  0  0  0  0  0  0  0  0  0  0
  150.2050  141.6072  158.8806 H   0  0  0  0  0  0  0  0  0  0  0  0
  152.4636  142.1721  160.4566 H   0  0  0  0  0  0  0  0  0  0  0  0
  150.0001  143.5932  159.5947 H   0  0  0  0  0  0  0  0  0  0  0  0
  150.7958  143.6427  161.1585 H   0  0  0  0  0  0  0  0  0  0  0  0
  150.8583  145.8075  159.5085 H   0  0  0  0  0  0  0  0  0  0  0  0
  152.2854  145.3652  160.4437 H   0  0  0  0  0  0  0  0  0  0  0  0
  151.7056  144.6555  157.5480 H   0  0  0  0  0  0  0  0  0  0  0  0
  153.1602  145.4229  158.1826 H   0  0  0  0  0  0  0  0  0  0  0  0
  153.9041  143.3877  159.1870 H   0  0  0  0  0  0  0  0  0  0  0  0
  153.1408  142.7514  157.7428 H   0  0  0  0  0  0  0  0  0  0  0  0
  1  2  1  0  0  0  0
  1 21  1  0  0  0  0
  1 22  1  0  0  0  0
  1 23  1  0  0  0  0
  2 20  1  0  0  0  0
  2  3  2  0  0  0  0
  3  4  1  0  0  0  0
  4  5  2  0  0  0  0
  5  6  1  0  0  0  0
  5 20  1  0  0  0  0
  6  7  1  0  0  0  0
  7  8  2  0  0  0  0
  7  9  1  0  0  0  0
  9 10  1  0  0  0  0
  9 24  1  0  0  0  0
 10 11  1  0  0  0  0
 10 25  1  0  0  0  0
 10 26  1  0  0  0  0
 11 12  1  0  0  0  0
 11 27  1  0  0  0  0
 11 28  1  0  0  0  0
 12 13  2  0  0  0  0
 12 14  1  0  0  0  0
 14 15  1  0  0  0  0
 14 29  1  0  0  0  0
 15 19  1  0  0  0  0
 15 16  1  0  0  0  0
 15 30  1  0  0  0  0
 16 17  1  0  0  0  0
 16 31  1  0  0  0  0
 16 32  1  0  0  0  0
 17 18  1  0  0  0  0
 17 33  1  0  0  0  0
 17 34  1  0  0  0  0
 18 19  1  0  0  0  0
 18 35  1  0  0  0  0
 18 36  1  0  0  0  0
 19 37  1  0  0  0  0
 19 38  1  0  0  0  0
M  CHG  1   6  -1
M  END
> <s_m_source_file>
AV-unprocessed.smi

> <i_m_source_file_index>
834

> <i_lp_mmshare_version>
43012

> <i_f3d_flags>
0

> <s_epik_input>
W0NIM11jMW5uYyhzMSlbTkhdQyg9TylbTkhdW0NIMl1bQ0gyXUMoPU8pW05IXVtDSF0yW0NIMl1bQ0gyXVtDSDJdW0NIMl0y

> <s_epik_cmdline>
J2VwaWtfcHl0aG9uJywgJy1waCcsICc3LjAnLCAnLXRuJywgJzgnLCAnLW1hJywgJzIwMCcsICctbWV0YWxfYmluZGluZycsICctaW1hZScsICc8aW5maWxlLm1hZT4nLCAnLW9tYWUnLCAnPG91dGZpbGUubWFlPic=

> <r_lp_tautomer_probability>
1

> <r_epik_Ionization_Penalty>
3.40129

> <r_epik_Ionization_Penalty_Charging>
3.26946

> <r_epik_Ionization_Penalty_Neutral>
0.131835

> <r_epik_State_Penalty>
3.26707

> <r_epik_Charging_Adjusted_Penalty>
6.53653

> <i_epik_Tot_Q>
-1

> <i_epik_Tot_abs_Q>
1

> <r_epik_Metal_State_Penalty>
0.478667

> <b_epik_Metal_Only>
1

> <s_lp_Force_Field>
OPLS_2005

> <r_lp_Energy>
15.9775

> <b_lp_Chiralities_Consistent>
1

> <s_lp_Variant>
AV-unprocessed.smi:834-2

> <Gold.Version>
5.8.1

> <Gold.Id.Protein>
6NUR|6NUR_protein|mol2

> <Gold.PLP.Fitness>
48.5660

> <Gold.PLP.PLP>
-34.9112

> <Gold.PLP.part.hbond>
-4.0000

> <Gold.PLP.part.metal>
0.0000

> <Gold.PLP.part.buried>
-4.5648

> <Gold.PLP.part.nonpolar>
-28.5903

> <Gold.PLP.part.repulsive>
2.2221

> <Gold.PLP.ligand.clash>
0.0000

> <Gold.PLP.ligand.torsion>
0.4801

> <Gold.PLP.Chemscore.Hbond>
4.8335

> <Gold.PLP.Chemscore.CHOScore>
0.0000

> <Gold.PLP.Chemscore.Metal>
0.0000

> <Gold.Chemscore.Hbonds>
donor molecule, donor type, donor heavy atom, donor atom, acceptor molecule, acceptor atom, score
      P1  H  6896  6907       L1     8  0.65
      P1  H  6931  6943       L1     6  0.82
      P1  H  6934  6947       L1     6  0.88
      P1  H  7997  8010       L1    13  0.86

> <Gold.PLP.Chemscore.Internal.Correction>
0.1143

> <Gold.Rescore>
     Score         DG    S(hbond)    S(metal)    S(lipo)     H(rot)  DE(clash)    DE(int)     intcor
     15.48     -19.52       2.53        0.00      90.37       1.95       1.84       2.19       ----

> <Gold.Chemscore.Fitness>
15.4817

> <Gold.Chemscore.DG>
-19.5179

> <Gold.Chemscore.ZeroCoef>
-5.4800

> <Gold.Chemscore.Hbond>
2.5284

> <Gold.Chemscore.Metal>
0.0000

> <Gold.Chemscore.Lipo>
90.3717

> <Gold.Chemscore.Internal_Hbond>
0.0000

> <Gold.Chemscore.DEClash>
1.8428

> <Gold.Chemscore.DEInternal>
2.1934

> <Gold.Chemscore.Rot>
1.9455

> <Gold.Chemscore.Internal.Correction>
   9.000000E+99

> <Gold.Chemscore.Hbonds>
donor molecule, donor type, donor heavy atom, donor atom, acceptor molecule, acceptor atom, score
      P1  H  6896  6907       L1     8  0.45
      P1  H  6931  6943       L1     6  0.13
      P1  H  6934  6947       L1     6  0.41
      P1  H  7997  8010       L1    13  0.80

> <Gold.Chemscore.Hbond.Weighted>
-8.4449

> <Gold.Chemscore.Metal.Weighted>
-0.0000

> <Gold.Chemscore.Lipo.Weighted>
-10.5735

> <Gold.Chemscore.Internal_Hbond.Weighted>
0.0000

> <Gold.Chemscore.DEClash.Weighted>
1.8428

> <Gold.Chemscore.DEInternal.Weighted>
2.1934

> <Gold.Chemscore.Rot.Weighted>
4.9805

> <Gold.Chemscore.Internal.Correction.Weighted>
   9.000000E+99

> <Gold.Protein.RotatedTorsions>
[ 6907 6896 6895 6894 ] final  -60.10 input  -60.11 | X-H torsion
[ 7974 7965 7964 7962 ] final  -37.05 input  175.53 | X-H torsion
[ 8008 7997 7996 7995 ] final   30.66 input   59.86 | X-H torsion
[ 10167 10162 10161 10158 ] final   14.74 input  -65.29 | X-H torsion
[ 10718 10713 10712 10709 ] final  158.86 input   66.30 | X-H torsion
[ 10763 10752 10751 10750 ] final  178.17 input  -60.55 | X-H torsion
[ 11005 11000 10999 10996 ] final  166.60 input  -57.11 | X-H torsion

> <Gold.Protein.ActiveResidues>
 VAL166  LYS551  ARG553  GLY616  TRP617  ASP618  TYR619  PRO620  LYS621  CYS622 
 ASP623  PHE694  ASN695  SER759  ASP760  ASP761  ALA762  ILE779  LEU786  VAL792 
 PHE793  MET794  SER795  GLU796  ALA797  LYS798  CYS799  TRP800  GLU811  SER814 

> <Gold.Protein.RotatedAtoms>
  150.7881  134.6882  159.6481 H   0  0  0  0  0  0  0  0  0  0  0  0  # atno 6907 bound_to 6896
  152.3982  134.6328  160.0089 H   0  0  0  0  0  0  0  0  0  0  0  0  # atno 6908 bound_to 6896
  151.6607  133.3280  159.3209 H   0  0  0  0  0  0  0  0  0  0  0  0  # atno 6909 bound_to 6896
  146.0608  140.6351  142.8998 H   0  0  0  0  0  0  0  0  0  0  0  0  # atno 7974 bound_to 7965
  155.0939  140.3223  155.4566 H   0  0  0  0  0  0  0  0  0  0  0  0  # atno 8008 bound_to 7997
  156.2735  140.2073  156.6013 H   0  0  0  0  0  0  0  0  0  0  0  0  # atno 8009 bound_to 7997
  154.6881  140.0519  157.0323 H   0  0  0  0  0  0  0  0  0  0  0  0  # atno 8010 bound_to 7997
  140.5915  143.8786  150.6878 H   0  0  0  0  0  0  0  0  0  0  0  0  # atno 10167 bound_to 10162
  157.1720  131.0612  151.2177 H   0  0  0  0  0  0  0  0  0  0  0  0  # atno 10718 bound_to 10713
  154.5041  135.2785  155.1396 H   0  0  0  0  0  0  0  0  0  0  0  0  # atno 10763 bound_to 10752
  154.3018  135.6246  153.5431 H   0  0  0  0  0  0  0  0  0  0  0  0  # atno 10764 bound_to 10752
  152.9907  135.5698  154.5491 H   0  0  0  0  0  0  0  0  0  0  0  0  # atno 10765 bound_to 10752
  140.2681  134.7848  157.3651 H   0  0  0  0  0  0  0  0  0  0  0  0  # atno 11005 bound_to 11000
  144.7174  140.4256  143.7034 LP  0  0  0  0  0  0  0  0  0  0  0  0  # atno 17320 bound_to 7965
  145.6563  139.1573  143.2833 LP  0  0  0  0  0  0  0  0  0  0  0  0  # atno 17321 bound_to 7965
  140.2310  143.3735  152.1565 LP  0  0  0  0  0  0  0  0  0  0  0  0  # atno 17342 bound_to 10162
  139.5230  144.7066  151.5334 LP  0  0  0  0  0  0  0  0  0  0  0  0  # atno 17343 bound_to 10162
  157.4034  130.7345  149.6784 LP  0  0  0  0  0  0  0  0  0  0  0  0  # atno 17370 bound_to 10713
  155.9737  130.4115  150.3983 LP  0  0  0  0  0  0  0  0  0  0  0  0  # atno 17371 bound_to 10713
  140.1399  134.4985  155.8039 LP  0  0  0  0  0  0  0  0  0  0  0  0  # atno 17394 bound_to 11000
  141.2181  133.6821  156.7192 LP  0  0  0  0  0  0  0  0  0  0  0  0  # atno 17395 bound_to 11000

$$$$
