#       Name:                AV-unprocessed.smi:1032
#       Creating user name   scv26
#       Creation time:       Fri Mar 27 02:46:44 2020


#       File generated by GOLD software.
#

@<TRIPOS>MOLECULE
AV-unprocessed.smi:1032
    51    52     1
SMALL
NO_CHARGES


@<TRIPOS>ATOM
      1 ****        -4.6145   4.4562   0.0796 C.3            1 S1                 0.0000
      2 ****        -4.1161   3.0073   0.1746 C.3            1 S1                 0.0000
      3 ****        -2.5903   2.9375   0.3535 C.3            1 S1                 0.0000
      4 ****        -2.1014   1.4805   0.4187 C.3            1 S1                 0.0000
      5 ****        -2.5127   0.7224  -0.7932 N.4            1 S1                 1.0000
      6 ****        -1.9655  -0.6584  -0.8437 C.3            1 S1                 0.0000
      7 ****        -0.4680  -0.7022  -1.2138 C.3            1 S1                 0.0000
      8 ****        -0.3357  -0.1871  -2.5242 O.3            1 S1                 0.0000
      9 ****         0.0684  -2.1487  -1.2124 C.3            1 S1                 0.0000
     10 ****         1.5230  -2.1944  -1.0926 N.am           1 S1                 0.0000
     11 ****         2.2016  -2.0779   0.0581 C.2            1 S1                 0.0000
     12 ****         1.6596  -1.8832   1.1462 O.2            1 S1                 0.0000
     13 ****         3.5273  -2.1765  -0.1407 N.am           1 S1                 0.0000
     14 ****         4.5655  -2.1619   0.8301 C.ar           1 S1                 0.0000
     15 ****         5.8596  -1.7890   0.4035 C.ar           1 S1                 0.0000
     16 ****         6.9217  -1.7803   1.3306 C.ar           1 S1                 0.0000
     17 ****         6.6980  -2.1391   2.6130 N.pl3          1 S1                 1.0000
     18 ****         5.4831  -2.5184   3.0636 C.ar           1 S1                 0.0000
     19 ****         4.3821  -2.5449   2.1832 C.ar           1 S1                 0.0000
     20 ****        -3.9875   0.7450  -0.9718 C.3            1 S1                 0.0000
     21 ****        -4.5172   2.1857  -1.0617 C.3            1 S1                 0.0000
     22 ****        -4.1894   4.9679  -0.7847 H              1 S1                 0.0000
     23 ****        -4.3431   5.0245   0.9696 H              1 S1                 0.0000
     24 ****        -5.7003   4.4917  -0.0138 H              1 S1                 0.0000
     25 ****        -4.5818   2.5537   1.0509 H              1 S1                 0.0000
     26 ****        -2.0959   3.4509  -0.4726 H              1 S1                 0.0000
     27 ****        -2.2966   3.4633   1.2628 H              1 S1                 0.0000
     28 ****        -1.0172   1.4815   0.5213 H              1 S1                 0.0000
     29 ****        -2.5008   0.9915   1.3087 H              1 S1                 0.0000
     30 ****        -2.1366  -1.1425   0.1190 H              1 S1                 0.0000
     31 ****        -2.5178  -1.2453  -1.5798 H              1 S1                 0.0000
     32 ****         0.1130  -0.0895  -0.5256 H              1 S1                 0.0000
     33 ****         0.5767  -0.2191  -2.7701 H              1 S1                 0.0000
     34 ****        -0.3612  -2.7056  -0.3776 H              1 S1                 0.0000
     35 ****        -0.2393  -2.6822  -2.1129 H              1 S1                 0.0000
     36 ****         2.0449  -2.3484  -1.9432 H              1 S1                 0.0000
     37 ****         3.8315  -2.2292  -1.1018 H              1 S1                 0.0000
     38 ****         6.0401  -1.5057  -0.6234 H              1 S1                 0.0000
     39 ****         7.9365  -1.5025   1.0857 H              1 S1                 0.0000
     40 ****         5.4290  -2.7940   4.1067 H              1 S1                 0.0000
     41 ****         3.4240  -2.8714   2.5585 H              1 S1                 0.0000
     42 ****        -4.2574   0.2105  -1.8836 H              1 S1                 0.0000
     43 ****        -4.4638   0.2189  -0.1427 H              1 S1                 0.0000
     44 ****        -5.6029   2.1706  -1.1638 H              1 S1                 0.0000
     45 ****        -4.1289   2.6598  -1.9643 H              1 S1                 0.0000
     46 ****        -2.1254   1.2060  -1.5912 H              1 S1                 0.0000
     47 ****         7.4807  -2.1284   3.2678 H              1 S1                 0.0000
     48 ****        -0.6582   0.7592  -2.5484 LP             1 S1                 0.0000
     49 ****        -0.8754  -0.7395  -3.1595 LP             1 S1                 0.0000
     50 ****         0.6643  -1.8041   1.2020 LP             1 S1                 0.0000
     51 ****         2.2147  -1.8041   1.9742 LP             1 S1                 0.0000
@<TRIPOS>BOND
    1    1    2 1     
    2    1   22 1     
    3    1   23 1     
    4    1   24 1     
    5    2   21 1     
    6    2    3 1     
    7    2   25 1     
    8    3    4 1     
    9    3   26 1     
   10    3   27 1     
   11    4    5 1     
   12    4   28 1     
   13    4   29 1     
   14    5    6 1     
   15    5   20 1     
   16    5   46 1     
   17    6    7 1     
   18    6   30 1     
   19    6   31 1     
   20    7    8 1     
   21    7    9 1     
   22    7   32 1     
   23    8   33 1     
   24    9   10 1     
   25    9   34 1     
   26    9   35 1     
   27   10   11 am    
   28   10   36 1     
   29   11   12 2     
   30   11   13 am    
   31   13   14 1     
   32   13   37 1     
   33   14   19 ar    
   34   14   15 ar    
   35   15   16 ar    
   36   15   38 1     
   37   16   17 ar    
   38   16   39 1     
   39   17   18 ar    
   40   17   47 1     
   41   18   19 ar    
   42   18   40 1     
   43   19   41 1     
   44   20   21 1     
   45   20   42 1     
   46   20   43 1     
   47   21   44 1     
   48   21   45 1     
   49    8   48 1     
   50    8   49 1     
   51   12   50 1     
   52   12   51 1     
@<TRIPOS>SUBSTRUCTURE
      1 S1             1
@<TRIPOS>SET
LONE_PAIRS      STATIC     ATOMS    <user>   **** ""
4 48 49 50 51
DONOR_HYDROGENS      STATIC     ATOMS    <user>   **** ""
5 46 33 36 37 47
ATOM$BLUE        STATIC     ATOMS    COLORGROUP SYSTEM
4 48 49 50 51
ATOM$RED        STATIC     ATOMS    COLORGROUP SYSTEM
5 46 33 36 37 47
