AV-unprocessed.smi:1844|AV-procd|sdf|7510|dock2
  -GOLD-   22720 9213D 1   1.00000     0.00000
 Structure written by MMmdl.
 45 46  0  0  0  0  0  0  0  0  1 V2000
  149.2249  133.2160  155.2811 C   0  0  0  0  0  0  0  0  0  0  0  0
  149.6279  134.6137  155.2479 N   0  0  0  0  0  0  0  0  0  0  0  0
  150.0411  135.3125  156.3181 C   0  0  0  0  0  0  0  0  0  0  0  0
  150.1090  134.8011  157.4373 O   0  0  0  0  0  0  0  0  0  0  0  0
  150.3929  136.7028  156.0181 C   0  0  0  0  0  0  0  0  0  0  0  0
  150.7805  137.1575  154.6909 C   0  0  0  0  0  0  0  0  0  0  0  0
  151.0878  138.4510  154.4720 C   0  0  0  0  0  0  0  0  0  0  0  0
  151.0493  139.4466  155.5471 C   0  0  0  0  0  0  0  0  0  0  0  0
  151.3271  140.6303  155.3520 O   0  0  0  0  0  0  0  0  0  0  0  0
  150.6864  138.9769  156.7791 N   0  0  0  0  0  0  0  0  0  0  0  0
  150.6123  139.8825  157.9381 C   0  0  0  0  0  0  0  0  0  0  0  0
  151.9578  140.5305  158.2941 C   0  0  0  0  0  0  0  0  0  0  0  0
  153.0106  139.8996  158.1903 O   0  0  0  0  0  0  0  0  0  0  0  0
  151.8981  141.8101  158.6944 N   0  0  0  0  0  0  0  0  0  0  0  0
  153.0322  142.6491  159.0878 C   0  0  2  0  0  0  0  0  0  0  0  0
  153.7988  141.9805  160.2469 C   0  0  0  0  0  0  0  0  0  0  0  0
  152.9985  141.9971  161.5611 C   0  0  0  0  0  0  0  0  0  0  0  0
  152.5686  143.4240  161.9325 C   0  0  0  0  0  0  0  0  0  0  0  0
  151.7813  144.0865  160.7905 C   0  0  0  0  0  0  0  0  0  0  0  0
  152.5823  144.0823  159.4716 C   0  0  2  0  0  0  0  0  0  0  0  0
  151.8184  144.7975  158.3441 C   0  0  0  0  0  0  0  0  0  0  0  0
  150.3616  137.6240  157.0012 C   0  0  0  0  0  0  0  0  0  0  0  0
  148.9507  132.8849  154.2796 H   0  0  0  0  0  0  0  0  0  0  0  0
  148.3627  133.0763  155.9342 H   0  0  0  0  0  0  0  0  0  0  0  0
  150.0392  132.5844  155.6382 H   0  0  0  0  0  0  0  0  0  0  0  0
  149.5912  135.0835  154.3549 H   0  0  0  0  0  0  0  0  0  0  0  0
  150.8296  136.4755  153.8549 H   0  0  0  0  0  0  0  0  0  0  0  0
  151.3713  138.7651  153.4782 H   0  0  0  0  0  0  0  0  0  0  0  0
  149.8905  140.6798  157.7561 H   0  0  0  0  0  0  0  0  0  0  0  0
  150.2286  139.3461  158.8082 H   0  0  0  0  0  0  0  0  0  0  0  0
  150.9871  142.2437  158.7356 H   0  0  0  0  0  0  0  0  0  0  0  0
  153.7269  142.7293  158.2500 H   0  0  0  0  0  0  0  0  0  0  0  0
  154.0633  140.9556  159.9835 H   0  0  0  0  0  0  0  0  0  0  0  0
  154.7426  142.5054  160.4000 H   0  0  0  0  0  0  0  0  0  0  0  0
  152.1168  141.3622  161.4662 H   0  0  0  0  0  0  0  0  0  0  0  0
  153.5985  141.5695  162.3649 H   0  0  0  0  0  0  0  0  0  0  0  0
  151.9637  143.4057  162.8394 H   0  0  0  0  0  0  0  0  0  0  0  0
  153.4510  144.0223  162.1623 H   0  0  0  0  0  0  0  0  0  0  0  0
  150.8320  143.5676  160.6519 H   0  0  0  0  0  0  0  0  0  0  0  0
  151.5314  145.1104  161.0708 H   0  0  0  0  0  0  0  0  0  0  0  0
  153.4897  144.6620  159.6471 H   0  0  0  0  0  0  0  0  0  0  0  0
  150.8569  144.3242  158.1433 H   0  0  0  0  0  0  0  0  0  0  0  0
  152.3928  144.7920  157.4172 H   0  0  0  0  0  0  0  0  0  0  0  0
  151.6233  145.8381  158.6043 H   0  0  0  0  0  0  0  0  0  0  0  0
  150.0813  137.3954  158.0200 H   0  0  0  0  0  0  0  0  0  0  0  0
  1  2  1  0  0  0  0
  1 23  1  0  0  0  0
  1 24  1  0  0  0  0
  1 25  1  0  0  0  0
  2  3  1  0  0  0  0
  2 26  1  0  0  0  0
  3  4  2  0  0  0  0
  3  5  1  0  0  0  0
  5 22  2  0  0  0  0
  5  6  1  0  0  0  0
  6  7  2  0  0  0  0
  6 27  1  0  0  0  0
  7  8  1  0  0  0  0
  7 28  1  0  0  0  0
  8  9  2  0  0  0  0
  8 10  1  0  0  0  0
 10 11  1  0  0  0  0
 10 22  1  0  0  0  0
 11 12  1  0  0  0  0
 11 29  1  0  0  0  0
 11 30  1  0  0  0  0
 12 13  2  0  0  0  0
 12 14  1  0  0  0  0
 14 15  1  0  0  0  0
 14 31  1  0  0  0  0
 15 20  1  0  0  0  0
 15 16  1  0  0  0  0
 15 32  1  0  0  0  0
 16 17  1  0  0  0  0
 16 33  1  0  0  0  0
 16 34  1  0  0  0  0
 17 18  1  0  0  0  0
 17 35  1  0  0  0  0
 17 36  1  0  0  0  0
 18 19  1  0  0  0  0
 18 37  1  0  0  0  0
 18 38  1  0  0  0  0
 19 20  1  0  0  0  0
 19 39  1  0  0  0  0
 19 40  1  0  0  0  0
 20 21  1  0  0  0  0
 20 41  1  0  0  0  0
 21 42  1  0  0  0  0
 21 43  1  0  0  0  0
 21 44  1  0  0  0  0
 22 45  1  0  0  0  0
M  END
> <s_m_source_file>
AV-unprocessed.smi

> <i_m_source_file_index>
1844

> <i_lp_mmshare_version>
43012

> <i_f3d_flags>
0

> <s_epik_input>
W0NIM11bTkhdQyg9TyljMVtjSF1bY0hdYyg9TyluKFtjSF0xKVtDSDJdQyg9TylbTkhdW0NAQEhdMltDSDJdW0NIMl1bQ0gyXVtDSDJdW0NASF0yW0NIM10=

> <s_epik_cmdline>
J2VwaWtfcHl0aG9uJywgJy1waCcsICc3LjAnLCAnLXRuJywgJzgnLCAnLW1hJywgJzIwMCcsICctbWV0YWxfYmluZGluZycsICctaW1hZScsICc8aW5maWxlLm1hZT4nLCAnLW9tYWUnLCAnPG91dGZpbGUubWFlPic=

> <r_lp_tautomer_probability>
1

> <r_epik_Ionization_Penalty>
3.66612e-07

> <r_epik_Ionization_Penalty_Charging>
5.18929e-08

> <r_epik_Ionization_Penalty_Neutral>
3.14719e-07

> <r_epik_State_Penalty>
-0

> <r_epik_Charging_Adjusted_Penalty>
5.18929e-08

> <i_epik_Tot_Q>
0

> <i_epik_Tot_abs_Q>
0

> <r_epik_Metal_State_Penalty>
-0

> <b_epik_Metal_Only>
0

> <s_lp_Force_Field>
OPLS_2005

> <r_lp_Energy>
22.5965

> <b_lp_Chiralities_Consistent>
1

> <s_lp_Variant>
AV-unprocessed.smi:1844-3

> <Gold.Version>
5.8.1

> <Gold.Id.Protein>
6NUR|6NUR_protein|mol2

> <Gold.PLP.Fitness>
53.9068

> <Gold.PLP.PLP>
-47.4580

> <Gold.PLP.part.hbond>
-3.0000

> <Gold.PLP.part.metal>
0.0000

> <Gold.PLP.part.buried>
-6.5416

> <Gold.PLP.part.nonpolar>
-38.4312

> <Gold.PLP.part.repulsive>
0.1588

> <Gold.PLP.ligand.clash>
0.0000

> <Gold.PLP.ligand.torsion>
0.5612

> <Gold.PLP.Chemscore.Hbond>
2.5200

> <Gold.PLP.Chemscore.CHOScore>
0.0000

> <Gold.PLP.Chemscore.Metal>
0.0000

> <Gold.Chemscore.Hbonds>
donor molecule, donor type, donor heavy atom, donor atom, acceptor molecule, acceptor atom, score
      P1  H  6896  6908       L1     4  0.61
      P1  H  7989  7998       L1     9  0.83
      P1  H  7997  8009       L1    13  1.00

> <Gold.PLP.Chemscore.Internal.Correction>
0.0111

> <Gold.Rescore>
     Score         DG    S(hbond)    S(metal)    S(lipo)     H(rot)  DE(clash)    DE(int)     intcor
     19.63     -21.06       1.80        0.00     114.33       1.49       0.03       1.40       ----

> <Gold.Chemscore.Fitness>
19.6291

> <Gold.Chemscore.DG>
-21.0550

> <Gold.Chemscore.ZeroCoef>
-5.4800

> <Gold.Chemscore.Hbond>
1.8021

> <Gold.Chemscore.Metal>
0.0000

> <Gold.Chemscore.Lipo>
114.3296

> <Gold.Chemscore.Internal_Hbond>
0.0000

> <Gold.Chemscore.DEClash>
0.0262

> <Gold.Chemscore.DEInternal>
1.3997

> <Gold.Chemscore.Rot>
1.4923

> <Gold.Chemscore.Internal.Correction>
   9.000000E+99

> <Gold.Chemscore.Hbonds>
donor molecule, donor type, donor heavy atom, donor atom, acceptor molecule, acceptor atom, score
      P1  H  6896  6908       L1     4  0.59
      P1  H  7989  7998       L1     9  0.57
      P1  H  7997  8009       L1    13  0.94

> <Gold.Chemscore.Hbond.Weighted>
-6.0189

> <Gold.Chemscore.Metal.Weighted>
-0.0000

> <Gold.Chemscore.Lipo.Weighted>
-13.3766

> <Gold.Chemscore.Internal_Hbond.Weighted>
0.0000

> <Gold.Chemscore.DEClash.Weighted>
0.0262

> <Gold.Chemscore.DEInternal.Weighted>
1.3997

> <Gold.Chemscore.Rot.Weighted>
3.8204

> <Gold.Chemscore.Internal.Correction.Weighted>
   9.000000E+99

> <Gold.Protein.RotatedTorsions>
[ 6907 6896 6895 6894 ] final  137.18 input  -60.11 | X-H torsion
[ 7974 7965 7964 7962 ] final  -99.36 input  175.53 | X-H torsion
[ 8008 7997 7996 7995 ] final  168.46 input   59.86 | X-H torsion
[ 10167 10162 10161 10158 ] final  158.45 input  -65.29 | X-H torsion
[ 10718 10713 10712 10709 ] final  -94.67 input   66.30 | X-H torsion
[ 10763 10752 10751 10750 ] final   89.87 input  -60.55 | X-H torsion
[ 11005 11000 10999 10996 ] final  168.14 input  -57.11 | X-H torsion

> <Gold.Protein.ActiveResidues>
 VAL166  LYS551  ARG553  GLY616  TRP617  ASP618  TYR619  PRO620  LYS621  CYS622 
 ASP623  PHE694  ASN695  SER759  ASP760  ASP761  ALA762  ILE779  LEU786  VAL792 
 PHE793  MET794  SER795  GLU796  ALA797  LYS798  CYS799  TRP800  GLU811  SER814 

> <Gold.Protein.RotatedAtoms>
  152.2810  133.5470  159.5497 H   0  0  0  0  0  0  0  0  0  0  0  0  # atno 6907 bound_to 6896
  150.7196  134.0564  159.3825 H   0  0  0  0  0  0  0  0  0  0  0  0  # atno 6908 bound_to 6896
  151.8475  135.0569  160.0506 H   0  0  0  0  0  0  0  0  0  0  0  0  # atno 6909 bound_to 6896
  145.3086  140.9395  143.2782 H   0  0  0  0  0  0  0  0  0  0  0  0  # atno 7974 bound_to 7965
  156.1545  140.1590  156.8715 H   0  0  0  0  0  0  0  0  0  0  0  0  # atno 8008 bound_to 7997
  154.5102  140.0803  156.8010 H   0  0  0  0  0  0  0  0  0  0  0  0  # atno 8009 bound_to 7997
  155.3831  140.3406  155.4250 H   0  0  0  0  0  0  0  0  0  0  0  0  # atno 8010 bound_to 7997
  139.4827  144.4824  151.8426 H   0  0  0  0  0  0  0  0  0  0  0  0  # atno 10167 bound_to 10162
  156.0031  130.5077  150.5962 H   0  0  0  0  0  0  0  0  0  0  0  0  # atno 10718 bound_to 10713
  153.1916  135.4454  155.0156 H   0  0  0  0  0  0  0  0  0  0  0  0  # atno 10763 bound_to 10752
  154.8093  135.3288  154.7349 H   0  0  0  0  0  0  0  0  0  0  0  0  # atno 10764 bound_to 10752
  153.7803  135.6978  153.4945 H   0  0  0  0  0  0  0  0  0  0  0  0  # atno 10765 bound_to 10752
  140.2841  134.7726  157.3783 H   0  0  0  0  0  0  0  0  0  0  0  0  # atno 11005 bound_to 11000
  144.9034  139.4620  143.6621 LP  0  0  0  0  0  0  0  0  0  0  0  0  # atno 17320 bound_to 7965
  146.3126  139.7802  142.9008 LP  0  0  0  0  0  0  0  0  0  0  0  0  # atno 17321 bound_to 7965
  140.4301  144.2127  150.5888 LP  0  0  0  0  0  0  0  0  0  0  0  0  # atno 17342 bound_to 10162
  140.4788  143.2386  151.8985 LP  0  0  0  0  0  0  0  0  0  0  0  0  # atno 17343 bound_to 10162
  157.3818  131.0782  151.1470 LP  0  0  0  0  0  0  0  0  0  0  0  0  # atno 17370 bound_to 10713
  157.2190  130.6472  149.5803 LP  0  0  0  0  0  0  0  0  0  0  0  0  # atno 17371 bound_to 10713
  140.1256  134.5163  155.8148 LP  0  0  0  0  0  0  0  0  0  0  0  0  # atno 17394 bound_to 11000
  141.2157  133.6771  156.6945 LP  0  0  0  0  0  0  0  0  0  0  0  0  # atno 17395 bound_to 11000

$$$$
