AV-unprocessed.smi:1292|AV-procd|sdf|5398|dock9
  -GOLD-   22720 4553D 1   1.00000     0.00000
 Structure written by MMmdl.
 39 40  0  0  0  0  0  0  0  0  2 V2000
  154.9129  140.8015  160.7549 C   0  0  0  0  0  0  0  0  0  0  0  0
  153.6066  140.4405  160.0337 C   0  0  1  0  0  0  0  0  0  0  0  0
  153.1279  141.5878  159.1337 C   0  0  0  0  0  0  0  0  0  0  0  0
  151.8218  141.1857  158.4448 C   0  0  0  0  0  0  0  0  0  0  0  0
  151.9926  139.8827  157.6499 C   0  0  0  0  0  0  0  0  0  0  0  0
  152.5093  138.7908  158.5055 N   0  0  0  0  0  0  0  0  0  0  0  0
  152.3668  137.1629  157.9099 S   0  0  0  0  0  0  0  0  0  0  0  0
  152.9381  137.1772  156.5535 O   0  0  0  0  0  0  0  0  0  0  0  0
  153.0076  136.2938  158.9109 O   0  0  0  0  0  0  0  0  0  0  0  0
  150.7462  137.0731  157.9307 N   0  5  0  0  0  0  0  0  0  0  0  0
  150.0374  137.1907  159.1955 C   0  0  0  0  0  0  0  0  0  0  0  0
  148.6327  136.5435  159.1178 C   0  0  0  0  0  0  0  0  0  0  0  0
  148.0090  136.1462  160.4535 C   0  0  0  0  0  0  0  0  0  0  0  0
  147.7845  134.7868  160.7714 C   0  0  0  0  0  0  0  0  0  0  0  0
  147.2166  134.4711  162.0205 C   0  0  0  0  0  0  0  0  0  0  0  0
  146.8866  135.5191  162.9008 C   0  0  0  0  0  0  0  0  0  0  0  0
  147.1383  136.8428  162.4895 C   0  0  0  0  0  0  0  0  0  0  0  0
  147.6783  137.1572  161.2933 N   0  0  0  0  0  0  0  0  0  0  0  0
  153.7551  139.1391  159.2200 C   0  0  0  0  0  0  0  0  0  0  0  0
  155.7202  140.9831  160.0445 H   0  0  0  0  0  0  0  0  0  0  0  0
  155.2290  139.9971  161.4198 H   0  0  0  0  0  0  0  0  0  0  0  0
  154.7918  141.7005  161.3597 H   0  0  0  0  0  0  0  0  0  0  0  0
  152.8465  140.2712  160.7981 H   0  0  0  0  0  0  0  0  0  0  0  0
  152.9741  142.4936  159.7211 H   0  0  0  0  0  0  0  0  0  0  0  0
  153.8860  141.8213  158.3851 H   0  0  0  0  0  0  0  0  0  0  0  0
  151.0358  141.0570  159.1903 H   0  0  0  0  0  0  0  0  0  0  0  0
  151.4901  141.9841  157.7805 H   0  0  0  0  0  0  0  0  0  0  0  0
  151.0346  139.6038  157.2125 H   0  0  0  0  0  0  0  0  0  0  0  0
  152.6815  140.0341  156.8182 H   0  0  0  0  0  0  0  0  0  0  0  0
  150.5950  136.6918  159.9885 H   0  0  0  0  0  0  0  0  0  0  0  0
  149.9391  138.2260  159.5244 H   0  0  0  0  0  0  0  0  0  0  0  0
  147.9504  137.2126  158.5912 H   0  0  0  0  0  0  0  0  0  0  0  0
  148.6944  135.6466  158.5007 H   0  0  0  0  0  0  0  0  0  0  0  0
  148.0543  134.0040  160.0781 H   0  0  0  0  0  0  0  0  0  0  0  0
  147.0396  133.4430  162.2993 H   0  0  0  0  0  0  0  0  0  0  0  0
  146.4523  135.3143  163.8680 H   0  0  0  0  0  0  0  0  0  0  0  0
  146.8960  137.6718  163.1378 H   0  0  0  0  0  0  0  0  0  0  0  0
  154.5641  139.2275  158.4938 H   0  0  0  0  0  0  0  0  0  0  0  0
  154.0270  138.3303  159.8978 H   0  0  0  0  0  0  0  0  0  0  0  0
  1  2  1  0  0  0  0
  1 20  1  0  0  0  0
  1 21  1  0  0  0  0
  1 22  1  0  0  0  0
  2 19  1  0  0  0  0
  2  3  1  0  0  0  0
  2 23  1  0  0  0  0
  3  4  1  0  0  0  0
  3 24  1  0  0  0  0
  3 25  1  0  0  0  0
  4  5  1  0  0  0  0
  4 26  1  0  0  0  0
  4 27  1  0  0  0  0
  5  6  1  0  0  0  0
  5 28  1  0  0  0  0
  5 29  1  0  0  0  0
  6  7  1  0  0  0  0
  6 19  1  0  0  0  0
  7  8  2  0  0  0  0
  7  9  2  0  0  0  0
  7 10  1  0  0  0  0
 10 11  1  0  0  0  0
 11 12  1  0  0  0  0
 11 30  1  0  0  0  0
 11 31  1  0  0  0  0
 12 13  1  0  0  0  0
 12 32  1  0  0  0  0
 12 33  1  0  0  0  0
 13 18  1  0  0  0  0
 13 14  2  0  0  0  0
 14 15  1  0  0  0  0
 14 34  1  0  0  0  0
 15 16  2  0  0  0  0
 15 35  1  0  0  0  0
 16 17  1  0  0  0  0
 16 36  1  0  0  0  0
 17 18  2  0  0  0  0
 17 37  1  0  0  0  0
 19 38  1  0  0  0  0
 19 39  1  0  0  0  0
M  CHG  1  10  -1
M  END
> <s_m_source_file>
AV-unprocessed.smi

> <i_m_source_file_index>
1292

> <i_lp_mmshare_version>
43012

> <i_f3d_flags>
0

> <s_epik_input>
W0NIM11bQ0BASF0xW0NIMl1bQ0gyXVtDSDJdTihbQ0gyXTEpUyg9TykoPU8pW05IXVtDSDJdW0NIMl1jMltjSF1bY0hdW2NIXVtjSF1uMg==

> <s_epik_cmdline>
J2VwaWtfcHl0aG9uJywgJy1waCcsICc3LjAnLCAnLXRuJywgJzgnLCAnLW1hJywgJzIwMCcsICctbWV0YWxfYmluZGluZycsICctaW1hZScsICc8aW5maWxlLm1hZT4nLCAnLW9tYWUnLCAnPG91dGZpbGUubWFlPic=

> <r_epik_Ionization_Penalty>
2.02944

> <r_epik_Ionization_Penalty_Charging>
1.95606

> <r_epik_Ionization_Penalty_Neutral>
0.0733799

> <r_epik_State_Penalty>
2.47711

> <r_epik_Charging_Adjusted_Penalty>
4.43317

> <i_epik_Tot_Q>
-1

> <i_epik_Tot_abs_Q>
1

> <r_epik_Metal_State_Penalty>
0.729901

> <b_epik_Metal_Only>
0

> <s_lp_Force_Field>
OPLS_2005

> <r_lp_Energy>
9.691

> <b_lp_Chiralities_Consistent>
1

> <s_lp_Variant>
AV-unprocessed.smi:1292-4

> <Gold.Version>
5.8.1

> <Gold.Id.Protein>
6NUR|6NUR_protein|mol2

> <Gold.PLP.Fitness>
44.1399

> <Gold.PLP.PLP>
-36.5726

> <Gold.PLP.part.hbond>
-3.8002

> <Gold.PLP.part.metal>
0.0000

> <Gold.PLP.part.buried>
-4.2695

> <Gold.PLP.part.nonpolar>
-28.2442

> <Gold.PLP.part.repulsive>
0.0000

> <Gold.PLP.ligand.clash>
0.0000

> <Gold.PLP.ligand.torsion>
1.4120

> <Gold.PLP.Chemscore.Hbond>
2.9300

> <Gold.PLP.Chemscore.CHOScore>
0.0000

> <Gold.PLP.Chemscore.Metal>
0.0000

> <Gold.Chemscore.Hbonds>
donor molecule, donor type, donor heavy atom, donor atom, acceptor molecule, acceptor atom, score
      P1  H  6896  6909       L1     9  0.78
      P1  H  6931  6943       L1    18  0.88
      P1  H  6934  6947       L1    18  0.85
      P1  H 10752 10765       L1     8  0.44

> <Gold.PLP.Chemscore.Internal.Correction>
1.6013

> <Gold.Rescore>
     Score         DG    S(hbond)    S(metal)    S(lipo)     H(rot)  DE(clash)    DE(int)     intcor
     19.95     -22.02       2.60        0.00      98.30       1.42       0.59       1.48       ----

> <Gold.Chemscore.Fitness>
19.9513

> <Gold.Chemscore.DG>
-22.0208

> <Gold.Chemscore.ZeroCoef>
-5.4800

> <Gold.Chemscore.Hbond>
2.5984

> <Gold.Chemscore.Metal>
0.0000

> <Gold.Chemscore.Lipo>
98.3035

> <Gold.Chemscore.Internal_Hbond>
0.0000

> <Gold.Chemscore.DEClash>
0.5885

> <Gold.Chemscore.DEInternal>
1.4811

> <Gold.Chemscore.Rot>
1.4216

> <Gold.Chemscore.Internal.Correction>
   9.000000E+99

> <Gold.Chemscore.Hbonds>
donor molecule, donor type, donor heavy atom, donor atom, acceptor molecule, acceptor atom, score
      P1  H  6896  6909       L1     9  0.77
      P1  H  6931  6943       L1    18  0.16
      P1  H  6934  6947       L1    18  0.45
      P1  H 10752 10765       L1     8  0.42

> <Gold.Chemscore.Hbond.Weighted>
-8.6785

> <Gold.Chemscore.Metal.Weighted>
-0.0000

> <Gold.Chemscore.Lipo.Weighted>
-11.5015

> <Gold.Chemscore.Internal_Hbond.Weighted>
0.0000

> <Gold.Chemscore.DEClash.Weighted>
0.5885

> <Gold.Chemscore.DEInternal.Weighted>
1.4811

> <Gold.Chemscore.Rot.Weighted>
3.6392

> <Gold.Chemscore.Internal.Correction.Weighted>
   9.000000E+99

> <Gold.Protein.RotatedTorsions>
[ 6907 6896 6895 6894 ] final  152.97 input  -60.11 | X-H torsion
[ 7974 7965 7964 7962 ] final -115.21 input  175.53 | X-H torsion
[ 8008 7997 7996 7995 ] final  161.93 input   59.86 | X-H torsion
[ 10167 10162 10161 10158 ] final  114.59 input  -65.29 | X-H torsion
[ 10718 10713 10712 10709 ] final -163.68 input   66.30 | X-H torsion
[ 10763 10752 10751 10750 ] final -132.31 input  -60.55 | X-H torsion
[ 11005 11000 10999 10996 ] final  -58.85 input  -57.11 | X-H torsion

> <Gold.Protein.ActiveResidues>
 VAL166  LYS551  ARG553  GLY616  TRP617  ASP618  TYR619  PRO620  LYS621  CYS622 
 ASP623  PHE694  ASN695  SER759  ASP760  ASP761  ALA762  ILE779  LEU786  VAL792 
 PHE793  MET794  SER795  GLU796  ALA797  LYS798  CYS799  TRP800  GLU811  SER814 

> <Gold.Protein.RotatedAtoms>
  152.0793  133.4145  159.4493 H   0  0  0  0  0  0  0  0  0  0  0  0  # atno 6907 bound_to 6896
  150.6862  134.3001  159.4712 H   0  0  0  0  0  0  0  0  0  0  0  0  # atno 6908 bound_to 6896
  152.0841  134.9451  160.0623 H   0  0  0  0  0  0  0  0  0  0  0  0  # atno 6909 bound_to 6896
  145.1111  140.8612  143.3869 H   0  0  0  0  0  0  0  0  0  0  0  0  # atno 7974 bound_to 7965
  156.2068  140.1764  156.7782 H   0  0  0  0  0  0  0  0  0  0  0  0  # atno 8008 bound_to 7997
  154.5666  140.0690  156.8931 H   0  0  0  0  0  0  0  0  0  0  0  0  # atno 8009 bound_to 7997
  155.2749  140.3345  155.4265 H   0  0  0  0  0  0  0  0  0  0  0  0  # atno 8010 bound_to 7997
  139.6378  144.7121  151.2299 H   0  0  0  0  0  0  0  0  0  0  0  0  # atno 10167 bound_to 10162
  156.6282  130.8918  151.2972 H   0  0  0  0  0  0  0  0  0  0  0  0  # atno 10718 bound_to 10713
  154.8744  135.3802  154.4389 H   0  0  0  0  0  0  0  0  0  0  0  0  # atno 10763 bound_to 10752
  153.5076  135.7030  153.5803 H   0  0  0  0  0  0  0  0  0  0  0  0  # atno 10764 bound_to 10752
  153.4107  135.3925  155.2014 H   0  0  0  0  0  0  0  0  0  0  0  0  # atno 10765 bound_to 10752
  141.1224  133.6614  156.4982 H   0  0  0  0  0  0  0  0  0  0  0  0  # atno 11005 bound_to 11000
  145.0846  139.2934  143.5766 LP  0  0  0  0  0  0  0  0  0  0  0  0  # atno 17320 bound_to 7965
  146.3526  140.0364  142.8646 LP  0  0  0  0  0  0  0  0  0  0  0  0  # atno 17321 bound_to 7965
  140.7474  143.6365  150.8374 LP  0  0  0  0  0  0  0  0  0  0  0  0  # atno 17342 bound_to 10162
  139.9999  143.5756  152.2879 LP  0  0  0  0  0  0  0  0  0  0  0  0  # atno 17343 bound_to 10162
  157.7208  130.9556  150.1430 LP  0  0  0  0  0  0  0  0  0  0  0  0  # atno 17370 bound_to 10713
  156.2256  130.3677  149.8504 LP  0  0  0  0  0  0  0  0  0  0  0  0  # atno 17371 bound_to 10713
  140.4467  134.6966  157.5019 LP  0  0  0  0  0  0  0  0  0  0  0  0  # atno 17394 bound_to 11000
  140.0193  134.6572  155.9264 LP  0  0  0  0  0  0  0  0  0  0  0  0  # atno 17395 bound_to 11000

$$$$
