AV-unprocessed.smi:1474|AV-procd|sdf|5974|dock1
  -GOLD-   22720 6 63D 1   1.00000     0.00000
 Structure written by MMmdl.
 43 44  0  0  0  0  0  0  0  0  1 V2000
  150.6451  137.4386  153.9020 C   0  0  0  0  0  0  0  0  0  0  0  0
  151.7336  137.1559  154.7636 O   0  0  0  0  0  0  0  0  0  0  0  0
  152.5489  138.2916  154.9988 C   0  0  0  0  0  0  0  0  0  0  0  0
  151.7157  139.3688  155.6979 C   0  0  0  0  0  0  0  0  0  0  0  0
  150.9447  140.0580  154.7184 O   0  0  0  0  0  0  0  0  0  0  0  0
  149.7924  140.7016  155.1211 C   0  0  0  0  0  0  0  0  0  0  0  0
  148.8493  141.0704  154.1400 C   0  0  0  0  0  0  0  0  0  0  0  0
  147.6782  141.7403  154.5425 C   0  0  0  0  0  0  0  0  0  0  0  0
  147.4871  142.0135  155.9119 C   0  0  0  0  0  0  0  0  0  0  0  0
  146.2556  142.7590  156.3928 C   0  0  0  0  0  0  0  0  0  0  0  0
  146.4151  143.2759  157.7466 N   0  0  0  0  0  0  0  0  0  0  0  0
  145.9946  142.6527  158.8587 C   0  0  0  0  0  0  0  0  0  0  0  0
  145.3689  141.5923  158.8349 O   0  0  0  0  0  0  0  0  0  0  0  0
  146.3353  143.3367  160.1961 C   0  0  2  0  0  0  0  0  0  0  0  0
  145.8163  142.5329  161.4028 C   0  0  0  0  0  0  0  0  0  0  0  0
  144.2814  142.5602  161.5313 C   0  0  0  0  0  0  0  0  0  0  0  0
  143.6681  143.9493  161.2998 C   0  0  0  0  0  0  0  0  0  0  0  0
  142.5152  144.1682  161.6637 O   0  0  0  0  0  0  0  0  0  0  0  0
  144.3936  144.8862  160.6640 N   0  0  0  0  0  0  0  0  0  0  0  0
  145.8048  144.7860  160.2850 C   0  0  0  0  0  0  0  0  0  0  0  0
  148.4846  141.5997  156.8192 C   0  0  0  0  0  0  0  0  0  0  0  0
  149.6113  140.9598  156.4405 N   0  0  0  0  0  0  0  0  0  0  0  0
  150.0550  136.5352  153.7486 H   0  0  0  0  0  0  0  0  0  0  0  0
  150.9922  137.7831  152.9271 H   0  0  0  0  0  0  0  0  0  0  0  0
  149.9910  138.1993  154.3299 H   0  0  0  0  0  0  0  0  0  0  0  0
  153.4006  138.0166  155.6232 H   0  0  0  0  0  0  0  0  0  0  0  0
  152.9404  138.6759  154.0556 H   0  0  0  0  0  0  0  0  0  0  0  0
  151.0636  138.9062  156.4404 H   0  0  0  0  0  0  0  0  0  0  0  0
  152.3784  140.0648  156.2151 H   0  0  0  0  0  0  0  0  0  0  0  0
  149.0246  140.8499  153.0973 H   0  0  0  0  0  0  0  0  0  0  0  0
  146.9431  142.0432  153.8114 H   0  0  0  0  0  0  0  0  0  0  0  0
  146.0685  143.5989  155.7230 H   0  0  0  0  0  0  0  0  0  0  0  0
  145.3757  142.1161  156.3327 H   0  0  0  0  0  0  0  0  0  0  0  0
  146.9123  144.1490  157.8483 H   0  0  0  0  0  0  0  0  0  0  0  0
  147.4238  143.3824  160.2611 H   0  0  0  0  0  0  0  0  0  0  0  0
  146.1589  141.4989  161.3420 H   0  0  0  0  0  0  0  0  0  0  0  0
  146.2569  142.9376  162.3148 H   0  0  0  0  0  0  0  0  0  0  0  0
  143.8381  141.8791  160.8041 H   0  0  0  0  0  0  0  0  0  0  0  0
  143.9854  142.1929  162.5144 H   0  0  0  0  0  0  0  0  0  0  0  0
  143.9453  145.7736  160.4874 H   0  0  0  0  0  0  0  0  0  0  0  0
  146.3827  145.3366  161.0279 H   0  0  0  0  0  0  0  0  0  0  0  0
  145.9513  145.3103  159.3398 H   0  0  0  0  0  0  0  0  0  0  0  0
  148.3830  141.7971  157.8762 H   0  0  0  0  0  0  0  0  0  0  0  0
  1  2  1  0  0  0  0
  1 23  1  0  0  0  0
  1 24  1  0  0  0  0
  1 25  1  0  0  0  0
  2  3  1  0  0  0  0
  3  4  1  0  0  0  0
  3 26  1  0  0  0  0
  3 27  1  0  0  0  0
  4  5  1  0  0  0  0
  4 28  1  0  0  0  0
  4 29  1  0  0  0  0
  5  6  1  0  0  0  0
  6 22  1  0  0  0  0
  6  7  2  0  0  0  0
  7  8  1  0  0  0  0
  7 30  1  0  0  0  0
  8  9  2  0  0  0  0
  8 31  1  0  0  0  0
  9 10  1  0  0  0  0
  9 21  1  0  0  0  0
 10 11  1  0  0  0  0
 10 32  1  0  0  0  0
 10 33  1  0  0  0  0
 11 12  1  0  0  0  0
 11 34  1  0  0  0  0
 12 13  2  0  0  0  0
 12 14  1  0  0  0  0
 14 20  1  0  0  0  0
 14 15  1  0  0  0  0
 14 35  1  0  0  0  0
 15 16  1  0  0  0  0
 15 36  1  0  0  0  0
 15 37  1  0  0  0  0
 16 17  1  0  0  0  0
 16 38  1  0  0  0  0
 16 39  1  0  0  0  0
 17 18  2  0  0  0  0
 17 19  1  0  0  0  0
 19 20  1  0  0  0  0
 19 40  1  0  0  0  0
 20 41  1  0  0  0  0
 20 42  1  0  0  0  0
 21 22  2  0  0  0  0
 21 43  1  0  0  0  0
M  END
> <s_m_source_file>
AV-unprocessed.smi

> <i_m_source_file_index>
1474

> <i_lp_mmshare_version>
43012

> <i_f3d_flags>
0

> <s_epik_input>
W0NIM11PW0NIMl1bQ0gyXU9jMVtjSF1bY0hdYyhbY0hdbjEpW0NIMl1bTkhdQyg9TylbQ0BASF0yW0NIMl1bQ0gyXUMoPU8pW05IXVtDSDJdMg==

> <s_epik_cmdline>
J2VwaWtfcHl0aG9uJywgJy1waCcsICc3LjAnLCAnLXRuJywgJzgnLCAnLW1hJywgJzIwMCcsICctbWV0YWxfYmluZGluZycsICctaW1hZScsICc8aW5maWxlLm1hZT4nLCAnLW9tYWUnLCAnPG91dGZpbGUubWFlPic=

> <r_lp_tautomer_probability>
1

> <r_epik_Ionization_Penalty>
6.19599e-05

> <r_epik_Ionization_Penalty_Charging>
0

> <r_epik_Ionization_Penalty_Neutral>
6.19599e-05

> <r_epik_State_Penalty>
-0

> <r_epik_Charging_Adjusted_Penalty>
0

> <i_epik_Tot_Q>
0

> <i_epik_Tot_abs_Q>
0

> <r_epik_Metal_State_Penalty>
-0

> <b_epik_Metal_Only>
0

> <s_lp_Force_Field>
OPLS_2005

> <r_lp_Energy>
10.5341

> <b_lp_Chiralities_Consistent>
1

> <s_lp_Variant>
AV-unprocessed.smi:1474-1

> <Gold.Version>
5.8.1

> <Gold.Id.Protein>
6NUR|6NUR_protein|mol2

> <Gold.PLP.Fitness>
44.3137

> <Gold.PLP.PLP>
-35.9764

> <Gold.PLP.part.hbond>
-4.8983

> <Gold.PLP.part.metal>
0.0000

> <Gold.PLP.part.buried>
-3.3552

> <Gold.PLP.part.nonpolar>
-29.0169

> <Gold.PLP.part.repulsive>
0.7986

> <Gold.PLP.ligand.clash>
0.0000

> <Gold.PLP.ligand.torsion>
0.8395

> <Gold.PLP.Chemscore.Hbond>
3.2523

> <Gold.PLP.Chemscore.CHOScore>
0.0000

> <Gold.PLP.Chemscore.Metal>
0.0000

> <Gold.Chemscore.Hbonds>
donor molecule, donor type, donor heavy atom, donor atom, acceptor molecule, acceptor atom, score
      L1  H    11    34       P1  8029  0.70
      P1  H  7989  7998       L1     5  1.00
      P1  H 10752 10765       L1     2  0.99

> <Gold.PLP.Chemscore.Internal.Correction>
0.2595

> <Gold.Rescore>
     Score         DG    S(hbond)    S(metal)    S(lipo)     H(rot)  DE(clash)    DE(int)     intcor
      9.18     -11.77       1.60        0.00      63.13       2.52       0.32       2.26       ----

> <Gold.Chemscore.Fitness>
9.1833

> <Gold.Chemscore.DG>
-11.7696

> <Gold.Chemscore.ZeroCoef>
-5.4800

> <Gold.Chemscore.Hbond>
1.6033

> <Gold.Chemscore.Metal>
0.0000

> <Gold.Chemscore.Lipo>
63.1294

> <Gold.Chemscore.Internal_Hbond>
0.0000

> <Gold.Chemscore.DEClash>
0.3239

> <Gold.Chemscore.DEInternal>
2.2624

> <Gold.Chemscore.Rot>
2.5201

> <Gold.Chemscore.Internal.Correction>
   9.000000E+99

> <Gold.Chemscore.Hbonds>
donor molecule, donor type, donor heavy atom, donor atom, acceptor molecule, acceptor atom, score
      L1  H    11    34       P1  8029  0.12
      P1  H  7989  7998       L1     5  0.73
      P1  H 10752 10765       L1     2  0.51

> <Gold.Chemscore.Hbond.Weighted>
-5.3549

> <Gold.Chemscore.Metal.Weighted>
-0.0000

> <Gold.Chemscore.Lipo.Weighted>
-7.3861

> <Gold.Chemscore.Internal_Hbond.Weighted>
0.0000

> <Gold.Chemscore.DEClash.Weighted>
0.3239

> <Gold.Chemscore.DEInternal.Weighted>
2.2624

> <Gold.Chemscore.Rot.Weighted>
6.4514

> <Gold.Chemscore.Internal.Correction.Weighted>
   9.000000E+99

> <Gold.Protein.RotatedTorsions>
[ 6907 6896 6895 6894 ] final  -81.37 input  -60.11 | X-H torsion
[ 7974 7965 7964 7962 ] final  -91.66 input  175.53 | X-H torsion
[ 8008 7997 7996 7995 ] final -178.71 input   59.86 | X-H torsion
[ 10167 10162 10161 10158 ] final -137.51 input  -65.29 | X-H torsion
[ 10718 10713 10712 10709 ] final   76.68 input   66.30 | X-H torsion
[ 10763 10752 10751 10750 ] final -176.74 input  -60.55 | X-H torsion
[ 11005 11000 10999 10996 ] final  -44.09 input  -57.11 | X-H torsion

> <Gold.Protein.ActiveResidues>
 VAL166  LYS551  ARG553  GLY616  TRP617  ASP618  TYR619  PRO620  LYS621  CYS622 
 ASP623  PHE694  ASN695  SER759  ASP760  ASP761  ALA762  ILE779  LEU786  VAL792 
 PHE793  MET794  SER795  GLU796  ALA797  LYS798  CYS799  TRP800  GLU811  SER814 

> <Gold.Protein.RotatedAtoms>
  150.6913  134.3828  159.5041 H   0  0  0  0  0  0  0  0  0  0  0  0  # atno 6907 bound_to 6896
  152.1628  134.8896  160.0549 H   0  0  0  0  0  0  0  0  0  0  0  0  # atno 6908 bound_to 6896
  151.9951  133.3770  159.4196 H   0  0  0  0  0  0  0  0  0  0  0  0  # atno 6909 bound_to 6896
  145.4102  140.9544  143.2238 H   0  0  0  0  0  0  0  0  0  0  0  0  # atno 7974 bound_to 7965
  156.0220  140.1263  157.0347 H   0  0  0  0  0  0  0  0  0  0  0  0  # atno 8008 bound_to 7997
  154.4315  140.1066  156.6048 H   0  0  0  0  0  0  0  0  0  0  0  0  # atno 8009 bound_to 7997
  155.5930  140.3469  155.4574 H   0  0  0  0  0  0  0  0  0  0  0  0  # atno 8010 bound_to 7997
  139.8570  143.7126  152.2653 H   0  0  0  0  0  0  0  0  0  0  0  0  # atno 10167 bound_to 10162
  157.6682  130.9785  150.1531 H   0  0  0  0  0  0  0  0  0  0  0  0  # atno 10718 bound_to 10713
  154.5687  135.2826  155.0848 H   0  0  0  0  0  0  0  0  0  0  0  0  # atno 10763 bound_to 10752
  154.2229  135.6388  153.5154 H   0  0  0  0  0  0  0  0  0  0  0  0  # atno 10764 bound_to 10752
  153.0051  135.5519  154.6304 H   0  0  0  0  0  0  0  0  0  0  0  0  # atno 10765 bound_to 10752
  141.0427  133.6773  156.2824 H   0  0  0  0  0  0  0  0  0  0  0  0  # atno 11005 bound_to 11000
  144.8314  139.5622  143.6942 LP  0  0  0  0  0  0  0  0  0  0  0  0  # atno 17320 bound_to 7965
  146.2708  139.6632  142.9297 LP  0  0  0  0  0  0  0  0  0  0  0  0  # atno 17321 bound_to 7965
  139.7410  144.7559  151.0652 LP  0  0  0  0  0  0  0  0  0  0  0  0  # atno 17342 bound_to 10162
  140.7780  143.4972  150.9817 LP  0  0  0  0  0  0  0  0  0  0  0  0  # atno 17343 bound_to 10162
  156.2325  130.3683  149.8428 LP  0  0  0  0  0  0  0  0  0  0  0  0  # atno 17370 bound_to 10713
  156.6251  130.8642  151.3483 LP  0  0  0  0  0  0  0  0  0  0  0  0  # atno 17371 bound_to 10713
  140.6204  134.5367  157.5546 LP  0  0  0  0  0  0  0  0  0  0  0  0  # atno 17394 bound_to 11000
  139.9288  134.8004  156.0990 LP  0  0  0  0  0  0  0  0  0  0  0  0  # atno 17395 bound_to 11000

$$$$
