AV-unprocessed.smi:2221|AV-procd|sdf|8981|dock3
  -GOLD-   2272012193D 1   1.00000     0.00000
 Structure written by MMmdl.
 54 55  0  0  0  0  0  0  0  0  3 V2000
  152.5101  144.4760  159.8742 C   0  0  0  0  0  0  0  0  0  0  0  0
  152.0087  143.2325  159.1708 C   0  0  0  0  0  0  0  0  0  0  0  0
  152.4985  141.9596  159.5203 C   0  0  0  0  0  0  0  0  0  0  0  0
  151.9909  140.8400  158.8327 C   0  0  0  0  0  0  0  0  0  0  0  0
  152.4768  139.4426  159.1562 C   0  0  0  0  0  0  0  0  0  0  0  0
  151.0547  140.9329  157.8638 N   0  0  0  0  0  0  0  0  0  0  0  0
  150.5756  142.1538  157.5195 C   0  0  0  0  0  0  0  0  0  0  0  0
  149.5935  142.3587  156.5144 N   0  0  0  0  0  0  0  0  0  0  0  0
  148.7047  141.4729  156.0319 C   0  0  0  0  0  0  0  0  0  0  0  0
  148.5942  140.3023  156.3959 O   0  0  0  0  0  0  0  0  0  0  0  0
  147.9173  142.0299  155.0999 N   0  0  0  0  0  0  0  0  0  0  0  0
  146.8451  141.3418  154.3829 C   0  0  0  0  0  0  0  0  0  0  0  0
  147.3447  140.1719  153.5056 C   0  0  0  0  0  0  0  0  0  0  0  0
  146.2510  139.2778  153.0455 N   0  3  2  0  0  0  0  0  0  0  0  0
  145.6980  138.4436  154.1428 C   0  0  0  0  0  0  0  0  0  0  0  0
  144.4921  137.6179  153.6572 C   0  0  0  0  0  0  0  0  0  0  0  0
  144.8582  136.7089  152.4599 C   0  0  2  0  0  0  0  0  0  0  0  0
  145.7827  135.5847  152.8236 N   0  3  0  0  0  0  0  0  0  0  0  0
  145.7454  134.4504  151.8668 C   0  0  0  0  0  0  0  0  0  0  0  0
  145.6024  135.0883  154.2107 C   0  0  0  0  0  0  0  0  0  0  0  0
  145.4233  137.6363  151.3577 C   0  0  0  0  0  0  0  0  0  0  0  0
  146.6217  138.4629  151.8593 C   0  0  0  0  0  0  0  0  0  0  0  0
  151.0357  143.3283  158.1555 C   0  0  0  0  0  0  0  0  0  0  0  0
  153.4553  144.2856  160.3836 H   0  0  0  0  0  0  0  0  0  0  0  0
  151.7819  144.8082  160.6146 H   0  0  0  0  0  0  0  0  0  0  0  0
  152.6674  145.2838  159.1589 H   0  0  0  0  0  0  0  0  0  0  0  0
  153.2434  141.8447  160.2945 H   0  0  0  0  0  0  0  0  0  0  0  0
  153.4049  139.4710  159.7277 H   0  0  0  0  0  0  0  0  0  0  0  0
  152.6617  138.8783  158.2414 H   0  0  0  0  0  0  0  0  0  0  0  0
  151.7285  138.9104  159.7438 H   0  0  0  0  0  0  0  0  0  0  0  0
  149.5595  143.2900  156.1272 H   0  0  0  0  0  0  0  0  0  0  0  0
  148.0872  142.9932  154.8499 H   0  0  0  0  0  0  0  0  0  0  0  0
  146.1372  140.9734  155.1254 H   0  0  0  0  0  0  0  0  0  0  0  0
  146.2931  142.0583  153.7726 H   0  0  0  0  0  0  0  0  0  0  0  0
  147.9100  140.5476  152.6515 H   0  0  0  0  0  0  0  0  0  0  0  0
  148.0518  139.5873  154.0954 H   0  0  0  0  0  0  0  0  0  0  0  0
  146.4767  137.7890  154.5371 H   0  0  0  0  0  0  0  0  0  0  0  0
  145.3802  139.0876  154.9638 H   0  0  0  0  0  0  0  0  0  0  0  0
  144.0512  137.0586  154.4806 H   0  0  0  0  0  0  0  0  0  0  0  0
  143.7067  138.3081  153.3446 H   0  0  0  0  0  0  0  0  0  0  0  0
  143.9385  136.2565  152.0849 H   0  0  0  0  0  0  0  0  0  0  0  0
  144.7299  134.0702  151.7488 H   0  0  0  0  0  0  0  0  0  0  0  0
  146.3741  133.6277  152.2097 H   0  0  0  0  0  0  0  0  0  0  0  0
  146.1290  134.7334  150.8876 H   0  0  0  0  0  0  0  0  0  0  0  0
  144.5671  134.7958  154.3914 H   0  0  0  0  0  0  0  0  0  0  0  0
  145.8887  135.8366  154.9480 H   0  0  0  0  0  0  0  0  0  0  0  0
  146.2346  134.2203  154.4012 H   0  0  0  0  0  0  0  0  0  0  0  0
  145.6848  137.0902  150.4529 H   0  0  0  0  0  0  0  0  0  0  0  0
  144.6379  138.3257  151.0440 H   0  0  0  0  0  0  0  0  0  0  0  0
  146.9627  139.1148  151.0552 H   0  0  0  0  0  0  0  0  0  0  0  0
  147.4576  137.8076  152.1089 H   0  0  0  0  0  0  0  0  0  0  0  0
  150.6455  144.2954  157.8721 H   0  0  0  0  0  0  0  0  0  0  0  0
  146.7227  135.9512  152.7818 H   0  0  0  0  0  0  0  0  0  0  0  0
  145.4991  139.8885  152.7583 H   0  0  0  0  0  0  0  0  0  0  0  0
  1  2  1  0  0  0  0
  1 24  1  0  0  0  0
  1 25  1  0  0  0  0
  1 26  1  0  0  0  0
  2 23  1  0  0  0  0
  2  3  2  0  0  0  0
  3  4  1  0  0  0  0
  3 27  1  0  0  0  0
  4  5  1  0  0  0  0
  4  6  2  0  0  0  0
  5 28  1  0  0  0  0
  5 29  1  0  0  0  0
  5 30  1  0  0  0  0
  6  7  1  0  0  0  0
  7  8  1  0  0  0  0
  7 23  2  0  0  0  0
  8  9  1  0  0  0  0
  8 31  1  0  0  0  0
  9 10  2  0  0  0  0
  9 11  1  0  0  0  0
 11 12  1  0  0  0  0
 11 32  1  0  0  0  0
 12 13  1  0  0  0  0
 12 33  1  0  0  0  0
 12 34  1  0  0  0  0
 13 14  1  0  0  0  0
 13 35  1  0  0  0  0
 13 36  1  0  0  0  0
 14 22  1  0  0  0  0
 14 15  1  0  0  0  0
 14 54  1  0  0  0  0
 15 16  1  0  0  0  0
 15 37  1  0  0  0  0
 15 38  1  0  0  0  0
 16 17  1  0  0  0  0
 16 39  1  0  0  0  0
 16 40  1  0  0  0  0
 17 18  1  0  0  0  0
 17 21  1  0  0  0  0
 17 41  1  0  0  0  0
 18 19  1  0  0  0  0
 18 20  1  0  0  0  0
 18 53  1  0  0  0  0
 19 42  1  0  0  0  0
 19 43  1  0  0  0  0
 19 44  1  0  0  0  0
 20 45  1  0  0  0  0
 20 46  1  0  0  0  0
 20 47  1  0  0  0  0
 21 22  1  0  0  0  0
 21 48  1  0  0  0  0
 21 49  1  0  0  0  0
 22 50  1  0  0  0  0
 22 51  1  0  0  0  0
 23 52  1  0  0  0  0
M  CHG  1  14   1
M  CHG  1  18   1
M  END
> <s_m_source_file>
AV-unprocessed.smi

> <i_m_source_file_index>
2221

> <i_lp_mmshare_version>
43012

> <i_f3d_flags>
0

> <s_epik_input>
W0NIM11jMVtjSF1jKFtDSDNdKW5jKFtjSF0xKVtOSF1DKD1PKVtOSF1bQ0gyXVtDSDJdTjJbQ0gyXVtDSDJdW0NIXShOKFtDSDNdKVtDSDNdKVtDSDJdW0NIMl0y

> <s_epik_cmdline>
J2VwaWtfcHl0aG9uJywgJy1waCcsICc3LjAnLCAnLXRuJywgJzgnLCAnLW1hJywgJzIwMCcsICctbWV0YWxfYmluZGluZycsICctaW1hZScsICc8aW5maWxlLm1hZT4nLCAnLW9tYWUnLCAnPG91dGZpbGUubWFlPic=

> <r_epik_Ionization_Penalty>
0.206417

> <r_epik_Ionization_Penalty_Charging>
0.206231

> <r_epik_Ionization_Penalty_Neutral>
0.00018626

> <r_epik_State_Penalty>
0.176025

> <r_epik_Charging_Adjusted_Penalty>
0.382256

> <i_epik_Tot_Q>
2

> <i_epik_Tot_abs_Q>
2

> <r_epik_Metal_State_Penalty>
0.176034

> <b_epik_Metal_Only>
0

> <s_lp_Force_Field>
OPLS_2005

> <r_lp_Energy>
43.913

> <b_lp_Chiralities_Consistent>
1

> <s_lp_Variant>
AV-unprocessed.smi:2221-2

> <Gold.Version>
5.8.1

> <Gold.Id.Protein>
6NUR|6NUR_protein|mol2

> <Gold.PLP.Fitness>
53.2636

> <Gold.PLP.PLP>
-37.1364

> <Gold.PLP.part.hbond>
-4.0000

> <Gold.PLP.part.metal>
0.0000

> <Gold.PLP.part.buried>
3.6625

> <Gold.PLP.part.nonpolar>
-36.4393

> <Gold.PLP.part.repulsive>
0.2311

> <Gold.PLP.ligand.clash>
0.0000

> <Gold.PLP.ligand.torsion>
0.8094

> <Gold.PLP.Chemscore.Hbond>
5.8800

> <Gold.PLP.Chemscore.CHOScore>
0.0000

> <Gold.PLP.Chemscore.Metal>
0.0000

> <Gold.Chemscore.Hbonds>
donor molecule, donor type, donor heavy atom, donor atom, acceptor molecule, acceptor atom, score
      L1  H     8    31       P1  8028  1.00
      L1  H    11    32       P1  8028  0.82
      L1  H    14    54       P1 10175  2.00
      L1  H    18    53       P1  7948  0.06

> <Gold.PLP.Chemscore.Internal.Correction>
0.1060

> <Gold.Rescore>
     Score         DG    S(hbond)    S(metal)    S(lipo)     H(rot)  DE(clash)    DE(int)     intcor
     22.28     -25.93       3.60        0.00     108.63       1.68       1.84       1.81       ----

> <Gold.Chemscore.Fitness>
22.2769

> <Gold.Chemscore.DG>
-25.9256

> <Gold.Chemscore.ZeroCoef>
-5.4800

> <Gold.Chemscore.Hbond>
3.6038

> <Gold.Chemscore.Metal>
0.0000

> <Gold.Chemscore.Lipo>
108.6307

> <Gold.Chemscore.Internal_Hbond>
0.0000

> <Gold.Chemscore.DEClash>
1.8424

> <Gold.Chemscore.DEInternal>
1.8063

> <Gold.Chemscore.Rot>
1.6800

> <Gold.Chemscore.Internal.Correction>
   9.000000E+99

> <Gold.Chemscore.Hbonds>
donor molecule, donor type, donor heavy atom, donor atom, acceptor molecule, acceptor atom, score
      L1  H     8    31       P1  8028  0.99
      L1  H    11    32       P1  8028  0.72
      L1  H    14    54       P1 10175  0.98
      L1  H    18    53       P1  7948  0.08

> <Gold.Chemscore.Hbond.Weighted>
-12.0367

> <Gold.Chemscore.Metal.Weighted>
-0.0000

> <Gold.Chemscore.Lipo.Weighted>
-12.7098

> <Gold.Chemscore.Internal_Hbond.Weighted>
0.0000

> <Gold.Chemscore.DEClash.Weighted>
1.8424

> <Gold.Chemscore.DEInternal.Weighted>
1.8063

> <Gold.Chemscore.Rot.Weighted>
4.3009

> <Gold.Chemscore.Internal.Correction.Weighted>
   9.000000E+99

> <Gold.Protein.RotatedTorsions>
[ 6907 6896 6895 6894 ] final   21.88 input  -60.11 | X-H torsion
[ 7974 7965 7964 7962 ] final -172.60 input  175.53 | X-H torsion
[ 8008 7997 7996 7995 ] final  114.60 input   59.86 | X-H torsion
[ 10167 10162 10161 10158 ] final -159.27 input  -65.29 | X-H torsion
[ 10718 10713 10712 10709 ] final -170.39 input   66.30 | X-H torsion
[ 10763 10752 10751 10750 ] final  149.89 input  -60.55 | X-H torsion
[ 11005 11000 10999 10996 ] final -161.68 input  -57.11 | X-H torsion

> <Gold.Protein.ActiveResidues>
 VAL166  LYS551  ARG553  GLY616  TRP617  ASP618  TYR619  PRO620  LYS621  CYS622 
 ASP623  PHE694  ASN695  SER759  ASP760  ASP761  ALA762  ILE779  LEU786  VAL792 
 PHE793  MET794  SER795  GLU796  ALA797  LYS798  CYS799  TRP800  GLU811  SER814 

> <Gold.Protein.RotatedAtoms>
  151.9185  135.0308  160.0519 H   0  0  0  0  0  0  0  0  0  0  0  0  # atno 6907 bound_to 6896
  152.2219  133.4986  159.5175 H   0  0  0  0  0  0  0  0  0  0  0  0  # atno 6908 bound_to 6896
  150.7002  134.1248  159.4090 H   0  0  0  0  0  0  0  0  0  0  0  0  # atno 6909 bound_to 6896
  144.7145  140.1748  143.6364 H   0  0  0  0  0  0  0  0  0  0  0  0  # atno 7974 bound_to 7965
  156.2331  140.2956  156.0240 H   0  0  0  0  0  0  0  0  0  0  0  0  # atno 8008 bound_to 7997
  155.2169  140.0414  157.2959 H   0  0  0  0  0  0  0  0  0  0  0  0  # atno 8009 bound_to 7997
  154.6030  140.2432  155.7775 H   0  0  0  0  0  0  0  0  0  0  0  0  # atno 8010 bound_to 7997
  139.6628  143.9882  152.2236 H   0  0  0  0  0  0  0  0  0  0  0  0  # atno 10167 bound_to 10162
  156.7255  130.9286  151.3100 H   0  0  0  0  0  0  0  0  0  0  0  0  # atno 10718 bound_to 10713
  154.0785  135.2861  155.3295 H   0  0  0  0  0  0  0  0  0  0  0  0  # atno 10763 bound_to 10752
  154.6699  135.5303  153.8129 H   0  0  0  0  0  0  0  0  0  0  0  0  # atno 10764 bound_to 10752
  153.0458  135.6555  154.0962 H   0  0  0  0  0  0  0  0  0  0  0  0  # atno 10765 bound_to 10752
  140.6177  134.4783  157.5221 H   0  0  0  0  0  0  0  0  0  0  0  0  # atno 11005 bound_to 11000
  145.8911  139.2376  143.1549 LP  0  0  0  0  0  0  0  0  0  0  0  0  # atno 17320 bound_to 7965
  145.9903  140.8608  143.0070 LP  0  0  0  0  0  0  0  0  0  0  0  0  # atno 17321 bound_to 7965
  139.9626  144.6548  150.8065 LP  0  0  0  0  0  0  0  0  0  0  0  0  # atno 17342 bound_to 10162
  140.7587  143.3113  151.2839 LP  0  0  0  0  0  0  0  0  0  0  0  0  # atno 17343 bound_to 10162
  157.6880  130.9205  150.0438 LP  0  0  0  0  0  0  0  0  0  0  0  0  # atno 17370 bound_to 10713
  156.1565  130.3643  149.9362 LP  0  0  0  0  0  0  0  0  0  0  0  0  # atno 17371 bound_to 10713
  139.9166  134.8234  156.1346 LP  0  0  0  0  0  0  0  0  0  0  0  0  # atno 17394 bound_to 11000
  141.0764  133.6773  156.2245 LP  0  0  0  0  0  0  0  0  0  0  0  0  # atno 17395 bound_to 11000

$$$$
