AV-unprocessed.smi:915|AV-procd|sdf|4155|dock1
  -GOLD-   22720 2 63D 1   1.00000     0.00000
 Structure written by MMmdl.
 34 35  0  0  0  0  0  0  0  0  1 V2000
  149.8329  141.7954  157.8011 C   0  0  0  0  0  0  0  0  0  0  0  0
  150.9295  141.8593  156.7325 C   0  0  0  0  0  0  0  0  0  0  0  0
  150.9888  140.6135  155.9015 C   0  0  0  0  0  0  0  0  0  0  0  0
  152.0653  139.7734  155.7498 C   0  0  0  0  0  0  0  0  0  0  0  0
  151.7071  138.4359  154.6904 S   0  0  0  0  0  0  0  0  0  0  0  0
  150.0853  139.0802  154.4893 C   0  0  0  0  0  0  0  0  0  0  0  0
  149.1166  138.4383  153.6740 N   0  0  0  0  0  0  0  0  0  0  0  0
  147.7910  138.6582  153.6317 C   0  0  0  0  0  0  0  0  0  0  0  0
  147.1877  139.5075  154.2885 O   0  0  0  0  0  0  0  0  0  0  0  0
  147.1881  137.8271  152.7698 N   0  0  0  0  0  0  0  0  0  0  0  0
  145.7540  137.7964  152.5011 C   0  0  0  0  0  0  0  0  0  0  0  0
  145.2506  136.3748  152.1864 C   0  0  1  0  0  0  0  0  0  0  0  0
  145.5948  135.9246  150.7610 C   0  0  0  0  0  0  0  0  0  0  0  0
  145.5263  134.3972  150.7505 C   0  0  0  0  0  0  0  0  0  0  0  0
  146.2704  133.9235  151.9995 C   0  0  0  0  0  0  0  0  0  0  0  0
  145.9422  135.1271  153.3127 S   0  0  0  0  0  0  0  0  0  0  0  0
  149.8650  140.2071  155.1756 N   0  0  0  0  0  0  0  0  0  0  0  0
  149.8128  142.7113  158.3916 H   0  0  0  0  0  0  0  0  0  0  0  0
  149.9964  140.9620  158.4852 H   0  0  0  0  0  0  0  0  0  0  0  0
  148.8496  141.6696  157.3471 H   0  0  0  0  0  0  0  0  0  0  0  0
  150.7564  142.7265  156.0943 H   0  0  0  0  0  0  0  0  0  0  0  0
  151.8922  142.0315  157.2151 H   0  0  0  0  0  0  0  0  0  0  0  0
  153.0447  139.8604  156.1967 H   0  0  0  0  0  0  0  0  0  0  0  0
  149.4726  137.7205  153.0604 H   0  0  0  0  0  0  0  0  0  0  0  0
  147.7574  137.1562  152.2750 H   0  0  0  0  0  0  0  0  0  0  0  0
  145.2135  138.2067  153.3559 H   0  0  0  0  0  0  0  0  0  0  0  0
  145.5493  138.4607  151.6611 H   0  0  0  0  0  0  0  0  0  0  0  0
  144.1661  136.3330  152.2973 H   0  0  0  0  0  0  0  0  0  0  0  0
  144.9207  136.3656  150.0261 H   0  0  0  0  0  0  0  0  0  0  0  0
  146.6064  136.2404  150.5023 H   0  0  0  0  0  0  0  0  0  0  0  0
  144.4842  134.0785  150.8006 H   0  0  0  0  0  0  0  0  0  0  0  0
  145.9527  133.9747  149.8405 H   0  0  0  0  0  0  0  0  0  0  0  0
  145.9717  132.9194  152.3014 H   0  0  0  0  0  0  0  0  0  0  0  0
  147.3445  133.9100  151.8124 H   0  0  0  0  0  0  0  0  0  0  0  0
  1  2  1  0  0  0  0
  1 18  1  0  0  0  0
  1 19  1  0  0  0  0
  1 20  1  0  0  0  0
  2  3  1  0  0  0  0
  2 21  1  0  0  0  0
  2 22  1  0  0  0  0
  3 17  1  0  0  0  0
  3  4  2  0  0  0  0
  4  5  1  0  0  0  0
  4 23  1  0  0  0  0
  5  6  1  0  0  0  0
  6  7  1  0  0  0  0
  6 17  2  0  0  0  0
  7  8  1  0  0  0  0
  7 24  1  0  0  0  0
  8  9  2  0  0  0  0
  8 10  1  0  0  0  0
 10 11  1  0  0  0  0
 10 25  1  0  0  0  0
 11 12  1  0  0  0  0
 11 26  1  0  0  0  0
 11 27  1  0  0  0  0
 12 16  1  0  0  0  0
 12 13  1  0  0  0  0
 12 28  1  0  0  0  0
 13 14  1  0  0  0  0
 13 29  1  0  0  0  0
 13 30  1  0  0  0  0
 14 15  1  0  0  0  0
 14 31  1  0  0  0  0
 14 32  1  0  0  0  0
 15 16  1  0  0  0  0
 15 33  1  0  0  0  0
 15 34  1  0  0  0  0
M  END
> <s_m_source_file>
AV-unprocessed.smi

> <i_m_source_file_index>
915

> <i_lp_mmshare_version>
43012

> <i_f3d_flags>
0

> <s_epik_input>
W0NIM11bQ0gyXWMxW2NIXXNjKG4xKVtOSF1DKD1PKVtOSF1bQ0gyXVtDQEBIXTJbQ0gyXVtDSDJdW0NIMl1TMg==

> <s_epik_cmdline>
J2VwaWtfcHl0aG9uJywgJy1waCcsICc3LjAnLCAnLXRuJywgJzgnLCAnLW1hJywgJzIwMCcsICctbWV0YWxfYmluZGluZycsICctaW1hZScsICc8aW5maWxlLm1hZT4nLCAnLW9tYWUnLCAnPG91dGZpbGUubWFlPic=

> <r_lp_tautomer_probability>
0.999

> <r_epik_Ionization_Penalty>
0.000460048

> <r_epik_Ionization_Penalty_Charging>
0

> <r_epik_Ionization_Penalty_Neutral>
0.000460048

> <r_epik_State_Penalty>
0.000177984

> <r_epik_Charging_Adjusted_Penalty>
0.000177984

> <i_epik_Tot_Q>
0

> <i_epik_Tot_abs_Q>
0

> <r_epik_Metal_State_Penalty>
0.00612978

> <b_epik_Metal_Only>
0

> <s_lp_Force_Field>
OPLS_2005

> <r_lp_Energy>
6.6865

> <b_lp_Chiralities_Consistent>
1

> <s_lp_Variant>
AV-unprocessed.smi:915-2

> <Gold.Version>
5.8.1

> <Gold.Id.Protein>
6NUR|6NUR_protein|mol2

> <Gold.PLP.Fitness>
37.8338

> <Gold.PLP.PLP>
-32.7828

> <Gold.PLP.part.hbond>
-3.1425

> <Gold.PLP.part.metal>
0.0000

> <Gold.PLP.part.buried>
-3.3267

> <Gold.PLP.part.nonpolar>
-26.9649

> <Gold.PLP.part.repulsive>
0.3306

> <Gold.PLP.ligand.clash>
0.0000

> <Gold.PLP.ligand.torsion>
0.3626

> <Gold.PLP.Chemscore.Hbond>
1.9120

> <Gold.PLP.Chemscore.CHOScore>
0.0000

> <Gold.PLP.Chemscore.Metal>
0.0000

> <Gold.Chemscore.Hbonds>
donor molecule, donor type, donor heavy atom, donor atom, acceptor molecule, acceptor atom, score
      L1  H     7    24       P1  7948  0.91
      L1  H    10    25       P1  7948  1.00

> <Gold.PLP.Chemscore.Internal.Correction>
0.0401

> <Gold.Rescore>
     Score         DG    S(hbond)    S(metal)    S(lipo)     H(rot)  DE(clash)    DE(int)     intcor
     14.27     -15.92       1.85        0.00      66.34       1.36       0.08       1.57       ----

> <Gold.Chemscore.Fitness>
14.2714

> <Gold.Chemscore.DG>
-15.9229

> <Gold.Chemscore.ZeroCoef>
-5.4800

> <Gold.Chemscore.Hbond>
1.8453

> <Gold.Chemscore.Metal>
0.0000

> <Gold.Chemscore.Lipo>
66.3436

> <Gold.Chemscore.Internal_Hbond>
0.0000

> <Gold.Chemscore.DEClash>
0.0781

> <Gold.Chemscore.DEInternal>
1.5734

> <Gold.Chemscore.Rot>
1.3603

> <Gold.Chemscore.Internal.Correction>
   9.000000E+99

> <Gold.Chemscore.Hbonds>
donor molecule, donor type, donor heavy atom, donor atom, acceptor molecule, acceptor atom, score
      L1  H     7    24       P1  7948  0.78
      L1  H    10    25       P1  7948  0.95

> <Gold.Chemscore.Hbond.Weighted>
-6.1631

> <Gold.Chemscore.Metal.Weighted>
-0.0000

> <Gold.Chemscore.Lipo.Weighted>
-7.7622

> <Gold.Chemscore.Internal_Hbond.Weighted>
0.0000

> <Gold.Chemscore.DEClash.Weighted>
0.0781

> <Gold.Chemscore.DEInternal.Weighted>
1.5734

> <Gold.Chemscore.Rot.Weighted>
3.4824

> <Gold.Chemscore.Internal.Correction.Weighted>
   9.000000E+99

> <Gold.Protein.RotatedTorsions>
[ 6907 6896 6895 6894 ] final   75.14 input  -60.11 | X-H torsion
[ 7974 7965 7964 7962 ] final   66.06 input  175.53 | X-H torsion
[ 8008 7997 7996 7995 ] final  -52.13 input   59.86 | X-H torsion
[ 10167 10162 10161 10158 ] final  -47.23 input  -65.29 | X-H torsion
[ 10718 10713 10712 10709 ] final -103.47 input   66.30 | X-H torsion
[ 10763 10752 10751 10750 ] final -168.55 input  -60.55 | X-H torsion
[ 11005 11000 10999 10996 ] final    7.02 input  -57.11 | X-H torsion

> <Gold.Protein.ActiveResidues>
 VAL166  LYS551  ARG553  GLY616  TRP617  ASP618  TYR619  PRO620  LYS621  CYS622 
 ASP623  PHE694  ASN695  SER759  ASP760  ASP761  ALA762  ILE779  LEU786  VAL792 
 PHE793  MET794  SER795  GLU796  ALA797  LYS798  CYS799  TRP800  GLU811  SER814 

> <Gold.Protein.RotatedAtoms>
  152.5011  134.4165  159.9465 H   0  0  0  0  0  0  0  0  0  0  0  0  # atno 6907 bound_to 6896
  151.4136  133.3713  159.2755 H   0  0  0  0  0  0  0  0  0  0  0  0  # atno 6908 bound_to 6896
  150.9274  134.8712  159.7588 H   0  0  0  0  0  0  0  0  0  0  0  0  # atno 6909 bound_to 6896
  145.8311  139.3140  143.0987 H   0  0  0  0  0  0  0  0  0  0  0  0  # atno 7974 bound_to 7965
  154.4099  140.1231  156.4941 H   0  0  0  0  0  0  0  0  0  0  0  0  # atno 8008 bound_to 7997
  155.6961  140.3495  155.4894 H   0  0  0  0  0  0  0  0  0  0  0  0  # atno 8009 bound_to 7997
  155.9426  140.1090  157.1033 H   0  0  0  0  0  0  0  0  0  0  0  0  # atno 8010 bound_to 7997
  140.6784  143.2794  151.3897 H   0  0  0  0  0  0  0  0  0  0  0  0  # atno 10167 bound_to 10162
  156.0266  130.5469  150.7257 H   0  0  0  0  0  0  0  0  0  0  0  0  # atno 10718 bound_to 10713
  154.6617  135.2926  154.9858 H   0  0  0  0  0  0  0  0  0  0  0  0  # atno 10763 bound_to 10752
  154.0916  135.6590  153.4857 H   0  0  0  0  0  0  0  0  0  0  0  0  # atno 10764 bound_to 10752
  153.0433  135.5221  154.7571 H   0  0  0  0  0  0  0  0  0  0  0  0  # atno 10765 bound_to 10752
  140.5529  134.0266  155.7943 H   0  0  0  0  0  0  0  0  0  0  0  0  # atno 11005 bound_to 11000
  145.9570  140.8865  143.0230 LP  0  0  0  0  0  0  0  0  0  0  0  0  # atno 17320 bound_to 7965
  144.6740  140.1759  143.7410 LP  0  0  0  0  0  0  0  0  0  0  0  0  # atno 17321 bound_to 7965
  139.6090  144.1137  152.2279 LP  0  0  0  0  0  0  0  0  0  0  0  0  # atno 17342 bound_to 10162
  140.0545  144.5906  150.7310 LP  0  0  0  0  0  0  0  0  0  0  0  0  # atno 17343 bound_to 10162
  157.4862  131.0907  151.0480 LP  0  0  0  0  0  0  0  0  0  0  0  0  # atno 17370 bound_to 10713
  157.0899  130.5938  149.5437 LP  0  0  0  0  0  0  0  0  0  0  0  0  # atno 17371 bound_to 10713
  141.1161  133.9538  157.2820 LP  0  0  0  0  0  0  0  0  0  0  0  0  # atno 17394 bound_to 11000
  139.9446  135.0186  156.8813 LP  0  0  0  0  0  0  0  0  0  0  0  0  # atno 17395 bound_to 11000

$$$$
