AV-unprocessed.smi:2892|AV-procd|sdf|11120|dock10
  -GOLD-   2272015593D 1   1.00000     0.00000
 Structure written by MMmdl.
 42 42  0  0  0  0  0  0  0  0  2 V2000
  150.6035  135.9701  154.9772 C   0  0  0  0  0  0  0  0  0  0  0  0
  150.1918  137.3799  155.4267 C   0  0  0  0  0  0  0  0  0  0  0  0
  151.2263  138.0896  156.3405 C   0  0  2  0  0  0  0  0  0  0  0  0
  152.5571  138.2998  155.5809 C   0  0  0  0  0  0  0  0  0  0  0  0
  151.4612  137.3260  157.6814 C   0  0  1  0  0  0  0  0  0  0  0  0
  152.3922  138.0902  158.5101 N   0  0  0  0  0  0  0  0  0  0  0  0
  152.2391  139.3634  158.9102 C   0  0  0  0  0  0  0  0  0  0  0  0
  151.2815  140.0659  158.5871 O   0  0  0  0  0  0  0  0  0  0  0  0
  153.3349  139.9386  159.8150 C   0  0  0  0  0  0  0  0  0  0  0  0
  153.0532  141.3771  160.1705 C   0  0  0  0  0  0  0  0  0  0  0  0
  153.1075  141.9883  161.4556 C   0  0  0  0  0  0  0  0  0  0  0  0
  152.7275  143.2789  161.2241 C   0  0  0  0  0  0  0  0  0  0  0  0
  152.4792  143.3999  159.8734 N   0  0  0  0  0  0  0  0  0  0  0  0
  152.0189  144.5721  159.1442 C   0  0  0  0  0  0  0  0  0  0  0  0
  152.8943  144.8276  157.9068 C   0  0  0  0  0  0  0  0  0  0  0  0
  151.9404  145.8069  160.0570 C   0  0  0  0  0  0  0  0  0  0  0  0
  152.6870  142.2321  159.2258 N   0  0  0  0  0  0  0  0  0  0  0  0
  150.1489  137.1816  158.4739 C   0  0  0  0  0  0  0  0  0  0  0  0
  149.7261  136.0243  158.6961 O   0  0  0  0  0  0  0  0  0  0  0  0
  149.5918  138.2373  158.8462 O   0  5  0  0  0  0  0  0  0  0  0  0
  149.8888  135.5753  154.2550 H   0  0  0  0  0  0  0  0  0  0  0  0
  150.6386  135.2689  155.8103 H   0  0  0  0  0  0  0  0  0  0  0  0
  151.5835  135.9799  154.4994 H   0  0  0  0  0  0  0  0  0  0  0  0
  150.0260  137.9595  154.5191 H   0  0  0  0  0  0  0  0  0  0  0  0
  149.2250  137.3356  155.9293 H   0  0  0  0  0  0  0  0  0  0  0  0
  150.8333  139.0797  156.5781 H   0  0  0  0  0  0  0  0  0  0  0  0
  153.0122  137.3463  155.3115 H   0  0  0  0  0  0  0  0  0  0  0  0
  153.2844  138.8559  156.1724 H   0  0  0  0  0  0  0  0  0  0  0  0
  152.4163  138.8722  154.6652 H   0  0  0  0  0  0  0  0  0  0  0  0
  151.8682  136.3361  157.4652 H   0  0  0  0  0  0  0  0  0  0  0  0
  153.2227  137.6014  158.8101 H   0  0  0  0  0  0  0  0  0  0  0  0
  153.3955  139.3281  160.7165 H   0  0  0  0  0  0  0  0  0  0  0  0
  154.3008  139.8533  159.3154 H   0  0  0  0  0  0  0  0  0  0  0  0
  153.3694  141.5419  162.4034 H   0  0  0  0  0  0  0  0  0  0  0  0
  152.6091  144.1104  161.9030 H   0  0  0  0  0  0  0  0  0  0  0  0
  151.0081  144.3556  158.7960 H   0  0  0  0  0  0  0  0  0  0  0  0
  152.5122  145.6658  157.3239 H   0  0  0  0  0  0  0  0  0  0  0  0
  152.9152  143.9548  157.2535 H   0  0  0  0  0  0  0  0  0  0  0  0
  153.9233  145.0592  158.1844 H   0  0  0  0  0  0  0  0  0  0  0  0
  151.5181  146.6588  159.5237 H   0  0  0  0  0  0  0  0  0  0  0  0
  152.9252  146.1017  160.4213 H   0  0  0  0  0  0  0  0  0  0  0  0
  151.3073  145.6140  160.9237 H   0  0  0  0  0  0  0  0  0  0  0  0
  1  2  1  0  0  0  0
  1 21  1  0  0  0  0
  1 22  1  0  0  0  0
  1 23  1  0  0  0  0
  2  3  1  0  0  0  0
  2 24  1  0  0  0  0
  2 25  1  0  0  0  0
  3  4  1  0  0  0  0
  3  5  1  0  0  0  0
  3 26  1  0  0  0  0
  4 27  1  0  0  0  0
  4 28  1  0  0  0  0
  4 29  1  0  0  0  0
  5  6  1  0  0  0  0
  5 18  1  0  0  0  0
  5 30  1  0  0  0  0
  6  7  1  0  0  0  0
  6 31  1  0  0  0  0
  7  8  2  0  0  0  0
  7  9  1  0  0  0  0
  9 10  1  0  0  0  0
  9 32  1  0  0  0  0
  9 33  1  0  0  0  0
 10 17  2  0  0  0  0
 10 11  1  0  0  0  0
 11 12  2  0  0  0  0
 11 34  1  0  0  0  0
 12 13  1  0  0  0  0
 12 35  1  0  0  0  0
 13 14  1  0  0  0  0
 13 17  1  0  0  0  0
 14 15  1  0  0  0  0
 14 16  1  0  0  0  0
 14 36  1  0  0  0  0
 15 37  1  0  0  0  0
 15 38  1  0  0  0  0
 15 39  1  0  0  0  0
 16 40  1  0  0  0  0
 16 41  1  0  0  0  0
 16 42  1  0  0  0  0
 18 19  2  0  0  0  0
 18 20  1  0  0  0  0
M  CHG  1  20  -1
M  END
> <s_m_source_file>
AV-unprocessed.smi

> <i_m_source_file_index>
2892

> <i_lp_mmshare_version>
43012

> <i_f3d_flags>
0

> <s_epik_input>
W0NIM11bQ0gyXVtDQEhdKFtDSDNdKVtDQEBIXShDKD1PKVtPSF0pW05IXUMoPU8pW0NIMl1jMVtjSF1bY0hdbihuMSlbQ0hdKFtDSDNdKVtDSDNd

> <s_epik_cmdline>
J2VwaWtfcHl0aG9uJywgJy1waCcsICc3LjAnLCAnLXRuJywgJzgnLCAnLW1hJywgJzIwMCcsICctbWV0YWxfYmluZGluZycsICctaW1hZScsICc8aW5maWxlLm1hZT4nLCAnLW9tYWUnLCAnPG91dGZpbGUubWFlPic=

> <r_lp_tautomer_probability>
1

> <r_epik_Ionization_Penalty>
0.000286846

> <r_epik_Ionization_Penalty_Charging>
0.000224481

> <r_epik_Ionization_Penalty_Neutral>
6.23655e-05

> <r_epik_State_Penalty>
-0

> <r_epik_Charging_Adjusted_Penalty>
0.000224481

> <i_epik_Tot_Q>
-1

> <i_epik_Tot_abs_Q>
1

> <r_epik_Metal_State_Penalty>
-0

> <b_epik_Metal_Only>
0

> <s_lp_Force_Field>
OPLS_2005

> <r_lp_Energy>
13.0415

> <b_lp_Chiralities_Consistent>
1

> <s_lp_Variant>
AV-unprocessed.smi:2892-3

> <Gold.Version>
5.8.1

> <Gold.Id.Protein>
6NUR|6NUR_protein|mol2

> <Gold.PLP.Fitness>
48.3620

> <Gold.PLP.PLP>
-42.7927

> <Gold.PLP.part.hbond>
-1.4135

> <Gold.PLP.part.metal>
0.0000

> <Gold.PLP.part.buried>
-6.3957

> <Gold.PLP.part.nonpolar>
-34.4885

> <Gold.PLP.part.repulsive>
0.0881

> <Gold.PLP.ligand.clash>
0.0000

> <Gold.PLP.ligand.torsion>
0.2997

> <Gold.PLP.Chemscore.Hbond>
2.0000

> <Gold.PLP.Chemscore.CHOScore>
0.0000

> <Gold.PLP.Chemscore.Metal>
0.0000

> <Gold.Chemscore.Hbonds>
donor molecule, donor type, donor heavy atom, donor atom, acceptor molecule, acceptor atom, score
      P1  H  6896  6908       L1    19  2.00

> <Gold.PLP.Chemscore.Internal.Correction>
0.1687

> <Gold.Rescore>
     Score         DG    S(hbond)    S(metal)    S(lipo)     H(rot)  DE(clash)    DE(int)     intcor
      9.20     -14.94       1.00        0.00     104.62       2.39       0.03       5.71       ----

> <Gold.Chemscore.Fitness>
9.2011

> <Gold.Chemscore.DG>
-14.9409

> <Gold.Chemscore.ZeroCoef>
-5.4800

> <Gold.Chemscore.Hbond>
0.9968

> <Gold.Chemscore.Metal>
0.0000

> <Gold.Chemscore.Lipo>
104.6241

> <Gold.Chemscore.Internal_Hbond>
0.0000

> <Gold.Chemscore.DEClash>
0.0274

> <Gold.Chemscore.DEInternal>
5.7124

> <Gold.Chemscore.Rot>
2.3865

> <Gold.Chemscore.Internal.Correction>
   9.000000E+99

> <Gold.Chemscore.Hbonds>
donor molecule, donor type, donor heavy atom, donor atom, acceptor molecule, acceptor atom, score
      P1  H  6896  6908       L1    19  0.94

> <Gold.Chemscore.Hbond.Weighted>
-3.3292

> <Gold.Chemscore.Metal.Weighted>
-0.0000

> <Gold.Chemscore.Lipo.Weighted>
-12.2410

> <Gold.Chemscore.Internal_Hbond.Weighted>
0.0000

> <Gold.Chemscore.DEClash.Weighted>
0.0274

> <Gold.Chemscore.DEInternal.Weighted>
5.7124

> <Gold.Chemscore.Rot.Weighted>
6.1093

> <Gold.Chemscore.Internal.Correction.Weighted>
   9.000000E+99

> <Gold.Protein.RotatedTorsions>
[ 6907 6896 6895 6894 ] final -168.41 input  -60.11 | X-H torsion
[ 7974 7965 7964 7962 ] final   49.50 input  175.53 | X-H torsion
[ 8008 7997 7996 7995 ] final   40.29 input   59.86 | X-H torsion
[ 10167 10162 10161 10158 ] final  -24.93 input  -65.29 | X-H torsion
[ 10718 10713 10712 10709 ] final   -6.88 input   66.30 | X-H torsion
[ 10763 10752 10751 10750 ] final   52.95 input  -60.55 | X-H torsion
[ 11005 11000 10999 10996 ] final  -59.16 input  -57.11 | X-H torsion

> <Gold.Protein.ActiveResidues>
 VAL166  LYS551  ARG553  GLY616  TRP617  ASP618  TYR619  PRO620  LYS621  CYS622 
 ASP623  PHE694  ASN695  SER759  ASP760  ASP761  ALA762  ILE779  LEU786  VAL792 
 PHE793  MET794  SER795  GLU796  ALA797  LYS798  CYS799  TRP800  GLU811  SER814 

> <Gold.Protein.RotatedAtoms>
  151.4751  133.3560  159.2829 H   0  0  0  0  0  0  0  0  0  0  0  0  # atno 6907 bound_to 6896
  150.8935  134.8343  159.7321 H   0  0  0  0  0  0  0  0  0  0  0  0  # atno 6908 bound_to 6896
  152.4837  134.4663  159.9673 H   0  0  0  0  0  0  0  0  0  0  0  0  # atno 6909 bound_to 6896
  146.0103  139.4536  142.9960 H   0  0  0  0  0  0  0  0  0  0  0  0  # atno 7974 bound_to 7965
  155.2507  140.3352  155.4282 H   0  0  0  0  0  0  0  0  0  0  0  0  # atno 8008 bound_to 7997
  156.2217  140.1811  156.7506 H   0  0  0  0  0  0  0  0  0  0  0  0  # atno 8009 bound_to 7997
  154.5835  140.0649  156.9123 H   0  0  0  0  0  0  0  0  0  0  0  0  # atno 8010 bound_to 7997
  140.7287  143.4309  151.0803 H   0  0  0  0  0  0  0  0  0  0  0  0  # atno 10167 bound_to 10162
  156.7254  130.5163  149.5858 H   0  0  0  0  0  0  0  0  0  0  0  0  # atno 10718 bound_to 10713
  152.9792  135.5795  154.4661 H   0  0  0  0  0  0  0  0  0  0  0  0  # atno 10763 bound_to 10752
  154.4231  135.2772  155.1964 H   0  0  0  0  0  0  0  0  0  0  0  0  # atno 10764 bound_to 10752
  154.3705  135.6169  153.5791 H   0  0  0  0  0  0  0  0  0  0  0  0  # atno 10765 bound_to 10752
  141.1237  133.6615  156.5030 H   0  0  0  0  0  0  0  0  0  0  0  0  # atno 11005 bound_to 11000
  145.7352  141.0028  143.1330 LP  0  0  0  0  0  0  0  0  0  0  0  0  # atno 17320 bound_to 7965
  144.6950  139.9032  143.7459 LP  0  0  0  0  0  0  0  0  0  0  0  0  # atno 17321 bound_to 7965
  139.7966  143.8142  152.3158 LP  0  0  0  0  0  0  0  0  0  0  0  0  # atno 17342 bound_to 10162
  139.8145  144.7322  150.9654 LP  0  0  0  0  0  0  0  0  0  0  0  0  # atno 17343 bound_to 10162
  156.1566  130.6345  151.0664 LP  0  0  0  0  0  0  0  0  0  0  0  0  # atno 17370 bound_to 10713
  157.6881  131.0818  150.7186 LP  0  0  0  0  0  0  0  0  0  0  0  0  # atno 17371 bound_to 10713
  140.4430  134.6998  157.5001 LP  0  0  0  0  0  0  0  0  0  0  0  0  # atno 17394 bound_to 11000
  140.0216  134.6538  155.9231 LP  0  0  0  0  0  0  0  0  0  0  0  0  # atno 17395 bound_to 11000

$$$$
