#       Name:                AV-unprocessed.smi:1867
#       Creating user name   scv26
#       Creation time:       Fri Mar 27 09:27:47 2020


#       File generated by GOLD software.
#

@<TRIPOS>MOLECULE
AV-unprocessed.smi:1867
    55    58     1
SMALL
NO_CHARGES


@<TRIPOS>ATOM
      1 ****        -0.2459   2.9357   0.0964 O.2            1 S1                 0.0000
      2 ****        -0.6496   1.7859  -0.0619 C.2            1 S1                 0.0000
      3 ****         0.1437   0.7114  -0.2400 N.am           1 S1                 0.0000
      4 ****         1.5620   0.6443  -0.2004 C.ar           1 S1                 0.0000
      5 ****         2.3837   1.5750   0.4761 C.ar           1 S1                 0.0000
      6 ****         3.7790   1.3877   0.4649 C.ar           1 S1                 0.0000
      7 ****         4.3209   0.2706  -0.2143 C.ar           1 S1                 0.0000
      8 ****         5.7119   0.0488  -0.2566 N.pl3          1 S1                 0.0000
      9 ****         6.6455   0.8005   0.5662 C.3            1 S1                 0.0000
     10 ****         8.0060   0.1568   0.2995 C.3            1 S1                 0.0000
     11 ****         7.6525  -1.3022   0.0110 C.3            1 S1                 0.0000
     12 ****         6.2852  -1.2236  -0.6764 C.3            1 S1                 0.0000
     13 ****         3.5303  -0.6232  -0.8550 N.ar           1 S1                 0.0000
     14 ****         2.1936  -0.4408  -0.8395 C.ar           1 S1                 0.0000
     15 ****        -1.9656   1.5143  -0.1122 N.am           1 S1                 0.0000
     16 ****        -3.0836   2.4457   0.0407 C.3            1 S1                 0.0000
     17 ****        -3.4110   2.8017   1.5044 C.3            1 S1                 0.0000
     18 ****        -4.9500   2.8673   1.5758 C.3            1 S1                 0.0000
     19 ****        -5.4135   2.6661   0.1897 N.4            1 S1                 1.0000
     20 ****        -6.7840   2.1416   0.0034 C.3            1 S1                 0.0000
     21 ****        -7.1040   2.0823  -1.5041 C.3            1 S1                 0.0000
     22 ****        -6.0315   1.2968  -2.2873 C.3            1 S1                 0.0000
     23 ****        -4.6173   1.8263  -1.9792 C.3            1 S1                 0.0000
     24 ****        -4.3910   1.8316  -0.4586 C.3            1 S1                 0.0000
     25 ****        -0.3235  -0.1532  -0.4696 H              1 S1                 0.0000
     26 ****         1.9748   2.4162   1.0139 H              1 S1                 0.0000
     27 ****         4.4071   2.0999   0.9783 H              1 S1                 0.0000
     28 ****         6.6480   1.8604   0.3099 H              1 S1                 0.0000
     29 ****         6.3689   0.6965   1.6161 H              1 S1                 0.0000
     30 ****         8.4604   0.6060  -0.5847 H              1 S1                 0.0000
     31 ****         8.7002   0.2723   1.1322 H              1 S1                 0.0000
     32 ****         8.4025  -1.8111  -0.5950 H              1 S1                 0.0000
     33 ****         7.5567  -1.8457   0.9520 H              1 S1                 0.0000
     34 ****         5.6610  -2.0749  -0.4021 H              1 S1                 0.0000
     35 ****         6.3977  -1.2158  -1.7610 H              1 S1                 0.0000
     36 ****         1.6099  -1.1860  -1.3600 H              1 S1                 0.0000
     37 ****        -2.2146   0.5600  -0.3296 H              1 S1                 0.0000
     38 ****        -2.8926   3.3618  -0.5223 H              1 S1                 0.0000
     39 ****        -3.0421   2.0391   2.1922 H              1 S1                 0.0000
     40 ****        -2.9514   3.7487   1.7898 H              1 S1                 0.0000
     41 ****        -5.3285   2.0704   2.2180 H              1 S1                 0.0000
     42 ****        -5.3086   3.8189   1.9691 H              1 S1                 0.0000
     43 ****        -6.8674   1.1501   0.4511 H              1 S1                 0.0000
     44 ****        -7.4972   2.7890   0.5148 H              1 S1                 0.0000
     45 ****        -8.0854   1.6339  -1.6609 H              1 S1                 0.0000
     46 ****        -7.1643   3.0975  -1.8989 H              1 S1                 0.0000
     47 ****        -6.0895   0.2409  -2.0203 H              1 S1                 0.0000
     48 ****        -6.2300   1.3557  -3.3580 H              1 S1                 0.0000
     49 ****        -3.8682   1.2056  -2.4716 H              1 S1                 0.0000
     50 ****        -4.5034   2.8342  -2.3810 H              1 S1                 0.0000
     51 ****        -4.4800   0.8127  -0.0737 H              1 S1                 0.0000
     52 ****        -5.3734   3.5690  -0.2611 H              1 S1                 0.0000
     53 ****         0.7360   3.1250   0.0989 LP             1 S1                 0.0000
     54 ****        -0.8993   3.6821   0.2228 LP             1 S1                 0.0000
     55 ****         3.9308  -1.4056  -1.3318 LP             1 S1                 0.0000
@<TRIPOS>BOND
    1    1    2 2     
    2    2    3 am    
    3    2   15 am    
    4    3    4 1     
    5    3   25 1     
    6    4   14 ar    
    7    4    5 ar    
    8    5    6 ar    
    9    5   26 1     
   10    6    7 ar    
   11    6   27 1     
   12    7    8 1     
   13    7   13 ar    
   14    8   12 1     
   15    8    9 1     
   16    9   10 1     
   17    9   28 1     
   18    9   29 1     
   19   10   11 1     
   20   10   30 1     
   21   10   31 1     
   22   11   12 1     
   23   11   32 1     
   24   11   33 1     
   25   12   34 1     
   26   12   35 1     
   27   13   14 ar    
   28   14   36 1     
   29   15   16 1     
   30   15   37 1     
   31   16   24 1     
   32   16   17 1     
   33   16   38 1     
   34   17   18 1     
   35   17   39 1     
   36   17   40 1     
   37   18   19 1     
   38   18   41 1     
   39   18   42 1     
   40   19   24 1     
   41   19   20 1     
   42   19   52 1     
   43   20   21 1     
   44   20   43 1     
   45   20   44 1     
   46   21   22 1     
   47   21   45 1     
   48   21   46 1     
   49   22   23 1     
   50   22   47 1     
   51   22   48 1     
   52   23   24 1     
   53   23   49 1     
   54   23   50 1     
   55   24   51 1     
   56    1   53 1     
   57    1   54 1     
   58   13   55 1     
@<TRIPOS>SUBSTRUCTURE
      1 S1             1
@<TRIPOS>SET
LONE_PAIRS      STATIC     ATOMS    <user>   **** ""
3 53 54 55
DONOR_HYDROGENS      STATIC     ATOMS    <user>   **** ""
3 25 37 52
ATOM$BLUE        STATIC     ATOMS    COLORGROUP SYSTEM
3 53 54 55
ATOM$RED        STATIC     ATOMS    COLORGROUP SYSTEM
3 25 37 52
