AV-unprocessed.smi:773|AV-procd|sdf|3689|dock2
  -GOLD-   22720 1103D 1   1.00000     0.00000
 Structure written by MMmdl.
 39 40  0  0  0  0  0  0  0  0  1 V2000
  152.8193  138.8157  154.6753 C   0  0  0  0  0  0  0  0  0  0  0  0
  151.4832  138.1549  154.8548 C   0  0  0  0  0  0  0  0  0  0  0  0
  151.4314  136.8679  155.1533 N   0  0  0  0  0  0  0  0  0  0  0  0
  150.0732  136.5502  155.2447 O   0  0  0  0  0  0  0  0  0  0  0  0
  149.3518  137.6729  154.9993 C   0  0  0  0  0  0  0  0  0  0  0  0
  147.8680  137.5279  155.0324 C   0  0  0  0  0  0  0  0  0  0  0  0
  150.1840  138.7301  154.7492 C   0  0  0  0  0  0  0  0  0  0  0  0
  149.8270  140.1599  154.4235 C   0  0  0  0  0  0  0  0  0  0  0  0
  148.8716  140.8027  155.4528 C   0  0  2  0  0  0  0  0  0  0  0  0
  147.4929  141.0890  154.8420 C   0  0  0  0  0  0  0  0  0  0  0  0
  149.4266  142.0441  155.9934 N   0  0  0  0  0  0  0  0  0  0  0  0
  150.5386  142.1478  156.7369 C   0  0  0  0  0  0  0  0  0  0  0  0
  151.2366  141.1927  157.0787 O   0  0  0  0  0  0  0  0  0  0  0  0
  150.8092  143.4213  157.0497 N   0  0  0  0  0  0  0  0  0  0  0  0
  151.9689  143.8439  157.8242 C   0  0  0  0  0  0  0  0  0  0  0  0
  152.1888  143.0189  159.1006 C   0  0  0  0  0  0  0  0  0  0  0  0
  152.5251  144.3405  159.8033 C   0  0  0  0  0  0  0  0  0  0  0  0
  151.6767  145.0430  158.7351 C   0  0  0  0  0  0  0  0  0  0  0  0
  152.7522  139.6643  153.9949 H   0  0  0  0  0  0  0  0  0  0  0  0
  153.5538  138.1235  154.2621 H   0  0  0  0  0  0  0  0  0  0  0  0
  153.2037  139.1822  155.6272 H   0  0  0  0  0  0  0  0  0  0  0  0
  147.3779  138.5002  155.0763 H   0  0  0  0  0  0  0  0  0  0  0  0
  147.5532  136.9527  155.9031 H   0  0  0  0  0  0  0  0  0  0  0  0
  147.5141  137.0129  154.1392 H   0  0  0  0  0  0  0  0  0  0  0  0
  150.7305  140.7662  154.3513 H   0  0  0  0  0  0  0  0  0  0  0  0
  149.3690  140.2162  153.4355 H   0  0  0  0  0  0  0  0  0  0  0  0
  148.7218  140.0905  156.2659 H   0  0  0  0  0  0  0  0  0  0  0  0
  147.0350  140.1749  154.4630 H   0  0  0  0  0  0  0  0  0  0  0  0
  147.5629  141.7942  154.0131 H   0  0  0  0  0  0  0  0  0  0  0  0
  146.8146  141.5128  155.5833 H   0  0  0  0  0  0  0  0  0  0  0  0
  148.9304  142.8936  155.7677 H   0  0  0  0  0  0  0  0  0  0  0  0
  150.1826  144.1433  156.7255 H   0  0  0  0  0  0  0  0  0  0  0  0
  152.8844  143.9769  157.2429 H   0  0  0  0  0  0  0  0  0  0  0  0
  151.2779  142.5564  159.4863 H   0  0  0  0  0  0  0  0  0  0  0  0
  153.0130  142.3069  159.0470 H   0  0  0  0  0  0  0  0  0  0  0  0
  152.1444  144.4281  160.8212 H   0  0  0  0  0  0  0  0  0  0  0  0
  153.5843  144.5968  159.7419 H   0  0  0  0  0  0  0  0  0  0  0  0
  152.0810  145.9925  158.3833 H   0  0  0  0  0  0  0  0  0  0  0  0
  150.6269  145.1302  159.0225 H   0  0  0  0  0  0  0  0  0  0  0  0
  1  2  1  0  0  0  0
  1 19  1  0  0  0  0
  1 20  1  0  0  0  0
  1 21  1  0  0  0  0
  2  7  1  0  0  0  0
  2  3  2  0  0  0  0
  3  4  1  0  0  0  0
  4  5  1  0  0  0  0
  5  6  1  0  0  0  0
  5  7  2  0  0  0  0
  6 22  1  0  0  0  0
  6 23  1  0  0  0  0
  6 24  1  0  0  0  0
  7  8  1  0  0  0  0
  8  9  1  0  0  0  0
  8 25  1  0  0  0  0
  8 26  1  0  0  0  0
  9 10  1  0  0  0  0
  9 11  1  0  0  0  0
  9 27  1  0  0  0  0
 10 28  1  0  0  0  0
 10 29  1  0  0  0  0
 10 30  1  0  0  0  0
 11 12  1  0  0  0  0
 11 31  1  0  0  0  0
 12 13  2  0  0  0  0
 12 14  1  0  0  0  0
 14 15  1  0  0  0  0
 14 32  1  0  0  0  0
 15 18  1  0  0  0  0
 15 16  1  0  0  0  0
 15 33  1  0  0  0  0
 16 17  1  0  0  0  0
 16 34  1  0  0  0  0
 16 35  1  0  0  0  0
 17 18  1  0  0  0  0
 17 36  1  0  0  0  0
 17 37  1  0  0  0  0
 18 38  1  0  0  0  0
 18 39  1  0  0  0  0
M  END
> <s_m_source_file>
AV-unprocessed.smi

> <i_m_source_file_index>
773

> <i_lp_mmshare_version>
43012

> <i_f3d_flags>
0

> <s_epik_input>
W0NIM11jMW5vYyhbQ0gzXSljMVtDSDJdW0NASF0oW0NIM10pW05IXUMoPU8pW05IXVtDSF0yW0NIMl1bQ0gyXVtDSDJdMg==

> <s_epik_cmdline>
J2VwaWtfcHl0aG9uJywgJy1waCcsICc3LjAnLCAnLXRuJywgJzgnLCAnLW1hJywgJzIwMCcsICctbWV0YWxfYmluZGluZycsICctaW1hZScsICc8aW5maWxlLm1hZT4nLCAnLW9tYWUnLCAnPG91dGZpbGUubWFlPic=

> <r_lp_tautomer_probability>
1

> <r_epik_Ionization_Penalty>
6.63278e-05

> <r_epik_Ionization_Penalty_Charging>
0

> <r_epik_Ionization_Penalty_Neutral>
6.63278e-05

> <r_epik_State_Penalty>
-0

> <r_epik_Charging_Adjusted_Penalty>
0

> <i_epik_Tot_Q>
0

> <i_epik_Tot_abs_Q>
0

> <r_epik_Metal_State_Penalty>
-0

> <b_epik_Metal_Only>
0

> <s_lp_Force_Field>
OPLS_2005

> <r_lp_Energy>
7.52074

> <b_lp_Chiralities_Consistent>
1

> <s_lp_Variant>
AV-unprocessed.smi:773-1

> <Gold.Version>
5.8.1

> <Gold.Id.Protein>
6NUR|6NUR_protein|mol2

> <Gold.PLP.Fitness>
44.3806

> <Gold.PLP.PLP>
-37.2520

> <Gold.PLP.part.hbond>
-3.0000

> <Gold.PLP.part.metal>
0.0000

> <Gold.PLP.part.buried>
-4.1671

> <Gold.PLP.part.nonpolar>
-30.8085

> <Gold.PLP.part.repulsive>
0.3729

> <Gold.PLP.ligand.clash>
0.0000

> <Gold.PLP.ligand.torsion>
1.0652

> <Gold.PLP.Chemscore.Hbond>
3.0000

> <Gold.PLP.Chemscore.CHOScore>
0.0000

> <Gold.PLP.Chemscore.Metal>
0.0000

> <Gold.Chemscore.Hbonds>
donor molecule, donor type, donor heavy atom, donor atom, acceptor molecule, acceptor atom, score
      L1  H    11    31       P1  8028  1.00
      L1  H    14    32       P1  8028  1.00
      P1  H 10752 10765       L1     3  0.94

> <Gold.PLP.Chemscore.Internal.Correction>
0.2590

> <Gold.Rescore>
     Score         DG    S(hbond)    S(metal)    S(lipo)     H(rot)  DE(clash)    DE(int)     intcor
     21.41     -22.51       2.88        0.00      97.56       1.56       0.11       0.99       ----

> <Gold.Chemscore.Fitness>
21.4117

> <Gold.Chemscore.DG>
-22.5089

> <Gold.Chemscore.ZeroCoef>
-5.4800

> <Gold.Chemscore.Hbond>
2.8786

> <Gold.Chemscore.Metal>
0.0000

> <Gold.Chemscore.Lipo>
97.5581

> <Gold.Chemscore.Internal_Hbond>
0.0000

> <Gold.Chemscore.DEClash>
0.1103

> <Gold.Chemscore.DEInternal>
0.9869

> <Gold.Chemscore.Rot>
1.5625

> <Gold.Chemscore.Internal.Correction>
   9.000000E+99

> <Gold.Chemscore.Hbonds>
donor molecule, donor type, donor heavy atom, donor atom, acceptor molecule, acceptor atom, score
      L1  H    11    31       P1  8028  0.95
      L1  H    14    32       P1  8028  0.96
      P1  H 10752 10765       L1     3  0.87

> <Gold.Chemscore.Hbond.Weighted>
-9.6147

> <Gold.Chemscore.Metal.Weighted>
-0.0000

> <Gold.Chemscore.Lipo.Weighted>
-11.4143

> <Gold.Chemscore.Internal_Hbond.Weighted>
0.0000

> <Gold.Chemscore.DEClash.Weighted>
0.1103

> <Gold.Chemscore.DEInternal.Weighted>
0.9869

> <Gold.Chemscore.Rot.Weighted>
4.0000

> <Gold.Chemscore.Internal.Correction.Weighted>
   9.000000E+99

> <Gold.Protein.RotatedTorsions>
[ 6907 6896 6895 6894 ] final   95.62 input  -60.11 | X-H torsion
[ 7974 7965 7964 7962 ] final -148.90 input  175.53 | X-H torsion
[ 8008 7997 7996 7995 ] final  -53.53 input   59.86 | X-H torsion
[ 10167 10162 10161 10158 ] final   61.43 input  -65.29 | X-H torsion
[ 10718 10713 10712 10709 ] final  -50.33 input   66.30 | X-H torsion
[ 10763 10752 10751 10750 ] final  173.80 input  -60.55 | X-H torsion
[ 11005 11000 10999 10996 ] final  -50.35 input  -57.11 | X-H torsion

> <Gold.Protein.ActiveResidues>
 VAL166  LYS551  ARG553  GLY616  TRP617  ASP618  TYR619  PRO620  LYS621  CYS622 
 ASP623  PHE694  ASN695  SER759  ASP760  ASP761  ALA762  ILE779  LEU786  VAL792 
 PHE793  MET794  SER795  GLU796  ALA797  LYS798  CYS799  TRP800  GLU811  SER814 

> <Gold.Protein.RotatedAtoms>
  152.5442  134.1012  159.8318 H   0  0  0  0  0  0  0  0  0  0  0  0  # atno 6907 bound_to 6896
  151.1090  133.5180  159.2614 H   0  0  0  0  0  0  0  0  0  0  0  0  # atno 6908 bound_to 6896
  151.1906  135.0410  159.8885 H   0  0  0  0  0  0  0  0  0  0  0  0  # atno 6909 bound_to 6896
  144.8001  140.5136  143.5713 H   0  0  0  0  0  0  0  0  0  0  0  0  # atno 7974 bound_to 7965
  154.4136  140.1197  156.5169 H   0  0  0  0  0  0  0  0  0  0  0  0  # atno 8008 bound_to 7997
  155.6742  140.3496  155.4810 H   0  0  0  0  0  0  0  0  0  0  0  0  # atno 8009 bound_to 7997
  155.9607  140.1122  157.0888 H   0  0  0  0  0  0  0  0  0  0  0  0  # atno 8010 bound_to 7997
  140.1548  144.4428  150.6740 H   0  0  0  0  0  0  0  0  0  0  0  0  # atno 10167 bound_to 10162
  156.1811  130.4150  149.9506 H   0  0  0  0  0  0  0  0  0  0  0  0  # atno 10718 bound_to 10713
  154.4451  135.2763  155.1820 H   0  0  0  0  0  0  0  0  0  0  0  0  # atno 10763 bound_to 10752
  154.3671  135.6117  153.5724 H   0  0  0  0  0  0  0  0  0  0  0  0  # atno 10764 bound_to 10752
  152.9843  135.5848  154.4786 H   0  0  0  0  0  0  0  0  0  0  0  0  # atno 10765 bound_to 10752
  141.0811  133.6653  156.3718 H   0  0  0  0  0  0  0  0  0  0  0  0  # atno 11005 bound_to 11000
  145.5575  139.1478  143.3360 LP  0  0  0  0  0  0  0  0  0  0  0  0  # atno 17320 bound_to 7965
  146.2280  140.5712  142.8988 LP  0  0  0  0  0  0  0  0  0  0  0  0  # atno 17321 bound_to 7965
  140.6680  143.2275  151.5695 LP  0  0  0  0  0  0  0  0  0  0  0  0  # atno 17342 bound_to 10162
  139.5409  144.2651  152.1348 LP  0  0  0  0  0  0  0  0  0  0  0  0  # atno 17343 bound_to 10162
  156.7276  130.9031  151.3623 LP  0  0  0  0  0  0  0  0  0  0  0  0  # atno 17370 bound_to 10713
  157.6868  130.9194  150.0409 LP  0  0  0  0  0  0  0  0  0  0  0  0  # atno 17371 bound_to 10713
  140.5466  134.6068  157.5395 LP  0  0  0  0  0  0  0  0  0  0  0  0  # atno 17394 bound_to 11000
  139.9625  134.7428  156.0207 LP  0  0  0  0  0  0  0  0  0  0  0  0  # atno 17395 bound_to 11000

$$$$
