AV-unprocessed.smi:106|AV-procd|sdf|1012|dock3
  -GOLD-   2262018 13D 1   1.00000     0.00000
 Structure written by MMmdl.
 51 54  0  0  0  0  0  0  0  0  1 V2000
  155.7554  136.0178  160.5249 O   0  0  0  0  0  0  0  0  0  0  0  0
  156.0169  137.1866  160.2324 C   0  0  0  0  0  0  0  0  0  0  0  0
  157.4734  137.5637  159.8816 C   0  0  0  0  0  0  0  0  0  0  0  0
  157.9284  137.0255  158.5800 N   0  0  0  0  0  0  0  0  0  0  0  0
  158.9898  136.0868  158.5672 C   0  0  0  0  0  0  0  0  0  0  0  0
  159.5279  135.7170  159.6118 O   0  0  0  0  0  0  0  0  0  0  0  0
  159.3918  135.6082  157.2494 C   0  0  0  0  0  0  0  0  0  0  0  0
  160.3808  134.7046  157.1432 F   0  0  0  0  0  0  0  0  0  0  0  0
  158.7848  136.0569  156.1317 C   0  0  0  0  0  0  0  0  0  0  0  0
  157.7617  136.9879  156.1573 N   0  0  0  0  0  0  0  0  0  0  0  0
  157.0989  137.4907  154.8922 C   0  0  1  0  0  0  0  0  0  0  0  0
  158.1483  138.0654  153.9224 C   0  0  0  0  0  0  0  0  0  0  0  0
  157.8312  137.3508  152.6239 C   0  0  0  0  0  0  0  0  0  0  0  0
  157.2605  136.0316  153.1220 C   0  0  0  0  0  0  0  0  0  0  0  0
  156.4672  136.4305  154.2322 O   0  0  0  0  0  0  0  0  0  0  0  0
  157.3087  137.4918  157.3959 C   0  0  0  0  0  0  0  0  0  0  0  0
  156.4007  138.3249  157.4398 O   0  0  0  0  0  0  0  0  0  0  0  0
  155.0706  138.1567  160.2118 N   0  0  0  0  0  0  0  0  0  0  0  0
  155.3720  139.5611  159.8912 C   0  0  0  0  0  0  0  0  0  0  0  0
  154.1841  140.5230  160.1120 C   0  0  0  0  0  0  0  0  0  0  0  0
  152.9310  140.0430  159.5047 N   0  0  0  0  0  0  0  0  0  0  0  0
  151.9730  140.9256  159.1223 C   0  0  0  0  0  0  0  0  0  0  0  0
  150.9591  140.5704  158.5182 O   0  0  0  0  0  0  0  0  0  0  0  0
  152.1414  142.3649  159.4449 C   0  0  0  0  0  0  0  0  0  0  0  0
  152.5325  143.0264  160.5842 C   0  0  0  0  0  0  0  0  0  0  0  0
  152.5043  144.4456  160.4487 C   0  0  0  0  0  0  0  0  0  0  0  0
  152.0661  144.8539  159.2174 C   0  0  0  0  0  0  0  0  0  0  0  0
  151.6648  143.4979  158.2002 S   0  0  0  0  0  0  0  0  0  0  0  0
  152.7415  138.5834  159.5066 C   0  0  0  0  0  0  0  0  0  0  0  0
  153.6620  137.8731  160.5127 C   0  0  0  0  0  0  0  0  0  0  0  0
  157.5768  138.6497  159.8966 H   0  0  0  0  0  0  0  0  0  0  0  0
  158.1281  137.2203  160.6833 H   0  0  0  0  0  0  0  0  0  0  0  0
  159.1281  135.6597  155.1889 H   0  0  0  0  0  0  0  0  0  0  0  0
  156.3474  138.2123  155.2175 H   0  0  0  0  0  0  0  0  0  0  0  0
  158.0613  139.1498  153.8494 H   0  0  0  0  0  0  0  0  0  0  0  0
  159.1546  137.8122  154.2600 H   0  0  0  0  0  0  0  0  0  0  0  0
  157.0708  137.9009  152.0678 H   0  0  0  0  0  0  0  0  0  0  0  0
  158.7030  137.2240  151.9816 H   0  0  0  0  0  0  0  0  0  0  0  0
  156.6652  135.5164  152.3679 H   0  0  0  0  0  0  0  0  0  0  0  0
  158.0582  135.3630  153.4483 H   0  0  0  0  0  0  0  0  0  0  0  0
  156.2135  139.9149  160.4877 H   0  0  0  0  0  0  0  0  0  0  0  0
  155.6769  139.6173  158.8451 H   0  0  0  0  0  0  0  0  0  0  0  0
  154.0143  140.6610  161.1809 H   0  0  0  0  0  0  0  0  0  0  0  0
  154.4673  141.5006  159.7181 H   0  0  0  0  0  0  0  0  0  0  0  0
  152.8325  142.5515  161.5060 H   0  0  0  0  0  0  0  0  0  0  0  0
  152.7942  145.1078  161.2511 H   0  0  0  0  0  0  0  0  0  0  0  0
  151.9434  145.8625  158.8512 H   0  0  0  0  0  0  0  0  0  0  0  0
  151.7099  138.3290  159.7546 H   0  0  0  0  0  0  0  0  0  0  0  0
  152.9401  138.1969  158.5066 H   0  0  0  0  0  0  0  0  0  0  0  0
  153.4367  136.8062  160.4824 H   0  0  0  0  0  0  0  0  0  0  0  0
  153.4419  138.2003  161.5300 H   0  0  0  0  0  0  0  0  0  0  0  0
  1  2  2  0  0  0  0
  2  3  1  0  0  0  0
  2 18  1  0  0  0  0
  3  4  1  0  0  0  0
  3 31  1  0  0  0  0
  3 32  1  0  0  0  0
  4 16  1  0  0  0  0
  4  5  1  0  0  0  0
  5  6  2  0  0  0  0
  5  7  1  0  0  0  0
  7  8  1  0  0  0  0
  7  9  2  0  0  0  0
  9 10  1  0  0  0  0
  9 33  1  0  0  0  0
 10 11  1  0  0  0  0
 10 16  1  0  0  0  0
 11 15  1  0  0  0  0
 11 12  1  0  0  0  0
 11 34  1  0  0  0  0
 12 13  1  0  0  0  0
 12 35  1  0  0  0  0
 12 36  1  0  0  0  0
 13 14  1  0  0  0  0
 13 37  1  0  0  0  0
 13 38  1  0  0  0  0
 14 15  1  0  0  0  0
 14 39  1  0  0  0  0
 14 40  1  0  0  0  0
 16 17  2  0  0  0  0
 18 30  1  0  0  0  0
 18 19  1  0  0  0  0
 19 20  1  0  0  0  0
 19 41  1  0  0  0  0
 19 42  1  0  0  0  0
 20 21  1  0  0  0  0
 20 43  1  0  0  0  0
 20 44  1  0  0  0  0
 21 22  1  0  0  0  0
 21 29  1  0  0  0  0
 22 23  2  0  0  0  0
 22 24  1  0  0  0  0
 24 28  1  0  0  0  0
 24 25  2  0  0  0  0
 25 26  1  0  0  0  0
 25 45  1  0  0  0  0
 26 27  2  0  0  0  0
 26 46  1  0  0  0  0
 27 28  1  0  0  0  0
 27 47  1  0  0  0  0
 29 30  1  0  0  0  0
 29 48  1  0  0  0  0
 29 49  1  0  0  0  0
 30 50  1  0  0  0  0
 30 51  1  0  0  0  0
M  END
> <s_m_source_file>
AV-unprocessed.smi

> <i_m_source_file_index>
106

> <i_lp_mmshare_version>
43012

> <i_f3d_flags>
0

> <s_epik_input>
czFbY0hdW2NIXVtjSF1jMUMoPU8pTihbQ0gyXVtDSDJdMilbQ0gyXVtDSDJdTjJDKD1PKVtDSDJdbjNjKD1PKWMoRilbY0hdbihjMz1PKVtDQEBIXTRbQ0gyXVtDSDJdW0NIMl1PNA==

> <s_epik_cmdline>
J2VwaWtfcHl0aG9uJywgJy1waCcsICc3LjAnLCAnLXRuJywgJzgnLCAnLW1hJywgJzIwMCcsICctbWV0YWxfYmluZGluZycsICctaW1hZScsICc8aW5maWxlLm1hZT4nLCAnLW9tYWUnLCAnPG91dGZpbGUubWFlPic=

> <r_lp_tautomer_probability>
1

> <r_epik_Ionization_Penalty>
4.82844e-09

> <r_epik_Ionization_Penalty_Charging>
4.20153e-09

> <r_epik_Ionization_Penalty_Neutral>
6.26919e-10

> <r_epik_State_Penalty>
-0

> <r_epik_Charging_Adjusted_Penalty>
4.20153e-09

> <i_epik_Tot_Q>
0

> <i_epik_Tot_abs_Q>
0

> <r_epik_Metal_State_Penalty>
-0

> <b_epik_Metal_Only>
0

> <s_epik_Chemistry_Notes>
This compound contains an acetal/aminal-like group ( X-CH(R)-Y where X, Y are N, S, or O) that may be acid/base labile, releasing an aldehyde.

> <s_lp_Force_Field>
OPLS_2005

> <r_lp_Energy>
72.1787

> <b_lp_Chiralities_Consistent>
1

> <s_lp_Variant>
AV-unprocessed.smi:106-2

> <Gold.Version>
5.8.1

> <Gold.Id.Protein>
6NUR|6NUR_protein|mol2

> <Gold.PLP.Fitness>
52.5749

> <Gold.PLP.PLP>
-49.5665

> <Gold.PLP.part.hbond>
-1.4043

> <Gold.PLP.part.metal>
0.0000

> <Gold.PLP.part.buried>
-6.7333

> <Gold.PLP.part.nonpolar>
-41.6061

> <Gold.PLP.part.repulsive>
0.1231

> <Gold.PLP.ligand.clash>
0.0000

> <Gold.PLP.ligand.torsion>
0.8986

> <Gold.PLP.Chemscore.Hbond>
1.3840

> <Gold.PLP.Chemscore.CHOScore>
0.0000

> <Gold.PLP.Chemscore.Metal>
0.0000

> <Gold.Chemscore.Hbonds>
donor molecule, donor type, donor heavy atom, donor atom, acceptor molecule, acceptor atom, score
      P1  H  7997  8009       L1    17  0.62
      P1  H 10752 10763       L1    15  0.88

> <Gold.PLP.Chemscore.Internal.Correction>
0.6535

> <Gold.Rescore>
     Score         DG    S(hbond)    S(metal)    S(lipo)     H(rot)  DE(clash)    DE(int)     intcor
     18.34     -20.22       1.29        0.00     124.67       1.63       0.09       1.79       ----

> <Gold.Chemscore.Fitness>
18.3420

> <Gold.Chemscore.DG>
-20.2158

> <Gold.Chemscore.ZeroCoef>
-5.4800

> <Gold.Chemscore.Hbond>
1.2905

> <Gold.Chemscore.Metal>
0.0000

> <Gold.Chemscore.Lipo>
124.6680

> <Gold.Chemscore.Internal_Hbond>
0.0000

> <Gold.Chemscore.DEClash>
0.0873

> <Gold.Chemscore.DEInternal>
1.7866

> <Gold.Chemscore.Rot>
1.6252

> <Gold.Chemscore.Internal.Correction>
   9.000000E+99

> <Gold.Chemscore.Hbonds>
donor molecule, donor type, donor heavy atom, donor atom, acceptor molecule, acceptor atom, score
      P1  H  7997  8009       L1    17  0.62
      P1  H 10752 10763       L1    15  0.34

> <Gold.Chemscore.Hbond.Weighted>
-4.3102

> <Gold.Chemscore.Metal.Weighted>
-0.0000

> <Gold.Chemscore.Lipo.Weighted>
-14.5862

> <Gold.Chemscore.Internal_Hbond.Weighted>
0.0000

> <Gold.Chemscore.DEClash.Weighted>
0.0873

> <Gold.Chemscore.DEInternal.Weighted>
1.7866

> <Gold.Chemscore.Rot.Weighted>
4.1605

> <Gold.Chemscore.Internal.Correction.Weighted>
   9.000000E+99

> <Gold.Protein.RotatedTorsions>
[ 6907 6896 6895 6894 ] final -109.76 input  -60.11 | X-H torsion
[ 7974 7965 7964 7962 ] final  123.46 input  175.53 | X-H torsion
[ 8008 7997 7996 7995 ] final   74.99 input   59.86 | X-H torsion
[ 10167 10162 10161 10158 ] final  -90.96 input  -65.29 | X-H torsion
[ 10718 10713 10712 10709 ] final -179.56 input   66.30 | X-H torsion
[ 10763 10752 10751 10750 ] final  -97.49 input  -60.55 | X-H torsion
[ 11005 11000 10999 10996 ] final -104.55 input  -57.11 | X-H torsion

> <Gold.Protein.ActiveResidues>
 VAL166  LYS551  ARG553  GLY616  TRP617  ASP618  TYR619  PRO620  LYS621  CYS622 
 ASP623  PHE694  ASN695  SER759  ASP760  ASP761  ALA762  ILE779  LEU786  VAL792 
 PHE793  MET794  SER795  GLU796  ALA797  LYS798  CYS799  TRP800  GLU811  SER814 

> <Gold.Protein.RotatedAtoms>
  150.7582  133.9482  159.3477 H   0  0  0  0  0  0  0  0  0  0  0  0  # atno 6907 bound_to 6896
  151.7397  135.0855  160.0323 H   0  0  0  0  0  0  0  0  0  0  0  0  # atno 6908 bound_to 6896
  152.3536  133.6173  159.5999 H   0  0  0  0  0  0  0  0  0  0  0  0  # atno 6909 bound_to 6896
  145.0956  139.3555  143.4838 H   0  0  0  0  0  0  0  0  0  0  0  0  # atno 7974 bound_to 7965
  155.8064  140.3474  155.5432 H   0  0  0  0  0  0  0  0  0  0  0  0  # atno 8008 bound_to 7997
  155.8486  140.0952  157.1709 H   0  0  0  0  0  0  0  0  0  0  0  0  # atno 8009 bound_to 7997
  154.4007  140.1381  156.3803 H   0  0  0  0  0  0  0  0  0  0  0  0  # atno 8010 bound_to 7997
  140.3497  143.2898  151.9741 H   0  0  0  0  0  0  0  0  0  0  0  0  # atno 10167 bound_to 10162
  156.8609  130.9751  151.3083 H   0  0  0  0  0  0  0  0  0  0  0  0  # atno 10718 bound_to 10713
  154.7332  135.5044  153.8998 H   0  0  0  0  0  0  0  0  0  0  0  0  # atno 10763 bound_to 10752
  153.0970  135.6675  153.9753 H   0  0  0  0  0  0  0  0  0  0  0  0  # atno 10764 bound_to 10752
  153.9549  135.3054  155.3416 H   0  0  0  0  0  0  0  0  0  0  0  0  # atno 10765 bound_to 10752
  141.1095  133.8733  157.1625 H   0  0  0  0  0  0  0  0  0  0  0  0  # atno 11005 bound_to 11000
  146.3531  140.0810  142.8617 LP  0  0  0  0  0  0  0  0  0  0  0  0  # atno 17320 bound_to 7965
  145.1015  140.9348  143.4710 LP  0  0  0  0  0  0  0  0  0  0  0  0  # atno 17321 bound_to 7965
  139.4828  144.6087  151.7474 LP  0  0  0  0  0  0  0  0  0  0  0  0  # atno 17342 bound_to 10162
  140.5231  144.0848  150.6029 LP  0  0  0  0  0  0  0  0  0  0  0  0  # atno 17343 bound_to 10162
  157.6251  130.8685  149.9175 LP  0  0  0  0  0  0  0  0  0  0  0  0  # atno 17370 bound_to 10713
  156.0777  130.3677  150.0643 LP  0  0  0  0  0  0  0  0  0  0  0  0  # atno 17371 bound_to 10713
  139.9982  135.0038  157.0129 LP  0  0  0  0  0  0  0  0  0  0  0  0  # atno 17394 bound_to 11000
  140.4813  134.1287  155.7217 LP  0  0  0  0  0  0  0  0  0  0  0  0  # atno 17395 bound_to 11000

$$$$
