#       Name:                AV-unprocessed.smi:1501
#       Creating user name   scv26
#       Creation time:       Fri Mar 27 06:18:15 2020


#       File generated by GOLD software.
#

@<TRIPOS>MOLECULE
AV-unprocessed.smi:1501
    56    57     1
SMALL
NO_CHARGES


@<TRIPOS>ATOM
      1 ****        -0.4701   2.1839  -0.8964 C.3            1 S1                 0.0000
      2 ****        -1.1972   1.3074   0.1079 C.2            1 S1                 0.0000
      3 ****        -2.5870   1.2322  -0.0470 N.2            1 S1                 0.0000
      4 ****        -3.2976   0.5058   0.7579 C.2            1 S1                 0.0000
      5 ****        -4.6863   0.3546   0.7117 N.pl3          1 S1                 0.0000
      6 ****        -5.4732   1.1530  -0.2289 C.3            1 S1                 0.0000
      7 ****        -6.9331   1.2923   0.2338 C.3            1 S1                 0.0000
      8 ****        -7.4970   0.0035   0.4331 O.3            1 S1                 0.0000
      9 ****        -6.8035  -0.7121   1.4459 C.3            1 S1                 0.0000
     10 ****        -5.3389  -0.9201   1.0249 C.3            1 S1                 0.0000
     11 ****        -2.6778  -0.2010   1.7949 N.am           1 S1                 0.0000
     12 ****        -1.3462  -0.1990   2.0247 C.2            1 S1                 0.0000
     13 ****        -0.8726  -0.8560   2.9505 O.2            1 S1                 0.0000
     14 ****        -0.5553   0.6257   1.0971 C.2            1 S1                 0.0000
     15 ****         0.9547   0.6883   1.3093 C.3            1 S1                 0.0000
     16 ****         1.6841  -0.4733   0.6098 C.3            1 S1                 0.0000
     17 ****         3.2034  -0.3985   0.7775 C.2            1 S1                 0.0000
     18 ****         3.6982  -0.1986   1.8870 O.2            1 S1                 0.0000
     19 ****         3.9347  -0.5695  -0.3330 N.am           1 S1                 0.0000
     20 ****         5.3914  -0.5484  -0.3743 C.3            1 S1                 0.0000
     21 ****         5.9220  -0.6395  -1.8183 C.3            1 S1                 0.0000
     22 ****         5.4728  -1.9278  -2.5299 C.3            1 S1                 0.0000
     23 ****         7.4523  -0.5124  -1.8436 C.3            1 S1                 0.0000
     24 ****        -3.2547  -0.7519   2.4135 H              1 S1                 0.0000
     25 ****         0.3402   1.6325  -1.3740 H              1 S1                 0.0000
     26 ****        -0.0508   3.0607  -0.4028 H              1 S1                 0.0000
     27 ****        -1.1441   2.5307  -1.6805 H              1 S1                 0.0000
     28 ****        -5.0427   2.1488  -0.3421 H              1 S1                 0.0000
     29 ****        -5.4372   0.6779  -1.2102 H              1 S1                 0.0000
     30 ****        -6.9956   1.8776   1.1528 H              1 S1                 0.0000
     31 ****        -7.5160   1.8217  -0.5200 H              1 S1                 0.0000
     32 ****        -6.8626  -0.1754   2.3941 H              1 S1                 0.0000
     33 ****        -7.2907  -1.6757   1.5952 H              1 S1                 0.0000
     34 ****        -5.2956  -1.5576   0.1408 H              1 S1                 0.0000
     35 ****        -4.8235  -1.4561   1.8217 H              1 S1                 0.0000
     36 ****         1.3432   1.6392   0.9451 H              1 S1                 0.0000
     37 ****         1.1698   0.6858   2.3792 H              1 S1                 0.0000
     38 ****         1.3441  -1.4268   1.0153 H              1 S1                 0.0000
     39 ****         1.4320  -0.4802  -0.4518 H              1 S1                 0.0000
     40 ****         3.4518  -0.7310  -1.2047 H              1 S1                 0.0000
     41 ****         5.7461   0.3724   0.0922 H              1 S1                 0.0000
     42 ****         5.7780  -1.3764   0.2220 H              1 S1                 0.0000
     43 ****         5.5169   0.2052  -2.3774 H              1 S1                 0.0000
     44 ****         5.8239  -2.8145  -2.0012 H              1 S1                 0.0000
     45 ****         5.8658  -1.9707  -3.5460 H              1 S1                 0.0000
     46 ****         4.3869  -1.9910  -2.6020 H              1 S1                 0.0000
     47 ****         7.9271  -1.3328  -1.3040 H              1 S1                 0.0000
     48 ****         7.7777   0.4209  -1.3830 H              1 S1                 0.0000
     49 ****         7.8312  -0.5230  -2.8660 H              1 S1                 0.0000
     50 ****        -3.0337   1.7416  -0.7825 LP             1 S1                 0.0000
     51 ****        -7.4450  -0.5108  -0.4230 LP             1 S1                 0.0000
     52 ****        -8.4544   0.1050   0.7033 LP             1 S1                 0.0000
     53 ****        -1.4740  -1.3964   3.5390 LP             1 S1                 0.0000
     54 ****         0.1138  -0.8498   3.1146 LP             1 S1                 0.0000
     55 ****         3.1066  -0.0841   2.6850 LP             1 S1                 0.0000
     56 ****         4.6917  -0.1508   1.9901 LP             1 S1                 0.0000
@<TRIPOS>BOND
    1    1    2 1     
    2    1   25 1     
    3    1   26 1     
    4    1   27 1     
    5    2   14 2     
    6    2    3 1     
    7    3    4 2     
    8    4    5 1     
    9    4   11 1     
   10    5   10 1     
   11    5    6 1     
   12    6    7 1     
   13    6   28 1     
   14    6   29 1     
   15    7    8 1     
   16    7   30 1     
   17    7   31 1     
   18    8    9 1     
   19    9   10 1     
   20    9   32 1     
   21    9   33 1     
   22   10   34 1     
   23   10   35 1     
   24   11   24 1     
   25   11   12 am    
   26   12   13 2     
   27   12   14 1     
   28   14   15 1     
   29   15   16 1     
   30   15   36 1     
   31   15   37 1     
   32   16   17 1     
   33   16   38 1     
   34   16   39 1     
   35   17   18 2     
   36   17   19 am    
   37   19   20 1     
   38   19   40 1     
   39   20   21 1     
   40   20   41 1     
   41   20   42 1     
   42   21   22 1     
   43   21   23 1     
   44   21   43 1     
   45   22   44 1     
   46   22   45 1     
   47   22   46 1     
   48   23   47 1     
   49   23   48 1     
   50   23   49 1     
   51    3   50 1     
   52    8   51 1     
   53    8   52 1     
   54   13   53 1     
   55   13   54 1     
   56   18   55 1     
   57   18   56 1     
@<TRIPOS>SUBSTRUCTURE
      1 S1             1
@<TRIPOS>SET
LONE_PAIRS      STATIC     ATOMS    <user>   **** ""
7 50 51 52 53 54 55 56
DONOR_HYDROGENS      STATIC     ATOMS    <user>   **** ""
2 24 40
ATOM$BLUE        STATIC     ATOMS    COLORGROUP SYSTEM
7 50 51 52 53 54 55 56
ATOM$RED        STATIC     ATOMS    COLORGROUP SYSTEM
2 24 40
