AV-unprocessed.smi:2416|AV-procd|sdf|9547|dock5
  -GOLD-   2272013183D 1   1.00000     0.00000
 Structure written by MMmdl.
 40 41  0  0  0  0  0  0  0  0  1 V2000
  154.6540  140.8913  160.3867 C   0  0  0  0  0  0  0  0  0  0  0  0
  154.0528  142.1121  159.9748 O   0  0  0  0  0  0  0  0  0  0  0  0
  152.6943  142.3126  160.3685 C   0  0  2  0  0  0  0  0  0  0  0  0
  152.5813  142.2817  161.9008 C   0  0  0  0  0  0  0  0  0  0  0  0
  151.7214  141.4394  159.5554 C   0  0  0  0  0  0  0  0  0  0  0  0
  150.8345  142.6781  159.4502 C   0  0  2  0  0  0  0  0  0  0  0  0
  150.1635  142.7796  158.1586 N   0  0  0  0  0  0  0  0  0  0  0  0
  149.6017  141.7474  157.5146 C   0  0  0  0  0  0  0  0  0  0  0  0
  149.5994  140.5965  157.9524 O   0  0  0  0  0  0  0  0  0  0  0  0
  149.0529  142.1397  156.3513 N   0  0  0  0  0  0  0  0  0  0  0  0
  148.3510  141.3510  155.4008 C   0  0  0  0  0  0  0  0  0  0  0  0
  148.8824  140.0588  155.1868 C   0  0  0  0  0  0  0  0  0  0  0  0
  148.2614  139.1981  154.2604 C   0  0  0  0  0  0  0  0  0  0  0  0
  147.1241  139.6549  153.5713 C   0  0  0  0  0  0  0  0  0  0  0  0
  146.4944  138.8644  152.6700 F   0  0  0  0  0  0  0  0  0  0  0  0
  146.6577  140.9544  153.8425 C   0  0  0  0  0  0  0  0  0  0  0  0
  147.2519  141.7800  154.7305 N   0  0  0  0  0  0  0  0  0  0  0  0
  152.1152  143.5405  159.5921 C   0  0  0  0  0  0  0  0  0  0  0  0
  151.9574  144.8439  160.3818 C   0  0  0  0  0  0  0  0  0  0  0  0
  152.8433  143.9241  158.2879 C   0  0  0  0  0  0  0  0  0  0  0  0
  155.6410  140.8096  159.9320 H   0  0  0  0  0  0  0  0  0  0  0  0
  154.0742  140.0229  160.0734 H   0  0  0  0  0  0  0  0  0  0  0  0
  154.7912  140.8506  161.4669 H   0  0  0  0  0  0  0  0  0  0  0  0
  151.5870  142.5700  162.2408 H   0  0  0  0  0  0  0  0  0  0  0  0
  153.2951  142.9632  162.3641 H   0  0  0  0  0  0  0  0  0  0  0  0
  152.7648  141.2856  162.3023 H   0  0  0  0  0  0  0  0  0  0  0  0
  152.1267  141.1069  158.5977 H   0  0  0  0  0  0  0  0  0  0  0  0
  151.2779  140.6116  160.1093 H   0  0  0  0  0  0  0  0  0  0  0  0
  150.1613  142.7672  160.3059 H   0  0  0  0  0  0  0  0  0  0  0  0
  150.1225  143.6945  157.7339 H   0  0  0  0  0  0  0  0  0  0  0  0
  149.1419  143.1186  156.1221 H   0  0  0  0  0  0  0  0  0  0  0  0
  149.7578  139.7257  155.7252 H   0  0  0  0  0  0  0  0  0  0  0  0
  148.6518  138.2070  154.0824 H   0  0  0  0  0  0  0  0  0  0  0  0
  145.7871  141.3421  153.3345 H   0  0  0  0  0  0  0  0  0  0  0  0
  151.4828  145.6215  159.7827 H   0  0  0  0  0  0  0  0  0  0  0  0
  152.9226  145.2270  160.7145 H   0  0  0  0  0  0  0  0  0  0  0  0
  151.3366  144.7130  161.2680 H   0  0  0  0  0  0  0  0  0  0  0  0
  152.2779  144.6565  157.7108 H   0  0  0  0  0  0  0  0  0  0  0  0
  153.0085  143.0650  157.6375 H   0  0  0  0  0  0  0  0  0  0  0  0
  153.8210  144.3615  158.4919 H   0  0  0  0  0  0  0  0  0  0  0  0
  1  2  1  0  0  0  0
  1 21  1  0  0  0  0
  1 22  1  0  0  0  0
  1 23  1  0  0  0  0
  2  3  1  0  0  0  0
  3 18  1  0  0  0  0
  3  4  1  0  0  0  0
  3  5  1  0  0  0  0
  4 24  1  0  0  0  0
  4 25  1  0  0  0  0
  4 26  1  0  0  0  0
  5  6  1  0  0  0  0
  5 27  1  0  0  0  0
  5 28  1  0  0  0  0
  6  7  1  0  0  0  0
  6 18  1  0  0  0  0
  6 29  1  0  0  0  0
  7  8  1  0  0  0  0
  7 30  1  0  0  0  0
  8  9  2  0  0  0  0
  8 10  1  0  0  0  0
 10 11  1  0  0  0  0
 10 31  1  0  0  0  0
 11 17  1  0  0  0  0
 11 12  2  0  0  0  0
 12 13  1  0  0  0  0
 12 32  1  0  0  0  0
 13 14  2  0  0  0  0
 13 33  1  0  0  0  0
 14 15  1  0  0  0  0
 14 16  1  0  0  0  0
 16 17  2  0  0  0  0
 16 34  1  0  0  0  0
 18 19  1  0  0  0  0
 18 20  1  0  0  0  0
 19 35  1  0  0  0  0
 19 36  1  0  0  0  0
 19 37  1  0  0  0  0
 20 38  1  0  0  0  0
 20 39  1  0  0  0  0
 20 40  1  0  0  0  0
M  END
> <s_m_source_file>
AV-unprocessed.smi

> <i_m_source_file_index>
2416

> <i_lp_mmshare_version>
43012

> <i_f3d_flags>
0

> <s_epik_input>
W0NIM11PW0NAQF0xKFtDSDNdKVtDSDJdW0NASF0oQzEoW0NIM10pW0NIM10pW05IXUMoPU8pW05IXWMyW2NIXVtjSF1jKEYpW2NIXW4y

> <s_epik_cmdline>
J2VwaWtfcHl0aG9uJywgJy1waCcsICc3LjAnLCAnLXRuJywgJzgnLCAnLW1hJywgJzIwMCcsICctbWV0YWxfYmluZGluZycsICctaW1hZScsICc8aW5maWxlLm1hZT4nLCAnLW9tYWUnLCAnPG91dGZpbGUubWFlPic=

> <r_lp_tautomer_probability>
1

> <r_epik_Ionization_Penalty>
3.67756e-05

> <r_epik_Ionization_Penalty_Charging>
0

> <r_epik_Ionization_Penalty_Neutral>
3.67756e-05

> <r_epik_State_Penalty>
-0

> <r_epik_Charging_Adjusted_Penalty>
0

> <i_epik_Tot_Q>
0

> <i_epik_Tot_abs_Q>
0

> <r_epik_Metal_State_Penalty>
-0

> <b_epik_Metal_Only>
0

> <s_lp_Force_Field>
OPLS_2005

> <r_lp_Energy>
27.0586

> <b_lp_Chiralities_Consistent>
1

> <s_lp_Variant>
AV-unprocessed.smi:2416-4

> <Gold.Version>
5.8.1

> <Gold.Id.Protein>
6NUR|6NUR_protein|mol2

> <Gold.PLP.Fitness>
44.1287

> <Gold.PLP.PLP>
-39.0956

> <Gold.PLP.part.hbond>
-1.0000

> <Gold.PLP.part.metal>
0.0000

> <Gold.PLP.part.buried>
-1.6529

> <Gold.PLP.part.nonpolar>
-37.3658

> <Gold.PLP.part.repulsive>
0.2624

> <Gold.PLP.ligand.clash>
0.0000

> <Gold.PLP.ligand.torsion>
0.6501

> <Gold.PLP.Chemscore.Hbond>
1.0000

> <Gold.PLP.Chemscore.CHOScore>
0.9883

> <Gold.PLP.Chemscore.Metal>
0.0000

> <Gold.Chemscore.Hbonds>
donor molecule, donor type, donor heavy atom, donor atom, acceptor molecule, acceptor atom, score
      L1  H    10    31       P1  8028  1.00
      L1  C    16    34       P1 10175  0.94

> <Gold.PLP.Chemscore.Internal.Correction>
0.3685

> <Gold.Rescore>
     Score         DG    S(hbond)    S(metal)    S(lipo)     H(rot)  DE(clash)    DE(int)     intcor
     15.04     -18.43       0.99        0.00     110.10       1.27       0.17       3.23       ----

> <Gold.Chemscore.Fitness>
15.0365

> <Gold.Chemscore.DG>
-18.4340

> <Gold.Chemscore.ZeroCoef>
-5.4800

> <Gold.Chemscore.Hbond>
0.9914

> <Gold.Chemscore.Metal>
0.0000

> <Gold.Chemscore.Lipo>
110.1010

> <Gold.Chemscore.Internal_Hbond>
0.0000

> <Gold.Chemscore.DEClash>
0.1700

> <Gold.Chemscore.DEInternal>
3.2275

> <Gold.Chemscore.Rot>
1.2653

> <Gold.Chemscore.Internal.Correction>
   9.000000E+99

> <Gold.Chemscore.Hbonds>
donor molecule, donor type, donor heavy atom, donor atom, acceptor molecule, acceptor atom, score
      L1  H    10    31       P1  8028  1.00

> <Gold.Chemscore.Hbond.Weighted>
-3.3114

> <Gold.Chemscore.Metal.Weighted>
-0.0000

> <Gold.Chemscore.Lipo.Weighted>
-12.8818

> <Gold.Chemscore.Internal_Hbond.Weighted>
0.0000

> <Gold.Chemscore.DEClash.Weighted>
0.1700

> <Gold.Chemscore.DEInternal.Weighted>
3.2275

> <Gold.Chemscore.Rot.Weighted>
3.2392

> <Gold.Chemscore.Internal.Correction.Weighted>
   9.000000E+99

> <Gold.Protein.RotatedTorsions>
[ 6907 6896 6895 6894 ] final  150.55 input  -60.11 | X-H torsion
[ 7974 7965 7964 7962 ] final  -59.74 input  175.53 | X-H torsion
[ 8008 7997 7996 7995 ] final -130.39 input   59.86 | X-H torsion
[ 10167 10162 10161 10158 ] final  154.15 input  -65.29 | X-H torsion
[ 10718 10713 10712 10709 ] final -135.12 input   66.30 | X-H torsion
[ 10763 10752 10751 10750 ] final    9.79 input  -60.55 | X-H torsion
[ 11005 11000 10999 10996 ] final    4.68 input  -57.11 | X-H torsion

> <Gold.Protein.ActiveResidues>
 VAL166  LYS551  ARG553  GLY616  TRP617  ASP618  TYR619  PRO620  LYS621  CYS622 
 ASP623  PHE694  ASN695  SER759  ASP760  ASP761  ALA762  ILE779  LEU786  VAL792 
 PHE793  MET794  SER795  GLU796  ALA797  LYS798  CYS799  TRP800  GLU811  SER814 

> <Gold.Protein.RotatedAtoms>
  152.1129  133.4310  159.4639 H   0  0  0  0  0  0  0  0  0  0  0  0  # atno 6907 bound_to 6896
  150.6868  134.2627  159.4565 H   0  0  0  0  0  0  0  0  0  0  0  0  # atno 6908 bound_to 6896
  152.0497  134.9661  160.0625 H   0  0  0  0  0  0  0  0  0  0  0  0  # atno 6909 bound_to 6896
  145.8238  140.8523  143.0119 H   0  0  0  0  0  0  0  0  0  0  0  0  # atno 7974 bound_to 7965
  155.2950  140.0450  157.3025 H   0  0  0  0  0  0  0  0  0  0  0  0  # atno 8008 bound_to 7997
  154.5519  140.2320  155.8439 H   0  0  0  0  0  0  0  0  0  0  0  0  # atno 8009 bound_to 7997
  156.1974  140.3035  155.9463 H   0  0  0  0  0  0  0  0  0  0  0  0  # atno 8010 bound_to 7997
  139.4824  144.5211  151.7874 H   0  0  0  0  0  0  0  0  0  0  0  0  # atno 10167 bound_to 10162
  156.2627  130.7219  151.1159 H   0  0  0  0  0  0  0  0  0  0  0  0  # atno 10718 bound_to 10713
  153.2102  135.6868  153.8124 H   0  0  0  0  0  0  0  0  0  0  0  0  # atno 10763 bound_to 10752
  153.7359  135.3245  155.3296 H   0  0  0  0  0  0  0  0  0  0  0  0  # atno 10764 bound_to 10752
  154.8218  135.4647  154.0906 H   0  0  0  0  0  0  0  0  0  0  0  0  # atno 10765 bound_to 10752
  140.5792  134.0029  155.8040 H   0  0  0  0  0  0  0  0  0  0  0  0  # atno 11005 bound_to 11000
  144.6745  140.0572  143.7477 LP  0  0  0  0  0  0  0  0  0  0  0  0  # atno 17320 bound_to 7965
  145.9646  139.2825  143.1135 LP  0  0  0  0  0  0  0  0  0  0  0  0  # atno 17321 bound_to 7965
  140.4725  144.1566  150.5920 LP  0  0  0  0  0  0  0  0  0  0  0  0  # atno 17342 bound_to 10162
  140.4366  143.2544  151.9527 LP  0  0  0  0  0  0  0  0  0  0  0  0  # atno 17343 bound_to 10162
  157.7256  131.0652  150.5945 LP  0  0  0  0  0  0  0  0  0  0  0  0  # atno 17370 bound_to 10713
  156.6034  130.4360  149.5888 LP  0  0  0  0  0  0  0  0  0  0  0  0  # atno 17371 bound_to 10713
  141.1007  133.9772  157.3083 LP  0  0  0  0  0  0  0  0  0  0  0  0  # atno 17394 bound_to 11000
  139.9325  135.0199  156.8448 LP  0  0  0  0  0  0  0  0  0  0  0  0  # atno 17395 bound_to 11000

$$$$
