AV-unprocessed.smi:1518|AV-procd|sdf|6127|dock6
  -GOLD-   22720 6263D 1   1.00000     0.00000
 Structure written by MMmdl.
 46 48  0  0  0  0  0  0  0  0  2 V2000
  152.5071  130.4926  156.6484 C   0  0  0  0  0  0  0  0  0  0  0  0
  152.2323  131.9376  157.0619 C   0  0  0  0  0  0  0  0  0  0  0  0
  152.7830  132.3761  158.0711 O   0  0  0  0  0  0  0  0  0  0  0  0
  151.3056  132.7432  156.2147 C   0  0  0  0  0  0  0  0  0  0  0  0
  150.5107  132.0879  155.2474 C   0  0  0  0  0  0  0  0  0  0  0  0
  149.6269  132.8210  154.4352 C   0  0  0  0  0  0  0  0  0  0  0  0
  149.5288  134.2160  154.5819 C   0  0  0  0  0  0  0  0  0  0  0  0
  150.3087  134.8947  155.5385 C   0  0  0  0  0  0  0  0  0  0  0  0
  150.1458  136.2613  155.6145 O   0  0  0  0  0  0  0  0  0  0  0  0
  150.4650  136.9166  156.8359 C   0  0  0  0  0  0  0  0  0  0  0  0
  150.1611  138.4193  156.7204 C   0  0  1  0  0  0  0  0  0  0  0  0
  149.3756  138.8249  157.8235 O   0  0  0  0  0  0  0  0  0  0  0  0
  151.4227  139.2927  156.5656 C   0  0  0  0  0  0  0  0  0  0  0  0
  151.1409  140.7303  156.7092 N   0  0  0  0  0  0  0  0  0  0  0  0
  150.3226  141.5434  155.9800 C   0  0  0  0  0  0  0  0  0  0  0  0
  149.4739  141.1558  154.8139 C   0  0  0  0  0  0  0  0  0  0  0  0
  148.7545  142.2484  154.2868 O   0  0  0  0  0  0  0  0  0  0  0  0
  150.4087  142.7918  156.5197 N   0  3  0  0  0  0  0  0  0  0  0  0
  151.2886  142.7796  157.6023 C   0  0  0  0  0  0  0  0  0  0  0  0
  151.6937  143.8001  158.4572 C   0  0  0  0  0  0  0  0  0  0  0  0
  152.6072  143.4497  159.4729 C   0  0  0  0  0  0  0  0  0  0  0  0
  153.0809  142.1288  159.6098 C   0  0  0  0  0  0  0  0  0  0  0  0
  152.6636  141.1032  158.7362 C   0  0  0  0  0  0  0  0  0  0  0  0
  151.7618  141.4578  157.7325 C   0  0  0  0  0  0  0  0  0  0  0  0
  151.1984  134.1485  156.3534 C   0  0  0  0  0  0  0  0  0  0  0  0
  152.9670  130.4585  155.6608 H   0  0  0  0  0  0  0  0  0  0  0  0
  151.5809  129.9182  156.6255 H   0  0  0  0  0  0  0  0  0  0  0  0
  153.1857  130.0159  157.3562 H   0  0  0  0  0  0  0  0  0  0  0  0
  150.5701  131.0166  155.1174 H   0  0  0  0  0  0  0  0  0  0  0  0
  149.0231  132.3121  153.6984 H   0  0  0  0  0  0  0  0  0  0  0  0
  148.8475  134.7715  153.9540 H   0  0  0  0  0  0  0  0  0  0  0  0
  149.8500  136.4989  157.6347 H   0  0  0  0  0  0  0  0  0  0  0  0
  151.5112  136.7589  157.1045 H   0  0  0  0  0  0  0  0  0  0  0  0
  149.5342  138.5596  155.8394 H   0  0  0  0  0  0  0  0  0  0  0  0
  148.7321  139.4476  157.5207 H   0  0  0  0  0  0  0  0  0  0  0  0
  152.1964  139.0075  157.2783 H   0  0  0  0  0  0  0  0  0  0  0  0
  151.8581  139.1426  155.5777 H   0  0  0  0  0  0  0  0  0  0  0  0
  150.1055  140.7368  154.0302 H   0  0  0  0  0  0  0  0  0  0  0  0
  148.7742  140.3746  155.1105 H   0  0  0  0  0  0  0  0  0  0  0  0
  148.9625  143.0186  154.7936 H   0  0  0  0  0  0  0  0  0  0  0  0
  151.3302  144.8123  158.3557 H   0  0  0  0  0  0  0  0  0  0  0  0
  152.9495  144.2083  160.1618 H   0  0  0  0  0  0  0  0  0  0  0  0
  153.7778  141.8960  160.4019 H   0  0  0  0  0  0  0  0  0  0  0  0
  153.0285  140.0938  158.8557 H   0  0  0  0  0  0  0  0  0  0  0  0
  151.8023  134.6543  157.0897 H   0  0  0  0  0  0  0  0  0  0  0  0
  149.8958  143.5919  156.1726 H   0  0  0  0  0  0  0  0  0  0  0  0
  1  2  1  0  0  0  0
  1 26  1  0  0  0  0
  1 27  1  0  0  0  0
  1 28  1  0  0  0  0
  2  3  2  0  0  0  0
  2  4  1  0  0  0  0
  4 25  1  0  0  0  0
  4  5  2  0  0  0  0
  5  6  1  0  0  0  0
  5 29  1  0  0  0  0
  6  7  2  0  0  0  0
  6 30  1  0  0  0  0
  7  8  1  0  0  0  0
  7 31  1  0  0  0  0
  8  9  1  0  0  0  0
  8 25  2  0  0  0  0
  9 10  1  0  0  0  0
 10 11  1  0  0  0  0
 10 32  1  0  0  0  0
 10 33  1  0  0  0  0
 11 12  1  0  0  0  0
 11 13  1  0  0  0  0
 11 34  1  0  0  0  0
 12 35  1  0  0  0  0
 13 14  1  0  0  0  0
 13 36  1  0  0  0  0
 13 37  1  0  0  0  0
 14 24  1  0  0  0  0
 14 15  1  0  0  0  0
 15 16  1  0  0  0  0
 15 18  2  0  0  0  0
 16 17  1  0  0  0  0
 16 38  1  0  0  0  0
 16 39  1  0  0  0  0
 17 40  1  0  0  0  0
 18 19  1  0  0  0  0
 18 46  1  0  0  0  0
 19 24  2  0  0  0  0
 19 20  1  0  0  0  0
 20 21  2  0  0  0  0
 20 41  1  0  0  0  0
 21 22  1  0  0  0  0
 21 42  1  0  0  0  0
 22 23  2  0  0  0  0
 22 43  1  0  0  0  0
 23 24  1  0  0  0  0
 23 44  1  0  0  0  0
 25 45  1  0  0  0  0
M  CHG  1  18   1
M  END
> <s_m_source_file>
AV-unprocessed.smi

> <i_m_source_file_index>
1518

> <i_lp_mmshare_version>
43012

> <i_f3d_flags>
0

> <s_epik_input>
W0NIM11DKD1PKWMxW2NIXVtjSF1bY0hdYyhbY0hdMSlPW0NIMl1bQ0BIXShbT0hdKVtDSDJdbihjKG4yKVtDSDJdW09IXSljKGMyMylbY0hdW2NIXVtjSF1bY0hdMw==

> <s_epik_cmdline>
J2VwaWtfcHl0aG9uJywgJy1waCcsICc3LjAnLCAnLXRuJywgJzgnLCAnLW1hJywgJzIwMCcsICctbWV0YWxfYmluZGluZycsICctaW1hZScsICc8aW5maWxlLm1hZT4nLCAnLW9tYWUnLCAnPG91dGZpbGUubWFlPic=

> <r_lp_tautomer_probability>
0.99995

> <r_epik_Ionization_Penalty>
1.40416

> <r_epik_Ionization_Penalty_Charging>
1.4033

> <r_epik_Ionization_Penalty_Neutral>
0.000858184

> <r_epik_State_Penalty>
1.48564

> <r_epik_Charging_Adjusted_Penalty>
2.88894

> <i_epik_Tot_Q>
1

> <i_epik_Tot_abs_Q>
1

> <r_epik_Metal_State_Penalty>
5.52809

> <b_epik_Metal_Only>
0

> <s_lp_Force_Field>
OPLS_2005

> <r_lp_Energy>
25.8835

> <b_lp_Chiralities_Consistent>
1

> <s_lp_Variant>
AV-unprocessed.smi:1518-4

> <Gold.Version>
5.8.1

> <Gold.Id.Protein>
6NUR|6NUR_protein|mol2

> <Gold.PLP.Fitness>
58.4138

> <Gold.PLP.PLP>
-47.8631

> <Gold.PLP.part.hbond>
-4.0000

> <Gold.PLP.part.metal>
0.0000

> <Gold.PLP.part.buried>
-5.0194

> <Gold.PLP.part.nonpolar>
-37.8853

> <Gold.PLP.part.repulsive>
0.1984

> <Gold.PLP.ligand.clash>
0.0000

> <Gold.PLP.ligand.torsion>
1.1762

> <Gold.PLP.Chemscore.Hbond>
4.2496

> <Gold.PLP.Chemscore.CHOScore>
0.0000

> <Gold.PLP.Chemscore.Metal>
0.0000

> <Gold.Chemscore.Hbonds>
donor molecule, donor type, donor heavy atom, donor atom, acceptor molecule, acceptor atom, score
      L1  H    17    40       P1  8028  1.00
      L1  H    18    46       P1  8028  2.00
      P1  H  6896  6909       L1     3  1.00
      P1  H  8011  8017       L1    17  0.13

> <Gold.PLP.Chemscore.Internal.Correction>
0.1543

> <Gold.Rescore>
     Score         DG    S(hbond)    S(metal)    S(lipo)     H(rot)  DE(clash)    DE(int)     intcor
     19.62     -20.69       3.00        0.00     117.40       3.34       0.02       1.05       ----

> <Gold.Chemscore.Fitness>
19.6201

> <Gold.Chemscore.DG>
-20.6939

> <Gold.Chemscore.ZeroCoef>
-5.4800

> <Gold.Chemscore.Hbond>
3.0016

> <Gold.Chemscore.Metal>
0.0000

> <Gold.Chemscore.Lipo>
117.3974

> <Gold.Chemscore.Internal_Hbond>
0.0000

> <Gold.Chemscore.DEClash>
0.0240

> <Gold.Chemscore.DEInternal>
1.0497

> <Gold.Chemscore.Rot>
3.3387

> <Gold.Chemscore.Internal.Correction>
   9.000000E+99

> <Gold.Chemscore.Hbonds>
donor molecule, donor type, donor heavy atom, donor atom, acceptor molecule, acceptor atom, score
      L1  H    17    40       P1  8028  1.00
      L1  H    18    46       P1  8028  0.98
      P1  H  6896  6909       L1     3  1.00
      P1  H  8011  8017       L1    17  0.02

> <Gold.Chemscore.Hbond.Weighted>
-10.0255

> <Gold.Chemscore.Metal.Weighted>
-0.0000

> <Gold.Chemscore.Lipo.Weighted>
-13.7355

> <Gold.Chemscore.Internal_Hbond.Weighted>
0.0000

> <Gold.Chemscore.DEClash.Weighted>
0.0240

> <Gold.Chemscore.DEInternal.Weighted>
1.0497

> <Gold.Chemscore.Rot.Weighted>
8.5471

> <Gold.Chemscore.Internal.Correction.Weighted>
   9.000000E+99

> <Gold.Protein.RotatedTorsions>
[ 6907 6896 6895 6894 ] final  -88.09 input  -60.11 | X-H torsion
[ 7974 7965 7964 7962 ] final  139.00 input  175.53 | X-H torsion
[ 8008 7997 7996 7995 ] final   -5.20 input   59.86 | X-H torsion
[ 10167 10162 10161 10158 ] final  136.75 input  -65.29 | X-H torsion
[ 10718 10713 10712 10709 ] final  -32.34 input   66.30 | X-H torsion
[ 10763 10752 10751 10750 ] final  108.35 input  -60.55 | X-H torsion
[ 11005 11000 10999 10996 ] final  149.49 input  -57.11 | X-H torsion

> <Gold.Protein.ActiveResidues>
 VAL166  LYS551  ARG553  GLY616  TRP617  ASP618  TYR619  PRO620  LYS621  CYS622 
 ASP623  PHE694  ASN695  SER759  ASP760  ASP761  ALA762  ILE779  LEU786  VAL792 
 PHE793  MET794  SER795  GLU796  ALA797  LYS798  CYS799  TRP800  GLU811  SER814 

> <Gold.Protein.RotatedAtoms>
  150.6867  134.2795  159.4621 H   0  0  0  0  0  0  0  0  0  0  0  0  # atno 6907 bound_to 6896
  152.0710  134.9531  160.0583 H   0  0  0  0  0  0  0  0  0  0  0  0  # atno 6908 bound_to 6896
  152.0920  133.4171  159.4585 H   0  0  0  0  0  0  0  0  0  0  0  0  # atno 6909 bound_to 6896
  144.9319  139.5036  143.5613 H   0  0  0  0  0  0  0  0  0  0  0  0  # atno 7974 bound_to 7965
  154.6064  140.2464  155.7725 H   0  0  0  0  0  0  0  0  0  0  0  0  # atno 8008 bound_to 7997
  156.2343  140.2955  156.0223 H   0  0  0  0  0  0  0  0  0  0  0  0  # atno 8009 bound_to 7997
  155.2125  140.0397  157.2926 H   0  0  0  0  0  0  0  0  0  0  0  0  # atno 8010 bound_to 7997
  139.5168  144.6447  151.5472 H   0  0  0  0  0  0  0  0  0  0  0  0  # atno 10167 bound_to 10162
  156.3761  130.4348  149.7506 H   0  0  0  0  0  0  0  0  0  0  0  0  # atno 10718 bound_to 10713
  153.4195  135.3815  155.2102 H   0  0  0  0  0  0  0  0  0  0  0  0  # atno 10763 bound_to 10752
  154.8743  135.3813  154.4402 H   0  0  0  0  0  0  0  0  0  0  0  0  # atno 10764 bound_to 10752
  153.4920  135.7088  153.5941 H   0  0  0  0  0  0  0  0  0  0  0  0  # atno 10765 bound_to 10752
  140.1050  134.8960  157.1852 H   0  0  0  0  0  0  0  0  0  0  0  0  # atno 11005 bound_to 11000
  146.3251  139.8276  142.8914 LP  0  0  0  0  0  0  0  0  0  0  0  0  # atno 17320 bound_to 7965
  145.3128  141.0224  143.3545 LP  0  0  0  0  0  0  0  0  0  0  0  0  # atno 17321 bound_to 7965
  140.6228  143.9226  150.6540 LP  0  0  0  0  0  0  0  0  0  0  0  0  # atno 17342 bound_to 10162
  140.2505  143.3596  152.1409 LP  0  0  0  0  0  0  0  0  0  0  0  0  # atno 17343 bound_to 10162
  156.4615  130.7954  151.2974 LP  0  0  0  0  0  0  0  0  0  0  0  0  # atno 17370 bound_to 10713
  157.7488  131.0064  150.3151 LP  0  0  0  0  0  0  0  0  0  0  0  0  # atno 17371 bound_to 10713
  140.3169  134.2961  155.7254 LP  0  0  0  0  0  0  0  0  0  0  0  0  # atno 17394 bound_to 11000
  141.2116  133.7685  156.9855 LP  0  0  0  0  0  0  0  0  0  0  0  0  # atno 17395 bound_to 11000

$$$$
