#       Name:                AV-unprocessed.smi:652
#       Creating user name   scv26
#       Creation time:       Fri Mar 27 00:12:25 2020


#       File generated by GOLD software.
#

@<TRIPOS>MOLECULE
AV-unprocessed.smi:652
    54    55     1
SMALL
NO_CHARGES


@<TRIPOS>ATOM
      1 ****        -2.2687   5.2912   3.6516 C.3            1 S1                 0.0000
      2 ****        -2.9282   4.7345   2.3798 C.3            1 S1                 0.0000
      3 ****        -4.4382   4.5369   2.5668 C.3            1 S1                 0.0000
      4 ****        -2.3153   3.4650   1.9976 N.am           1 S1                 0.0000
      5 ****        -1.1759   3.3303   1.3007 C.2            1 S1                 0.0000
      6 ****        -0.5095   4.2870   0.9045 O.2            1 S1                 0.0000
      7 ****        -0.7306   1.8944   1.0044 C.3            1 S1                 0.0000
      8 ****         0.7896   1.7712   0.7706 C.3            1 S1                 0.0000
      9 ****         1.2487   0.3603   0.7187 N.4            1 S1                 1.0000
     10 ****         2.7162   0.2432   0.8920 C.3            1 S1                 0.0000
     11 ****         3.1463  -1.2321   0.8717 C.3            1 S1                 0.0000
     12 ****         2.7131  -1.8339  -0.3412 O.3            1 S1                 0.0000
     13 ****         1.2949  -1.8259  -0.4710 C.3            1 S1                 0.0000
     14 ****         0.9264  -2.5722  -1.7609 C.3            1 S1                 0.0000
     15 ****         1.2213  -3.9932  -1.6586 N.pl3          1 S1                 0.0000
     16 ****         1.0884  -4.8279  -2.7751 C.ar           1 S1                 0.0000
     17 ****         0.4233  -4.4299  -3.9577 C.ar           1 S1                 0.0000
     18 ****         0.3609  -5.3578  -5.0119 C.ar           1 S1                 0.0000
     19 ****         0.9656  -6.6111  -4.8064 C.ar           1 S1                 0.0000
     20 ****         1.5877  -6.9381  -3.6517 N.ar           1 S1                 0.0000
     21 ****         1.6466  -6.0544  -2.6489 N.ar           1 S1                 0.0000
     22 ****         0.8135  -0.3619  -0.5029 C.3            1 S1                 0.0000
     23 ****        -2.7172   6.2424   3.9391 H              1 S1                 0.0000
     24 ****        -1.2024   5.4651   3.5033 H              1 S1                 0.0000
     25 ****        -2.3811   4.6044   4.4910 H              1 S1                 0.0000
     26 ****        -2.7863   5.4542   1.5715 H              1 S1                 0.0000
     27 ****        -4.9279   5.4789   2.8154 H              1 S1                 0.0000
     28 ****        -4.6507   3.8300   3.3695 H              1 S1                 0.0000
     29 ****        -4.9014   4.1569   1.6555 H              1 S1                 0.0000
     30 ****        -2.8011   2.6260   2.2796 H              1 S1                 0.0000
     31 ****        -1.0226   1.2588   1.8421 H              1 S1                 0.0000
     32 ****        -1.2857   1.5456   0.1336 H              1 S1                 0.0000
     33 ****         1.0848   2.2873  -0.1447 H              1 S1                 0.0000
     34 ****         1.3088   2.2715   1.5902 H              1 S1                 0.0000
     35 ****         3.2234   0.7897   0.0952 H              1 S1                 0.0000
     36 ****         3.0174   0.6990   1.8360 H              1 S1                 0.0000
     37 ****         4.2318  -1.3080   0.9356 H              1 S1                 0.0000
     38 ****         2.7378  -1.7710   1.7282 H              1 S1                 0.0000
     39 ****         0.8426  -2.3380   0.3808 H              1 S1                 0.0000
     40 ****        -0.1407  -2.4566  -1.9542 H              1 S1                 0.0000
     41 ****         1.4593  -2.1417  -2.6099 H              1 S1                 0.0000
     42 ****         1.7793  -4.3155  -0.8807 H              1 S1                 0.0000
     43 ****        -0.0284  -3.4556  -4.0681 H              1 S1                 0.0000
     44 ****        -0.1315  -5.1186  -5.9426 H              1 S1                 0.0000
     45 ****         0.9505  -7.3646  -5.5797 H              1 S1                 0.0000
     46 ****        -0.2731  -0.3464  -0.5823 H              1 S1                 0.0000
     47 ****         1.2065   0.1449  -1.3860 H              1 S1                 0.0000
     48 ****         0.8312  -0.1131   1.5074 H              1 S1                 0.0000
     49 ****        -0.8106   5.2206   1.0986 LP             1 S1                 0.0000
     50 ****         0.3328   4.1303   0.3888 LP             1 S1                 0.0000
     51 ****         3.0328  -2.7812  -0.3625 LP             1 S1                 0.0000
     52 ****         3.1094  -1.3310  -1.1093 LP             1 S1                 0.0000
     53 ****         2.0042  -7.8412  -3.5469 LP             1 S1                 0.0000
     54 ****         2.1079  -6.3027  -1.7971 LP             1 S1                 0.0000
@<TRIPOS>BOND
    1    1    2 1     
    2    1   23 1     
    3    1   24 1     
    4    1   25 1     
    5    2    3 1     
    6    2    4 1     
    7    2   26 1     
    8    3   27 1     
    9    3   28 1     
   10    3   29 1     
   11    4    5 am    
   12    4   30 1     
   13    5    6 2     
   14    5    7 1     
   15    7    8 1     
   16    7   31 1     
   17    7   32 1     
   18    8    9 1     
   19    8   33 1     
   20    8   34 1     
   21    9   22 1     
   22    9   10 1     
   23    9   48 1     
   24   10   11 1     
   25   10   35 1     
   26   10   36 1     
   27   11   12 1     
   28   11   37 1     
   29   11   38 1     
   30   12   13 1     
   31   13   14 1     
   32   13   22 1     
   33   13   39 1     
   34   14   15 1     
   35   14   40 1     
   36   14   41 1     
   37   15   16 1     
   38   15   42 1     
   39   16   21 ar    
   40   16   17 ar    
   41   17   18 ar    
   42   17   43 1     
   43   18   19 ar    
   44   18   44 1     
   45   19   20 ar    
   46   19   45 1     
   47   20   21 ar    
   48   22   46 1     
   49   22   47 1     
   50    6   49 1     
   51    6   50 1     
   52   12   51 1     
   53   12   52 1     
   54   20   53 1     
   55   21   54 1     
@<TRIPOS>SUBSTRUCTURE
      1 S1             1
@<TRIPOS>SET
LONE_PAIRS      STATIC     ATOMS    <user>   **** ""
6 49 50 51 52 53 54
DONOR_HYDROGENS      STATIC     ATOMS    <user>   **** ""
3 30 48 42
ATOM$BLUE        STATIC     ATOMS    COLORGROUP SYSTEM
6 49 50 51 52 53 54
ATOM$RED        STATIC     ATOMS    COLORGROUP SYSTEM
3 30 48 42
