AV-unprocessed.smi:244|AV-procd|sdf|1875|dock1
  -GOLD-   2262020513D 1   1.00000     0.00000
 Structure written by MMmdl.
 56 60  0  0  0  0  0  0  0  0  1 V2000
  145.7038  136.1329  160.2917 C   0  0  0  0  0  0  0  0  0  0  0  0
  146.9502  135.7329  160.9353 N   0  0  0  0  0  0  0  0  0  0  0  0
  146.7320  135.0979  162.2382 C   0  0  0  0  0  0  0  0  0  0  0  0
  146.1544  133.6727  162.1157 C   0  0  0  0  0  0  0  0  0  0  0  0
  147.0561  132.8083  161.2283 C   0  0  1  0  0  0  0  0  0  0  0  0
  146.4851  131.5156  161.0562 O   0  0  0  0  0  0  0  0  0  0  0  0
  147.3308  130.6686  160.2839 C   0  0  0  0  0  0  0  0  0  0  0  0
  147.5384  131.2814  158.8887 C   0  0  0  0  0  0  0  0  0  0  0  0
  148.0617  132.6398  159.0029 N   0  0  0  0  0  0  0  0  0  0  0  0
  148.3698  133.1795  157.8026 C   0  0  0  0  0  0  0  0  0  0  0  0
  149.6141  133.6780  157.5752 N   0  0  0  0  0  0  0  0  0  0  0  0
  149.9215  134.1767  156.3738 C   0  0  0  0  0  0  0  0  0  0  0  0
  149.1550  134.2619  155.2837 N   0  0  0  0  0  0  0  0  0  0  0  0
  147.9072  133.7601  155.5135 C   0  0  0  0  0  0  0  0  0  0  0  0
  147.4340  133.2123  156.7373 C   0  0  0  0  0  0  0  0  0  0  0  0
  146.1130  132.8067  156.6022 N   0  0  0  0  0  0  0  0  0  0  0  0
  145.8208  133.0979  155.3638 C   0  0  0  0  0  0  0  0  0  0  0  0
  146.8465  133.6526  154.6310 N   0  0  0  0  0  0  0  0  0  0  0  0
  146.8029  134.0521  153.2332 C   0  0  0  0  0  0  0  0  0  0  0  0
  146.5438  132.8873  152.2431 C   0  0  0  0  0  0  0  0  0  0  0  0
  147.6178  131.9853  152.4387 O   0  0  0  0  0  0  0  0  0  0  0  0
  145.2219  132.1395  152.5233 C   0  0  0  0  0  0  0  0  0  0  0  0
  144.9439  131.0505  151.4714 C   0  0  0  0  0  0  0  0  0  0  0  0
  144.9460  131.6201  150.1674 O   0  0  0  0  0  0  0  0  0  0  0  0
  146.2031  132.1832  149.8104 C   0  0  0  0  0  0  0  0  0  0  0  0
  146.5528  133.3384  150.7660 C   0  0  0  0  0  0  0  0  0  0  0  0
  147.2246  133.4867  159.8550 C   0  0  2  0  0  0  0  0  0  0  0  0
  147.7965  134.9144  160.0619 C   0  0  0  0  0  0  0  0  0  0  0  0
  145.1456  136.8104  160.9383 H   0  0  0  0  0  0  0  0  0  0  0  0
  145.0621  135.2833  160.0613 H   0  0  0  0  0  0  0  0  0  0  0  0
  145.9110  136.6616  159.3609 H   0  0  0  0  0  0  0  0  0  0  0  0
  147.6894  135.0529  162.7586 H   0  0  0  0  0  0  0  0  0  0  0  0
  146.0797  135.7232  162.8486 H   0  0  0  0  0  0  0  0  0  0  0  0
  146.0713  133.2239  163.1057 H   0  0  0  0  0  0  0  0  0  0  0  0
  145.1433  133.7027  161.7092 H   0  0  0  0  0  0  0  0  0  0  0  0
  148.0284  132.7055  161.7151 H   0  0  0  0  0  0  0  0  0  0  0  0
  148.2859  130.5272  160.7922 H   0  0  0  0  0  0  0  0  0  0  0  0
  146.8676  129.6857  160.1981 H   0  0  0  0  0  0  0  0  0  0  0  0
  148.2280  130.6651  158.3103 H   0  0  0  0  0  0  0  0  0  0  0  0
  146.5888  131.2933  158.3514 H   0  0  0  0  0  0  0  0  0  0  0  0
  150.9269  134.5565  156.2689 H   0  0  0  0  0  0  0  0  0  0  0  0
  144.8455  132.9005  154.9427 H   0  0  0  0  0  0  0  0  0  0  0  0
  146.0302  134.8149  153.1264 H   0  0  0  0  0  0  0  0  0  0  0  0
  147.7472  134.5437  152.9939 H   0  0  0  0  0  0  0  0  0  0  0  0
  148.0861  131.8939  151.6228 H   0  0  0  0  0  0  0  0  0  0  0  0
  145.2319  131.7043  153.5234 H   0  0  0  0  0  0  0  0  0  0  0  0
  144.3878  132.8407  152.5026 H   0  0  0  0  0  0  0  0  0  0  0  0
  145.6786  130.2462  151.5303 H   0  0  0  0  0  0  0  0  0  0  0  0
  143.9687  130.5987  151.6535 H   0  0  0  0  0  0  0  0  0  0  0  0
  146.9759  131.4132  149.8197 H   0  0  0  0  0  0  0  0  0  0  0  0
  146.1416  132.5538  148.7870 H   0  0  0  0  0  0  0  0  0  0  0  0
  145.8153  134.1257  150.6132 H   0  0  0  0  0  0  0  0  0  0  0  0
  147.5202  133.7672  150.5014 H   0  0  0  0  0  0  0  0  0  0  0  0
  146.2459  133.5576  159.3792 H   0  0  0  0  0  0  0  0  0  0  0  0
  147.9175  135.4335  159.1105 H   0  0  0  0  0  0  0  0  0  0  0  0
  148.7907  134.8487  160.5061 H   0  0  0  0  0  0  0  0  0  0  0  0
  1  2  1  0  0  0  0
  1 29  1  0  0  0  0
  1 30  1  0  0  0  0
  1 31  1  0  0  0  0
  2 28  1  0  0  0  0
  2  3  1  0  0  0  0
  3  4  1  0  0  0  0
  3 32  1  0  0  0  0
  3 33  1  0  0  0  0
  4  5  1  0  0  0  0
  4 34  1  0  0  0  0
  4 35  1  0  0  0  0
  5 27  1  0  0  0  0
  5  6  1  0  0  0  0
  5 36  1  0  0  0  0
  6  7  1  0  0  0  0
  7  8  1  0  0  0  0
  7 37  1  0  0  0  0
  7 38  1  0  0  0  0
  8  9  1  0  0  0  0
  8 39  1  0  0  0  0
  8 40  1  0  0  0  0
  9 10  1  0  0  0  0
  9 27  1  0  0  0  0
 10 15  1  0  0  0  0
 10 11  2  0  0  0  0
 11 12  1  0  0  0  0
 12 13  2  0  0  0  0
 12 41  1  0  0  0  0
 13 14  1  0  0  0  0
 14 18  1  0  0  0  0
 14 15  2  0  0  0  0
 15 16  1  0  0  0  0
 16 17  2  0  0  0  0
 17 18  1  0  0  0  0
 17 42  1  0  0  0  0
 18 19  1  0  0  0  0
 19 20  1  0  0  0  0
 19 43  1  0  0  0  0
 19 44  1  0  0  0  0
 20 26  1  0  0  0  0
 20 21  1  0  0  0  0
 20 22  1  0  0  0  0
 21 45  1  0  0  0  0
 22 23  1  0  0  0  0
 22 46  1  0  0  0  0
 22 47  1  0  0  0  0
 23 24  1  0  0  0  0
 23 48  1  0  0  0  0
 23 49  1  0  0  0  0
 24 25  1  0  0  0  0
 25 26  1  0  0  0  0
 25 50  1  0  0  0  0
 25 51  1  0  0  0  0
 26 52  1  0  0  0  0
 26 53  1  0  0  0  0
 27 28  1  0  0  0  0
 27 54  1  0  0  0  0
 28 55  1  0  0  0  0
 28 56  1  0  0  0  0
M  END
> <s_m_source_file>
AV-unprocessed.smi

> <i_m_source_file_index>
244

> <i_lp_mmshare_version>
43012

> <i_f3d_flags>
0

> <s_epik_input>
W0NIMl0xW0NIMl1OKFtDSDNdKVtDSDJdW0NAQEhdKFtDQEhdMTIpTihbQ0gyXVtDSDJdTzIpYyhuW2NIXW4zKWMoYzM0KW5bY0hdbjRbQ0gyXUM1KFtPSF0pW0NIMl1bQ0gyXU9bQ0gyXVtDSDJdNQ==

> <s_epik_cmdline>
J2VwaWtfcHl0aG9uJywgJy1waCcsICc3LjAnLCAnLXRuJywgJzgnLCAnLW1hJywgJzIwMCcsICctbWV0YWxfYmluZGluZycsICctaW1hZScsICc8aW5maWxlLm1hZT4nLCAnLW9tYWUnLCAnPG91dGZpbGUubWFlPic=

> <r_lp_tautomer_probability>
1

> <r_epik_Ionization_Penalty>
2.27765

> <r_epik_Ionization_Penalty_Charging>
0

> <r_epik_Ionization_Penalty_Neutral>
2.27765

> <r_epik_State_Penalty>
2.4114

> <r_epik_Charging_Adjusted_Penalty>
2.4114

> <i_epik_Tot_Q>
0

> <i_epik_Tot_abs_Q>
0

> <r_epik_Metal_State_Penalty>
2.39769

> <b_epik_Metal_Only>
0

> <s_lp_Force_Field>
OPLS_2005

> <r_lp_Energy>
45.6912

> <b_lp_Chiralities_Consistent>
1

> <s_lp_Variant>
AV-unprocessed.smi:244-12

> <Gold.Version>
5.8.1

> <Gold.Id.Protein>
6NUR|6NUR_protein|mol2

> <Gold.PLP.Fitness>
40.7905

> <Gold.PLP.PLP>
-33.1594

> <Gold.PLP.part.hbond>
-2.0758

> <Gold.PLP.part.metal>
0.0000

> <Gold.PLP.part.buried>
-5.6913

> <Gold.PLP.part.nonpolar>
-26.8392

> <Gold.PLP.part.repulsive>
0.2437

> <Gold.PLP.ligand.clash>
0.0000

> <Gold.PLP.ligand.torsion>
0.2572

> <Gold.PLP.Chemscore.Hbond>
1.9753

> <Gold.PLP.Chemscore.CHOScore>
0.7045

> <Gold.PLP.Chemscore.Metal>
0.0000

> <Gold.Chemscore.Hbonds>
donor molecule, donor type, donor heavy atom, donor atom, acceptor molecule, acceptor atom, score
      L1  H    21    45       P1 10747  1.00
      P1  H  6896  6909       L1    11  0.88
      L1  C    17    42       P1 10957  1.00

> <Gold.PLP.Chemscore.Internal.Correction>
0.1060

> <Gold.Rescore>
     Score         DG    S(hbond)    S(metal)    S(lipo)     H(rot)  DE(clash)    DE(int)     intcor
     15.62     -15.72       1.84        0.00      80.14       2.06       0.02       0.07       ----

> <Gold.Chemscore.Fitness>
15.6210

> <Gold.Chemscore.DG>
-15.7151

> <Gold.Chemscore.ZeroCoef>
-5.4800

> <Gold.Chemscore.Hbond>
1.8371

> <Gold.Chemscore.Metal>
0.0000

> <Gold.Chemscore.Lipo>
80.1356

> <Gold.Chemscore.Internal_Hbond>
0.0000

> <Gold.Chemscore.DEClash>
0.0208

> <Gold.Chemscore.DEInternal>
0.0732

> <Gold.Chemscore.Rot>
2.0611

> <Gold.Chemscore.Internal.Correction>
   9.000000E+99

> <Gold.Chemscore.Hbonds>
donor molecule, donor type, donor heavy atom, donor atom, acceptor molecule, acceptor atom, score
      L1  H    21    45       P1 10747  0.97
      P1  H  6896  6909       L1    11  0.76

> <Gold.Chemscore.Hbond.Weighted>
-6.1358

> <Gold.Chemscore.Metal.Weighted>
-0.0000

> <Gold.Chemscore.Lipo.Weighted>
-9.3759

> <Gold.Chemscore.Internal_Hbond.Weighted>
0.0000

> <Gold.Chemscore.DEClash.Weighted>
0.0208

> <Gold.Chemscore.DEInternal.Weighted>
0.0732

> <Gold.Chemscore.Rot.Weighted>
5.2765

> <Gold.Chemscore.Internal.Correction.Weighted>
   9.000000E+99

> <Gold.Protein.RotatedTorsions>
[ 6907 6896 6895 6894 ] final   -8.27 input  -60.11 | X-H torsion
[ 7974 7965 7964 7962 ] final  148.91 input  175.53 | X-H torsion
[ 8008 7997 7996 7995 ] final   44.09 input   59.86 | X-H torsion
[ 10167 10162 10161 10158 ] final -168.00 input  -65.29 | X-H torsion
[ 10718 10713 10712 10709 ] final  141.78 input   66.30 | X-H torsion
[ 10763 10752 10751 10750 ] final  101.55 input  -60.55 | X-H torsion
[ 11005 11000 10999 10996 ] final  -40.62 input  -57.11 | X-H torsion

> <Gold.Protein.ActiveResidues>
 VAL166  LYS551  ARG553  GLY616  TRP617  ASP618  TYR619  PRO620  LYS621  CYS622 
 ASP623  PHE694  ASN695  SER759  ASP760  ASP761  ALA762  ILE779  LEU786  VAL792 
 PHE793  MET794  SER795  GLU796  ALA797  LYS798  CYS799  TRP800  GLU811  SER814 

> <Gold.Protein.RotatedAtoms>
  151.4363  135.1015  159.9656 H   0  0  0  0  0  0  0  0  0  0  0  0  # atno 6907 bound_to 6896
  152.4938  133.8570  159.7241 H   0  0  0  0  0  0  0  0  0  0  0  0  # atno 6908 bound_to 6896
  150.9120  133.6928  159.2880 H   0  0  0  0  0  0  0  0  0  0  0  0  # atno 6909 bound_to 6896
  144.8477  139.6214  143.5988 H   0  0  0  0  0  0  0  0  0  0  0  0  # atno 7974 bound_to 7965
  155.3135  140.3392  155.4243 H   0  0  0  0  0  0  0  0  0  0  0  0  # atno 8008 bound_to 7997
  156.1944  140.1709  156.8066 H   0  0  0  0  0  0  0  0  0  0  0  0  # atno 8009 bound_to 7997
  154.5480  140.0711  156.8605 H   0  0  0  0  0  0  0  0  0  0  0  0  # atno 8010 bound_to 7997
  139.6013  144.1005  152.1746 H   0  0  0  0  0  0  0  0  0  0  0  0  # atno 10167 bound_to 10162
  157.3881  131.1001  151.0674 H   0  0  0  0  0  0  0  0  0  0  0  0  # atno 10718 bound_to 10713
  153.3281  135.4041  155.1472 H   0  0  0  0  0  0  0  0  0  0  0  0  # atno 10763 bound_to 10752
  154.8616  135.3604  154.5507 H   0  0  0  0  0  0  0  0  0  0  0  0  # atno 10764 bound_to 10752
  153.5944  135.7073  153.5469 H   0  0  0  0  0  0  0  0  0  0  0  0  # atno 10765 bound_to 10752
  141.0188  133.6872  156.2347 H   0  0  0  0  0  0  0  0  0  0  0  0  # atno 11005 bound_to 11000
  146.2758  139.6750  142.9264 LP  0  0  0  0  0  0  0  0  0  0  0  0  # atno 17320 bound_to 7965
  145.4563  141.0431  143.2776 LP  0  0  0  0  0  0  0  0  0  0  0  0  # atno 17321 bound_to 7965
  140.0602  144.5863  150.7269 LP  0  0  0  0  0  0  0  0  0  0  0  0  # atno 17342 bound_to 10162
  140.7252  143.2628  151.4146 LP  0  0  0  0  0  0  0  0  0  0  0  0  # atno 17343 bound_to 10162
  157.1718  130.6270  149.5643 LP  0  0  0  0  0  0  0  0  0  0  0  0  # atno 17370 bound_to 10713
  155.9791  130.4783  150.6698 LP  0  0  0  0  0  0  0  0  0  0  0  0  # atno 17371 bound_to 10713
  140.6609  134.4969  157.5583 LP  0  0  0  0  0  0  0  0  0  0  0  0  # atno 17394 bound_to 11000
  139.9133  134.8299  156.1452 LP  0  0  0  0  0  0  0  0  0  0  0  0  # atno 17395 bound_to 11000

$$$$
