AV-unprocessed.smi:1230|AV-procd|sdf|5157|dock5
  -GOLD-   22720 4233D 1   1.00000     0.00000
 Structure written by MMmdl.
 39 40  0  0  0  0  0  0  0  0  1 V2000
  151.9238  144.4231  158.1222 C   0  0  0  0  0  0  0  0  0  0  0  0
  152.5669  143.9661  159.4411 C   0  0  1  0  0  0  0  0  0  0  0  0
  151.7625  144.4414  160.6680 C   0  0  0  0  0  0  0  0  0  0  0  0
  152.4336  144.0131  161.9830 C   0  0  0  0  0  0  0  0  0  0  0  0
  152.6634  142.4947  162.0250 C   0  0  0  0  0  0  0  0  0  0  0  0
  153.4664  142.0197  160.8030 C   0  0  0  0  0  0  0  0  0  0  0  0
  152.7907  142.4376  159.4790 C   0  0  1  0  0  0  0  0  0  0  0  0
  151.5282  141.7948  159.3340 O   0  0  0  0  0  0  0  0  0  0  0  0
  151.1906  141.4424  158.0016 C   0  0  0  0  0  0  0  0  0  0  0  0
  152.2923  140.5232  157.4534 C   0  0  0  0  0  0  0  0  0  0  0  0
  151.7822  139.2719  156.9515 N   0  0  0  0  0  0  0  0  0  0  0  0
  151.0522  138.3961  157.7408 C   0  0  0  0  0  0  0  0  0  0  0  0
  150.5820  137.2127  157.2797 C   0  0  0  0  0  0  0  0  0  0  0  0
  149.8323  136.3219  158.1026 C   0  0  0  0  0  0  0  0  0  0  0  0
  149.2449  135.5927  158.7831 N   0  0  0  0  0  0  0  0  0  0  0  0
  150.8309  136.7958  155.9007 C   0  0  0  0  0  0  0  0  0  0  0  0
  150.4464  135.7462  155.3881 O   0  0  0  0  0  0  0  0  0  0  0  0
  151.5781  137.7083  155.1487 N   0  0  0  0  0  0  0  0  0  0  0  0
  152.0718  138.9306  155.6092 C   0  0  0  0  0  0  0  0  0  0  0  0
  152.7265  139.6507  154.8552 O   0  0  0  0  0  0  0  0  0  0  0  0
  151.7800  137.4613  154.1907 H   0  0  0  0  0  0  0  0  0  0  0  0
  150.9217  144.0105  158.0015 H   0  0  0  0  0  0  0  0  0  0  0  0
  152.5190  144.1068  157.2653 H   0  0  0  0  0  0  0  0  0  0  0  0
  151.8409  145.5093  158.0827 H   0  0  0  0  0  0  0  0  0  0  0  0
  153.5485  144.4396  159.4931 H   0  0  0  0  0  0  0  0  0  0  0  0
  151.6604  145.5269  160.6489 H   0  0  0  0  0  0  0  0  0  0  0  0
  150.7500  144.0375  160.6274 H   0  0  0  0  0  0  0  0  0  0  0  0
  153.3886  144.5294  162.0897 H   0  0  0  0  0  0  0  0  0  0  0  0
  151.8207  144.3200  162.8308 H   0  0  0  0  0  0  0  0  0  0  0  0
  153.1880  142.2239  162.9416 H   0  0  0  0  0  0  0  0  0  0  0  0
  151.7026  141.9793  162.0561 H   0  0  0  0  0  0  0  0  0  0  0  0
  154.4669  142.4522  160.8444 H   0  0  0  0  0  0  0  0  0  0  0  0
  153.6081  140.9406  160.8472 H   0  0  0  0  0  0  0  0  0  0  0  0
  153.4379  142.1672  158.6425 H   0  0  0  0  0  0  0  0  0  0  0  0
  150.2255  140.9345  157.9863 H   0  0  0  0  0  0  0  0  0  0  0  0
  151.1057  142.3308  157.3759 H   0  0  0  0  0  0  0  0  0  0  0  0
  152.8093  140.9993  156.6187 H   0  0  0  0  0  0  0  0  0  0  0  0
  153.0582  140.2956  158.1982 H   0  0  0  0  0  0  0  0  0  0  0  0
  150.8483  138.6627  158.7685 H   0  0  0  0  0  0  0  0  0  0  0  0
  1  2  1  0  0  0  0
  1 22  1  0  0  0  0
  1 23  1  0  0  0  0
  1 24  1  0  0  0  0
  2  7  1  0  0  0  0
  2  3  1  0  0  0  0
  2 25  1  0  0  0  0
  3  4  1  0  0  0  0
  3 26  1  0  0  0  0
  3 27  1  0  0  0  0
  4  5  1  0  0  0  0
  4 28  1  0  0  0  0
  4 29  1  0  0  0  0
  5  6  1  0  0  0  0
  5 30  1  0  0  0  0
  5 31  1  0  0  0  0
  6  7  1  0  0  0  0
  6 32  1  0  0  0  0
  6 33  1  0  0  0  0
  7  8  1  0  0  0  0
  7 34  1  0  0  0  0
  8  9  1  0  0  0  0
  9 10  1  0  0  0  0
  9 35  1  0  0  0  0
  9 36  1  0  0  0  0
 10 11  1  0  0  0  0
 10 37  1  0  0  0  0
 10 38  1  0  0  0  0
 11 19  1  0  0  0  0
 11 12  1  0  0  0  0
 12 13  2  0  0  0  0
 12 39  1  0  0  0  0
 13 14  1  0  0  0  0
 13 16  1  0  0  0  0
 14 15  3  0  0  0  0
 16 17  2  0  0  0  0
 16 18  1  0  0  0  0
 18 21  1  0  0  0  0
 18 19  1  0  0  0  0
 19 20  2  0  0  0  0
M  END
> <s_m_source_file>
AV-unprocessed.smi

> <i_m_source_file_index>
1230

> <i_lp_mmshare_version>
43012

> <i_f3d_flags>
0

> <s_epik_input>
W0NIM11bQ0BASF0xW0NIMl1bQ0gyXVtDSDJdW0NIMl1bQ0BIXTFPW0NIMl1bQ0gyXW4yW2NIXWMoQyNOKWMoPU8pW25IXWMyPU8=

> <s_epik_cmdline>
J2VwaWtfcHl0aG9uJywgJy1waCcsICc3LjAnLCAnLXRuJywgJzgnLCAnLW1hJywgJzIwMCcsICctbWV0YWxfYmluZGluZycsICctaW1hZScsICc8aW5maWxlLm1hZT4nLCAnLW9tYWUnLCAnPG91dGZpbGUubWFlPic=

> <r_epik_Ionization_Penalty>
0.421541

> <r_epik_Ionization_Penalty_Charging>
0.421541

> <r_epik_Ionization_Penalty_Neutral>
2.29267e-11

> <r_epik_State_Penalty>
0.422277

> <r_epik_Charging_Adjusted_Penalty>
0.843818

> <i_epik_Tot_Q>
0

> <i_epik_Tot_abs_Q>
0

> <r_epik_Metal_State_Penalty>
4.11629

> <b_epik_Metal_Only>
0

> <s_lp_Force_Field>
OPLS_2005

> <r_lp_Energy>
14.8101

> <b_lp_Chiralities_Consistent>
1

> <s_lp_Variant>
AV-unprocessed.smi:1230-6

> <Gold.Version>
5.8.1

> <Gold.Id.Protein>
6NUR|6NUR_protein|mol2

> <Gold.PLP.Fitness>
47.8988

> <Gold.PLP.PLP>
-42.4046

> <Gold.PLP.part.hbond>
-2.7733

> <Gold.PLP.part.metal>
0.0000

> <Gold.PLP.part.buried>
-5.6598

> <Gold.PLP.part.nonpolar>
-33.3913

> <Gold.PLP.part.repulsive>
0.2512

> <Gold.PLP.ligand.clash>
0.0000

> <Gold.PLP.ligand.torsion>
0.8395

> <Gold.PLP.Chemscore.Hbond>
2.3842

> <Gold.PLP.Chemscore.CHOScore>
0.0000

> <Gold.PLP.Chemscore.Metal>
0.0000

> <Gold.Chemscore.Hbonds>
donor molecule, donor type, donor heavy atom, donor atom, acceptor molecule, acceptor atom, score
      P1  H  6896  6908       L1    15  1.00
      P1  H  7989  7998       L1    20  0.45
      P1  H  7997  8010       L1    20  0.86

> <Gold.PLP.Chemscore.Internal.Correction>
0.0206

> <Gold.Rescore>
     Score         DG    S(hbond)    S(metal)    S(lipo)     H(rot)  DE(clash)    DE(int)     intcor
     16.86     -17.73       1.56        0.00     102.48       1.94       0.01       0.87       ----

> <Gold.Chemscore.Fitness>
16.8557

> <Gold.Chemscore.DG>
-17.7314

> <Gold.Chemscore.ZeroCoef>
-5.4800

> <Gold.Chemscore.Hbond>
1.5641

> <Gold.Chemscore.Metal>
0.0000

> <Gold.Chemscore.Lipo>
102.4772

> <Gold.Chemscore.Internal_Hbond>
0.0000

> <Gold.Chemscore.DEClash>
0.0055

> <Gold.Chemscore.DEInternal>
0.8701

> <Gold.Chemscore.Rot>
1.9385

> <Gold.Chemscore.Internal.Correction>
   9.000000E+99

> <Gold.Chemscore.Hbonds>
donor molecule, donor type, donor heavy atom, donor atom, acceptor molecule, acceptor atom, score
      P1  H  6896  6908       L1    15  0.35
      P1  H  7989  7998       L1    20  0.41
      P1  H  7997  8010       L1    20  0.42

> <Gold.Chemscore.Hbond.Weighted>
-5.2241

> <Gold.Chemscore.Metal.Weighted>
-0.0000

> <Gold.Chemscore.Lipo.Weighted>
-11.9898

> <Gold.Chemscore.Internal_Hbond.Weighted>
0.0000

> <Gold.Chemscore.DEClash.Weighted>
0.0055

> <Gold.Chemscore.DEInternal.Weighted>
0.8701

> <Gold.Chemscore.Rot.Weighted>
4.9625

> <Gold.Chemscore.Internal.Correction.Weighted>
   9.000000E+99

> <Gold.Protein.RotatedTorsions>
[ 6907 6896 6895 6894 ] final  163.45 input  -60.11 | X-H torsion
[ 7974 7965 7964 7962 ] final   -4.25 input  175.53 | X-H torsion
[ 8008 7997 7996 7995 ] final   99.46 input   59.86 | X-H torsion
[ 10167 10162 10161 10158 ] final   91.03 input  -65.29 | X-H torsion
[ 10718 10713 10712 10709 ] final  -12.67 input   66.30 | X-H torsion
[ 10763 10752 10751 10750 ] final   96.31 input  -60.55 | X-H torsion
[ 11005 11000 10999 10996 ] final   43.44 input  -57.11 | X-H torsion

> <Gold.Protein.ActiveResidues>
 VAL166  LYS551  ARG553  GLY616  TRP617  ASP618  TYR619  PRO620  LYS621  CYS622 
 ASP623  PHE694  ASN695  SER759  ASP760  ASP761  ALA762  ILE779  LEU786  VAL792 
 PHE793  MET794  SER795  GLU796  ALA797  LYS798  CYS799  TRP800  GLU811  SER814 

> <Gold.Protein.RotatedAtoms>
  151.9250  133.3595  159.3910 H   0  0  0  0  0  0  0  0  0  0  0  0  # atno 6907 bound_to 6896
  150.7029  134.4596  159.5384 H   0  0  0  0  0  0  0  0  0  0  0  0  # atno 6908 bound_to 6896
  152.2227  134.8398  160.0535 H   0  0  0  0  0  0  0  0  0  0  0  0  # atno 6909 bound_to 6896
  146.2375  140.1843  142.8332 H   0  0  0  0  0  0  0  0  0  0  0  0  # atno 7974 bound_to 7965
  156.1107  140.3228  155.8069 H   0  0  0  0  0  0  0  0  0  0  0  0  # atno 8008 bound_to 7997
  155.4678  140.0544  157.3000 H   0  0  0  0  0  0  0  0  0  0  0  0  # atno 8009 bound_to 7997
  154.4758  140.2031  155.9896 H   0  0  0  0  0  0  0  0  0  0  0  0  # atno 8010 bound_to 7997
  139.8414  144.6639  150.9278 H   0  0  0  0  0  0  0  0  0  0  0  0  # atno 10167 bound_to 10162
  156.6413  130.4929  149.6094 H   0  0  0  0  0  0  0  0  0  0  0  0  # atno 10718 bound_to 10713
  153.2635  135.4223  155.0917 H   0  0  0  0  0  0  0  0  0  0  0  0  # atno 10763 bound_to 10752
  154.8429  135.3454  154.6345 H   0  0  0  0  0  0  0  0  0  0  0  0  # atno 10764 bound_to 10752
  153.6765  135.7041  153.5188 H   0  0  0  0  0  0  0  0  0  0  0  0  # atno 10765 bound_to 10752
  140.1645  134.4300  155.8296 H   0  0  0  0  0  0  0  0  0  0  0  0  # atno 11005 bound_to 11000
  144.9909  140.8546  143.5340 LP  0  0  0  0  0  0  0  0  0  0  0  0  # atno 17320 bound_to 7965
  145.1849  139.2332  143.5273 LP  0  0  0  0  0  0  0  0  0  0  0  0  # atno 17321 bound_to 7965
  140.7797  143.3909  151.1312 LP  0  0  0  0  0  0  0  0  0  0  0  0  # atno 17342 bound_to 10162
  139.7555  143.8714  152.3087 LP  0  0  0  0  0  0  0  0  0  0  0  0  # atno 17343 bound_to 10162
  156.2156  130.6706  151.1315 LP  0  0  0  0  0  0  0  0  0  0  0  0  # atno 17370 bound_to 10713
  157.7170  131.0704  150.6288 LP  0  0  0  0  0  0  0  0  0  0  0  0  # atno 17371 bound_to 10713
  141.2212  133.6928  156.7653 LP  0  0  0  0  0  0  0  0  0  0  0  0  # atno 17394 bound_to 11000
  140.2451  134.8584  157.3612 LP  0  0  0  0  0  0  0  0  0  0  0  0  # atno 17395 bound_to 11000

$$$$
