AV-unprocessed.smi:2059|AV-procd|sdf|8353|dock3
  -GOLD-   2272011 23D 1   1.00000     0.00000
 Structure written by MMmdl.
 29 30  0  0  0  0  0  0  0  0  2 V2000
  148.6310  130.3712  153.5947 C   0  0  0  0  0  0  0  0  0  0  0  0
  148.7903  131.8043  153.9709 C   0  0  0  0  0  0  0  0  0  0  0  0
  149.5318  132.4369  154.9285 C   0  0  0  0  0  0  0  0  0  0  0  0
  149.2160  133.8084  154.7316 C   0  0  0  0  0  0  0  0  0  0  0  0
  149.8148  134.8021  155.5586 N   0  0  0  0  0  0  0  0  0  0  0  0
  150.4123  134.7210  156.7671 C   0  0  0  0  0  0  0  0  0  0  0  0
  150.4506  133.5868  157.2551 O   0  0  0  0  0  0  0  0  0  0  0  0
  150.9030  135.8650  157.3268 N   0  5  0  0  0  0  0  0  0  0  0  0
  150.7629  137.2106  156.7654 C   0  0  1  0  0  0  0  0  0  0  0  0
  151.4168  138.2570  157.6893 C   0  0  0  0  0  0  0  0  0  0  0  0
  151.5599  139.5762  156.9159 C   0  0  0  0  0  0  0  0  0  0  0  0
  151.8181  139.1014  155.1623 S   0  0  0  0  0  0  0  0  0  0  0  0
  150.7715  139.7281  154.3393 O   0  0  0  0  0  0  0  0  0  0  0  0
  153.2395  139.2542  154.8148 O   0  0  0  0  0  0  0  0  0  0  0  0
  151.4422  137.3191  155.3913 C   0  0  0  0  0  0  0  0  0  0  0  0
  148.3557  133.9909  153.7395 N   0  0  0  0  0  0  0  0  0  0  0  0
  148.0798  132.7102  153.2474 O   0  0  0  0  0  0  0  0  0  0  0  0
  148.8810  129.7194  154.4319 H   0  0  0  0  0  0  0  0  0  0  0  0
  149.2850  130.1170  152.7608 H   0  0  0  0  0  0  0  0  0  0  0  0
  147.6039  130.1589  153.2972 H   0  0  0  0  0  0  0  0  0  0  0  0
  150.1949  131.9885  155.6533 H   0  0  0  0  0  0  0  0  0  0  0  0
  149.7767  135.7358  155.1782 H   0  0  0  0  0  0  0  0  0  0  0  0
  149.7157  137.4937  156.6462 H   0  0  0  0  0  0  0  0  0  0  0  0
  150.8494  138.3949  158.6102 H   0  0  0  0  0  0  0  0  0  0  0  0
  152.4120  137.9143  157.9780 H   0  0  0  0  0  0  0  0  0  0  0  0
  150.6488  140.1732  156.9775 H   0  0  0  0  0  0  0  0  0  0  0  0
  152.3948  140.1817  157.2680 H   0  0  0  0  0  0  0  0  0  0  0  0
  152.3871  136.7746  155.3726 H   0  0  0  0  0  0  0  0  0  0  0  0
  150.8145  136.9571  154.5773 H   0  0  0  0  0  0  0  0  0  0  0  0
  1  2  1  0  0  0  0
  1 18  1  0  0  0  0
  1 19  1  0  0  0  0
  1 20  1  0  0  0  0
  2 17  1  0  0  0  0
  2  3  2  0  0  0  0
  3  4  1  0  0  0  0
  3 21  1  0  0  0  0
  4  5  1  0  0  0  0
  4 16  2  0  0  0  0
  5  6  1  0  0  0  0
  5 22  1  0  0  0  0
  6  7  2  0  0  0  0
  6  8  1  0  0  0  0
  8  9  1  0  0  0  0
  9 15  1  0  0  0  0
  9 10  1  0  0  0  0
  9 23  1  0  0  0  0
 10 11  1  0  0  0  0
 10 24  1  0  0  0  0
 10 25  1  0  0  0  0
 11 12  1  0  0  0  0
 11 26  1  0  0  0  0
 11 27  1  0  0  0  0
 12 13  2  0  0  0  0
 12 14  2  0  0  0  0
 12 15  1  0  0  0  0
 15 28  1  0  0  0  0
 15 29  1  0  0  0  0
 16 17  1  0  0  0  0
M  CHG  1   8  -1
M  END
> <s_m_source_file>
AV-unprocessed.smi

> <i_m_source_file_index>
2059

> <i_lp_mmshare_version>
43012

> <i_f3d_flags>
0

> <s_epik_input>
W0NIM11jMVtjSF1jKG5vMSlbTkhdQyg9TylbTkhdW0NAQEhdKFtDSDJdMilbQ0gyXVtDSDJdUzIoPU8pPU8=

> <s_epik_cmdline>
J2VwaWtfcHl0aG9uJywgJy1waCcsICc3LjAnLCAnLXRuJywgJzgnLCAnLW1hJywgJzIwMCcsICctbWV0YWxfYmluZGluZycsICctaW1hZScsICc8aW5maWxlLm1hZT4nLCAnLW9tYWUnLCAnPG91dGZpbGUubWFlPic=

> <r_lp_tautomer_probability>
1

> <r_epik_Ionization_Penalty>
6.6071

> <r_epik_Ionization_Penalty_Charging>
6.60709

> <r_epik_Ionization_Penalty_Neutral>
5.42629e-06

> <r_epik_State_Penalty>
6.6352

> <r_epik_Charging_Adjusted_Penalty>
13.2423

> <i_epik_Tot_Q>
-1

> <i_epik_Tot_abs_Q>
1

> <r_epik_Metal_State_Penalty>
2.57602

> <b_epik_Metal_Only>
1

> <s_lp_Force_Field>
OPLS_2005

> <r_lp_Energy>
11.3948

> <b_lp_Chiralities_Consistent>
1

> <s_lp_Variant>
AV-unprocessed.smi:2059-6

> <Gold.Version>
5.8.1

> <Gold.Id.Protein>
6NUR|6NUR_protein|mol2

> <Gold.PLP.Fitness>
32.0491

> <Gold.PLP.PLP>
-23.6295

> <Gold.PLP.part.hbond>
-4.2365

> <Gold.PLP.part.metal>
0.0000

> <Gold.PLP.part.buried>
-5.7436

> <Gold.PLP.part.nonpolar>
-15.7658

> <Gold.PLP.part.repulsive>
1.4329

> <Gold.PLP.ligand.clash>
0.0000

> <Gold.PLP.ligand.torsion>
0.0882

> <Gold.PLP.Chemscore.Hbond>
2.8640

> <Gold.PLP.Chemscore.CHOScore>
0.0000

> <Gold.PLP.Chemscore.Metal>
0.0000

> <Gold.Chemscore.Hbonds>
donor molecule, donor type, donor heavy atom, donor atom, acceptor molecule, acceptor atom, score
      P1  H  6896  6907       L1     7  0.88
      P1  H  7989  7998       L1    13  1.00
      P1  H  7997  8010       L1    14  1.00

> <Gold.PLP.Chemscore.Internal.Correction>
0.0041

> <Gold.Rescore>
     Score         DG    S(hbond)    S(metal)    S(lipo)     H(rot)  DE(clash)    DE(int)     intcor
     13.33     -15.85       2.70        0.00      33.39       1.00       0.02       2.51       ----

> <Gold.Chemscore.Fitness>
13.3273

> <Gold.Chemscore.DG>
-15.8549

> <Gold.Chemscore.ZeroCoef>
-5.4800

> <Gold.Chemscore.Hbond>
2.7032

> <Gold.Chemscore.Metal>
0.0000

> <Gold.Chemscore.Lipo>
33.3876

> <Gold.Chemscore.Internal_Hbond>
0.0000

> <Gold.Chemscore.DEClash>
0.0157

> <Gold.Chemscore.DEInternal>
2.5120

> <Gold.Chemscore.Rot>
1.0000

> <Gold.Chemscore.Internal.Correction>
   9.000000E+99

> <Gold.Chemscore.Hbonds>
donor molecule, donor type, donor heavy atom, donor atom, acceptor molecule, acceptor atom, score
      P1  H  6896  6907       L1     7  0.67
      P1  H  7989  7998       L1    13  0.35
      P1  H  7997  8010       L1    14  0.97

> <Gold.Chemscore.Hbond.Weighted>
-9.0286

> <Gold.Chemscore.Metal.Weighted>
-0.0000

> <Gold.Chemscore.Lipo.Weighted>
-3.9064

> <Gold.Chemscore.Internal_Hbond.Weighted>
0.0000

> <Gold.Chemscore.DEClash.Weighted>
0.0157

> <Gold.Chemscore.DEInternal.Weighted>
2.5120

> <Gold.Chemscore.Rot.Weighted>
2.5600

> <Gold.Chemscore.Internal.Correction.Weighted>
   9.000000E+99

> <Gold.Protein.RotatedTorsions>
[ 6907 6896 6895 6894 ] final -135.80 input  -60.11 | X-H torsion
[ 7974 7965 7964 7962 ] final  -64.89 input  175.53 | X-H torsion
[ 8008 7997 7996 7995 ] final   96.73 input   59.86 | X-H torsion
[ 10167 10162 10161 10158 ] final   47.63 input  -65.29 | X-H torsion
[ 10718 10713 10712 10709 ] final  -77.94 input   66.30 | X-H torsion
[ 10763 10752 10751 10750 ] final   86.40 input  -60.55 | X-H torsion
[ 11005 11000 10999 10996 ] final  165.22 input  -57.11 | X-H torsion

> <Gold.Protein.ActiveResidues>
 VAL166  LYS551  ARG553  GLY616  TRP617  ASP618  TYR619  PRO620  LYS621  CYS622 
 ASP623  PHE694  ASN695  SER759  ASP760  ASP761  ALA762  ILE779  LEU786  VAL792 
 PHE793  MET794  SER795  GLU796  ALA797  LYS798  CYS799  TRP800  GLU811  SER814 

> <Gold.Protein.RotatedAtoms>
  151.0023  133.6044  159.2693 H   0  0  0  0  0  0  0  0  0  0  0  0  # atno 6907 bound_to 6896
  151.3226  135.0821  159.9321 H   0  0  0  0  0  0  0  0  0  0  0  0  # atno 6908 bound_to 6896
  152.5277  133.9667  159.7797 H   0  0  0  0  0  0  0  0  0  0  0  0  # atno 6909 bound_to 6896
  145.7611  140.8861  143.0429 H   0  0  0  0  0  0  0  0  0  0  0  0  # atno 7974 bound_to 7965
  156.0827  140.3268  155.7714 H   0  0  0  0  0  0  0  0  0  0  0  0  # atno 8008 bound_to 7997
  155.5126  140.0578  157.2938 H   0  0  0  0  0  0  0  0  0  0  0  0  # atno 8009 bound_to 7997
  154.4591  140.1958  156.0311 H   0  0  0  0  0  0  0  0  0  0  0  0  # atno 8010 bound_to 7997
  140.3016  144.2927  150.6218 H   0  0  0  0  0  0  0  0  0  0  0  0  # atno 10167 bound_to 10162
  156.0131  130.4504  150.3420 H   0  0  0  0  0  0  0  0  0  0  0  0  # atno 10718 bound_to 10713
  153.1566  135.4582  154.9713 H   0  0  0  0  0  0  0  0  0  0  0  0  # atno 10763 bound_to 10752
  154.7866  135.3206  154.7874 H   0  0  0  0  0  0  0  0  0  0  0  0  # atno 10764 bound_to 10752
  153.8371  135.6933  153.4862 H   0  0  0  0  0  0  0  0  0  0  0  0  # atno 10765 bound_to 10752
  140.2539  134.7955  157.3528 H   0  0  0  0  0  0  0  0  0  0  0  0  # atno 11005 bound_to 11000
  144.6830  139.9724  143.7482 LP  0  0  0  0  0  0  0  0  0  0  0  0  # atno 17320 bound_to 7965
  146.0263  139.3295  143.0782 LP  0  0  0  0  0  0  0  0  0  0  0  0  # atno 17321 bound_to 7965
  140.5646  143.2188  151.7706 LP  0  0  0  0  0  0  0  0  0  0  0  0  # atno 17342 bound_to 10162
  139.4914  144.4301  151.9881 LP  0  0  0  0  0  0  0  0  0  0  0  0  # atno 17343 bound_to 10162
  157.1516  131.0322  151.2882 LP  0  0  0  0  0  0  0  0  0  0  0  0  # atno 17370 bound_to 10713
  157.4387  130.7532  149.7051 LP  0  0  0  0  0  0  0  0  0  0  0  0  # atno 17371 bound_to 10713
  140.1530  134.4825  155.7947 LP  0  0  0  0  0  0  0  0  0  0  0  0  # atno 17394 bound_to 11000
  141.2198  133.6870  156.7412 LP  0  0  0  0  0  0  0  0  0  0  0  0  # atno 17395 bound_to 11000

$$$$
