AV-unprocessed.smi:169|AV-procd|sdf|1405|dock8
  -GOLD-   2262019153D 1   1.00000     0.00000
 Structure written by MMmdl.
 56 60  0  0  0  0  0  0  0  0  2 V2000
  152.7329  144.0134  158.5630 C   0  0  0  0  0  0  0  0  0  0  0  0
  151.2153  143.9115  158.3267 C   0  0  0  0  0  0  0  0  0  0  0  0
  150.7746  142.5937  157.7983 N   0  3  1  0  0  0  0  0  0  0  0  0
  151.6577  141.4717  158.2063 C   0  0  0  0  0  0  0  0  0  0  0  0
  151.8395  140.4201  157.0936 C   0  0  0  0  0  0  0  0  0  0  0  0
  150.5524  139.9376  156.3872 C   0  0  2  0  0  0  0  0  0  0  0  0
  150.1312  140.8321  155.2023 C   0  0  0  0  0  0  0  0  0  0  0  0
  148.8381  141.5227  155.6479 C   0  0  0  0  0  0  0  0  0  0  0  0
  148.7324  141.2118  157.1443 C   0  0  2  0  0  0  0  0  0  0  0  0
  149.3291  142.3241  158.0367 C   0  0  0  0  0  0  0  0  0  0  0  0
  149.4100  139.9278  157.3009 N   0  0  0  0  0  0  0  0  0  0  0  0
  148.5880  138.8488  157.3735 C   0  0  0  0  0  0  0  0  0  0  0  0
  147.6306  138.6381  156.4315 N   0  0  0  0  0  0  0  0  0  0  0  0
  146.8206  137.5788  156.5180 C   0  0  0  0  0  0  0  0  0  0  0  0
  146.7934  136.6239  157.4493 N   0  0  0  0  0  0  0  0  0  0  0  0
  147.7486  136.8305  158.3997 C   0  0  0  0  0  0  0  0  0  0  0  0
  148.6803  137.9058  158.4345 C   0  0  0  0  0  0  0  0  0  0  0  0
  149.5097  137.7812  159.5424 N   0  0  0  0  0  0  0  0  0  0  0  0
  149.0896  136.6948  160.1314 C   0  0  0  0  0  0  0  0  0  0  0  0
  148.0266  136.0670  159.5203 N   0  0  0  0  0  0  0  0  0  0  0  0
  147.3648  134.8505  159.9671 C   0  0  0  0  0  0  0  0  0  0  0  0
  146.6660  134.9781  161.3370 C   0  0  0  0  0  0  0  0  0  0  0  0
  145.2485  135.5569  161.1798 C   0  0  0  0  0  0  0  0  0  0  0  0
  144.5639  135.5982  162.4158 O   0  0  0  0  0  0  0  0  0  0  0  0
  146.7447  133.7455  162.2495 C   0  0  0  0  0  0  0  0  0  0  0  0
  147.2123  134.5330  163.3644 O   0  0  0  0  0  0  0  0  0  0  0  0
  147.5003  135.6169  162.4558 C   0  0  0  0  0  0  0  0  0  0  0  0
  152.9954  145.0080  158.9235 H   0  0  0  0  0  0  0  0  0  0  0  0
  153.2984  143.8402  157.6474 H   0  0  0  0  0  0  0  0  0  0  0  0
  153.0757  143.2987  159.3110 H   0  0  0  0  0  0  0  0  0  0  0  0
  150.6862  144.1149  159.2586 H   0  0  0  0  0  0  0  0  0  0  0  0
  150.9009  144.6914  157.6321 H   0  0  0  0  0  0  0  0  0  0  0  0
  152.6485  141.8477  158.4659 H   0  0  0  0  0  0  0  0  0  0  0  0
  151.2714  141.0075  159.1154 H   0  0  0  0  0  0  0  0  0  0  0  0
  152.5500  140.7840  156.3505 H   0  0  0  0  0  0  0  0  0  0  0  0
  152.3243  139.5544  157.5465 H   0  0  0  0  0  0  0  0  0  0  0  0
  150.7721  138.9437  155.9966 H   0  0  0  0  0  0  0  0  0  0  0  0
  150.8991  141.5631  154.9474 H   0  0  0  0  0  0  0  0  0  0  0  0
  149.9486  140.2332  154.3091 H   0  0  0  0  0  0  0  0  0  0  0  0
  148.8297  142.5910  155.4294 H   0  0  0  0  0  0  0  0  0  0  0  0
  147.9924  141.0756  155.1235 H   0  0  0  0  0  0  0  0  0  0  0  0
  147.6744  141.1274  157.3973 H   0  0  0  0  0  0  0  0  0  0  0  0
  149.1694  142.0711  159.0856 H   0  0  0  0  0  0  0  0  0  0  0  0
  148.7633  143.2394  157.8581 H   0  0  0  0  0  0  0  0  0  0  0  0
  146.0891  137.4826  155.7289 H   0  0  0  0  0  0  0  0  0  0  0  0
  149.5405  136.3224  161.0399 H   0  0  0  0  0  0  0  0  0  0  0  0
  146.6482  134.5602  159.1976 H   0  0  0  0  0  0  0  0  0  0  0  0
  148.1050  134.0498  159.9903 H   0  0  0  0  0  0  0  0  0  0  0  0
  145.2666  136.5565  160.7454 H   0  0  0  0  0  0  0  0  0  0  0  0
  144.6604  134.9443  160.4956 H   0  0  0  0  0  0  0  0  0  0  0  0
  144.9925  136.2286  162.9749 H   0  0  0  0  0  0  0  0  0  0  0  0
  145.7820  133.2702  162.4408 H   0  0  0  0  0  0  0  0  0  0  0  0
  147.4887  133.0081  161.9457 H   0  0  0  0  0  0  0  0  0  0  0  0
  148.5661  135.6843  162.2308 H   0  0  0  0  0  0  0  0  0  0  0  0
  147.1162  136.5746  162.8087 H   0  0  0  0  0  0  0  0  0  0  0  0
  150.8792  142.6739  156.7968 H   0  0  0  0  0  0  0  0  0  0  0  0
  1  2  1  0  0  0  0
  1 28  1  0  0  0  0
  1 29  1  0  0  0  0
  1 30  1  0  0  0  0
  2  3  1  0  0  0  0
  2 31  1  0  0  0  0
  2 32  1  0  0  0  0
  3 10  1  0  0  0  0
  3  4  1  0  0  0  0
  3 56  1  0  0  0  0
  4  5  1  0  0  0  0
  4 33  1  0  0  0  0
  4 34  1  0  0  0  0
  5  6  1  0  0  0  0
  5 35  1  0  0  0  0
  5 36  1  0  0  0  0
  6 11  1  0  0  0  0
  6  7  1  0  0  0  0
  6 37  1  0  0  0  0
  7  8  1  0  0  0  0
  7 38  1  0  0  0  0
  7 39  1  0  0  0  0
  8  9  1  0  0  0  0
  8 40  1  0  0  0  0
  8 41  1  0  0  0  0
  9 10  1  0  0  0  0
  9 11  1  0  0  0  0
  9 42  1  0  0  0  0
 10 43  1  0  0  0  0
 10 44  1  0  0  0  0
 11 12  1  0  0  0  0
 12 17  1  0  0  0  0
 12 13  2  0  0  0  0
 13 14  1  0  0  0  0
 14 15  2  0  0  0  0
 14 45  1  0  0  0  0
 15 16  1  0  0  0  0
 16 20  1  0  0  0  0
 16 17  2  0  0  0  0
 17 18  1  0  0  0  0
 18 19  2  0  0  0  0
 19 20  1  0  0  0  0
 19 46  1  0  0  0  0
 20 21  1  0  0  0  0
 21 22  1  0  0  0  0
 21 47  1  0  0  0  0
 21 48  1  0  0  0  0
 22 27  1  0  0  0  0
 22 23  1  0  0  0  0
 22 25  1  0  0  0  0
 23 24  1  0  0  0  0
 23 49  1  0  0  0  0
 23 50  1  0  0  0  0
 24 51  1  0  0  0  0
 25 26  1  0  0  0  0
 25 52  1  0  0  0  0
 25 53  1  0  0  0  0
 26 27  1  0  0  0  0
 27 54  1  0  0  0  0
 27 55  1  0  0  0  0
M  CHG  1   3   1
M  END
> <s_m_source_file>
AV-unprocessed.smi

> <i_m_source_file_index>
169

> <i_lp_mmshare_version>
43012

> <i_f3d_flags>
0

> <s_epik_input>
W0NASF0xMltDSDJdW0NIMl1OKFtDSDJdW0NIM10pW0NIMl1bQ0BIXShbQ0gyXVtDSDJdMSlOMmMobltjSF1uMyljKGMzNCluW2NIXW40W0NIMl1DNShbQ0gyXVtPSF0pW0NIMl1PW0NIMl01

> <s_epik_cmdline>
J2VwaWtfcHl0aG9uJywgJy1waCcsICc3LjAnLCAnLXRuJywgJzgnLCAnLW1hJywgJzIwMCcsICctbWV0YWxfYmluZGluZycsICctaW1hZScsICc8aW5maWxlLm1hZT4nLCAnLW9tYWUnLCAnPG91dGZpbGUubWFlPic=

> <r_lp_tautomer_probability>
1

> <r_epik_Ionization_Penalty>
0.00274162

> <r_epik_Ionization_Penalty_Charging>
0.00243722

> <r_epik_Ionization_Penalty_Neutral>
0.000304399

> <r_epik_State_Penalty>
-0

> <r_epik_Charging_Adjusted_Penalty>
0.00243722

> <i_epik_Tot_Q>
1

> <i_epik_Tot_abs_Q>
1

> <r_epik_Metal_State_Penalty>
-0

> <b_epik_Metal_Only>
0

> <s_lp_Force_Field>
OPLS_2005

> <r_lp_Energy>
77.4951

> <b_lp_Chiralities_Consistent>
1

> <s_lp_Variant>
AV-unprocessed.smi:169-8

> <Gold.Version>
5.8.1

> <Gold.Id.Protein>
6NUR|6NUR_protein|mol2

> <Gold.PLP.Fitness>
37.6653

> <Gold.PLP.PLP>
-39.4607

> <Gold.PLP.part.hbond>
-2.7458

> <Gold.PLP.part.metal>
0.0000

> <Gold.PLP.part.buried>
-3.7090

> <Gold.PLP.part.nonpolar>
-32.6500

> <Gold.PLP.part.repulsive>
0.0575

> <Gold.PLP.ligand.clash>
0.0000

> <Gold.PLP.ligand.torsion>
1.1585

> <Gold.PLP.Chemscore.Hbond>
0.0000

> <Gold.PLP.Chemscore.CHOScore>
0.0000

> <Gold.PLP.Chemscore.Metal>
0.0000

> <Gold.PLP.Chemscore.Internal.Correction>
0.5215

> <Gold.Rescore>
     Score         DG    S(hbond)    S(metal)    S(lipo)     H(rot)  DE(clash)    DE(int)     intcor
      7.39      -9.91       0.00        0.00      95.23       2.62       0.33       2.18       ----

> <Gold.Chemscore.Fitness>
7.3947

> <Gold.Chemscore.DG>
-9.9113

> <Gold.Chemscore.ZeroCoef>
-5.4800

> <Gold.Chemscore.Hbond>
0.0000

> <Gold.Chemscore.Metal>
0.0000

> <Gold.Chemscore.Lipo>
95.2263

> <Gold.Chemscore.Internal_Hbond>
0.0000

> <Gold.Chemscore.DEClash>
0.3326

> <Gold.Chemscore.DEInternal>
2.1840

> <Gold.Chemscore.Rot>
2.6212

> <Gold.Chemscore.Internal.Correction>
   9.000000E+99

> <Gold.Chemscore.Hbond.Weighted>
-0.0000

> <Gold.Chemscore.Metal.Weighted>
-0.0000

> <Gold.Chemscore.Lipo.Weighted>
-11.1415

> <Gold.Chemscore.Internal_Hbond.Weighted>
0.0000

> <Gold.Chemscore.DEClash.Weighted>
0.3326

> <Gold.Chemscore.DEInternal.Weighted>
2.1840

> <Gold.Chemscore.Rot.Weighted>
6.7102

> <Gold.Chemscore.Internal.Correction.Weighted>
   9.000000E+99

> <Gold.Protein.RotatedTorsions>
[ 6907 6896 6895 6894 ] final   16.43 input  -60.11 | X-H torsion
[ 7974 7965 7964 7962 ] final  100.19 input  175.53 | X-H torsion
[ 8008 7997 7996 7995 ] final  -55.50 input   59.86 | X-H torsion
[ 10167 10162 10161 10158 ] final  150.01 input  -65.29 | X-H torsion
[ 10718 10713 10712 10709 ] final  -12.95 input   66.30 | X-H torsion
[ 10763 10752 10751 10750 ] final  -50.63 input  -60.55 | X-H torsion
[ 11005 11000 10999 10996 ] final  -23.68 input  -57.11 | X-H torsion

> <Gold.Protein.ActiveResidues>
 VAL166  LYS551  ARG553  GLY616  TRP617  ASP618  TYR619  PRO620  LYS621  CYS622 
 ASP623  PHE694  ASN695  SER759  ASP760  ASP761  ALA762  ILE779  LEU786  VAL792 
 PHE793  MET794  SER795  GLU796  ALA797  LYS798  CYS799  TRP800  GLU811  SER814 

> <Gold.Protein.RotatedAtoms>
  151.8337  135.0613  160.0439 H   0  0  0  0  0  0  0  0  0  0  0  0  # atno 6907 bound_to 6896
  152.2861  133.5512  159.5536 H   0  0  0  0  0  0  0  0  0  0  0  0  # atno 6908 bound_to 6896
  150.7210  134.0411  159.3808 H   0  0  0  0  0  0  0  0  0  0  0  0  # atno 6909 bound_to 6896
  145.3889  139.2366  143.3363 H   0  0  0  0  0  0  0  0  0  0  0  0  # atno 7974 bound_to 7965
  154.4197  140.1151  156.5486 H   0  0  0  0  0  0  0  0  0  0  0  0  # atno 8008 bound_to 7997
  155.6433  140.3496  155.4703 H   0  0  0  0  0  0  0  0  0  0  0  0  # atno 8009 bound_to 7997
  155.9853  140.1168  157.0679 H   0  0  0  0  0  0  0  0  0  0  0  0  # atno 8010 bound_to 7997
  139.4855  144.5556  151.7323 H   0  0  0  0  0  0  0  0  0  0  0  0  # atno 10167 bound_to 10162
  156.6372  130.4918  149.6108 H   0  0  0  0  0  0  0  0  0  0  0  0  # atno 10718 bound_to 10713
  154.1135  135.6545  153.4889 H   0  0  0  0  0  0  0  0  0  0  0  0  # atno 10763 bound_to 10752
  153.0248  135.5253  154.7168 H   0  0  0  0  0  0  0  0  0  0  0  0  # atno 10764 bound_to 10752
  154.6355  135.2981  155.0136 H   0  0  0  0  0  0  0  0  0  0  0  0  # atno 10765 bound_to 10752
  140.8775  133.7677  156.0261 H   0  0  0  0  0  0  0  0  0  0  0  0  # atno 11005 bound_to 11000
  146.2807  140.4568  142.8777 LP  0  0  0  0  0  0  0  0  0  0  0  0  # atno 17320 bound_to 7965
  144.8454  140.6922  143.6202 LP  0  0  0  0  0  0  0  0  0  0  0  0  # atno 17321 bound_to 7965
  140.5117  144.1015  150.5997 LP  0  0  0  0  0  0  0  0  0  0  0  0  # atno 17342 bound_to 10162
  140.3943  143.2736  152.0024 LP  0  0  0  0  0  0  0  0  0  0  0  0  # atno 17343 bound_to 10162
  156.2187  130.6724  151.1346 LP  0  0  0  0  0  0  0  0  0  0  0  0  # atno 17370 bound_to 10713
  157.7182  131.0697  150.6243 LP  0  0  0  0  0  0  0  0  0  0  0  0  # atno 17371 bound_to 10713
  140.8501  134.2964  157.5279 LP  0  0  0  0  0  0  0  0  0  0  0  0  # atno 17394 bound_to 11000
  139.8717  134.9463  156.3934 LP  0  0  0  0  0  0  0  0  0  0  0  0  # atno 17395 bound_to 11000

$$$$
