AV-unprocessed.smi:2244|AV-procd|sdf|9074|dock9
  -GOLD-   2272012283D 1   1.00000     0.00000
 Structure written by MMmdl.
 49 51  0  0  0  0  0  0  0  0  1 V2000
  153.8383  133.0680  165.1946 C   0  0  0  0  0  0  0  0  0  0  0  0
  155.0466  133.5360  164.3520 C   0  0  0  0  0  0  0  0  0  0  0  0
  156.2314  133.7442  165.3183 C   0  0  0  0  0  0  0  0  0  0  0  0
  155.3770  132.4106  163.3498 C   0  0  0  0  0  0  0  0  0  0  0  0
  154.7605  134.8420  163.5892 C   0  0  0  0  0  0  0  0  0  0  0  0
  154.3334  136.0307  164.2224 C   0  0  0  0  0  0  0  0  0  0  0  0
  154.0980  137.1548  163.4132 C   0  0  0  0  0  0  0  0  0  0  0  0
  154.3009  137.0414  162.0230 C   0  0  0  0  0  0  0  0  0  0  0  0
  154.0250  138.2256  161.2791 N   0  0  0  0  0  0  0  0  0  0  0  0
  154.0713  139.5293  161.6271 C   0  0  0  0  0  0  0  0  0  0  0  0
  154.4028  139.8696  162.7614 O   0  0  0  0  0  0  0  0  0  0  0  0
  153.7447  140.4130  160.6696 N   0  0  0  0  0  0  0  0  0  0  0  0
  153.7146  141.8638  160.8248 C   0  0  2  0  0  0  0  0  0  0  0  0
  153.0473  142.2515  162.1543 C   0  0  0  0  0  0  0  0  0  0  0  0
  152.8563  143.7739  162.2420 C   0  0  0  0  0  0  0  0  0  0  0  0
  152.1106  144.2385  161.1215 O   0  0  0  0  0  0  0  0  0  0  0  0
  152.7677  144.0103  159.8784 C   0  0  2  0  0  0  0  0  0  0  0  0
  151.9409  144.6496  158.7805 C   0  0  0  0  0  0  0  0  0  0  0  0
  150.7007  143.9671  158.2521 C   0  0  0  0  0  0  0  0  0  0  0  0
  151.9317  144.0727  157.3843 C   0  0  0  0  0  0  0  0  0  0  0  0
  152.9378  142.4957  159.6607 C   0  0  0  0  0  0  0  0  0  0  0  0
  154.7119  135.8651  161.4843 N   0  0  0  0  0  0  0  0  0  0  0  0
  154.9375  134.7916  162.2466 N   0  0  0  0  0  0  0  0  0  0  0  0
  154.0631  132.1433  165.7278 H   0  0  0  0  0  0  0  0  0  0  0  0
  152.9641  132.8714  164.5726 H   0  0  0  0  0  0  0  0  0  0  0  0
  153.5589  133.8081  165.9455 H   0  0  0  0  0  0  0  0  0  0  0  0
  156.0210  134.5388  166.0349 H   0  0  0  0  0  0  0  0  0  0  0  0
  157.1459  134.0130  164.7887 H   0  0  0  0  0  0  0  0  0  0  0  0
  156.4445  132.8377  165.8860 H   0  0  0  0  0  0  0  0  0  0  0  0
  155.5670  131.4661  163.8611 H   0  0  0  0  0  0  0  0  0  0  0  0
  156.2648  132.6401  162.7593 H   0  0  0  0  0  0  0  0  0  0  0  0
  154.5532  132.2474  162.6539 H   0  0  0  0  0  0  0  0  0  0  0  0
  154.1808  136.1043  165.2880 H   0  0  0  0  0  0  0  0  0  0  0  0
  153.7670  138.0835  163.8553 H   0  0  0  0  0  0  0  0  0  0  0  0
  153.7960  138.0624  160.3095 H   0  0  0  0  0  0  0  0  0  0  0  0
  153.4835  140.0483  159.7643 H   0  0  0  0  0  0  0  0  0  0  0  0
  154.7325  142.2578  160.8086 H   0  0  0  0  0  0  0  0  0  0  0  0
  152.0747  141.7639  162.2370 H   0  0  0  0  0  0  0  0  0  0  0  0
  153.6449  141.9016  162.9966 H   0  0  0  0  0  0  0  0  0  0  0  0
  152.3172  144.0311  163.1539 H   0  0  0  0  0  0  0  0  0  0  0  0
  153.8196  144.2842  162.2880 H   0  0  0  0  0  0  0  0  0  0  0  0
  153.7476  144.4918  159.8980 H   0  0  0  0  0  0  0  0  0  0  0  0
  151.8937  145.7351  158.8439 H   0  0  0  0  0  0  0  0  0  0  0  0
  150.4518  142.9864  158.6530 H   0  0  0  0  0  0  0  0  0  0  0  0
  149.8506  144.5974  157.9995 H   0  0  0  0  0  0  0  0  0  0  0  0
  151.9023  144.7734  156.5524 H   0  0  0  0  0  0  0  0  0  0  0  0
  152.5022  143.1629  157.2080 H   0  0  0  0  0  0  0  0  0  0  0  0
  153.4554  142.3075  158.7191 H   0  0  0  0  0  0  0  0  0  0  0  0
  151.9550  142.0290  159.5752 H   0  0  0  0  0  0  0  0  0  0  0  0
  1  2  1  0  0  0  0
  1 24  1  0  0  0  0
  1 25  1  0  0  0  0
  1 26  1  0  0  0  0
  2  3  1  0  0  0  0
  2  4  1  0  0  0  0
  2  5  1  0  0  0  0
  3 27  1  0  0  0  0
  3 28  1  0  0  0  0
  3 29  1  0  0  0  0
  4 30  1  0  0  0  0
  4 31  1  0  0  0  0
  4 32  1  0  0  0  0
  5 23  1  0  0  0  0
  5  6  2  0  0  0  0
  6  7  1  0  0  0  0
  6 33  1  0  0  0  0
  7  8  2  0  0  0  0
  7 34  1  0  0  0  0
  8  9  1  0  0  0  0
  8 22  1  0  0  0  0
  9 10  1  0  0  0  0
  9 35  1  0  0  0  0
 10 11  2  0  0  0  0
 10 12  1  0  0  0  0
 12 13  1  0  0  0  0
 12 36  1  0  0  0  0
 13 21  1  0  0  0  0
 13 14  1  0  0  0  0
 13 37  1  0  0  0  0
 14 15  1  0  0  0  0
 14 38  1  0  0  0  0
 14 39  1  0  0  0  0
 15 16  1  0  0  0  0
 15 40  1  0  0  0  0
 15 41  1  0  0  0  0
 16 17  1  0  0  0  0
 17 18  1  0  0  0  0
 17 21  1  0  0  0  0
 17 42  1  0  0  0  0
 18 20  1  0  0  0  0
 18 19  1  0  0  0  0
 18 43  1  0  0  0  0
 19 20  1  0  0  0  0
 19 44  1  0  0  0  0
 19 45  1  0  0  0  0
 20 46  1  0  0  0  0
 20 47  1  0  0  0  0
 21 48  1  0  0  0  0
 21 49  1  0  0  0  0
 22 23  2  0  0  0  0
M  END
> <s_m_source_file>
AV-unprocessed.smi

> <i_m_source_file_index>
2244

> <i_lp_mmshare_version>
43012

> <i_f3d_flags>
0

> <s_epik_input>
W0NIM11DKFtDSDNdKShbQ0gzXSljMVtjSF1bY0hdYyhubjEpW05IXUMoPU8pW05IXVtDQEBIXTJbQ0gyXVtDSDJdT1tDQEhdKFtDSDJdMilbQ0hdM1tDSDJdW0NIMl0z

> <s_epik_cmdline>
J2VwaWtfcHl0aG9uJywgJy1waCcsICc3LjAnLCAnLXRuJywgJzgnLCAnLW1hJywgJzIwMCcsICctbWV0YWxfYmluZGluZycsICctaW1hZScsICc8aW5maWxlLm1hZT4nLCAnLW9tYWUnLCAnPG91dGZpbGUubWFlPic=

> <r_lp_tautomer_probability>
1

> <r_epik_Ionization_Penalty>
0.011369

> <r_epik_Ionization_Penalty_Charging>
0

> <r_epik_Ionization_Penalty_Neutral>
0.011369

> <r_epik_State_Penalty>
0.00456331

> <r_epik_Charging_Adjusted_Penalty>
0.00456331

> <i_epik_Tot_Q>
0

> <i_epik_Tot_abs_Q>
0

> <r_epik_Metal_State_Penalty>
-0

> <b_epik_Metal_Only>
0

> <s_lp_Force_Field>
OPLS_2005

> <r_lp_Energy>
27.8211

> <b_lp_Chiralities_Consistent>
1

> <s_lp_Variant>
AV-unprocessed.smi:2244-3

> <Gold.Version>
5.8.1

> <Gold.Id.Protein>
6NUR|6NUR_protein|mol2

> <Gold.PLP.Fitness>
46.6871

> <Gold.PLP.PLP>
-47.5155

> <Gold.PLP.part.hbond>
0.0000

> <Gold.PLP.part.metal>
0.0000

> <Gold.PLP.part.buried>
-4.6949

> <Gold.PLP.part.nonpolar>
-42.3363

> <Gold.PLP.part.repulsive>
0.2167

> <Gold.PLP.ligand.clash>
0.0000

> <Gold.PLP.ligand.torsion>
0.9540

> <Gold.PLP.Chemscore.Hbond>
0.0000

> <Gold.PLP.Chemscore.CHOScore>
0.0000

> <Gold.PLP.Chemscore.Metal>
0.0000

> <Gold.PLP.Chemscore.Internal.Correction>
1.0796

> <Gold.Rescore>
     Score         DG    S(hbond)    S(metal)    S(lipo)     H(rot)  DE(clash)    DE(int)     intcor
     14.04     -18.86       0.00        0.00     142.82       1.30       1.15       3.67       ----

> <Gold.Chemscore.Fitness>
14.0414

> <Gold.Chemscore.DG>
-18.8610

> <Gold.Chemscore.ZeroCoef>
-5.4800

> <Gold.Chemscore.Hbond>
0.0000

> <Gold.Chemscore.Metal>
0.0000

> <Gold.Chemscore.Lipo>
142.8156

> <Gold.Chemscore.Internal_Hbond>
0.0000

> <Gold.Chemscore.DEClash>
1.1471

> <Gold.Chemscore.DEInternal>
3.6725

> <Gold.Chemscore.Rot>
1.3002

> <Gold.Chemscore.Internal.Correction>
   9.000000E+99

> <Gold.Chemscore.Hbond.Weighted>
-0.0000

> <Gold.Chemscore.Metal.Weighted>
-0.0000

> <Gold.Chemscore.Lipo.Weighted>
-16.7094

> <Gold.Chemscore.Internal_Hbond.Weighted>
0.0000

> <Gold.Chemscore.DEClash.Weighted>
1.1471

> <Gold.Chemscore.DEInternal.Weighted>
3.6725

> <Gold.Chemscore.Rot.Weighted>
3.3284

> <Gold.Chemscore.Internal.Correction.Weighted>
   9.000000E+99

> <Gold.Protein.RotatedTorsions>
[ 6907 6896 6895 6894 ] final -171.13 input  -60.11 | X-H torsion
[ 7974 7965 7964 7962 ] final   31.41 input  175.53 | X-H torsion
[ 8008 7997 7996 7995 ] final   13.56 input   59.86 | X-H torsion
[ 10167 10162 10161 10158 ] final  -34.81 input  -65.29 | X-H torsion
[ 10718 10713 10712 10709 ] final    6.82 input   66.30 | X-H torsion
[ 10763 10752 10751 10750 ] final -149.58 input  -60.55 | X-H torsion
[ 11005 11000 10999 10996 ] final  174.85 input  -57.11 | X-H torsion

> <Gold.Protein.ActiveResidues>
 VAL166  LYS551  ARG553  GLY616  TRP617  ASP618  TYR619  PRO620  LYS621  CYS622 
 ASP623  PHE694  ASN695  SER759  ASP760  ASP761  ALA762  ILE779  LEU786  VAL792 
 PHE793  MET794  SER795  GLU796  ALA797  LYS798  CYS799  TRP800  GLU811  SER814 

> <Gold.Protein.RotatedAtoms>
  151.5189  133.3470  159.2897 H   0  0  0  0  0  0  0  0  0  0  0  0  # atno 6907 bound_to 6896
  150.8665  134.8032  159.7133 H   0  0  0  0  0  0  0  0  0  0  0  0  # atno 6908 bound_to 6896
  152.4668  134.5066  159.9793 H   0  0  0  0  0  0  0  0  0  0  0  0  # atno 6909 bound_to 6896
  146.1551  139.6660  142.9072 H   0  0  0  0  0  0  0  0  0  0  0  0  # atno 7974 bound_to 7965
  154.8362  140.2907  155.5689 H   0  0  0  0  0  0  0  0  0  0  0  0  # atno 8008 bound_to 7997
  156.3009  140.2522  156.3227 H   0  0  0  0  0  0  0  0  0  0  0  0  # atno 8009 bound_to 7997
  154.9176  140.0387  157.1970 H   0  0  0  0  0  0  0  0  0  0  0  0  # atno 8010 bound_to 7997
  140.7178  143.3521  151.2133 H   0  0  0  0  0  0  0  0  0  0  0  0  # atno 10167 bound_to 10162
  156.9278  130.5815  149.5649 H   0  0  0  0  0  0  0  0  0  0  0  0  # atno 10718 bound_to 10713
  154.8169  135.3305  154.7151 H   0  0  0  0  0  0  0  0  0  0  0  0  # atno 10763 bound_to 10752
  153.7790  135.6920  153.4896 H   0  0  0  0  0  0  0  0  0  0  0  0  # atno 10764 bound_to 10752
  153.1993  135.4522  155.0194 H   0  0  0  0  0  0  0  0  0  0  0  0  # atno 10765 bound_to 10752
  140.3558  134.7155  157.4298 H   0  0  0  0  0  0  0  0  0  0  0  0  # atno 11005 bound_to 11000
  145.4727  141.0436  143.2689 LP  0  0  0  0  0  0  0  0  0  0  0  0  # atno 17320 bound_to 7965
  144.7953  139.6246  143.7095 LP  0  0  0  0  0  0  0  0  0  0  0  0  # atno 17321 bound_to 7965
  139.7055  143.9463  152.2924 LP  0  0  0  0  0  0  0  0  0  0  0  0  # atno 17342 bound_to 10162
  139.9170  144.6822  150.8501 LP  0  0  0  0  0  0  0  0  0  0  0  0  # atno 17343 bound_to 10162
  156.0461  130.5537  150.8883 LP  0  0  0  0  0  0  0  0  0  0  0  0  # atno 17370 bound_to 10713
  157.5866  131.0945  150.9186 LP  0  0  0  0  0  0  0  0  0  0  0  0  # atno 17371 bound_to 10713
  140.0666  134.5921  155.8688 LP  0  0  0  0  0  0  0  0  0  0  0  0  # atno 17394 bound_to 11000
  141.1999  133.6609  156.5866 LP  0  0  0  0  0  0  0  0  0  0  0  0  # atno 17395 bound_to 11000

$$$$
