#       Name:                AV-unprocessed.smi:548
#       Creating user name   scv26
#       Creation time:       Thu Mar 26 23:38:46 2020


#       File generated by GOLD software.
#

@<TRIPOS>MOLECULE
AV-unprocessed.smi:548
    29    29     1
SMALL
NO_CHARGES


@<TRIPOS>ATOM
      1 ****        -2.0377  -0.7181  -1.2722 C.3            1 S1                 0.0000
      2 ****        -1.5373  -0.0068   0.0092 C.3            1 S1                 0.0000
      3 ****        -2.0389   1.4582  -0.0055 C.3            1 S1                 0.0000
      4 ****        -2.1357  -0.7295   1.2491 C.2            1 S1                 0.0000
      5 ****        -2.3495  -0.0496   2.2782 O.co2          1 S1                 0.0000
      6 ****        -2.3404  -1.9619   1.1680 O.co2          1 S1                -1.0000
      7 ****         0.0084  -0.0321   0.0551 C.ar           1 S1                 0.0000
      8 ****         0.7713  -0.6303   1.0934 C.ar           1 S1                 0.0000
      9 ****         2.1778  -0.5937   1.0318 C.ar           1 S1                 0.0000
     10 ****         2.7868   0.0406  -0.0667 C.ar           1 S1                 0.0000
     11 ****         4.1750   0.0965  -0.1620 N.pl3          1 S1                 0.0000
     12 ****         2.0859   0.6154  -1.0633 N.ar           1 S1                 0.0000
     13 ****         0.7381   0.5751  -0.9952 C.ar           1 S1                 0.0000
     14 ****        -1.6434  -1.7320  -1.3528 H              1 S1                 0.0000
     15 ****        -1.7357  -0.1861  -2.1744 H              1 S1                 0.0000
     16 ****        -3.1266  -0.7835  -1.2933 H              1 S1                 0.0000
     17 ****        -1.6466   2.0289   0.8376 H              1 S1                 0.0000
     18 ****        -3.1279   1.5079   0.0387 H              1 S1                 0.0000
     19 ****        -1.7352   1.9804  -0.9127 H              1 S1                 0.0000
     20 ****         0.3173  -1.1197   1.9413 H              1 S1                 0.0000
     21 ****         2.7704  -1.0446   1.8141 H              1 S1                 0.0000
     22 ****         4.7694  -0.3111   0.5449 H              1 S1                 0.0000
     23 ****         4.6289   0.5457  -0.9441 H              1 S1                 0.0000
     24 ****         0.2264   1.0504  -1.8185 H              1 S1                 0.0000
     25 ****        -2.7058  -0.4891   3.1027 LP             1 S1                 0.0000
     26 ****        -2.1640   0.9330   2.2757 LP             1 S1                 0.0000
     27 ****        -2.6964  -2.4626   1.9570 LP             1 S1                 0.0000
     28 ****        -2.1479  -2.4456   0.3142 LP             1 S1                 0.0000
     29 ****         2.5499   1.0585  -1.8304 LP             1 S1                 0.0000
@<TRIPOS>BOND
    1    1    2 1     
    2    1   14 1     
    3    1   15 1     
    4    1   16 1     
    5    2    3 1     
    6    2    4 1     
    7    2    7 1     
    8    3   17 1     
    9    3   18 1     
   10    3   19 1     
   11    4    5 ar    
   12    4    6 ar    
   13    7   13 ar    
   14    7    8 ar    
   15    8    9 ar    
   16    8   20 1     
   17    9   10 ar    
   18    9   21 1     
   19   10   11 1     
   20   10   12 ar    
   21   11   22 1     
   22   11   23 1     
   23   12   13 ar    
   24   13   24 1     
   25    5   25 1     
   26    5   26 1     
   27    6   27 1     
   28    6   28 1     
   29   12   29 1     
@<TRIPOS>SUBSTRUCTURE
      1 S1             1
@<TRIPOS>SET
LONE_PAIRS      STATIC     ATOMS    <user>   **** ""
5 25 26 27 28 29
DONOR_HYDROGENS      STATIC     ATOMS    <user>   **** ""
2 22 23
ATOM$BLUE        STATIC     ATOMS    COLORGROUP SYSTEM
5 25 26 27 28 29
ATOM$RED        STATIC     ATOMS    COLORGROUP SYSTEM
2 22 23
