#       Name:                AV-unprocessed.smi:2963
#       Creating user name   scv26
#       Creation time:       Fri Mar 27 16:22:35 2020


#       File generated by GOLD software.
#

@<TRIPOS>MOLECULE
AV-unprocessed.smi:2963
    48    50     1
SMALL
NO_CHARGES


@<TRIPOS>ATOM
      1 ****        -5.1415   1.8149   2.7010 C.3            1 S1                 0.0000
      2 ****        -4.4673   1.9614   1.4612 O.3            1 S1                 0.0000
      3 ****        -3.0548   1.8481   1.5530 C.3            1 S1                 0.0000
      4 ****        -2.6077   0.3827   1.6915 C.3            1 S1                 0.0000
      5 ****        -1.1466   0.2518   1.6231 N.pl3          1 S1                 0.0000
      6 ****        -0.3318  -0.0561   0.5754 C.2            1 S1                 0.0000
      7 ****        -0.8414  -0.3980  -1.0786 S.3            1 S1                 0.0000
      8 ****         0.6842  -0.7605  -1.9998 C.3            1 S1                 0.0000
      9 ****         0.4769  -1.0149  -3.5027 C.2            1 S1                 0.0000
     10 ****        -0.6620  -0.9169  -3.9665 O.2            1 S1                 0.0000
     11 ****         1.5711  -1.3316  -4.2462 N.am           1 S1                 0.0000
     12 ****         2.9186  -1.4551  -3.6873 C.3            1 S1                 0.0000
     13 ****         3.7932  -1.8102  -4.8850 C.3            1 S1                 0.0000
     14 ****         2.8325  -1.8456  -5.9593 N.am           1 S1                 0.0000
     15 ****         1.5820  -1.5734  -5.5792 C.2            1 S1                 0.0000
     16 ****         0.6256  -1.5554  -6.3547 O.2            1 S1                 0.0000
     17 ****         0.9513  -0.0432   1.0329 N.pl3          1 S1                 1.0000
     18 ****         0.9591   0.2848   2.3898 C.ar           1 S1                 0.0000
     19 ****         2.0128   0.4284   3.2873 C.ar           1 S1                 0.0000
     20 ****         1.6736   0.7789   4.6108 C.ar           1 S1                 0.0000
     21 ****         0.3317   0.9715   4.9990 C.ar           1 S1                 0.0000
     22 ****        -0.7289   0.8222   4.0811 C.ar           1 S1                 0.0000
     23 ****        -0.3849   0.4760   2.7749 C.ar           1 S1                 0.0000
     24 ****        -6.2099   1.9710   2.5523 H              1 S1                 0.0000
     25 ****        -4.7951   2.5499   3.4288 H              1 S1                 0.0000
     26 ****        -5.0091   0.8175   3.1196 H              1 S1                 0.0000
     27 ****        -2.6375   2.2608   0.6338 H              1 S1                 0.0000
     28 ****        -2.6697   2.4614   2.3691 H              1 S1                 0.0000
     29 ****        -2.9513  -0.0630   2.6249 H              1 S1                 0.0000
     30 ****        -3.0351  -0.2161   0.8868 H              1 S1                 0.0000
     31 ****         1.3638   0.0827  -1.8733 H              1 S1                 0.0000
     32 ****         1.1502  -1.6335  -1.5428 H              1 S1                 0.0000
     33 ****         3.2453  -0.5185  -3.2329 H              1 S1                 0.0000
     34 ****         2.9602  -2.2423  -2.9328 H              1 S1                 0.0000
     35 ****         4.5556  -1.0541  -5.0766 H              1 S1                 0.0000
     36 ****         4.2753  -2.7816  -4.7692 H              1 S1                 0.0000
     37 ****         3.0950  -2.0575  -6.9113 H              1 S1                 0.0000
     38 ****         3.0422   0.2832   2.9937 H              1 S1                 0.0000
     39 ****         2.4587   0.9032   5.3428 H              1 S1                 0.0000
     40 ****         0.1110   1.2407   6.0218 H              1 S1                 0.0000
     41 ****        -1.7536   0.9746   4.3873 H              1 S1                 0.0000
     42 ****         1.7592  -0.2393   0.4565 H              1 S1                 0.0000
     43 ****        -4.6866   2.8633   1.0890 LP             1 S1                 0.0000
     44 ****        -4.7994   1.2538   0.8375 LP             1 S1                 0.0000
     45 ****        -1.4265  -0.6765  -3.3683 LP             1 S1                 0.0000
     46 ****        -0.8208  -1.0778  -4.9406 LP             1 S1                 0.0000
     47 ****        -0.2904  -1.3431  -6.0141 LP             1 S1                 0.0000
     48 ****         0.7649  -1.7530  -7.3250 LP             1 S1                 0.0000
@<TRIPOS>BOND
    1    1    2 1     
    2    1   24 1     
    3    1   25 1     
    4    1   26 1     
    5    2    3 1     
    6    3    4 1     
    7    3   27 1     
    8    3   28 1     
    9    4    5 1     
   10    4   29 1     
   11    4   30 1     
   12    5   23 1     
   13    5    6 1     
   14    6    7 1     
   15    6   17 2     
   16    7    8 1     
   17    8    9 1     
   18    8   31 1     
   19    8   32 1     
   20    9   10 2     
   21    9   11 am    
   22   11   15 am    
   23   11   12 1     
   24   12   13 1     
   25   12   33 1     
   26   12   34 1     
   27   13   14 1     
   28   13   35 1     
   29   13   36 1     
   30   14   15 am    
   31   14   37 1     
   32   15   16 2     
   33   17   18 1     
   34   17   42 1     
   35   18   23 ar    
   36   18   19 ar    
   37   19   20 ar    
   38   19   38 1     
   39   20   21 ar    
   40   20   39 1     
   41   21   22 ar    
   42   21   40 1     
   43   22   23 ar    
   44   22   41 1     
   45    2   43 1     
   46    2   44 1     
   47   10   45 1     
   48   10   46 1     
   49   16   47 1     
   50   16   48 1     
@<TRIPOS>SUBSTRUCTURE
      1 S1             1
@<TRIPOS>SET
LONE_PAIRS      STATIC     ATOMS    <user>   **** ""
6 43 44 45 46 47 48
DONOR_HYDROGENS      STATIC     ATOMS    <user>   **** ""
2 37 42
ATOM$BLUE        STATIC     ATOMS    COLORGROUP SYSTEM
6 43 44 45 46 47 48
ATOM$RED        STATIC     ATOMS    COLORGROUP SYSTEM
2 37 42
