AV-unprocessed.smi:1200|AV-procd|sdf|5026|dock2
  -GOLD-   22720 4 43D 1   1.00000     0.00000
 Structure written by MMmdl.
 42 43  0  0  0  0  0  0  0  0  3 V2000
  143.7694  143.3160  158.9915 C   0  0  0  0  0  0  0  0  0  0  0  0
  143.6590  142.6112  157.7196 N   0  5  0  0  0  0  0  0  0  0  0  0
  144.1187  143.1127  156.5420 C   0  0  0  0  0  0  0  0  0  0  0  0
  144.7298  144.1578  156.2947 O   0  0  0  0  0  0  0  0  0  0  0  0
  143.8119  142.1624  155.3787 C   0  0  0  0  0  0  0  0  0  0  0  0
  145.0745  141.7070  154.7457 N   0  3  2  0  0  0  0  0  0  0  0  0
  145.9082  140.8969  155.6689 C   0  0  0  0  0  0  0  0  0  0  0  0
  147.1342  140.3107  154.9453 C   0  0  0  0  0  0  0  0  0  0  0  0
  147.9787  141.3990  154.2602 C   0  0  2  0  0  0  0  0  0  0  0  0
  148.6940  142.1968  155.2559 N   0  0  0  0  0  0  0  0  0  0  0  0
  149.6802  141.7477  156.0458 C   0  0  0  0  0  0  0  0  0  0  0  0
  150.1094  140.5952  156.0048 O   0  0  0  0  0  0  0  0  0  0  0  0
  150.1341  142.7201  156.8551 N   0  0  0  0  0  0  0  0  0  0  0  0
  151.1574  142.6506  157.8392 C   0  0  0  0  0  0  0  0  0  0  0  0
  151.8169  143.7769  158.3886 C   0  0  0  0  0  0  0  0  0  0  0  0
  152.8275  143.5721  159.3477 C   0  0  0  0  0  0  0  0  0  0  0  0
  153.1476  142.2513  159.7170 C   0  0  0  0  0  0  0  0  0  0  0  0
  152.5373  141.1683  159.1920 N   0  0  0  0  0  0  0  0  0  0  0  0
  151.5695  141.3724  158.2730 C   0  0  0  0  0  0  0  0  0  0  0  0
  147.0769  142.2734  153.3668 C   0  0  0  0  0  0  0  0  0  0  0  0
  145.8556  142.8140  154.1310 C   0  0  0  0  0  0  0  0  0  0  0  0
  143.3146  142.7540  159.8070 H   0  0  0  0  0  0  0  0  0  0  0  0
  143.2769  144.2887  158.9739 H   0  0  0  0  0  0  0  0  0  0  0  0
  144.8063  143.4919  159.2790 H   0  0  0  0  0  0  0  0  0  0  0  0
  143.2020  141.3061  155.6757 H   0  0  0  0  0  0  0  0  0  0  0  0
  143.2171  142.7285  154.6605 H   0  0  0  0  0  0  0  0  0  0  0  0
  146.2210  141.5126  156.5136 H   0  0  0  0  0  0  0  0  0  0  0  0
  145.3139  140.0788  156.0775 H   0  0  0  0  0  0  0  0  0  0  0  0
  147.7459  139.7403  155.6454 H   0  0  0  0  0  0  0  0  0  0  0  0
  146.7930  139.5986  154.1927 H   0  0  0  0  0  0  0  0  0  0  0  0
  148.7196  140.9021  153.6311 H   0  0  0  0  0  0  0  0  0  0  0  0
  148.4093  143.1597  155.3578 H   0  0  0  0  0  0  0  0  0  0  0  0
  149.7330  143.6359  156.7159 H   0  0  0  0  0  0  0  0  0  0  0  0
  151.5819  144.7859  158.0885 H   0  0  0  0  0  0  0  0  0  0  0  0
  153.3487  144.4095  159.7871 H   0  0  0  0  0  0  0  0  0  0  0  0
  153.9179  142.0598  160.4492 H   0  0  0  0  0  0  0  0  0  0  0  0
  151.1045  140.4827  157.8740 H   0  0  0  0  0  0  0  0  0  0  0  0
  147.6454  143.0990  152.9373 H   0  0  0  0  0  0  0  0  0  0  0  0
  146.7289  141.6781  152.5215 H   0  0  0  0  0  0  0  0  0  0  0  0
  145.2295  143.3787  153.4397 H   0  0  0  0  0  0  0  0  0  0  0  0
  146.1726  143.5132  154.9064 H   0  0  0  0  0  0  0  0  0  0  0  0
  144.7963  141.0903  153.9955 H   0  0  0  0  0  0  0  0  0  0  0  0
  1  2  1  0  0  0  0
  1 22  1  0  0  0  0
  1 23  1  0  0  0  0
  1 24  1  0  0  0  0
  2  3  1  0  0  0  0
  3  4  2  0  0  0  0
  3  5  1  0  0  0  0
  5  6  1  0  0  0  0
  5 25  1  0  0  0  0
  5 26  1  0  0  0  0
  6 21  1  0  0  0  0
  6  7  1  0  0  0  0
  6 42  1  0  0  0  0
  7  8  1  0  0  0  0
  7 27  1  0  0  0  0
  7 28  1  0  0  0  0
  8  9  1  0  0  0  0
  8 29  1  0  0  0  0
  8 30  1  0  0  0  0
  9 10  1  0  0  0  0
  9 20  1  0  0  0  0
  9 31  1  0  0  0  0
 10 11  1  0  0  0  0
 10 32  1  0  0  0  0
 11 12  2  0  0  0  0
 11 13  1  0  0  0  0
 13 14  1  0  0  0  0
 13 33  1  0  0  0  0
 14 19  1  0  0  0  0
 14 15  2  0  0  0  0
 15 16  1  0  0  0  0
 15 34  1  0  0  0  0
 16 17  2  0  0  0  0
 16 35  1  0  0  0  0
 17 18  1  0  0  0  0
 17 36  1  0  0  0  0
 18 19  2  0  0  0  0
 19 37  1  0  0  0  0
 20 21  1  0  0  0  0
 20 38  1  0  0  0  0
 20 39  1  0  0  0  0
 21 40  1  0  0  0  0
 21 41  1  0  0  0  0
M  CHG  1   2  -1
M  CHG  1   6   1
M  END
> <s_m_source_file>
AV-unprocessed.smi

> <i_m_source_file_index>
1200

> <i_lp_mmshare_version>
43012

> <i_f3d_flags>
0

> <s_epik_input>
W0NIM11bTkhdQyg9TylbQ0gyXU4xW0NIMl1bQ0gyXVtDSF0oW0NIMl1bQ0gyXTEpW05IXUMoPU8pW05IXWMyW2NIXVtjSF1bY0hdbltjSF0y

> <s_epik_cmdline>
J2VwaWtfcHl0aG9uJywgJy1waCcsICc3LjAnLCAnLXRuJywgJzgnLCAnLW1hJywgJzIwMCcsICctbWV0YWxfYmluZGluZycsICctaW1hZScsICc8aW5maWxlLm1hZT4nLCAnLW9tYWUnLCAnPG91dGZpbGUubWFlPic=

> <r_epik_Ionization_Penalty>
6.14345

> <r_epik_Ionization_Penalty_Charging>
6.13946

> <r_epik_Ionization_Penalty_Neutral>
0.00398477

> <r_epik_State_Penalty>
6.94483

> <r_epik_Charging_Adjusted_Penalty>
13.0843

> <i_epik_Tot_Q>
0

> <i_epik_Tot_abs_Q>
2

> <r_epik_Metal_State_Penalty>
2.87819

> <b_epik_Metal_Only>
1

> <s_lp_Force_Field>
OPLS_2005

> <r_lp_Energy>
15.1129

> <b_lp_Chiralities_Consistent>
1

> <s_lp_Variant>
AV-unprocessed.smi:1200-5

> <Gold.Version>
5.8.1

> <Gold.Id.Protein>
6NUR|6NUR_protein|mol2

> <Gold.PLP.Fitness>
44.6590

> <Gold.PLP.PLP>
-32.8956

> <Gold.PLP.part.hbond>
-3.0000

> <Gold.PLP.part.metal>
0.0000

> <Gold.PLP.part.buried>
-5.5359

> <Gold.PLP.part.nonpolar>
-25.1239

> <Gold.PLP.part.repulsive>
0.3949

> <Gold.PLP.ligand.clash>
0.0000

> <Gold.PLP.ligand.torsion>
0.1408

> <Gold.PLP.Chemscore.Hbond>
4.0000

> <Gold.PLP.Chemscore.CHOScore>
0.0000

> <Gold.PLP.Chemscore.Metal>
0.0000

> <Gold.Chemscore.Hbonds>
donor molecule, donor type, donor heavy atom, donor atom, acceptor molecule, acceptor atom, score
      L1  H     6    42       P1 10175  2.00
      L1  H    10    32       P1  8028  0.96
      L1  H    13    33       P1  8028  0.98

> <Gold.PLP.Chemscore.Internal.Correction>
0.0450

> <Gold.Rescore>
     Score         DG    S(hbond)    S(metal)    S(lipo)     H(rot)  DE(clash)    DE(int)     intcor
     16.06     -20.13       2.80        0.00      81.03       1.63       1.29       2.78       ----

> <Gold.Chemscore.Fitness>
16.0570

> <Gold.Chemscore.DG>
-20.1271

> <Gold.Chemscore.ZeroCoef>
-5.4800

> <Gold.Chemscore.Hbond>
2.7978

> <Gold.Chemscore.Metal>
0.0000

> <Gold.Chemscore.Lipo>
81.0336

> <Gold.Chemscore.Internal_Hbond>
0.0000

> <Gold.Chemscore.DEClash>
1.2857

> <Gold.Chemscore.DEInternal>
2.7843

> <Gold.Chemscore.Rot>
1.6323

> <Gold.Chemscore.Internal.Correction>
   9.000000E+99

> <Gold.Chemscore.Hbonds>
donor molecule, donor type, donor heavy atom, donor atom, acceptor molecule, acceptor atom, score
      L1  H     6    42       P1 10175  0.76
      L1  H    10    32       P1  8028  0.91
      L1  H    13    33       P1  8028  0.93

> <Gold.Chemscore.Hbond.Weighted>
-9.3447

> <Gold.Chemscore.Metal.Weighted>
-0.0000

> <Gold.Chemscore.Lipo.Weighted>
-9.4809

> <Gold.Chemscore.Internal_Hbond.Weighted>
0.0000

> <Gold.Chemscore.DEClash.Weighted>
1.2857

> <Gold.Chemscore.DEInternal.Weighted>
2.7843

> <Gold.Chemscore.Rot.Weighted>
4.1786

> <Gold.Chemscore.Internal.Correction.Weighted>
   9.000000E+99

> <Gold.Protein.RotatedTorsions>
[ 6907 6896 6895 6894 ] final   37.50 input  -60.11 | X-H torsion
[ 7974 7965 7964 7962 ] final   84.51 input  175.53 | X-H torsion
[ 8008 7997 7996 7995 ] final  -16.53 input   59.86 | X-H torsion
[ 10167 10162 10161 10158 ] final -147.36 input  -65.29 | X-H torsion
[ 10718 10713 10712 10709 ] final  153.79 input   66.30 | X-H torsion
[ 10763 10752 10751 10750 ] final -100.07 input  -60.55 | X-H torsion
[ 11005 11000 10999 10996 ] final   51.51 input  -57.11 | X-H torsion

> <Gold.Protein.ActiveResidues>
 VAL166  LYS551  ARG553  GLY616  TRP617  ASP618  TYR619  PRO620  LYS621  CYS622 
 ASP623  PHE694  ASN695  SER759  ASP760  ASP761  ALA762  ILE779  LEU786  VAL792 
 PHE793  MET794  SER795  GLU796  ALA797  LYS798  CYS799  TRP800  GLU811  SER814 

> <Gold.Protein.RotatedAtoms>
  152.1440  134.9040  160.0551 H   0  0  0  0  0  0  0  0  0  0  0  0  # atno 6907 bound_to 6896
  152.0097  133.3852  159.4223 H   0  0  0  0  0  0  0  0  0  0  0  0  # atno 6908 bound_to 6896
  150.6868  134.3666  159.5017 H   0  0  0  0  0  0  0  0  0  0  0  0  # atno 6909 bound_to 6896
  145.5978  139.2347  143.2263 H   0  0  0  0  0  0  0  0  0  0  0  0  # atno 7974 bound_to 7965
  154.5046  140.2167  155.9277 H   0  0  0  0  0  0  0  0  0  0  0  0  # atno 8008 bound_to 7997
  156.1477  140.3167  155.8564 H   0  0  0  0  0  0  0  0  0  0  0  0  # atno 8009 bound_to 7997
  155.3999  140.0483  157.3028 H   0  0  0  0  0  0  0  0  0  0  0  0  # atno 8010 bound_to 7997
  139.7629  143.8350  152.2610 H   0  0  0  0  0  0  0  0  0  0  0  0  # atno 10167 bound_to 10162
  157.2401  131.0757  151.1798 H   0  0  0  0  0  0  0  0  0  0  0  0  # atno 10718 bound_to 10713
  154.7549  135.4948  153.9357 H   0  0  0  0  0  0  0  0  0  0  0  0  # atno 10763 bound_to 10752
  153.1185  135.6726  153.9384 H   0  0  0  0  0  0  0  0  0  0  0  0  # atno 10764 bound_to 10752
  153.9123  135.3097  155.3427 H   0  0  0  0  0  0  0  0  0  0  0  0  # atno 10765 bound_to 10752
  140.0926  134.5188  155.8837 H   0  0  0  0  0  0  0  0  0  0  0  0  # atno 11005 bound_to 11000
  146.1599  140.6804  142.9282 LP  0  0  0  0  0  0  0  0  0  0  0  0  # atno 17320 bound_to 7965
  144.7323  140.4707  143.6929 LP  0  0  0  0  0  0  0  0  0  0  0  0  # atno 17321 bound_to 7965
  139.8362  144.7231  150.9388 LP  0  0  0  0  0  0  0  0  0  0  0  0  # atno 17342 bound_to 10162
  140.7808  143.4025  151.1126 LP  0  0  0  0  0  0  0  0  0  0  0  0  # atno 17343 bound_to 10162
  157.3387  130.7022  149.6368 LP  0  0  0  0  0  0  0  0  0  0  0  0  # atno 17370 bound_to 10713
  155.9670  130.4286  150.4796 LP  0  0  0  0  0  0  0  0  0  0  0  0  # atno 17371 bound_to 10713
  141.2082  133.6672  156.6359 LP  0  0  0  0  0  0  0  0  0  0  0  0  # atno 17394 bound_to 11000
  140.3330  134.7912  157.4341 LP  0  0  0  0  0  0  0  0  0  0  0  0  # atno 17395 bound_to 11000

$$$$
