AV-unprocessed.smi:2368|AV-procd|sdf|9426|dock1
  -GOLD-   2272013 63D 1   1.00000     0.00000
 Structure written by MMmdl.
 35 36  0  0  0  0  0  0  0  0  1 V2000
  151.0957  140.6830  155.5569 C   0  0  0  0  0  0  0  0  0  0  0  0
  149.7459  140.4870  154.8923 C   0  0  0  0  0  0  0  0  0  0  0  0
  148.9663  141.5877  154.8170 N   0  0  0  0  0  0  0  0  0  0  0  0
  147.7529  141.4674  154.2409 C   0  0  0  0  0  0  0  0  0  0  0  0
  147.2625  140.2582  153.7121 C   0  0  0  0  0  0  0  0  0  0  0  0
  148.0833  139.1065  153.7741 C   0  0  0  0  0  0  0  0  0  0  0  0
  147.6800  137.8314  153.2877 N   0  0  0  0  0  0  0  0  0  0  0  0
  146.4556  137.2771  153.2980 C   0  0  0  0  0  0  0  0  0  0  0  0
  145.4391  137.7995  153.7553 O   0  0  0  0  0  0  0  0  0  0  0  0
  146.4675  136.0674  152.7205 N   0  0  0  0  0  0  0  0  0  0  0  0
  145.2972  135.2138  152.5496 C   0  0  1  0  0  0  0  0  0  0  0  0
  144.5215  135.6193  151.3253 C   0  0  0  0  0  0  0  0  0  0  0  0
  144.3789  134.6244  150.4522 C   0  0  0  0  0  0  0  0  0  0  0  0
  145.0491  133.3537  150.9069 C   0  0  2  0  0  0  0  0  0  0  0  0
  144.0956  132.1442  150.9439 C   0  0  0  0  0  0  0  0  0  0  0  0
  143.6060  131.8232  149.6568 O   0  0  0  0  0  0  0  0  0  0  0  0
  145.6654  133.7303  152.2795 C   0  0  0  0  0  0  0  0  0  0  0  0
  149.3508  139.2240  154.3919 C   0  0  0  0  0  0  0  0  0  0  0  0
  150.4014  137.8532  154.5259 Cl  0  0  0  0  0  0  0  0  0  0  0  0
  144.6386  135.2978  153.4160 H   0  0  0  0  0  0  0  0  0  0  0  0
  145.8535  133.1415  150.2017 H   0  0  0  0  0  0  0  0  0  0  0  0
  151.1924  140.0251  156.4206 H   0  0  0  0  0  0  0  0  0  0  0  0
  151.2296  141.7098  155.8999 H   0  0  0  0  0  0  0  0  0  0  0  0
  151.8992  140.4538  154.8565 H   0  0  0  0  0  0  0  0  0  0  0  0
  147.1500  142.3626  154.2055 H   0  0  0  0  0  0  0  0  0  0  0  0
  146.2720  140.2363  153.2848 H   0  0  0  0  0  0  0  0  0  0  0  0
  148.3962  137.3125  152.8009 H   0  0  0  0  0  0  0  0  0  0  0  0
  147.3449  135.7137  152.3683 H   0  0  0  0  0  0  0  0  0  0  0  0
  144.1216  136.6150  151.2017 H   0  0  0  0  0  0  0  0  0  0  0  0
  143.8543  134.6932  149.5106 H   0  0  0  0  0  0  0  0  0  0  0  0
  144.6100  131.2717  151.3477 H   0  0  0  0  0  0  0  0  0  0  0  0
  143.2511  132.3488  151.6023 H   0  0  0  0  0  0  0  0  0  0  0  0
  143.9531  132.4475  149.0380 H   0  0  0  0  0  0  0  0  0  0  0  0
  146.7458  133.5798  152.2572 H   0  0  0  0  0  0  0  0  0  0  0  0
  145.2831  133.0969  153.0809 H   0  0  0  0  0  0  0  0  0  0  0  0
  1  2  1  0  0  0  0
  1 22  1  0  0  0  0
  1 23  1  0  0  0  0
  1 24  1  0  0  0  0
  2 18  1  0  0  0  0
  2  3  2  0  0  0  0
  3  4  1  0  0  0  0
  4  5  2  0  0  0  0
  4 25  1  0  0  0  0
  5  6  1  0  0  0  0
  5 26  1  0  0  0  0
  6  7  1  0  0  0  0
  6 18  2  0  0  0  0
  7  8  1  0  0  0  0
  7 27  1  0  0  0  0
  8  9  2  0  0  0  0
  8 10  1  0  0  0  0
 10 11  1  0  0  0  0
 10 28  1  0  0  0  0
 11 20  1  0  0  0  0
 11 17  1  0  0  0  0
 11 12  1  0  0  0  0
 12 13  2  0  0  0  0
 12 29  1  0  0  0  0
 13 14  1  0  0  0  0
 13 30  1  0  0  0  0
 14 21  1  0  0  0  0
 14 15  1  0  0  0  0
 14 17  1  0  0  0  0
 15 16  1  0  0  0  0
 15 31  1  0  0  0  0
 15 32  1  0  0  0  0
 16 33  1  0  0  0  0
 17 34  1  0  0  0  0
 17 35  1  0  0  0  0
 18 19  1  0  0  0  0
M  END
> <s_m_source_file>
AV-unprocessed.smi

> <i_m_source_file_index>
2368

> <i_lp_mmshare_version>
43012

> <i_f3d_flags>
0

> <s_epik_input>
W0NIM11jMW5bY0hdW2NIXWMoYzFDbClbTkhdQyg9TylbTkhdW0NAQEhdMltDSF09W0NIXVtDQEBIXShbQ0gyXTIpW0NIMl1bT0hd

> <s_epik_cmdline>
J2VwaWtfcHl0aG9uJywgJy1waCcsICc3LjAnLCAnLXRuJywgJzgnLCAnLW1hJywgJzIwMCcsICctbWV0YWxfYmluZGluZycsICctaW1hZScsICc8aW5maWxlLm1hZT4nLCAnLW9tYWUnLCAnPG91dGZpbGUubWFlPic=

> <r_epik_Ionization_Penalty>
0.00964582

> <r_epik_Ionization_Penalty_Charging>
0

> <r_epik_Ionization_Penalty_Neutral>
0.00964582

> <r_epik_State_Penalty>
0.00730775

> <r_epik_Charging_Adjusted_Penalty>
0.00730775

> <i_epik_Tot_Q>
0

> <i_epik_Tot_abs_Q>
0

> <r_epik_Metal_State_Penalty>
0.00719079

> <b_epik_Metal_Only>
0

> <s_lp_Force_Field>
OPLS_2005

> <r_lp_Energy>
23.9809

> <b_lp_Chiralities_Consistent>
1

> <s_lp_Variant>
AV-unprocessed.smi:2368-2

> <Gold.Version>
5.8.1

> <Gold.Id.Protein>
6NUR|6NUR_protein|mol2

> <Gold.PLP.Fitness>
41.3369

> <Gold.PLP.PLP>
-33.7751

> <Gold.PLP.part.hbond>
-3.5779

> <Gold.PLP.part.metal>
0.0000

> <Gold.PLP.part.buried>
-3.9956

> <Gold.PLP.part.nonpolar>
-26.9784

> <Gold.PLP.part.repulsive>
0.3442

> <Gold.PLP.ligand.clash>
0.0000

> <Gold.PLP.ligand.torsion>
0.5464

> <Gold.PLP.Chemscore.Hbond>
2.8800

> <Gold.PLP.Chemscore.CHOScore>
0.0000

> <Gold.PLP.Chemscore.Metal>
0.0000

> <Gold.Chemscore.Hbonds>
donor molecule, donor type, donor heavy atom, donor atom, acceptor molecule, acceptor atom, score
      L1  H     7    27       P1  7948  0.99
      L1  H    10    28       P1  7948  0.86
      P1  H 10785 10796       L1    16  0.96

> <Gold.PLP.Chemscore.Internal.Correction>
0.0147

> <Gold.Rescore>
     Score         DG    S(hbond)    S(metal)    S(lipo)     H(rot)  DE(clash)    DE(int)     intcor
     18.00     -19.30       2.72        0.00      79.48       1.78       0.03       1.27       ----

> <Gold.Chemscore.Fitness>
18.0015

> <Gold.Chemscore.DG>
-19.3013

> <Gold.Chemscore.ZeroCoef>
-5.4800

> <Gold.Chemscore.Hbond>
2.7179

> <Gold.Chemscore.Metal>
0.0000

> <Gold.Chemscore.Lipo>
79.4827

> <Gold.Chemscore.Internal_Hbond>
0.0000

> <Gold.Chemscore.DEClash>
0.0335

> <Gold.Chemscore.DEInternal>
1.2664

> <Gold.Chemscore.Rot>
1.7796

> <Gold.Chemscore.Internal.Correction>
   9.000000E+99

> <Gold.Chemscore.Hbonds>
donor molecule, donor type, donor heavy atom, donor atom, acceptor molecule, acceptor atom, score
      L1  H     7    27       P1  7948  0.91
      L1  H    10    28       P1  7948  0.85
      P1  H 10785 10796       L1    16  0.68

> <Gold.Chemscore.Hbond.Weighted>
-9.0777

> <Gold.Chemscore.Metal.Weighted>
-0.0000

> <Gold.Chemscore.Lipo.Weighted>
-9.2995

> <Gold.Chemscore.Internal_Hbond.Weighted>
0.0000

> <Gold.Chemscore.DEClash.Weighted>
0.0335

> <Gold.Chemscore.DEInternal.Weighted>
1.2664

> <Gold.Chemscore.Rot.Weighted>
4.5558

> <Gold.Chemscore.Internal.Correction.Weighted>
   9.000000E+99

> <Gold.Protein.RotatedTorsions>
[ 6907 6896 6895 6894 ] final -114.31 input  -60.11 | X-H torsion
[ 7974 7965 7964 7962 ] final  -72.67 input  175.53 | X-H torsion
[ 8008 7997 7996 7995 ] final  -49.61 input   59.86 | X-H torsion
[ 10167 10162 10161 10158 ] final  178.59 input  -65.29 | X-H torsion
[ 10718 10713 10712 10709 ] final  -33.50 input   66.30 | X-H torsion
[ 10763 10752 10751 10750 ] final  110.54 input  -60.55 | X-H torsion
[ 11005 11000 10999 10996 ] final -126.69 input  -57.11 | X-H torsion

> <Gold.Protein.ActiveResidues>
 VAL166  LYS551  ARG553  GLY616  TRP617  ASP618  TYR619  PRO620  LYS621  CYS622 
 ASP623  PHE694  ASN695  SER759  ASP760  ASP761  ALA762  ILE779  LEU786  VAL792 
 PHE793  MET794  SER795  GLU796  ALA797  LYS798  CYS799  TRP800  GLU811  SER814 

> <Gold.Protein.RotatedAtoms>
  150.7893  133.8819  159.3288 H   0  0  0  0  0  0  0  0  0  0  0  0  # atno 6907 bound_to 6896
  151.6661  135.0981  160.0198 H   0  0  0  0  0  0  0  0  0  0  0  0  # atno 6908 bound_to 6896
  152.3964  133.6714  159.6315 H   0  0  0  0  0  0  0  0  0  0  0  0  # atno 6909 bound_to 6896
  145.6621  140.9249  143.0928 H   0  0  0  0  0  0  0  0  0  0  0  0  # atno 7974 bound_to 7965
  154.4047  140.1292  156.4531 H   0  0  0  0  0  0  0  0  0  0  0  0  # atno 8008 bound_to 7997
  155.7346  140.3491  155.5055 H   0  0  0  0  0  0  0  0  0  0  0  0  # atno 8009 bound_to 7997
  155.9095  140.1033  157.1280 H   0  0  0  0  0  0  0  0  0  0  0  0  # atno 8010 bound_to 7997
  139.5300  144.2662  152.0666 H   0  0  0  0  0  0  0  0  0  0  0  0  # atno 10167 bound_to 10162
  156.3619  130.4325  149.7617 H   0  0  0  0  0  0  0  0  0  0  0  0  # atno 10718 bound_to 10713
  153.4505  135.3745  155.2281 H   0  0  0  0  0  0  0  0  0  0  0  0  # atno 10763 bound_to 10752
  154.8756  135.3884  154.4044 H   0  0  0  0  0  0  0  0  0  0  0  0  # atno 10764 bound_to 10752
  153.4603  135.7086  153.6118 H   0  0  0  0  0  0  0  0  0  0  0  0  # atno 10765 bound_to 10752
  140.9661  134.0870  157.3919 H   0  0  0  0  0  0  0  0  0  0  0  0  # atno 11005 bound_to 11000
  144.7085  139.8462  143.7422 LP  0  0  0  0  0  0  0  0  0  0  0  0  # atno 17320 bound_to 7965
  146.1116  139.4122  143.0284 LP  0  0  0  0  0  0  0  0  0  0  0  0  # atno 17321 bound_to 7965
  140.2124  144.4549  150.6379 LP  0  0  0  0  0  0  0  0  0  0  0  0  # atno 17342 bound_to 10162
  140.6471  143.2216  151.6160 LP  0  0  0  0  0  0  0  0  0  0  0  0  # atno 17343 bound_to 10162
  156.4778  130.8027  151.3042 LP  0  0  0  0  0  0  0  0  0  0  0  0  # atno 17370 bound_to 10713
  157.7474  131.0015  150.2967 LP  0  0  0  0  0  0  0  0  0  0  0  0  # atno 17371 bound_to 10713
  139.8895  135.0105  156.6682 LP  0  0  0  0  0  0  0  0  0  0  0  0  # atno 17394 bound_to 11000
  140.7397  133.8988  155.8269 LP  0  0  0  0  0  0  0  0  0  0  0  0  # atno 17395 bound_to 11000

$$$$
