AV-unprocessed.smi:1921|AV-procd|sdf|7786|dock3
  -GOLD-   22720 9533D 1   1.00000     0.00000
 Structure written by MMmdl.
 27 28  0  0  0  0  0  0  0  0  1 V2000
  151.2701  142.0709  158.8309 C   0  0  0  0  0  0  0  0  0  0  0  0
  151.5941  142.9534  157.6175 C   0  0  1  0  0  0  0  0  0  0  0  0
  150.5092  142.8306  156.6489 N   0  0  0  0  0  0  0  0  0  0  0  0
  150.1338  141.6958  156.0408 C   0  0  0  0  0  0  0  0  0  0  0  0
  150.6727  140.6065  156.2394 O   0  0  0  0  0  0  0  0  0  0  0  0
  149.1060  141.9125  155.2016 N   0  0  0  0  0  0  0  0  0  0  0  0
  148.4290  140.9730  154.3807 C   0  0  0  0  0  0  0  0  0  0  0  0
  147.4107  141.2761  153.5670 N   0  0  0  0  0  0  0  0  0  0  0  0
  146.9378  140.1560  152.8788 C   0  0  0  0  0  0  0  0  0  0  0  0
  147.6120  138.9996  153.1831 C   0  0  0  0  0  0  0  0  0  0  0  0
  148.8745  139.2730  154.3540 S   0  0  0  0  0  0  0  0  0  0  0  0
  151.8625  144.3863  158.0467 C   0  0  0  0  0  0  0  0  0  0  0  0
  152.5095  144.7031  159.3746 C   0  0  0  0  0  0  0  0  0  0  0  0
  151.0525  145.0327  159.1457 C   0  0  0  0  0  0  0  0  0  0  0  0
  152.0831  142.0878  159.5572 H   0  0  0  0  0  0  0  0  0  0  0  0
  151.1188  141.0325  158.5338 H   0  0  0  0  0  0  0  0  0  0  0  0
  150.3654  142.4086  159.3377 H   0  0  0  0  0  0  0  0  0  0  0  0
  152.5069  142.5592  157.1663 H   0  0  0  0  0  0  0  0  0  0  0  0
  150.0082  143.6773  156.4228 H   0  0  0  0  0  0  0  0  0  0  0  0
  148.7661  142.8611  155.1444 H   0  0  0  0  0  0  0  0  0  0  0  0
  146.1151  140.2726  152.1890 H   0  0  0  0  0  0  0  0  0  0  0  0
  147.4430  138.0077  152.7910 H   0  0  0  0  0  0  0  0  0  0  0  0
  152.1306  145.0424  157.2204 H   0  0  0  0  0  0  0  0  0  0  0  0
  152.7356  143.8743  160.0423 H   0  0  0  0  0  0  0  0  0  0  0  0
  153.2161  145.5299  159.4026 H   0  0  0  0  0  0  0  0  0  0  0  0
  150.7864  146.0804  159.0231 H   0  0  0  0  0  0  0  0  0  0  0  0
  150.3142  144.4204  159.6600 H   0  0  0  0  0  0  0  0  0  0  0  0
  1  2  1  0  0  0  0
  1 15  1  0  0  0  0
  1 16  1  0  0  0  0
  1 17  1  0  0  0  0
  2  3  1  0  0  0  0
  2 12  1  0  0  0  0
  2 18  1  0  0  0  0
  3  4  1  0  0  0  0
  3 19  1  0  0  0  0
  4  5  2  0  0  0  0
  4  6  1  0  0  0  0
  6  7  1  0  0  0  0
  6 20  1  0  0  0  0
  7 11  1  0  0  0  0
  7  8  2  0  0  0  0
  8  9  1  0  0  0  0
  9 10  2  0  0  0  0
  9 21  1  0  0  0  0
 10 11  1  0  0  0  0
 10 22  1  0  0  0  0
 12 14  1  0  0  0  0
 12 13  1  0  0  0  0
 12 23  1  0  0  0  0
 13 14  1  0  0  0  0
 13 24  1  0  0  0  0
 13 25  1  0  0  0  0
 14 26  1  0  0  0  0
 14 27  1  0  0  0  0
M  END
> <s_m_source_file>
AV-unprocessed.smi

> <i_m_source_file_index>
1921

> <i_lp_mmshare_version>
43012

> <i_f3d_flags>
0

> <s_epik_input>
W0NIMl0xW0NIMl1bQ0hdMVtDQEhdKFtDSDNdKVtOSF1DKD1PKVtOSF1jMm5bY0hdW2NIXXMy

> <s_epik_cmdline>
J2VwaWtfcHl0aG9uJywgJy1waCcsICc3LjAnLCAnLXRuJywgJzgnLCAnLW1hJywgJzIwMCcsICctbWV0YWxfYmluZGluZycsICctaW1hZScsICc8aW5maWxlLm1hZT4nLCAnLW9tYWUnLCAnPG91dGZpbGUubWFlPic=

> <r_lp_tautomer_probability>
0.999

> <r_epik_Ionization_Penalty>
0.000426276

> <r_epik_Ionization_Penalty_Charging>
0

> <r_epik_Ionization_Penalty_Neutral>
0.000426276

> <r_epik_State_Penalty>
0.000177984

> <r_epik_Charging_Adjusted_Penalty>
0.000177984

> <i_epik_Tot_Q>
0

> <i_epik_Tot_abs_Q>
0

> <r_epik_Metal_State_Penalty>
-0

> <b_epik_Metal_Only>
0

> <s_lp_Force_Field>
OPLS_2005

> <r_lp_Energy>
11.4046

> <b_lp_Chiralities_Consistent>
1

> <s_lp_Variant>
AV-unprocessed.smi:1921-2

> <Gold.Version>
5.8.1

> <Gold.Id.Protein>
6NUR|6NUR_protein|mol2

> <Gold.PLP.Fitness>
42.2298

> <Gold.PLP.PLP>
-30.2488

> <Gold.PLP.part.hbond>
-2.0000

> <Gold.PLP.part.metal>
0.0000

> <Gold.PLP.part.buried>
-3.0765

> <Gold.PLP.part.nonpolar>
-25.3988

> <Gold.PLP.part.repulsive>
0.4255

> <Gold.PLP.ligand.clash>
0.0000

> <Gold.PLP.ligand.torsion>
0.5402

> <Gold.PLP.Chemscore.Hbond>
2.0000

> <Gold.PLP.Chemscore.CHOScore>
2.0000

> <Gold.PLP.Chemscore.Metal>
0.0000

> <Gold.Chemscore.Hbonds>
donor molecule, donor type, donor heavy atom, donor atom, acceptor molecule, acceptor atom, score
      L1  H     3    19       P1  8028  1.00
      L1  H     6    20       P1  8028  1.00
      L1  C     9    21       P1 10175  1.00
      L1  C    10    22       P1  7948  1.00

> <Gold.PLP.Chemscore.Internal.Correction>
1.0614

> <Gold.Rescore>
     Score         DG    S(hbond)    S(metal)    S(lipo)     H(rot)  DE(clash)    DE(int)     intcor
     15.90     -17.79       1.96        0.00      76.76       1.26       0.09       1.79       ----

> <Gold.Chemscore.Fitness>
15.9023

> <Gold.Chemscore.DG>
-17.7880

> <Gold.Chemscore.ZeroCoef>
-5.4800

> <Gold.Chemscore.Hbond>
1.9613

> <Gold.Chemscore.Metal>
0.0000

> <Gold.Chemscore.Lipo>
76.7565

> <Gold.Chemscore.Internal_Hbond>
0.0000

> <Gold.Chemscore.DEClash>
0.0914

> <Gold.Chemscore.DEInternal>
1.7942

> <Gold.Chemscore.Rot>
1.2591

> <Gold.Chemscore.Internal.Correction>
   9.000000E+99

> <Gold.Chemscore.Hbonds>
donor molecule, donor type, donor heavy atom, donor atom, acceptor molecule, acceptor atom, score
      L1  H     3    19       P1  8028  1.00
      L1  H     6    20       P1  8028  0.95

> <Gold.Chemscore.Hbond.Weighted>
-6.5508

> <Gold.Chemscore.Metal.Weighted>
-0.0000

> <Gold.Chemscore.Lipo.Weighted>
-8.9805

> <Gold.Chemscore.Internal_Hbond.Weighted>
0.0000

> <Gold.Chemscore.DEClash.Weighted>
0.0914

> <Gold.Chemscore.DEInternal.Weighted>
1.7942

> <Gold.Chemscore.Rot.Weighted>
3.2233

> <Gold.Chemscore.Internal.Correction.Weighted>
   9.000000E+99

> <Gold.Protein.RotatedTorsions>
[ 6907 6896 6895 6894 ] final   12.07 input  -60.11 | X-H torsion
[ 7974 7965 7964 7962 ] final  172.27 input  175.53 | X-H torsion
[ 8008 7997 7996 7995 ] final   61.82 input   59.86 | X-H torsion
[ 10167 10162 10161 10158 ] final   18.87 input  -65.29 | X-H torsion
[ 10718 10713 10712 10709 ] final  -89.28 input   66.30 | X-H torsion
[ 10763 10752 10751 10750 ] final   -2.64 input  -60.55 | X-H torsion
[ 11005 11000 10999 10996 ] final   66.28 input  -57.11 | X-H torsion

> <Gold.Protein.ActiveResidues>
 VAL166  LYS551  ARG553  GLY616  TRP617  ASP618  TYR619  PRO620  LYS621  CYS622 
 ASP623  PHE694  ASN695  SER759  ASP760  ASP761  ALA762  ILE779  LEU786  VAL792 
 PHE793  MET794  SER795  GLU796  ALA797  LYS798  CYS799  TRP800  GLU811  SER814 

> <Gold.Protein.RotatedAtoms>
  151.7645  135.0802  160.0350 H   0  0  0  0  0  0  0  0  0  0  0  0  # atno 6907 bound_to 6896
  152.3331  133.5976  159.5832 H   0  0  0  0  0  0  0  0  0  0  0  0  # atno 6908 bound_to 6896
  150.7434  133.9754  159.3601 H   0  0  0  0  0  0  0  0  0  0  0  0  # atno 6909 bound_to 6896
  144.7272  139.9474  143.6431 H   0  0  0  0  0  0  0  0  0  0  0  0  # atno 7974 bound_to 7965
  155.6044  140.3494  155.4603 H   0  0  0  0  0  0  0  0  0  0  0  0  # atno 8008 bound_to 7997
  156.0203  140.1252  157.0389 H   0  0  0  0  0  0  0  0  0  0  0  0  # atno 8009 bound_to 7997
  154.4313  140.1064  156.5940 H   0  0  0  0  0  0  0  0  0  0  0  0  # atno 8010 bound_to 7997
  140.5621  143.9317  150.6650 H   0  0  0  0  0  0  0  0  0  0  0  0  # atno 10167 bound_to 10162
  155.9984  130.4866  150.5147 H   0  0  0  0  0  0  0  0  0  0  0  0  # atno 10718 bound_to 10713
  153.3607  135.6990  153.6715 H   0  0  0  0  0  0  0  0  0  0  0  0  # atno 10763 bound_to 10752
  153.5405  135.3574  155.2716 H   0  0  0  0  0  0  0  0  0  0  0  0  # atno 10764 bound_to 10752
  154.8667  135.4202  154.2863 H   0  0  0  0  0  0  0  0  0  0  0  0  # atno 10765 bound_to 10752
  139.9842  134.6695  156.0207 H   0  0  0  0  0  0  0  0  0  0  0  0  # atno 11005 bound_to 11000
  146.0738  139.3726  143.0506 LP  0  0  0  0  0  0  0  0  0  0  0  0  # atno 17320 bound_to 7965
  145.7932  140.9805  143.1038 LP  0  0  0  0  0  0  0  0  0  0  0  0  # atno 17321 bound_to 7965
  140.2771  143.3415  152.1185 LP  0  0  0  0  0  0  0  0  0  0  0  0  # atno 17342 bound_to 10162
  139.5075  144.6833  151.5951 LP  0  0  0  0  0  0  0  0  0  0  0  0  # atno 17343 bound_to 10162
  157.3115  131.0665  151.1997 LP  0  0  0  0  0  0  0  0  0  0  0  0  # atno 17370 bound_to 10713
  157.2941  130.6811  149.6129 LP  0  0  0  0  0  0  0  0  0  0  0  0  # atno 17371 bound_to 10713
  141.1509  133.6548  156.4011 LP  0  0  0  0  0  0  0  0  0  0  0  0  # atno 17394 bound_to 11000
  140.5036  134.6462  157.5258 LP  0  0  0  0  0  0  0  0  0  0  0  0  # atno 17395 bound_to 11000

$$$$
