AV-unprocessed.smi:67|AV-procd|sdf|636|dock7
  -GOLD-   2262016533D 1   1.00000     0.00000
 Structure written by MMmdl.
 48 50  0  0  0  0  0  0  0  0  2 V2000
  148.1159  137.1080  153.9735 O   0  0  0  0  0  0  0  0  0  0  0  0
  147.0079  137.9831  154.0565 C   0  0  2  0  0  0  0  0  0  0  0  0
  147.5070  139.3610  154.5564 C   0  0  0  0  0  0  0  0  0  0  0  0
  148.7102  139.2417  155.4221 N   0  3  2  0  0  0  0  0  0  0  0  0
  148.4148  138.6524  156.7540 C   0  0  0  0  0  0  0  0  0  0  0  0
  149.7095  138.3497  157.5264 C   0  0  0  0  0  0  0  0  0  0  0  0
  150.5955  139.6091  157.6210 C   0  0  1  0  0  0  0  0  0  0  0  0
  151.7747  139.4550  158.4148 O   0  0  0  0  0  0  0  0  0  0  0  0
  152.3309  140.4770  159.1607 C   0  0  0  0  0  0  0  0  0  0  0  0
  153.3281  140.3340  160.1579 C   0  0  0  0  0  0  0  0  0  0  0  0
  153.8167  141.4597  160.8475 C   0  0  0  0  0  0  0  0  0  0  0  0
  153.3178  142.7419  160.5568 C   0  0  0  0  0  0  0  0  0  0  0  0
  152.3207  142.9051  159.5735 C   0  0  0  0  0  0  0  0  0  0  0  0
  151.7795  144.2890  159.2454 C   0  0  0  0  0  0  0  0  0  0  0  0
  152.3774  144.7435  158.1449 F   0  0  0  0  0  0  0  0  0  0  0  0
  150.4640  144.2445  159.0326 F   0  0  0  0  0  0  0  0  0  0  0  0
  152.0108  145.1427  160.2433 F   0  0  0  0  0  0  0  0  0  0  0  0
  151.8428  141.7711  158.8819 C   0  0  0  0  0  0  0  0  0  0  0  0
  150.8177  140.2876  156.2534 C   0  0  0  0  0  0  0  0  0  0  0  0
  149.4759  140.5107  155.5364 C   0  0  0  0  0  0  0  0  0  0  0  0
  145.8820  137.3871  154.9089 C   0  0  0  0  0  0  0  0  0  0  0  0
  144.6326  138.0342  154.3184 C   0  0  0  0  0  0  0  0  0  0  0  0
  144.8994  138.1651  152.8905 N   0  0  0  0  0  0  0  0  0  0  0  0
  146.3449  138.1019  152.6725 C   0  0  0  0  0  0  0  0  0  0  0  0
  148.2112  136.8230  153.0772 H   0  0  0  0  0  0  0  0  0  0  0  0
  147.7124  140.0199  153.7109 H   0  0  0  0  0  0  0  0  0  0  0  0
  146.7016  139.8506  155.1063 H   0  0  0  0  0  0  0  0  0  0  0  0
  147.7835  139.3365  157.3233 H   0  0  0  0  0  0  0  0  0  0  0  0
  147.8502  137.7270  156.6309 H   0  0  0  0  0  0  0  0  0  0  0  0
  149.4631  137.9984  158.5287 H   0  0  0  0  0  0  0  0  0  0  0  0
  150.2190  137.5232  157.0381 H   0  0  0  0  0  0  0  0  0  0  0  0
  150.0123  140.3251  158.2019 H   0  0  0  0  0  0  0  0  0  0  0  0
  153.7475  139.3798  160.4236 H   0  0  0  0  0  0  0  0  0  0  0  0
  154.5792  141.3389  161.6029 H   0  0  0  0  0  0  0  0  0  0  0  0
  153.7051  143.5971  161.0906 H   0  0  0  0  0  0  0  0  0  0  0  0
  151.0864  141.8925  158.1203 H   0  0  0  0  0  0  0  0  0  0  0  0
  151.3180  141.2458  156.3970 H   0  0  0  0  0  0  0  0  0  0  0  0
  151.4674  139.7078  155.6032 H   0  0  0  0  0  0  0  0  0  0  0  0
  149.6637  140.9228  154.5445 H   0  0  0  0  0  0  0  0  0  0  0  0
  148.8795  141.2479  156.0761 H   0  0  0  0  0  0  0  0  0  0  0  0
  145.8276  136.3072  154.7603 H   0  0  0  0  0  0  0  0  0  0  0  0
  145.9870  137.5648  155.9793 H   0  0  0  0  0  0  0  0  0  0  0  0
  143.7307  137.4528  154.5106 H   0  0  0  0  0  0  0  0  0  0  0  0
  144.4885  139.0220  154.7571 H   0  0  0  0  0  0  0  0  0  0  0  0
  144.5148  139.0346  152.5343 H   0  0  0  0  0  0  0  0  0  0  0  0
  146.7028  138.9689  152.1165 H   0  0  0  0  0  0  0  0  0  0  0  0
  146.5684  137.2226  152.0671 H   0  0  0  0  0  0  0  0  0  0  0  0
  149.3158  138.5831  154.9526 H   0  0  0  0  0  0  0  0  0  0  0  0
  1  2  1  0  0  0  0
  1 25  1  0  0  0  0
  2 24  1  0  0  0  0
  2  3  1  0  0  0  0
  2 21  1  0  0  0  0
  3  4  1  0  0  0  0
  3 26  1  0  0  0  0
  3 27  1  0  0  0  0
  4 20  1  0  0  0  0
  4  5  1  0  0  0  0
  4 48  1  0  0  0  0
  5  6  1  0  0  0  0
  5 28  1  0  0  0  0
  5 29  1  0  0  0  0
  6  7  1  0  0  0  0
  6 30  1  0  0  0  0
  6 31  1  0  0  0  0
  7  8  1  0  0  0  0
  7 19  1  0  0  0  0
  7 32  1  0  0  0  0
  8  9  1  0  0  0  0
  9 18  1  0  0  0  0
  9 10  2  0  0  0  0
 10 11  1  0  0  0  0
 10 33  1  0  0  0  0
 11 12  2  0  0  0  0
 11 34  1  0  0  0  0
 12 13  1  0  0  0  0
 12 35  1  0  0  0  0
 13 14  1  0  0  0  0
 13 18  2  0  0  0  0
 14 15  1  0  0  0  0
 14 16  1  0  0  0  0
 14 17  1  0  0  0  0
 18 36  1  0  0  0  0
 19 20  1  0  0  0  0
 19 37  1  0  0  0  0
 19 38  1  0  0  0  0
 20 39  1  0  0  0  0
 20 40  1  0  0  0  0
 21 22  1  0  0  0  0
 21 41  1  0  0  0  0
 21 42  1  0  0  0  0
 22 23  1  0  0  0  0
 22 43  1  0  0  0  0
 22 44  1  0  0  0  0
 23 24  1  0  0  0  0
 23 45  1  0  0  0  0
 24 46  1  0  0  0  0
 24 47  1  0  0  0  0
M  CHG  1   4   1
M  END
> <s_m_source_file>
AV-unprocessed.smi

> <i_m_source_file_index>
67

> <i_lp_mmshare_version>
43012

> <i_f3d_flags>
0

> <s_epik_input>
W0NIMl0xW05IXVtDSDJdW0NIMl1bQ0BAXTEoW09IXSlbQ0gyXU4yW0NIMl1bQ0gyXVtDSF0oW0NIMl1bQ0gyXTIpT2MzW2NIXVtjSF1bY0hdYyhDKEYpKEYpRilbY0hdMw==

> <s_epik_cmdline>
J2VwaWtfcHl0aG9uJywgJy1waCcsICc3LjAnLCAnLXRuJywgJzgnLCAnLW1hJywgJzIwMCcsICctbWV0YWxfYmluZGluZycsICctaW1hZScsICc8aW5maWxlLm1hZT4nLCAnLW9tYWUnLCAnPG91dGZpbGUubWFlPic=

> <r_epik_Ionization_Penalty>
2.37709

> <r_epik_Ionization_Penalty_Charging>
0.0305656

> <r_epik_Ionization_Penalty_Neutral>
2.34653

> <r_epik_State_Penalty>
2.56959

> <r_epik_Charging_Adjusted_Penalty>
2.60016

> <i_epik_Tot_Q>
1

> <i_epik_Tot_abs_Q>
1

> <r_epik_Metal_State_Penalty>
2.56925

> <b_epik_Metal_Only>
0

> <s_lp_Force_Field>
OPLS_2005

> <r_lp_Energy>
55.6007

> <b_lp_Chiralities_Consistent>
1

> <s_lp_Variant>
AV-unprocessed.smi:67-8

> <Gold.Version>
5.8.1

> <Gold.Id.Protein>
6NUR|6NUR_protein|mol2

> <Gold.PLP.Fitness>
47.6826

> <Gold.PLP.PLP>
-44.1241

> <Gold.PLP.part.hbond>
-1.9581

> <Gold.PLP.part.metal>
0.0000

> <Gold.PLP.part.buried>
-6.4448

> <Gold.PLP.part.nonpolar>
-36.2689

> <Gold.PLP.part.repulsive>
0.0074

> <Gold.PLP.ligand.clash>
0.0000

> <Gold.PLP.ligand.torsion>
2.0753

> <Gold.PLP.Chemscore.Hbond>
2.0000

> <Gold.PLP.Chemscore.CHOScore>
0.0000

> <Gold.PLP.Chemscore.Metal>
0.0000

> <Gold.Chemscore.Hbonds>
donor molecule, donor type, donor heavy atom, donor atom, acceptor molecule, acceptor atom, score
      L1  H     1    25       P1  7948  1.00
      L1  H    23    45       P1 10175  1.00

> <Gold.PLP.Chemscore.Internal.Correction>
1.7090

> <Gold.Rescore>
     Score         DG    S(hbond)    S(metal)    S(lipo)     H(rot)  DE(clash)    DE(int)     intcor
     16.90     -18.67       1.98        0.00     103.67       2.17       0.07       1.69       ----

> <Gold.Chemscore.Fitness>
16.9030

> <Gold.Chemscore.DG>
-18.6658

> <Gold.Chemscore.ZeroCoef>
-5.4800

> <Gold.Chemscore.Hbond>
1.9822

> <Gold.Chemscore.Metal>
0.0000

> <Gold.Chemscore.Lipo>
103.6690

> <Gold.Chemscore.Internal_Hbond>
0.0000

> <Gold.Chemscore.DEClash>
0.0724

> <Gold.Chemscore.DEInternal>
1.6904

> <Gold.Chemscore.Rot>
2.1734

> <Gold.Chemscore.Internal.Correction>
   9.000000E+99

> <Gold.Chemscore.Hbonds>
donor molecule, donor type, donor heavy atom, donor atom, acceptor molecule, acceptor atom, score
      L1  H     1    25       P1  7948  0.93
      L1  H    23    45       P1 10175  0.99

> <Gold.Chemscore.Hbond.Weighted>
-6.6205

> <Gold.Chemscore.Metal.Weighted>
-0.0000

> <Gold.Chemscore.Lipo.Weighted>
-12.1293

> <Gold.Chemscore.Internal_Hbond.Weighted>
0.0000

> <Gold.Chemscore.DEClash.Weighted>
0.0724

> <Gold.Chemscore.DEInternal.Weighted>
1.6904

> <Gold.Chemscore.Rot.Weighted>
5.5640

> <Gold.Chemscore.Internal.Correction.Weighted>
   9.000000E+99

> <Gold.Protein.RotatedTorsions>
[ 6907 6896 6895 6894 ] final  -49.04 input  -60.11 | X-H torsion
[ 7974 7965 7964 7962 ] final  -18.38 input  175.53 | X-H torsion
[ 8008 7997 7996 7995 ] final  157.47 input   59.86 | X-H torsion
[ 10167 10162 10161 10158 ] final -116.83 input  -65.29 | X-H torsion
[ 10718 10713 10712 10709 ] final  -56.43 input   66.30 | X-H torsion
[ 10763 10752 10751 10750 ] final  140.44 input  -60.55 | X-H torsion
[ 11005 11000 10999 10996 ] final -156.96 input  -57.11 | X-H torsion

> <Gold.Protein.ActiveResidues>
 VAL166  LYS551  ARG553  GLY616  TRP617  ASP618  TYR619  PRO620  LYS621  CYS622 
 ASP623  PHE694  ASN695  SER759  ASP760  ASP761  ALA762  ILE779  LEU786  VAL792 
 PHE793  MET794  SER795  GLU796  ALA797  LYS798  CYS799  TRP800  GLU811  SER814 

> <Gold.Protein.RotatedAtoms>
  150.8845  134.8240  159.7248 H   0  0  0  0  0  0  0  0  0  0  0  0  # atno 6907 bound_to 6896
  152.4798  134.4745  159.9656 H   0  0  0  0  0  0  0  0  0  0  0  0  # atno 6908 bound_to 6896
  151.4815  133.3506  159.2874 H   0  0  0  0  0  0  0  0  0  0  0  0  # atno 6909 bound_to 6896
  146.1895  140.3913  142.8463 H   0  0  0  0  0  0  0  0  0  0  0  0  # atno 7974 bound_to 7965
  156.2362  140.1884  156.7113 H   0  0  0  0  0  0  0  0  0  0  0  0  # atno 8008 bound_to 7997
  154.6111  140.0622  156.9521 H   0  0  0  0  0  0  0  0  0  0  0  0  # atno 8009 bound_to 7997
  155.2015  140.3292  155.4345 H   0  0  0  0  0  0  0  0  0  0  0  0  # atno 8010 bound_to 7997
  140.0749  143.4842  152.1959 H   0  0  0  0  0  0  0  0  0  0  0  0  # atno 10167 bound_to 10162
  156.1289  130.4160  150.0304 H   0  0  0  0  0  0  0  0  0  0  0  0  # atno 10718 bound_to 10713
  153.9228  135.2998  155.3447 H   0  0  0  0  0  0  0  0  0  0  0  0  # atno 10763 bound_to 10752
  154.7567  135.4954  153.9390 H   0  0  0  0  0  0  0  0  0  0  0  0  # atno 10764 bound_to 10752
  153.1133  135.6764  153.9566 H   0  0  0  0  0  0  0  0  0  0  0  0  # atno 10765 bound_to 10752
  140.6699  134.4258  157.5232 H   0  0  0  0  0  0  0  0  0  0  0  0  # atno 11005 bound_to 11000
  144.8459  140.6928  143.6199 LP  0  0  0  0  0  0  0  0  0  0  0  0  # atno 17320 bound_to 7965
  145.3837  139.1631  143.4266 LP  0  0  0  0  0  0  0  0  0  0  0  0  # atno 17321 bound_to 7965
  139.5814  144.7512  151.3631 LP  0  0  0  0  0  0  0  0  0  0  0  0  # atno 17342 bound_to 10162
  140.7107  143.7398  150.7562 LP  0  0  0  0  0  0  0  0  0  0  0  0  # atno 17343 bound_to 10162
  156.8221  130.9362  151.3641 LP  0  0  0  0  0  0  0  0  0  0  0  0  # atno 17370 bound_to 10713
  157.6469  130.8852  149.9556 LP  0  0  0  0  0  0  0  0  0  0  0  0  # atno 17371 bound_to 10713
  139.8985  134.8612  156.1999 LP  0  0  0  0  0  0  0  0  0  0  0  0  # atno 17394 bound_to 11000
  141.0400  133.6943  156.1581 LP  0  0  0  0  0  0  0  0  0  0  0  0  # atno 17395 bound_to 11000

$$$$
