AV-unprocessed.smi:2061|AV-procd|sdf|8374|dock2
  -GOLD-   2272011 53D 1   1.00000     0.00000
 Structure written by MMmdl.
 44 45  0  0  0  0  0  0  0  0  2 V2000
  146.1941  133.4546  162.4023 C   0  0  0  0  0  0  0  0  0  0  0  0
  146.8092  134.7202  161.9101 C   0  0  0  0  0  0  0  0  0  0  0  0
  146.9016  135.2853  160.6700 C   0  0  0  0  0  0  0  0  0  0  0  0
  147.6194  136.4882  160.9139 C   0  0  0  0  0  0  0  0  0  0  0  0
  147.9525  137.4080  159.9955 N   0  5  0  0  0  0  0  0  0  0  0  0
  149.0138  137.2046  159.1811 C   0  0  0  0  0  0  0  0  0  0  0  0
  149.5393  136.1191  158.9245 O   0  0  0  0  0  0  0  0  0  0  0  0
  149.4862  138.3301  158.6251 N   0  0  0  0  0  0  0  0  0  0  0  0
  150.6167  138.4408  157.7044 C   0  0  0  0  0  0  0  0  0  0  0  0
  150.8385  139.8900  157.1849 C   0  0  2  0  0  0  0  0  0  0  0  0
  151.8214  139.8542  155.9866 C   0  0  0  0  0  0  0  0  0  0  0  0
  151.2649  140.8334  158.2466 N   0  0  0  0  0  0  0  0  0  0  0  0
  152.4772  140.3870  158.9419 C   0  0  0  0  0  0  0  0  0  0  0  0
  152.9408  141.3696  160.0341 C   0  0  1  0  0  0  0  0  0  0  0  0
  154.2495  140.9246  160.6956 C   0  0  0  0  0  0  0  0  0  0  0  0
  153.1494  142.6499  159.4521 O   0  0  0  0  0  0  0  0  0  0  0  0
  151.9784  143.1661  158.8322 C   0  0  1  0  0  0  0  0  0  0  0  0
  152.3060  144.5519  158.2661 C   0  0  0  0  0  0  0  0  0  0  0  0
  151.5099  142.1874  157.7383 C   0  0  0  0  0  0  0  0  0  0  0  0
  147.9204  136.6472  162.1919 N   0  0  0  0  0  0  0  0  0  0  0  0
  147.4092  135.5147  162.8368 O   0  0  0  0  0  0  0  0  0  0  0  0
  145.1068  133.5103  162.3510 H   0  0  0  0  0  0  0  0  0  0  0  0
  146.4745  133.2573  163.4371 H   0  0  0  0  0  0  0  0  0  0  0  0
  146.5192  132.6077  161.7977 H   0  0  0  0  0  0  0  0  0  0  0  0
  146.5211  134.8996  159.7362 H   0  0  0  0  0  0  0  0  0  0  0  0
  149.0166  139.1902  158.8671 H   0  0  0  0  0  0  0  0  0  0  0  0
  151.4685  138.0969  158.2878 H   0  0  0  0  0  0  0  0  0  0  0  0
  150.5244  137.7508  156.8640 H   0  0  0  0  0  0  0  0  0  0  0  0
  149.8795  140.2356  156.7957 H   0  0  0  0  0  0  0  0  0  0  0  0
  151.5150  139.1442  155.2201 H   0  0  0  0  0  0  0  0  0  0  0  0
  152.8252  139.5755  156.3084 H   0  0  0  0  0  0  0  0  0  0  0  0
  151.8842  140.8102  155.4693 H   0  0  0  0  0  0  0  0  0  0  0  0
  152.3072  139.4290  159.4298 H   0  0  0  0  0  0  0  0  0  0  0  0
  153.2813  140.2373  158.2197 H   0  0  0  0  0  0  0  0  0  0  0  0
  152.1708  141.4497  160.8036 H   0  0  0  0  0  0  0  0  0  0  0  0
  154.1384  139.9481  161.1675 H   0  0  0  0  0  0  0  0  0  0  0  0
  154.5569  141.6324  161.4656 H   0  0  0  0  0  0  0  0  0  0  0  0
  155.0567  140.8544  159.9657 H   0  0  0  0  0  0  0  0  0  0  0  0
  151.1958  143.2730  159.5857 H   0  0  0  0  0  0  0  0  0  0  0  0
  151.4318  144.9980  157.7913 H   0  0  0  0  0  0  0  0  0  0  0  0
  153.0998  144.4957  157.5206 H   0  0  0  0  0  0  0  0  0  0  0  0
  152.6370  145.2276  159.0551 H   0  0  0  0  0  0  0  0  0  0  0  0
  152.2500  142.1514  156.9372 H   0  0  0  0  0  0  0  0  0  0  0  0
  150.6007  142.6063  157.3122 H   0  0  0  0  0  0  0  0  0  0  0  0
  1  2  1  0  0  0  0
  1 22  1  0  0  0  0
  1 23  1  0  0  0  0
  1 24  1  0  0  0  0
  2 21  1  0  0  0  0
  2  3  2  0  0  0  0
  3  4  1  0  0  0  0
  3 25  1  0  0  0  0
  4  5  1  0  0  0  0
  4 20  2  0  0  0  0
  5  6  1  0  0  0  0
  6  7  2  0  0  0  0
  6  8  1  0  0  0  0
  8  9  1  0  0  0  0
  8 26  1  0  0  0  0
  9 10  1  0  0  0  0
  9 27  1  0  0  0  0
  9 28  1  0  0  0  0
 10 11  1  0  0  0  0
 10 12  1  0  0  0  0
 10 29  1  0  0  0  0
 11 30  1  0  0  0  0
 11 31  1  0  0  0  0
 11 32  1  0  0  0  0
 12 19  1  0  0  0  0
 12 13  1  0  0  0  0
 13 14  1  0  0  0  0
 13 33  1  0  0  0  0
 13 34  1  0  0  0  0
 14 15  1  0  0  0  0
 14 16  1  0  0  0  0
 14 35  1  0  0  0  0
 15 36  1  0  0  0  0
 15 37  1  0  0  0  0
 15 38  1  0  0  0  0
 16 17  1  0  0  0  0
 17 18  1  0  0  0  0
 17 19  1  0  0  0  0
 17 39  1  0  0  0  0
 18 40  1  0  0  0  0
 18 41  1  0  0  0  0
 18 42  1  0  0  0  0
 19 43  1  0  0  0  0
 19 44  1  0  0  0  0
 20 21  1  0  0  0  0
M  CHG  1   5  -1
M  END
> <s_m_source_file>
AV-unprocessed.smi

> <i_m_source_file_index>
2061

> <i_lp_mmshare_version>
43012

> <i_f3d_flags>
0

> <s_epik_input>
W0NIM11jMVtjSF1jKG5vMSlbTkhdQyg9TylbTkhdW0NIMl1bQ0BIXShbQ0gzXSlOMltDSDJdW0NAQEhdKFtDSDNdKU9bQ0BASF0oW0NIM10pW0NIMl0y

> <s_epik_cmdline>
J2VwaWtfcHl0aG9uJywgJy1waCcsICc3LjAnLCAnLXRuJywgJzgnLCAnLW1hJywgJzIwMCcsICctbWV0YWxfYmluZGluZycsICctaW1hZScsICc8aW5maWxlLm1hZT4nLCAnLW9tYWUnLCAnPG91dGZpbGUubWFlPic=

> <r_epik_Ionization_Penalty>
6.88367

> <r_epik_Ionization_Penalty_Charging>
6.57198

> <r_epik_Ionization_Penalty_Neutral>
0.311681

> <r_epik_State_Penalty>
6.77619

> <r_epik_Charging_Adjusted_Penalty>
13.3482

> <i_epik_Tot_Q>
-1

> <i_epik_Tot_abs_Q>
1

> <r_epik_Metal_State_Penalty>
2.70524

> <b_epik_Metal_Only>
1

> <s_lp_Force_Field>
OPLS_2005

> <r_lp_Energy>
21.032

> <b_lp_Chiralities_Consistent>
1

> <s_lp_Variant>
AV-unprocessed.smi:2061-15

> <Gold.Version>
5.8.1

> <Gold.Id.Protein>
6NUR|6NUR_protein|mol2

> <Gold.PLP.Fitness>
49.2347

> <Gold.PLP.PLP>
-42.1606

> <Gold.PLP.part.hbond>
-4.0000

> <Gold.PLP.part.metal>
0.0000

> <Gold.PLP.part.buried>
-7.1091

> <Gold.PLP.part.nonpolar>
-32.6126

> <Gold.PLP.part.repulsive>
0.1980

> <Gold.PLP.ligand.clash>
0.0000

> <Gold.PLP.ligand.torsion>
0.9004

> <Gold.PLP.Chemscore.Hbond>
2.9308

> <Gold.PLP.Chemscore.CHOScore>
0.0000

> <Gold.PLP.Chemscore.Metal>
0.0000

> <Gold.Chemscore.Hbonds>
donor molecule, donor type, donor heavy atom, donor atom, acceptor molecule, acceptor atom, score
      P1  H  6896  6908       L1     7  1.00
      P1  H  6931  6943       L1    20  0.80
      P1  H  6934  6947       L1     5  1.31

> <Gold.PLP.Chemscore.Internal.Correction>
0.0826

> <Gold.Rescore>
     Score         DG    S(hbond)    S(metal)    S(lipo)     H(rot)  DE(clash)    DE(int)     intcor
     18.73     -19.77       1.96        0.00      99.44       1.52       0.01       1.03       ----

> <Gold.Chemscore.Fitness>
18.7280

> <Gold.Chemscore.DG>
-19.7658

> <Gold.Chemscore.ZeroCoef>
-5.4800

> <Gold.Chemscore.Hbond>
1.9580

> <Gold.Chemscore.Metal>
0.0000

> <Gold.Chemscore.Lipo>
99.4421

> <Gold.Chemscore.Internal_Hbond>
0.0000

> <Gold.Chemscore.DEClash>
0.0086

> <Gold.Chemscore.DEInternal>
1.0292

> <Gold.Chemscore.Rot>
1.5190

> <Gold.Chemscore.Internal.Correction>
   9.000000E+99

> <Gold.Chemscore.Hbonds>
donor molecule, donor type, donor heavy atom, donor atom, acceptor molecule, acceptor atom, score
      P1  H  6896  6908       L1     7  0.99
      P1  H  6931  6943       L1    20  0.12
      P1  H  6934  6947       L1     5  0.14

> <Gold.Chemscore.Hbond.Weighted>
-6.5398

> <Gold.Chemscore.Metal.Weighted>
-0.0000

> <Gold.Chemscore.Lipo.Weighted>
-11.6347

> <Gold.Chemscore.Internal_Hbond.Weighted>
0.0000

> <Gold.Chemscore.DEClash.Weighted>
0.0086

> <Gold.Chemscore.DEInternal.Weighted>
1.0292

> <Gold.Chemscore.Rot.Weighted>
3.8886

> <Gold.Chemscore.Internal.Correction.Weighted>
   9.000000E+99

> <Gold.Protein.RotatedTorsions>
[ 6907 6896 6895 6894 ] final -178.70 input  -60.11 | X-H torsion
[ 7974 7965 7964 7962 ] final  -21.11 input  175.53 | X-H torsion
[ 8008 7997 7996 7995 ] final  -19.66 input   59.86 | X-H torsion
[ 10167 10162 10161 10158 ] final   88.27 input  -65.29 | X-H torsion
[ 10718 10713 10712 10709 ] final   75.91 input   66.30 | X-H torsion
[ 10763 10752 10751 10750 ] final  -41.48 input  -60.55 | X-H torsion
[ 11005 11000 10999 10996 ] final  -54.01 input  -57.11 | X-H torsion

> <Gold.Protein.ActiveResidues>
 VAL166  LYS551  ARG553  GLY616  TRP617  ASP618  TYR619  PRO620  LYS621  CYS622 
 ASP623  PHE694  ASN695  SER759  ASP760  ASP761  ALA762  ILE779  LEU786  VAL792 
 PHE793  MET794  SER795  GLU796  ALA797  LYS798  CYS799  TRP800  GLU811  SER814 

> <Gold.Protein.RotatedAtoms>
  151.6415  133.3325  159.3131 H   0  0  0  0  0  0  0  0  0  0  0  0  # atno 6907 bound_to 6896
  150.8005  134.7099  159.6607 H   0  0  0  0  0  0  0  0  0  0  0  0  # atno 6908 bound_to 6896
  152.4097  134.6150  160.0087 H   0  0  0  0  0  0  0  0  0  0  0  0  # atno 6909 bound_to 6896
  146.1751  140.4295  142.8516 H   0  0  0  0  0  0  0  0  0  0  0  0  # atno 7974 bound_to 7965
  154.4822  140.2083  155.9738 H   0  0  0  0  0  0  0  0  0  0  0  0  # atno 8008 bound_to 7997
  156.1182  140.3218  155.8139 H   0  0  0  0  0  0  0  0  0  0  0  0  # atno 8009 bound_to 7997
  155.4515  140.0517  157.2991 H   0  0  0  0  0  0  0  0  0  0  0  0  # atno 8010 bound_to 7997
  139.8690  144.6503  150.8971 H   0  0  0  0  0  0  0  0  0  0  0  0  # atno 10167 bound_to 10162
  157.6653  130.9749  150.1420 H   0  0  0  0  0  0  0  0  0  0  0  0  # atno 10718 bound_to 10713
  153.9633  135.6737  153.4745 H   0  0  0  0  0  0  0  0  0  0  0  0  # atno 10763 bound_to 10752
  153.0828  135.4914  154.8533 H   0  0  0  0  0  0  0  0  0  0  0  0  # atno 10764 bound_to 10752
  154.7260  135.3127  154.8930 H   0  0  0  0  0  0  0  0  0  0  0  0  # atno 10765 bound_to 10752
  141.1004  133.6619  156.4257 H   0  0  0  0  0  0  0  0  0  0  0  0  # atno 11005 bound_to 11000
  144.8224  140.6572  143.6344 LP  0  0  0  0  0  0  0  0  0  0  0  0  # atno 17320 bound_to 7965
  145.4233  139.1560  143.4062 LP  0  0  0  0  0  0  0  0  0  0  0  0  # atno 17321 bound_to 7965
  140.7763  143.3680  151.1703 LP  0  0  0  0  0  0  0  0  0  0  0  0  # atno 17342 bound_to 10162
  139.7302  143.9085  152.3017 LP  0  0  0  0  0  0  0  0  0  0  0  0  # atno 17343 bound_to 10162
  156.2241  130.3676  149.8522 LP  0  0  0  0  0  0  0  0  0  0  0  0  # atno 17370 bound_to 10713
  156.6367  130.8688  151.3506 LP  0  0  0  0  0  0  0  0  0  0  0  0  # atno 17371 bound_to 10713
  140.5035  134.6463  157.5257 LP  0  0  0  0  0  0  0  0  0  0  0  0  # atno 17394 bound_to 11000
  139.9854  134.7069  155.9783 LP  0  0  0  0  0  0  0  0  0  0  0  0  # atno 17395 bound_to 11000

$$$$
