AV-unprocessed.smi:2743|AV-procd|sdf|10566|dock2
  -GOLD-   2272015 23D 1   1.00000     0.00000
 Structure written by MMmdl.
 38 39  0  0  0  0  0  0  0  0  1 V2000
  146.8239  141.1289  153.1645 N   0  0  0  0  0  0  0  0  0  0  0  0
  146.7761  141.6507  154.1965 C   0  0  0  0  0  0  0  0  0  0  0  0
  146.7173  142.3124  155.5108 C   0  0  0  0  0  0  0  0  0  0  0  0
  147.5746  141.6290  156.5765 C   0  0  0  0  0  0  0  0  0  0  0  0
  147.2108  140.5718  157.0915 O   0  0  0  0  0  0  0  0  0  0  0  0
  148.7133  142.2578  156.9052 N   0  0  0  0  0  0  0  0  0  0  0  0
  149.6784  141.8089  157.9088 C   0  0  0  0  0  0  0  0  0  0  0  0
  151.1438  141.7736  157.3790 C   0  0  0  0  0  0  0  0  0  0  0  0
  151.2767  140.6038  156.3777 C   0  0  0  0  0  0  0  0  0  0  0  0
  152.2289  139.5812  156.6055 C   0  0  0  0  0  0  0  0  0  0  0  0
  152.3305  138.5144  155.6914 C   0  0  0  0  0  0  0  0  0  0  0  0
  151.5550  138.4020  154.5944 N   0  0  0  0  0  0  0  0  0  0  0  0
  150.6389  139.3669  154.3755 C   0  0  0  0  0  0  0  0  0  0  0  0
  150.4586  140.4752  155.2268 C   0  0  0  0  0  0  0  0  0  0  0  0
  151.5278  143.1376  156.7232 C   0  0  0  0  0  0  0  0  0  0  0  0
  151.6129  144.3161  157.7099 C   0  0  0  0  0  0  0  0  0  0  0  0
  152.5975  144.0159  158.8446 C   0  0  0  0  0  0  0  0  0  0  0  0
  152.2259  142.7095  159.5542 C   0  0  0  0  0  0  0  0  0  0  0  0
  152.1285  141.5358  158.5618 C   0  0  0  0  0  0  0  0  0  0  0  0
  147.0376  143.3467  155.3820 H   0  0  0  0  0  0  0  0  0  0  0  0
  145.6773  142.3259  155.8375 H   0  0  0  0  0  0  0  0  0  0  0  0
  148.9270  143.1237  156.4316 H   0  0  0  0  0  0  0  0  0  0  0  0
  149.5897  142.4030  158.8176 H   0  0  0  0  0  0  0  0  0  0  0  0
  149.3725  140.8043  158.2016 H   0  0  0  0  0  0  0  0  0  0  0  0
  152.8755  139.5993  157.4696 H   0  0  0  0  0  0  0  0  0  0  0  0
  153.0526  137.7273  155.8504 H   0  0  0  0  0  0  0  0  0  0  0  0
  150.0251  139.2513  153.4945 H   0  0  0  0  0  0  0  0  0  0  0  0
  149.6944  141.1939  154.9759 H   0  0  0  0  0  0  0  0  0  0  0  0
  152.5085  143.0457  156.2540 H   0  0  0  0  0  0  0  0  0  0  0  0
  150.8334  143.3965  155.9239 H   0  0  0  0  0  0  0  0  0  0  0  0
  151.9301  145.2142  157.1793 H   0  0  0  0  0  0  0  0  0  0  0  0
  150.6296  144.5434  158.1208 H   0  0  0  0  0  0  0  0  0  0  0  0
  153.6084  143.9390  158.4418 H   0  0  0  0  0  0  0  0  0  0  0  0
  152.6095  144.8401  159.5581 H   0  0  0  0  0  0  0  0  0  0  0  0
  152.9727  142.4833  160.3157 H   0  0  0  0  0  0  0  0  0  0  0  0
  151.2827  142.8330  160.0864 H   0  0  0  0  0  0  0  0  0  0  0  0
  151.8593  140.6390  159.1193 H   0  0  0  0  0  0  0  0  0  0  0  0
  153.1257  141.3481  158.1602 H   0  0  0  0  0  0  0  0  0  0  0  0
  1  2  3  0  0  0  0
  2  3  1  0  0  0  0
  3  4  1  0  0  0  0
  3 20  1  0  0  0  0
  3 21  1  0  0  0  0
  4  5  2  0  0  0  0
  4  6  1  0  0  0  0
  6  7  1  0  0  0  0
  6 22  1  0  0  0  0
  7  8  1  0  0  0  0
  7 23  1  0  0  0  0
  7 24  1  0  0  0  0
  8 19  1  0  0  0  0
  8  9  1  0  0  0  0
  8 15  1  0  0  0  0
  9 14  1  0  0  0  0
  9 10  2  0  0  0  0
 10 11  1  0  0  0  0
 10 25  1  0  0  0  0
 11 12  2  0  0  0  0
 11 26  1  0  0  0  0
 12 13  1  0  0  0  0
 13 14  2  0  0  0  0
 13 27  1  0  0  0  0
 14 28  1  0  0  0  0
 15 16  1  0  0  0  0
 15 29  1  0  0  0  0
 15 30  1  0  0  0  0
 16 17  1  0  0  0  0
 16 31  1  0  0  0  0
 16 32  1  0  0  0  0
 17 18  1  0  0  0  0
 17 33  1  0  0  0  0
 17 34  1  0  0  0  0
 18 19  1  0  0  0  0
 18 35  1  0  0  0  0
 18 36  1  0  0  0  0
 19 37  1  0  0  0  0
 19 38  1  0  0  0  0
M  END
> <s_m_source_file>
AV-unprocessed.smi

> <i_m_source_file_index>
2743

> <i_lp_mmshare_version>
43012

> <i_f3d_flags>
0

> <s_epik_input>
TiNDW0NIMl1DKD1PKVtOSF1bQ0gyXUMxKFtDSDJdW0NIMl1bQ0gyXVtDSDJdW0NIMl0xKWMyW2NIXVtjSF1uW2NIXVtjSF0y

> <s_epik_cmdline>
J2VwaWtfcHl0aG9uJywgJy1waCcsICc3LjAnLCAnLXRuJywgJzgnLCAnLW1hJywgJzIwMCcsICctbWV0YWxfYmluZGluZycsICctaW1hZScsICc8aW5maWxlLm1hZT4nLCAnLW9tYWUnLCAnPG91dGZpbGUubWFlPic=

> <r_epik_Ionization_Penalty>
0.0541122

> <r_epik_Ionization_Penalty_Charging>
0

> <r_epik_Ionization_Penalty_Neutral>
0.0541122

> <r_epik_State_Penalty>
0.0465294

> <r_epik_Charging_Adjusted_Penalty>
0.0465294

> <i_epik_Tot_Q>
0

> <i_epik_Tot_abs_Q>
0

> <r_epik_Metal_State_Penalty>
0.042555

> <b_epik_Metal_Only>
0

> <s_lp_Force_Field>
OPLS_2005

> <r_lp_Energy>
19.5313

> <b_lp_Chiralities_Consistent>
1

> <s_lp_Variant>
AV-unprocessed.smi:2743-1

> <Gold.Version>
5.8.1

> <Gold.Id.Protein>
6NUR|6NUR_protein|mol2

> <Gold.PLP.Fitness>
41.6469

> <Gold.PLP.PLP>
-36.3629

> <Gold.PLP.part.hbond>
-1.0000

> <Gold.PLP.part.metal>
0.0000

> <Gold.PLP.part.buried>
-0.6091

> <Gold.PLP.part.nonpolar>
-33.4821

> <Gold.PLP.part.repulsive>
0.3509

> <Gold.PLP.ligand.clash>
0.0000

> <Gold.PLP.ligand.torsion>
0.3426

> <Gold.PLP.Chemscore.Hbond>
1.0000

> <Gold.PLP.Chemscore.CHOScore>
0.9829

> <Gold.PLP.Chemscore.Metal>
0.0000

> <Gold.Chemscore.Hbonds>
donor molecule, donor type, donor heavy atom, donor atom, acceptor molecule, acceptor atom, score
      L1  H     6    22       P1  8028  1.00
      L1  C    13    27       P1  7957  1.00

> <Gold.PLP.Chemscore.Internal.Correction>
0.0207

> <Gold.Rescore>
     Score         DG    S(hbond)    S(metal)    S(lipo)     H(rot)  DE(clash)    DE(int)     intcor
     14.98     -16.55       0.99        0.00     105.38       1.79       1.23       0.33       ----

> <Gold.Chemscore.Fitness>
14.9827

> <Gold.Chemscore.DG>
-16.5479

> <Gold.Chemscore.ZeroCoef>
-5.4800

> <Gold.Chemscore.Hbond>
0.9938

> <Gold.Chemscore.Metal>
0.0000

> <Gold.Chemscore.Lipo>
105.3832

> <Gold.Chemscore.Internal_Hbond>
0.0000

> <Gold.Chemscore.DEClash>
1.2322

> <Gold.Chemscore.DEInternal>
0.3329

> <Gold.Chemscore.Rot>
1.7895

> <Gold.Chemscore.Internal.Correction>
   9.000000E+99

> <Gold.Chemscore.Hbonds>
donor molecule, donor type, donor heavy atom, donor atom, acceptor molecule, acceptor atom, score
      L1  H     6    22       P1  8028  0.98

> <Gold.Chemscore.Hbond.Weighted>
-3.3192

> <Gold.Chemscore.Metal.Weighted>
-0.0000

> <Gold.Chemscore.Lipo.Weighted>
-12.3298

> <Gold.Chemscore.Internal_Hbond.Weighted>
0.0000

> <Gold.Chemscore.DEClash.Weighted>
1.2322

> <Gold.Chemscore.DEInternal.Weighted>
0.3329

> <Gold.Chemscore.Rot.Weighted>
4.5812

> <Gold.Chemscore.Internal.Correction.Weighted>
   9.000000E+99

> <Gold.Protein.RotatedTorsions>
[ 6907 6896 6895 6894 ] final    8.94 input  -60.11 | X-H torsion
[ 7974 7965 7964 7962 ] final   41.22 input  175.53 | X-H torsion
[ 8008 7997 7996 7995 ] final  123.14 input   59.86 | X-H torsion
[ 10167 10162 10161 10158 ] final -177.60 input  -65.29 | X-H torsion
[ 10718 10713 10712 10709 ] final  -16.64 input   66.30 | X-H torsion
[ 10763 10752 10751 10750 ] final  139.79 input  -60.55 | X-H torsion
[ 11005 11000 10999 10996 ] final  160.49 input  -57.11 | X-H torsion

> <Gold.Protein.ActiveResidues>
 VAL166  LYS551  ARG553  GLY616  TRP617  ASP618  TYR619  PRO620  LYS621  CYS622 
 ASP623  PHE694  ASN695  SER759  ASP760  ASP761  ALA762  ILE779  LEU786  VAL792 
 PHE793  MET794  SER795  GLU796  ALA797  LYS798  CYS799  TRP800  GLU811  SER814 

> <Gold.Protein.RotatedAtoms>
  151.7142  135.0907  160.0272 H   0  0  0  0  0  0  0  0  0  0  0  0  # atno 6907 bound_to 6896
  152.3643  133.6332  159.6047 H   0  0  0  0  0  0  0  0  0  0  0  0  # atno 6908 bound_to 6896
  150.7626  133.9290  159.3462 H   0  0  0  0  0  0  0  0  0  0  0  0  # atno 6909 bound_to 6896
  146.0841  139.5441  142.9518 H   0  0  0  0  0  0  0  0  0  0  0  0  # atno 7974 bound_to 7965
  156.2755  140.2769  156.1580 H   0  0  0  0  0  0  0  0  0  0  0  0  # atno 8008 bound_to 7997
  155.0784  140.0387  157.2649 H   0  0  0  0  0  0  0  0  0  0  0  0  # atno 8009 bound_to 7997
  154.6984  140.2644  155.6749 H   0  0  0  0  0  0  0  0  0  0  0  0  # atno 8010 bound_to 7997
  139.5472  144.2204  152.1010 H   0  0  0  0  0  0  0  0  0  0  0  0  # atno 10167 bound_to 10162
  156.5847  130.4783  149.6305 H   0  0  0  0  0  0  0  0  0  0  0  0  # atno 10718 bound_to 10713
  153.9120  135.3010  155.3448 H   0  0  0  0  0  0  0  0  0  0  0  0  # atno 10763 bound_to 10752
  154.7618  135.4930  153.9482 H   0  0  0  0  0  0  0  0  0  0  0  0  # atno 10764 bound_to 10752
  153.1187  135.6777  153.9474 H   0  0  0  0  0  0  0  0  0  0  0  0  # atno 10765 bound_to 10752
  140.2065  134.8299  157.3074 H   0  0  0  0  0  0  0  0  0  0  0  0  # atno 11005 bound_to 11000
  145.6162  141.0331  143.1939 LP  0  0  0  0  0  0  0  0  0  0  0  0  # atno 17320 bound_to 7965
  144.7314  139.7716  143.7346 LP  0  0  0  0  0  0  0  0  0  0  0  0  # atno 17321 bound_to 7965
  140.1692  144.4952  150.6589 LP  0  0  0  0  0  0  0  0  0  0  0  0  # atno 17342 bound_to 10162
  140.6724  143.2291  151.5592 LP  0  0  0  0  0  0  0  0  0  0  0  0  # atno 17343 bound_to 10162
  156.2601  130.6957  151.1723 LP  0  0  0  0  0  0  0  0  0  0  0  0  # atno 17370 bound_to 10713
  157.7318  131.0605  150.5660 LP  0  0  0  0  0  0  0  0  0  0  0  0  # atno 17371 bound_to 10713
  140.1997  134.4269  155.7669 LP  0  0  0  0  0  0  0  0  0  0  0  0  # atno 17394 bound_to 11000
  141.2227  133.7066  156.8164 LP  0  0  0  0  0  0  0  0  0  0  0  0  # atno 17395 bound_to 11000

$$$$
