AV-unprocessed.smi:1848|AV-procd|sdf|7519|dock4
  -GOLD-   22720 9223D 1   1.00000     0.00000
 Structure written by MMmdl.
 31 31  0  0  0  0  0  0  0  0  1 V2000
  153.6293  141.4287  160.8778 C   0  0  0  0  0  0  0  0  0  0  0  0
  152.7777  142.2526  160.5830 C   0  0  0  0  0  0  0  0  0  0  0  0
  151.7465  143.2372  160.2134 C   0  0  0  0  0  0  0  0  0  0  0  0
  151.4309  143.2155  158.7896 N   0  0  0  0  0  0  0  0  0  0  0  0
  151.0183  142.1394  158.1012 C   0  0  0  0  0  0  0  0  0  0  0  0
  150.8719  141.0279  158.6116 O   0  0  0  0  0  0  0  0  0  0  0  0
  150.7567  142.3596  156.6044 C   0  0  0  0  0  0  0  0  0  0  0  0
  150.4757  141.1123  155.8731 N   0  0  0  0  0  0  0  0  0  0  0  0
  149.3344  141.0976  155.0464 C   0  0  0  0  0  0  0  0  0  0  0  0
  148.9817  140.0111  154.3241 C   0  0  0  0  0  0  0  0  0  0  0  0
  147.8069  139.9657  153.4486 C   0  0  0  0  0  0  0  0  0  0  0  0
  146.8789  140.7743  153.4945 O   0  0  0  0  0  0  0  0  0  0  0  0
  147.8123  138.9503  152.5674 N   0  0  0  0  0  0  0  0  0  0  0  0
  146.7579  138.6936  151.5981 C   0  0  0  0  0  0  0  0  0  0  0  0
  149.8289  138.8388  154.4317 C   0  0  0  0  0  0  0  0  0  0  0  0
  150.9246  138.8486  155.2157 C   0  0  0  0  0  0  0  0  0  0  0  0
  151.3060  140.0320  155.9910 C   0  0  0  0  0  0  0  0  0  0  0  0
  152.3103  140.0509  156.7031 O   0  0  0  0  0  0  0  0  0  0  0  0
  154.3703  140.7055  161.1348 H   0  0  0  0  0  0  0  0  0  0  0  0
  150.8573  143.0575  160.8199 H   0  0  0  0  0  0  0  0  0  0  0  0
  152.1185  144.2274  160.4766 H   0  0  0  0  0  0  0  0  0  0  0  0
  151.5313  144.0870  158.2896 H   0  0  0  0  0  0  0  0  0  0  0  0
  149.9315  143.0637  156.4808 H   0  0  0  0  0  0  0  0  0  0  0  0
  151.6248  142.8648  156.1790 H   0  0  0  0  0  0  0  0  0  0  0  0
  148.7889  142.0304  155.0437 H   0  0  0  0  0  0  0  0  0  0  0  0
  148.5971  138.3152  152.5747 H   0  0  0  0  0  0  0  0  0  0  0  0
  147.0019  137.8096  151.0092 H   0  0  0  0  0  0  0  0  0  0  0  0
  146.6433  139.5372  150.9163 H   0  0  0  0  0  0  0  0  0  0  0  0
  145.8049  138.5171  152.0987 H   0  0  0  0  0  0  0  0  0  0  0  0
  149.5919  137.9402  153.8800 H   0  0  0  0  0  0  0  0  0  0  0  0
  151.5389  137.9622  155.2753 H   0  0  0  0  0  0  0  0  0  0  0  0
  1  2  3  0  0  0  0
  1 19  1  0  0  0  0
  2  3  1  0  0  0  0
  3  4  1  0  0  0  0
  3 20  1  0  0  0  0
  3 21  1  0  0  0  0
  4  5  1  0  0  0  0
  4 22  1  0  0  0  0
  5  6  2  0  0  0  0
  5  7  1  0  0  0  0
  7  8  1  0  0  0  0
  7 23  1  0  0  0  0
  7 24  1  0  0  0  0
  8 17  1  0  0  0  0
  8  9  1  0  0  0  0
  9 10  2  0  0  0  0
  9 25  1  0  0  0  0
 10 11  1  0  0  0  0
 10 15  1  0  0  0  0
 11 12  2  0  0  0  0
 11 13  1  0  0  0  0
 13 14  1  0  0  0  0
 13 26  1  0  0  0  0
 14 27  1  0  0  0  0
 14 28  1  0  0  0  0
 14 29  1  0  0  0  0
 15 16  2  0  0  0  0
 15 30  1  0  0  0  0
 16 17  1  0  0  0  0
 16 31  1  0  0  0  0
 17 18  2  0  0  0  0
M  END
> <s_m_source_file>
AV-unprocessed.smi

> <i_m_source_file_index>
1848

> <i_lp_mmshare_version>
43012

> <i_f3d_flags>
0

> <s_epik_input>
W0NIXSNDW0NIMl1bTkhdQyg9TylbQ0gyXW4xW2NIXWMoQyg9TylbTkhdW0NIM10pW2NIXVtjSF1jMT1P

> <s_epik_cmdline>
J2VwaWtfcHl0aG9uJywgJy1waCcsICc3LjAnLCAnLXRuJywgJzgnLCAnLW1hJywgJzIwMCcsICctbWV0YWxfYmluZGluZycsICctaW1hZScsICc8aW5maWxlLm1hZT4nLCAnLW9tYWUnLCAnPG91dGZpbGUubWFlPic=

> <r_lp_tautomer_probability>
1

> <r_epik_Ionization_Penalty>
5.04952e-07

> <r_epik_Ionization_Penalty_Charging>
3.86163e-08

> <r_epik_Ionization_Penalty_Neutral>
4.66336e-07

> <r_epik_State_Penalty>
-0

> <r_epik_Charging_Adjusted_Penalty>
3.86163e-08

> <i_epik_Tot_Q>
0

> <i_epik_Tot_abs_Q>
0

> <r_epik_Metal_State_Penalty>
-0

> <b_epik_Metal_Only>
0

> <s_lp_Force_Field>
OPLS_2005

> <r_lp_Energy>
14.316

> <b_lp_Chiralities_Consistent>
1

> <s_lp_Variant>
AV-unprocessed.smi:1848-1

> <Gold.Version>
5.8.1

> <Gold.Id.Protein>
6NUR|6NUR_protein|mol2

> <Gold.PLP.Fitness>
46.8218

> <Gold.PLP.PLP>
-41.7432

> <Gold.PLP.part.hbond>
-2.9739

> <Gold.PLP.part.metal>
0.0000

> <Gold.PLP.part.buried>
-2.3361

> <Gold.PLP.part.nonpolar>
-37.1891

> <Gold.PLP.part.repulsive>
0.2652

> <Gold.PLP.ligand.clash>
0.0528

> <Gold.PLP.ligand.torsion>
0.2619

> <Gold.PLP.Chemscore.Hbond>
1.4459

> <Gold.PLP.Chemscore.CHOScore>
0.4307

> <Gold.PLP.Chemscore.Metal>
0.0000

> <Gold.Chemscore.Hbonds>
donor molecule, donor type, donor heavy atom, donor atom, acceptor molecule, acceptor atom, score
      L1  H    13    26       P1  7948  0.41
      P1  H  7997  8008       L1    18  0.91
      L1  C     9    25       P1  8028  0.45

> <Gold.PLP.Chemscore.Internal.Correction>
0.0255

> <Gold.Rescore>
     Score         DG    S(hbond)    S(metal)    S(lipo)     H(rot)  DE(clash)    DE(int)     intcor
     15.71     -16.32       1.73        0.00      78.86       1.62       0.36       0.25       ----

> <Gold.Chemscore.Fitness>
15.7097

> <Gold.Chemscore.DG>
-16.3204

> <Gold.Chemscore.ZeroCoef>
-5.4800

> <Gold.Chemscore.Hbond>
1.7273

> <Gold.Chemscore.Metal>
0.0000

> <Gold.Chemscore.Lipo>
78.8616

> <Gold.Chemscore.Internal_Hbond>
0.0000

> <Gold.Chemscore.DEClash>
0.3599

> <Gold.Chemscore.DEInternal>
0.2509

> <Gold.Chemscore.Rot>
1.6233

> <Gold.Chemscore.Internal.Correction>
   9.000000E+99

> <Gold.Chemscore.Hbonds>
donor molecule, donor type, donor heavy atom, donor atom, acceptor molecule, acceptor atom, score
      L1  H    13    26       P1  7948  0.42
      P1  H  7997  8008       L1    18  0.84

> <Gold.Chemscore.Hbond.Weighted>
-5.7693

> <Gold.Chemscore.Metal.Weighted>
-0.0000

> <Gold.Chemscore.Lipo.Weighted>
-9.2268

> <Gold.Chemscore.Internal_Hbond.Weighted>
0.0000

> <Gold.Chemscore.DEClash.Weighted>
0.3599

> <Gold.Chemscore.DEInternal.Weighted>
0.2509

> <Gold.Chemscore.Rot.Weighted>
4.1557

> <Gold.Chemscore.Internal.Correction.Weighted>
   9.000000E+99

> <Gold.Protein.RotatedTorsions>
[ 6907 6896 6895 6894 ] final -170.09 input  -60.11 | X-H torsion
[ 7974 7965 7964 7962 ] final   81.13 input  175.53 | X-H torsion
[ 8008 7997 7996 7995 ] final  -38.71 input   59.86 | X-H torsion
[ 10167 10162 10161 10158 ] final   38.65 input  -65.29 | X-H torsion
[ 10718 10713 10712 10709 ] final  159.59 input   66.30 | X-H torsion
[ 10763 10752 10751 10750 ] final   83.65 input  -60.55 | X-H torsion
[ 11005 11000 10999 10996 ] final  100.14 input  -57.11 | X-H torsion

> <Gold.Protein.ActiveResidues>
 VAL166  LYS551  ARG553  GLY616  TRP617  ASP618  TYR619  PRO620  LYS621  CYS622 
 ASP623  PHE694  ASN695  SER759  ASP760  ASP761  ALA762  ILE779  LEU786  VAL792 
 PHE793  MET794  SER795  GLU796  ALA797  LYS798  CYS799  TRP800  GLU811  SER814 

> <Gold.Protein.RotatedAtoms>
  151.5021  133.3502  159.2870 H   0  0  0  0  0  0  0  0  0  0  0  0  # atno 6907 bound_to 6896
  150.8766  134.8152  159.7205 H   0  0  0  0  0  0  0  0  0  0  0  0  # atno 6908 bound_to 6896
  152.4735  134.4913  159.9748 H   0  0  0  0  0  0  0  0  0  0  0  0  # atno 6909 bound_to 6896
  145.6421  139.2428  143.2024 H   0  0  0  0  0  0  0  0  0  0  0  0  # atno 7974 bound_to 7965
  154.4033  140.1570  156.2744 H   0  0  0  0  0  0  0  0  0  0  0  0  # atno 8008 bound_to 7997
  155.8925  140.3438  155.5944 H   0  0  0  0  0  0  0  0  0  0  0  0  # atno 8009 bound_to 7997
  155.7542  140.0809  157.2177 H   0  0  0  0  0  0  0  0  0  0  0  0  # atno 8010 bound_to 7997
  140.3916  144.1845  150.6131 H   0  0  0  0  0  0  0  0  0  0  0  0  # atno 10167 bound_to 10162
  157.1621  131.0589  151.2227 H   0  0  0  0  0  0  0  0  0  0  0  0  # atno 10718 bound_to 10713
  153.1310  135.4683  154.9348 H   0  0  0  0  0  0  0  0  0  0  0  0  # atno 10763 bound_to 10752
  154.7664  135.3146  154.8280 H   0  0  0  0  0  0  0  0  0  0  0  0  # atno 10764 bound_to 10752
  153.8823  135.6893  153.4820 H   0  0  0  0  0  0  0  0  0  0  0  0  # atno 10765 bound_to 10752
  139.8771  134.9127  156.4711 H   0  0  0  0  0  0  0  0  0  0  0  0  # atno 11005 bound_to 11000
  146.1272  140.7233  142.9429 LP  0  0  0  0  0  0  0  0  0  0  0  0  # atno 17320 bound_to 7965
  144.7153  140.4188  143.7049 LP  0  0  0  0  0  0  0  0  0  0  0  0  # atno 17321 bound_to 7965
  140.4834  143.2371  151.8923 LP  0  0  0  0  0  0  0  0  0  0  0  0  # atno 17342 bound_to 10162
  139.4789  144.5245  151.8755 LP  0  0  0  0  0  0  0  0  0  0  0  0  # atno 17343 bound_to 10162
  157.4123  130.7392  149.6848 LP  0  0  0  0  0  0  0  0  0  0  0  0  # atno 17370 bound_to 10713
  155.9752  130.4092  150.3866 LP  0  0  0  0  0  0  0  0  0  0  0  0  # atno 17371 bound_to 10713
  140.8795  133.7928  155.9451 LP  0  0  0  0  0  0  0  0  0  0  0  0  # atno 17394 bound_to 11000
  140.8869  134.2543  157.5115 LP  0  0  0  0  0  0  0  0  0  0  0  0  # atno 17395 bound_to 11000

$$$$
