AV-unprocessed.smi:2162|AV-procd|sdf|8802|dock7
  -GOLD-   2272011583D 1   1.00000     0.00000
 Structure written by MMmdl.
 41 42  0  0  0  0  0  0  0  0  1 V2000
  152.7197  130.6423  156.3388 C   0  0  0  0  0  0  0  0  0  0  0  0
  151.6685  130.9699  155.3345 C   0  0  0  0  0  0  0  0  0  0  0  0
  151.1838  132.1999  155.1449 N   0  0  0  0  0  0  0  0  0  0  0  0
  150.2082  132.2456  154.1443 C   0  0  0  0  0  0  0  0  0  0  0  0
  149.5596  133.5519  153.7874 C   0  0  0  0  0  0  0  0  0  0  0  0
  149.4550  134.5281  154.9722 C   0  0  0  0  0  0  0  0  0  0  0  0
  149.5705  135.9158  154.5349 N   0  0  0  0  0  0  0  0  0  0  0  0
  149.6268  136.9856  155.3405 C   0  0  0  0  0  0  0  0  0  0  0  0
  149.5863  136.9126  156.5691 O   0  0  0  0  0  0  0  0  0  0  0  0
  149.7432  138.3534  154.6489 C   0  0  2  0  0  0  0  0  0  0  0  0
  151.1107  138.5277  153.9628 C   0  0  0  0  0  0  0  0  0  0  0  0
  151.8143  139.5749  154.8101 C   0  0  0  0  0  0  0  0  0  0  0  0
  152.9938  139.8800  154.6399 O   0  0  0  0  0  0  0  0  0  0  0  0
  150.9953  140.0755  155.7445 N   0  0  0  0  0  0  0  0  0  0  0  0
  151.3721  141.0566  156.7713 C   0  0  0  0  0  0  0  0  0  0  0  0
  151.1932  140.4512  158.1727 C   0  0  0  0  0  0  0  0  0  0  0  0
  150.6193  142.3914  156.6240 C   0  0  0  0  0  0  0  0  0  0  0  0
  149.6491  139.5249  155.6480 C   0  0  0  0  0  0  0  0  0  0  0  0
  149.9578  131.0209  153.5767 C   0  0  0  0  0  0  0  0  0  0  0  0
  150.9429  129.7665  154.2762 S   0  0  0  0  0  0  0  0  0  0  0  0
  153.0025  131.5310  156.9043 H   0  0  0  0  0  0  0  0  0  0  0  0
  153.6046  130.2510  155.8369 H   0  0  0  0  0  0  0  0  0  0  0  0
  152.3486  129.8890  157.0339 H   0  0  0  0  0  0  0  0  0  0  0  0
  150.1218  134.0316  152.9853 H   0  0  0  0  0  0  0  0  0  0  0  0
  148.5634  133.3743  153.3806 H   0  0  0  0  0  0  0  0  0  0  0  0
  148.5180  134.3530  155.5031 H   0  0  0  0  0  0  0  0  0  0  0  0
  150.2594  134.3334  155.6825 H   0  0  0  0  0  0  0  0  0  0  0  0
  149.6160  136.0723  153.5382 H   0  0  0  0  0  0  0  0  0  0  0  0
  148.9469  138.4443  153.9078 H   0  0  0  0  0  0  0  0  0  0  0  0
  151.7004  137.6105  153.9180 H   0  0  0  0  0  0  0  0  0  0  0  0
  150.9949  138.9031  152.9458 H   0  0  0  0  0  0  0  0  0  0  0  0
  152.4320  141.2835  156.6432 H   0  0  0  0  0  0  0  0  0  0  0  0
  151.5057  141.1534  158.9459 H   0  0  0  0  0  0  0  0  0  0  0  0
  151.7896  139.5461  158.2923 H   0  0  0  0  0  0  0  0  0  0  0  0
  150.1513  140.1901  158.3609 H   0  0  0  0  0  0  0  0  0  0  0  0
  150.9865  143.1230  157.3442 H   0  0  0  0  0  0  0  0  0  0  0  0
  149.5486  142.2770  156.7960 H   0  0  0  0  0  0  0  0  0  0  0  0
  150.7587  142.8157  155.6294 H   0  0  0  0  0  0  0  0  0  0  0  0
  148.9677  140.2886  155.2709 H   0  0  0  0  0  0  0  0  0  0  0  0
  149.2873  139.2142  156.6298 H   0  0  0  0  0  0  0  0  0  0  0  0
  149.2585  130.7827  152.7890 H   0  0  0  0  0  0  0  0  0  0  0  0
  1  2  1  0  0  0  0
  1 21  1  0  0  0  0
  1 22  1  0  0  0  0
  1 23  1  0  0  0  0
  2 20  1  0  0  0  0
  2  3  2  0  0  0  0
  3  4  1  0  0  0  0
  4  5  1  0  0  0  0
  4 19  2  0  0  0  0
  5  6  1  0  0  0  0
  5 24  1  0  0  0  0
  5 25  1  0  0  0  0
  6  7  1  0  0  0  0
  6 26  1  0  0  0  0
  6 27  1  0  0  0  0
  7  8  1  0  0  0  0
  7 28  1  0  0  0  0
  8  9  2  0  0  0  0
  8 10  1  0  0  0  0
 10 18  1  0  0  0  0
 10 11  1  0  0  0  0
 10 29  1  0  0  0  0
 11 12  1  0  0  0  0
 11 30  1  0  0  0  0
 11 31  1  0  0  0  0
 12 13  2  0  0  0  0
 12 14  1  0  0  0  0
 14 15  1  0  0  0  0
 14 18  1  0  0  0  0
 15 16  1  0  0  0  0
 15 17  1  0  0  0  0
 15 32  1  0  0  0  0
 16 33  1  0  0  0  0
 16 34  1  0  0  0  0
 16 35  1  0  0  0  0
 17 36  1  0  0  0  0
 17 37  1  0  0  0  0
 17 38  1  0  0  0  0
 18 39  1  0  0  0  0
 18 40  1  0  0  0  0
 19 20  1  0  0  0  0
 19 41  1  0  0  0  0
M  END
> <s_m_source_file>
AV-unprocessed.smi

> <i_m_source_file_index>
2162

> <i_lp_mmshare_version>
43012

> <i_f3d_flags>
0

> <s_epik_input>
W0NIM11jMW5jKFtjSF1zMSlbQ0gyXVtDSDJdW05IXUMoPU8pW0NAQEhdMltDSDJdQyg9TylOKFtDSDJdMilbQ0hdKFtDSDNdKVtDSDNd

> <s_epik_cmdline>
J2VwaWtfcHl0aG9uJywgJy1waCcsICc3LjAnLCAnLXRuJywgJzgnLCAnLW1hJywgJzIwMCcsICctbWV0YWxfYmluZGluZycsICctaW1hZScsICc8aW5maWxlLm1hZT4nLCAnLW9tYWUnLCAnPG91dGZpbGUubWFlPic=

> <r_epik_Ionization_Penalty>
0.000973993

> <r_epik_Ionization_Penalty_Charging>
0

> <r_epik_Ionization_Penalty_Neutral>
0.000973993

> <r_epik_State_Penalty>
0.000633765

> <r_epik_Charging_Adjusted_Penalty>
0.000633765

> <i_epik_Tot_Q>
0

> <i_epik_Tot_abs_Q>
0

> <r_epik_Metal_State_Penalty>
-0

> <b_epik_Metal_Only>
0

> <s_lp_Force_Field>
OPLS_2005

> <r_lp_Energy>
15.0968

> <b_lp_Chiralities_Consistent>
1

> <s_lp_Variant>
AV-unprocessed.smi:2162-1

> <Gold.Version>
5.8.1

> <Gold.Id.Protein>
6NUR|6NUR_protein|mol2

> <Gold.PLP.Fitness>
43.3397

> <Gold.PLP.PLP>
-35.7429

> <Gold.PLP.part.hbond>
-2.7342

> <Gold.PLP.part.metal>
0.0000

> <Gold.PLP.part.buried>
-3.9050

> <Gold.PLP.part.nonpolar>
-28.5347

> <Gold.PLP.part.repulsive>
0.0419

> <Gold.PLP.ligand.clash>
0.0000

> <Gold.PLP.ligand.torsion>
0.7316

> <Gold.PLP.Chemscore.Hbond>
2.0000

> <Gold.PLP.Chemscore.CHOScore>
1.0000

> <Gold.PLP.Chemscore.Metal>
0.0000

> <Gold.Chemscore.Hbonds>
donor molecule, donor type, donor heavy atom, donor atom, acceptor molecule, acceptor atom, score
      L1  H     7    28       P1  7948  1.00
      P1  H  7997  8008       L1    13  1.00
      L1  C    19    41       P1 10747  0.84

> <Gold.PLP.Chemscore.Internal.Correction>
0.0600

> <Gold.Rescore>
     Score         DG    S(hbond)    S(metal)    S(lipo)     H(rot)  DE(clash)    DE(int)     intcor
     15.19     -16.06       1.82        0.00      74.79       1.66       0.04       0.83       ----

> <Gold.Chemscore.Fitness>
15.1928

> <Gold.Chemscore.DG>
-16.0632

> <Gold.Chemscore.ZeroCoef>
-5.4800

> <Gold.Chemscore.Hbond>
1.8199

> <Gold.Chemscore.Metal>
0.0000

> <Gold.Chemscore.Lipo>
74.7882

> <Gold.Chemscore.Internal_Hbond>
0.0000

> <Gold.Chemscore.DEClash>
0.0434

> <Gold.Chemscore.DEInternal>
0.8269

> <Gold.Chemscore.Rot>
1.6585

> <Gold.Chemscore.Internal.Correction>
   9.000000E+99

> <Gold.Chemscore.Hbonds>
donor molecule, donor type, donor heavy atom, donor atom, acceptor molecule, acceptor atom, score
      L1  H     7    28       P1  7948  0.30
      P1  H  7997  8008       L1    13  0.99

> <Gold.Chemscore.Hbond.Weighted>
-6.0786

> <Gold.Chemscore.Metal.Weighted>
-0.0000

> <Gold.Chemscore.Lipo.Weighted>
-8.7502

> <Gold.Chemscore.Internal_Hbond.Weighted>
0.0000

> <Gold.Chemscore.DEClash.Weighted>
0.0434

> <Gold.Chemscore.DEInternal.Weighted>
0.8269

> <Gold.Chemscore.Rot.Weighted>
4.2457

> <Gold.Chemscore.Internal.Correction.Weighted>
   9.000000E+99

> <Gold.Protein.RotatedTorsions>
[ 6907 6896 6895 6894 ] final   68.96 input  -60.11 | X-H torsion
[ 7974 7965 7964 7962 ] final   89.47 input  175.53 | X-H torsion
[ 8008 7997 7996 7995 ] final  -14.86 input   59.86 | X-H torsion
[ 10167 10162 10161 10158 ] final   95.86 input  -65.29 | X-H torsion
[ 10718 10713 10712 10709 ] final   67.12 input   66.30 | X-H torsion
[ 10763 10752 10751 10750 ] final   33.65 input  -60.55 | X-H torsion
[ 11005 11000 10999 10996 ] final   73.03 input  -57.11 | X-H torsion

> <Gold.Protein.ActiveResidues>
 VAL166  LYS551  ARG553  GLY616  TRP617  ASP618  TYR619  PRO620  LYS621  CYS622 
 ASP623  PHE694  ASN695  SER759  ASP760  ASP761  ALA762  ILE779  LEU786  VAL792 
 PHE793  MET794  SER795  GLU796  ALA797  LYS798  CYS799  TRP800  GLU811  SER814 

> <Gold.Protein.RotatedAtoms>
  152.4655  134.5086  159.9746 H   0  0  0  0  0  0  0  0  0  0  0  0  # atno 6907 bound_to 6896
  151.5125  133.3476  159.2895 H   0  0  0  0  0  0  0  0  0  0  0  0  # atno 6908 bound_to 6896
  150.8637  134.8024  159.7164 H   0  0  0  0  0  0  0  0  0  0  0  0  # atno 6909 bound_to 6896
  145.5319  139.2284  143.2614 H   0  0  0  0  0  0  0  0  0  0  0  0  # atno 7974 bound_to 7965
  154.5176  140.2212  155.9036 H   0  0  0  0  0  0  0  0  0  0  0  0  # atno 8008 bound_to 7997
  156.1625  140.3139  155.8798 H   0  0  0  0  0  0  0  0  0  0  0  0  # atno 8009 bound_to 7997
  155.3722  140.0467  157.3036 H   0  0  0  0  0  0  0  0  0  0  0  0  # atno 8010 bound_to 7997
  139.7948  144.6837  150.9843 H   0  0  0  0  0  0  0  0  0  0  0  0  # atno 10167 bound_to 10162
  157.6211  130.9304  150.0200 H   0  0  0  0  0  0  0  0  0  0  0  0  # atno 10718 bound_to 10713
  153.0201  135.6381  154.1545 H   0  0  0  0  0  0  0  0  0  0  0  0  # atno 10763 bound_to 10752
  154.1280  135.2842  155.3194 H   0  0  0  0  0  0  0  0  0  0  0  0  # atno 10764 bound_to 10752
  154.6215  135.5523  153.7642 H   0  0  0  0  0  0  0  0  0  0  0  0  # atno 10765 bound_to 10752
  139.9461  134.7311  156.0977 H   0  0  0  0  0  0  0  0  0  0  0  0  # atno 11005 bound_to 11000
  146.2038  140.6136  142.9090 LP  0  0  0  0  0  0  0  0  0  0  0  0  # atno 17320 bound_to 7965
  144.7621  140.5446  143.6728 LP  0  0  0  0  0  0  0  0  0  0  0  0  # atno 17321 bound_to 7965
  140.7820  143.4343  151.0647 LP  0  0  0  0  0  0  0  0  0  0  0  0  # atno 17342 bound_to 10162
  139.8018  143.8074  152.3163 LP  0  0  0  0  0  0  0  0  0  0  0  0  # atno 17343 bound_to 10162
  156.1357  130.3643  149.9661 LP  0  0  0  0  0  0  0  0  0  0  0  0  # atno 17370 bound_to 10713
  156.7713  130.9187  151.3644 LP  0  0  0  0  0  0  0  0  0  0  0  0  # atno 17371 bound_to 10713
  141.1111  133.6643  156.2981 LP  0  0  0  0  0  0  0  0  0  0  0  0  # atno 17394 bound_to 11000
  140.5832  134.5724  157.5484 LP  0  0  0  0  0  0  0  0  0  0  0  0  # atno 17395 bound_to 11000

$$$$
