AV-unprocessed.smi:3244|AV-procd|sdf|12400|dock4
  -GOLD-   2272018273D 1   1.00000     0.00000
 Structure written by MMmdl.
 40 41  0  0  0  0  0  0  0  0  1 V2000
  152.2860  144.6563  158.6636 C   0  0  0  0  0  0  0  0  0  0  0  0
  151.6611  143.2989  159.0260 C   0  0  0  0  0  0  0  0  0  0  0  0
  152.6766  142.2396  159.1509 N   0  0  0  0  0  0  0  0  0  0  0  0
  152.5836  141.1144  158.3949 C   0  0  0  0  0  0  0  0  0  0  0  0
  153.3046  140.1333  158.5811 O   0  0  0  0  0  0  0  0  0  0  0  0
  151.5585  141.0371  157.2545 C   0  0  0  0  0  0  0  0  0  0  0  0
  151.5192  139.7002  156.6481 N   0  0  0  0  0  0  0  0  0  0  0  0
  150.2258  139.3727  156.0562 C   0  0  2  0  0  0  0  0  0  0  0  0
  150.0697  137.8469  155.9375 C   0  0  0  0  0  0  0  0  0  0  0  0
  150.1291  140.0502  154.6739 C   0  0  0  0  0  0  0  0  0  0  0  0
  148.7748  140.4707  154.3531 N   0  0  0  0  0  0  0  0  0  0  0  0
  148.2752  141.7530  154.2622 C   0  0  0  0  0  0  0  0  0  0  0  0
  146.9534  141.6526  153.9348 C   0  0  0  0  0  0  0  0  0  0  0  0
  146.7316  140.2496  153.8523 C   0  0  0  0  0  0  0  0  0  0  0  0
  147.8224  139.5449  154.1063 N   0  0  0  0  0  0  0  0  0  0  0  0
  153.5831  142.3907  160.2606 C   0  0  0  0  0  0  0  0  0  0  0  0
  153.7407  141.2804  161.2844 C   0  0  0  0  0  0  0  0  0  0  0  0
  153.0405  142.5544  161.6681 C   0  0  0  0  0  0  0  0  0  0  0  0
  151.5137  145.4162  158.5451 H   0  0  0  0  0  0  0  0  0  0  0  0
  152.8378  144.5957  157.7249 H   0  0  0  0  0  0  0  0  0  0  0  0
  152.9736  145.0057  159.4340 H   0  0  0  0  0  0  0  0  0  0  0  0
  151.0970  143.3862  159.9560 H   0  0  0  0  0  0  0  0  0  0  0  0
  150.9204  143.0507  158.2674 H   0  0  0  0  0  0  0  0  0  0  0  0
  150.5739  141.2831  157.6528 H   0  0  0  0  0  0  0  0  0  0  0  0
  151.7801  141.7949  156.5048 H   0  0  0  0  0  0  0  0  0  0  0  0
  151.7964  138.9794  157.2992 H   0  0  0  0  0  0  0  0  0  0  0  0
  149.4228  139.7652  156.6827 H   0  0  0  0  0  0  0  0  0  0  0  0
  149.1288  137.5903  155.4500 H   0  0  0  0  0  0  0  0  0  0  0  0
  150.0655  137.3613  156.9132 H   0  0  0  0  0  0  0  0  0  0  0  0
  150.8762  137.4085  155.3484 H   0  0  0  0  0  0  0  0  0  0  0  0
  150.7991  140.9102  154.6160 H   0  0  0  0  0  0  0  0  0  0  0  0
  150.4503  139.3565  153.8961 H   0  0  0  0  0  0  0  0  0  0  0  0
  148.8968  142.6200  154.4306 H   0  0  0  0  0  0  0  0  0  0  0  0
  146.2520  142.4583  153.7779 H   0  0  0  0  0  0  0  0  0  0  0  0
  145.8169  139.7262  153.6166 H   0  0  0  0  0  0  0  0  0  0  0  0
  154.4940  142.9408  160.0348 H   0  0  0  0  0  0  0  0  0  0  0  0
  153.1176  140.3920  161.2023 H   0  0  0  0  0  0  0  0  0  0  0  0
  154.7361  141.1134  161.6909 H   0  0  0  0  0  0  0  0  0  0  0  0
  153.5650  143.2396  162.3302 H   0  0  0  0  0  0  0  0  0  0  0  0
  151.9641  142.4958  161.8178 H   0  0  0  0  0  0  0  0  0  0  0  0
  1  2  1  0  0  0  0
  1 19  1  0  0  0  0
  1 20  1  0  0  0  0
  1 21  1  0  0  0  0
  2  3  1  0  0  0  0
  2 22  1  0  0  0  0
  2 23  1  0  0  0  0
  3  4  1  0  0  0  0
  3 16  1  0  0  0  0
  4  5  2  0  0  0  0
  4  6  1  0  0  0  0
  6  7  1  0  0  0  0
  6 24  1  0  0  0  0
  6 25  1  0  0  0  0
  7  8  1  0  0  0  0
  7 26  1  0  0  0  0
  8  9  1  0  0  0  0
  8 10  1  0  0  0  0
  8 27  1  0  0  0  0
  9 28  1  0  0  0  0
  9 29  1  0  0  0  0
  9 30  1  0  0  0  0
 10 11  1  0  0  0  0
 10 31  1  0  0  0  0
 10 32  1  0  0  0  0
 11 15  1  0  0  0  0
 11 12  1  0  0  0  0
 12 13  2  0  0  0  0
 12 33  1  0  0  0  0
 13 14  1  0  0  0  0
 13 34  1  0  0  0  0
 14 15  2  0  0  0  0
 14 35  1  0  0  0  0
 16 18  1  0  0  0  0
 16 17  1  0  0  0  0
 16 36  1  0  0  0  0
 17 18  1  0  0  0  0
 17 37  1  0  0  0  0
 17 38  1  0  0  0  0
 18 39  1  0  0  0  0
 18 40  1  0  0  0  0
M  END
> <s_m_source_file>
AV-unprocessed.smi

> <i_m_source_file_index>
3244

> <i_lp_mmshare_version>
43012

> <i_f3d_flags>
0

> <s_epik_input>
W0NIMl0xW0NIMl1bQ0hdMU4oW0NIMl1bQ0gzXSlDKD1PKVtDSDJdW05IXVtDQEhdKFtDSDNdKVtDSDJdbjJbY0hdW2NIXVtjSF1uMg==

> <s_epik_cmdline>
J2VwaWtfcHl0aG9uJywgJy1waCcsICc3LjAnLCAnLXRuJywgJzgnLCAnLW1hJywgJzIwMCcsICctbWV0YWxfYmluZGluZycsICctaW1hZScsICc8aW5maWxlLm1hZT4nLCAnLW9tYWUnLCAnPG91dGZpbGUubWFlPic=

> <r_lp_tautomer_probability>
1

> <r_epik_Ionization_Penalty>
1.02506

> <r_epik_Ionization_Penalty_Charging>
0

> <r_epik_Ionization_Penalty_Neutral>
1.02506

> <r_epik_State_Penalty>
1.07563

> <r_epik_Charging_Adjusted_Penalty>
1.07563

> <i_epik_Tot_Q>
0

> <i_epik_Tot_abs_Q>
0

> <r_epik_Metal_State_Penalty>
1.07558

> <b_epik_Metal_Only>
0

> <s_lp_Force_Field>
OPLS_2005

> <r_lp_Energy>
34.7243

> <b_lp_Chiralities_Consistent>
1

> <s_lp_Variant>
AV-unprocessed.smi:3244-3

> <Gold.Version>
5.8.1

> <Gold.Id.Protein>
6NUR|6NUR_protein|mol2

> <Gold.PLP.Fitness>
47.1266

> <Gold.PLP.PLP>
-39.8823

> <Gold.PLP.part.hbond>
-1.0000

> <Gold.PLP.part.metal>
0.0000

> <Gold.PLP.part.buried>
-1.6930

> <Gold.PLP.part.nonpolar>
-36.5919

> <Gold.PLP.part.repulsive>
0.1512

> <Gold.PLP.ligand.clash>
0.0000

> <Gold.PLP.ligand.torsion>
1.1032

> <Gold.PLP.Chemscore.Hbond>
1.0000

> <Gold.PLP.Chemscore.CHOScore>
1.9990

> <Gold.PLP.Chemscore.Metal>
0.0000

> <Gold.Chemscore.Hbonds>
donor molecule, donor type, donor heavy atom, donor atom, acceptor molecule, acceptor atom, score
      P1  H  7997  8009       L1     5  0.99
      L1  C    12    33       P1  8028  1.00
      L1  C    14    35       P1 10175  0.99

> <Gold.PLP.Chemscore.Internal.Correction>
0.4536

> <Gold.Rescore>
     Score         DG    S(hbond)    S(metal)    S(lipo)     H(rot)  DE(clash)    DE(int)     intcor
     13.49     -14.57       0.77        0.00      98.46       1.95       0.06       1.01       ----

> <Gold.Chemscore.Fitness>
13.4933

> <Gold.Chemscore.DG>
-14.5686

> <Gold.Chemscore.ZeroCoef>
-5.4800

> <Gold.Chemscore.Hbond>
0.7703

> <Gold.Chemscore.Metal>
0.0000

> <Gold.Chemscore.Lipo>
98.4647

> <Gold.Chemscore.Internal_Hbond>
0.0000

> <Gold.Chemscore.DEClash>
0.0643

> <Gold.Chemscore.DEInternal>
1.0110

> <Gold.Chemscore.Rot>
1.9550

> <Gold.Chemscore.Internal.Correction>
   9.000000E+99

> <Gold.Chemscore.Hbonds>
donor molecule, donor type, donor heavy atom, donor atom, acceptor molecule, acceptor atom, score
      P1  H  7997  8009       L1     5  0.59

> <Gold.Chemscore.Hbond.Weighted>
-2.5729

> <Gold.Chemscore.Metal.Weighted>
-0.0000

> <Gold.Chemscore.Lipo.Weighted>
-11.5204

> <Gold.Chemscore.Internal_Hbond.Weighted>
0.0000

> <Gold.Chemscore.DEClash.Weighted>
0.0643

> <Gold.Chemscore.DEInternal.Weighted>
1.0110

> <Gold.Chemscore.Rot.Weighted>
5.0047

> <Gold.Chemscore.Internal.Correction.Weighted>
   9.000000E+99

> <Gold.Protein.RotatedTorsions>
[ 6907 6896 6895 6894 ] final  -82.33 input  -60.11 | X-H torsion
[ 7974 7965 7964 7962 ] final  -90.83 input  175.53 | X-H torsion
[ 8008 7997 7996 7995 ] final  149.70 input   59.86 | X-H torsion
[ 10167 10162 10161 10158 ] final  -49.48 input  -65.29 | X-H torsion
[ 10718 10713 10712 10709 ] final  -97.29 input   66.30 | X-H torsion
[ 10763 10752 10751 10750 ] final -127.17 input  -60.55 | X-H torsion
[ 11005 11000 10999 10996 ] final  170.21 input  -57.11 | X-H torsion

> <Gold.Protein.ActiveResidues>
 VAL166  LYS551  ARG553  GLY616  TRP617  ASP618  TYR619  PRO620  LYS621  CYS622 
 ASP623  PHE694  ASN695  SER759  ASP760  ASP761  ALA762  ILE779  LEU786  VAL792 
 PHE793  MET794  SER795  GLU796  ALA797  LYS798  CYS799  TRP800  GLU811  SER814 

> <Gold.Protein.RotatedAtoms>
  150.6899  134.3681  159.4979 H   0  0  0  0  0  0  0  0  0  0  0  0  # atno 6907 bound_to 6896
  152.1500  134.8993  160.0558 H   0  0  0  0  0  0  0  0  0  0  0  0  # atno 6908 bound_to 6896
  152.0094  133.3820  159.4250 H   0  0  0  0  0  0  0  0  0  0  0  0  # atno 6909 bound_to 6896
  145.4213  140.9551  143.2179 H   0  0  0  0  0  0  0  0  0  0  0  0  # atno 7974 bound_to 7965
  156.2745  140.2095  156.5899 H   0  0  0  0  0  0  0  0  0  0  0  0  # atno 8008 bound_to 7997
  154.6990  140.0522  157.0463 H   0  0  0  0  0  0  0  0  0  0  0  0  # atno 8009 bound_to 7997
  155.0760  140.3181  155.4619 H   0  0  0  0  0  0  0  0  0  0  0  0  # atno 8010 bound_to 7997
  140.6683  143.2696  151.4222 H   0  0  0  0  0  0  0  0  0  0  0  0  # atno 10167 bound_to 10162
  156.0080  130.5188  150.6352 H   0  0  0  0  0  0  0  0  0  0  0  0  # atno 10718 bound_to 10713
  154.8751  135.3971  154.3550 H   0  0  0  0  0  0  0  0  0  0  0  0  # atno 10763 bound_to 10752
  153.4330  135.7025  153.6223 H   0  0  0  0  0  0  0  0  0  0  0  0  # atno 10764 bound_to 10752
  153.4836  135.3763  155.2425 H   0  0  0  0  0  0  0  0  0  0  0  0  # atno 10765 bound_to 10752
  140.3059  134.7557  157.3953 H   0  0  0  0  0  0  0  0  0  0  0  0  # atno 11005 bound_to 11000
  144.8244  139.5736  143.6972 LP  0  0  0  0  0  0  0  0  0  0  0  0  # atno 17320 bound_to 7965
  146.2655  139.6510  142.9332 LP  0  0  0  0  0  0  0  0  0  0  0  0  # atno 17321 bound_to 7965
  139.5940  144.1437  152.2122 LP  0  0  0  0  0  0  0  0  0  0  0  0  # atno 17342 bound_to 10162
  140.0800  144.5708  150.7129 LP  0  0  0  0  0  0  0  0  0  0  0  0  # atno 17343 bound_to 10162
  157.4143  131.0828  151.1191 LP  0  0  0  0  0  0  0  0  0  0  0  0  # atno 17370 bound_to 10713
  157.1813  130.6311  149.5673 LP  0  0  0  0  0  0  0  0  0  0  0  0  # atno 17371 bound_to 10713
  140.1068  134.5399  155.8302 LP  0  0  0  0  0  0  0  0  0  0  0  0  # atno 17394 bound_to 11000
  141.2118  133.6712  156.6613 LP  0  0  0  0  0  0  0  0  0  0  0  0  # atno 17395 bound_to 11000

$$$$
