AV-unprocessed.smi:3133|AV-procd|sdf|11937|dock6
  -GOLD-   2272017323D 1   1.00000     0.00000
 Structure written by MMmdl.
 32 33  0  0  0  0  0  0  0  0  1 V2000
  152.4988  139.0646  158.8018 C   0  0  0  0  0  0  0  0  0  0  0  0
  151.0377  139.0056  158.3104 C   0  0  2  0  0  0  0  0  0  0  0  0
  150.2891  137.7523  158.7961 C   0  0  0  0  0  0  0  0  0  0  0  0
  150.8892  136.8431  159.3705 O   0  0  0  0  0  0  0  0  0  0  0  0
  148.9663  137.7246  158.5653 N   0  0  0  0  0  0  0  0  0  0  0  0
  148.0623  136.6395  158.9325 C   0  0  0  0  0  0  0  0  0  0  0  0
  148.2361  136.2252  160.4031 C   0  0  2  0  0  0  0  0  0  0  0  0
  147.4252  135.0007  160.8329 C   0  0  0  0  0  0  0  0  0  0  0  0
  147.2745  135.2405  162.3172 C   0  0  0  0  0  0  0  0  0  0  0  0
  147.0664  136.7506  162.3618 C   0  0  0  0  0  0  0  0  0  0  0  0
  147.8063  137.2779  161.2634 O   0  0  0  0  0  0  0  0  0  0  0  0
  150.9466  139.1277  156.8600 N   0  0  0  0  0  0  0  0  0  0  0  0
  151.4284  140.0698  156.0464 C   0  0  0  0  0  0  0  0  0  0  0  0
  151.1201  139.8888  154.7698 N   0  0  0  0  0  0  0  0  0  0  0  0
  150.3876  138.7404  154.8731 C   0  0  0  0  0  0  0  0  0  0  0  0
  150.2457  138.2468  156.1030 N   0  0  0  0  0  0  0  0  0  0  0  0
  152.5501  139.0344  159.8907 H   0  0  0  0  0  0  0  0  0  0  0  0
  152.9793  139.9886  158.4790 H   0  0  0  0  0  0  0  0  0  0  0  0
  153.0929  138.2335  158.4195 H   0  0  0  0  0  0  0  0  0  0  0  0
  150.5203  139.8665  158.7370 H   0  0  0  0  0  0  0  0  0  0  0  0
  148.5536  138.5143  158.0907 H   0  0  0  0  0  0  0  0  0  0  0  0
  147.0430  136.9921  158.7742 H   0  0  0  0  0  0  0  0  0  0  0  0
  148.1899  135.7782  158.2744 H   0  0  0  0  0  0  0  0  0  0  0  0
  149.2914  136.0468  160.6155 H   0  0  0  0  0  0  0  0  0  0  0  0
  146.4440  135.0006  160.3563 H   0  0  0  0  0  0  0  0  0  0  0  0
  147.9194  134.0576  160.5986 H   0  0  0  0  0  0  0  0  0  0  0  0
  146.4507  134.6820  162.7626 H   0  0  0  0  0  0  0  0  0  0  0  0
  148.1949  134.9705  162.8367 H   0  0  0  0  0  0  0  0  0  0  0  0
  146.0129  136.9925  162.2162 H   0  0  0  0  0  0  0  0  0  0  0  0
  147.3873  137.1882  163.3073 H   0  0  0  0  0  0  0  0  0  0  0  0
  152.0131  140.9081  156.3956 H   0  0  0  0  0  0  0  0  0  0  0  0
  149.9412  138.2571  154.0165 H   0  0  0  0  0  0  0  0  0  0  0  0
  1  2  1  0  0  0  0
  1 17  1  0  0  0  0
  1 18  1  0  0  0  0
  1 19  1  0  0  0  0
  2  3  1  0  0  0  0
  2 12  1  0  0  0  0
  2 20  1  0  0  0  0
  3  4  2  0  0  0  0
  3  5  1  0  0  0  0
  5  6  1  0  0  0  0
  5 21  1  0  0  0  0
  6  7  1  0  0  0  0
  6 22  1  0  0  0  0
  6 23  1  0  0  0  0
  7 11  1  0  0  0  0
  7  8  1  0  0  0  0
  7 24  1  0  0  0  0
  8  9  1  0  0  0  0
  8 25  1  0  0  0  0
  8 26  1  0  0  0  0
  9 10  1  0  0  0  0
  9 27  1  0  0  0  0
  9 28  1  0  0  0  0
 10 11  1  0  0  0  0
 10 29  1  0  0  0  0
 10 30  1  0  0  0  0
 12 16  1  0  0  0  0
 12 13  1  0  0  0  0
 13 14  2  0  0  0  0
 13 31  1  0  0  0  0
 14 15  1  0  0  0  0
 15 16  2  0  0  0  0
 15 32  1  0  0  0  0
M  END
> <s_m_source_file>
AV-unprocessed.smi

> <i_m_source_file_index>
3133

> <i_lp_mmshare_version>
43012

> <i_f3d_flags>
0

> <s_epik_input>
bjFbY0hdbltjSF1uMVtDQEhdKFtDSDNdKUMoPU8pW05IXVtDSDJdW0NAQEhdMltDSDJdW0NIMl1bQ0gyXU8y

> <s_epik_cmdline>
J2VwaWtfcHl0aG9uJywgJy1waCcsICc3LjAnLCAnLXRuJywgJzgnLCAnLW1hJywgJzIwMCcsICctbWV0YWxfYmluZGluZycsICctaW1hZScsICc8aW5maWxlLm1hZT4nLCAnLW9tYWUnLCAnPG91dGZpbGUubWFlPic=

> <r_lp_tautomer_probability>
1

> <r_epik_Ionization_Penalty>
1.2027e-05

> <r_epik_Ionization_Penalty_Charging>
0

> <r_epik_Ionization_Penalty_Neutral>
1.2027e-05

> <r_epik_State_Penalty>
-0

> <r_epik_Charging_Adjusted_Penalty>
0

> <i_epik_Tot_Q>
0

> <i_epik_Tot_abs_Q>
0

> <r_epik_Metal_State_Penalty>
-0

> <b_epik_Metal_Only>
0

> <s_lp_Force_Field>
OPLS_2005

> <r_lp_Energy>
23.5717

> <b_lp_Chiralities_Consistent>
1

> <s_lp_Variant>
AV-unprocessed.smi:3133-1

> <Gold.Version>
5.8.1

> <Gold.Id.Protein>
6NUR|6NUR_protein|mol2

> <Gold.PLP.Fitness>
39.7309

> <Gold.PLP.PLP>
-28.6922

> <Gold.PLP.part.hbond>
-4.0000

> <Gold.PLP.part.metal>
0.0000

> <Gold.PLP.part.buried>
-4.6404

> <Gold.PLP.part.nonpolar>
-20.3339

> <Gold.PLP.part.repulsive>
0.2209

> <Gold.PLP.ligand.clash>
0.0000

> <Gold.PLP.ligand.torsion>
0.2033

> <Gold.PLP.Chemscore.Hbond>
3.7760

> <Gold.PLP.Chemscore.CHOScore>
0.0000

> <Gold.PLP.Chemscore.Metal>
0.0000

> <Gold.Chemscore.Hbonds>
donor molecule, donor type, donor heavy atom, donor atom, acceptor molecule, acceptor atom, score
      P1  H  6896  6909       L1     4  1.00
      P1  H  6931  6943       L1    11  0.94
      P1  H  6934  6947       L1    11  0.77
      P1  H  7989  7998       L1    14  1.00

> <Gold.PLP.Chemscore.Internal.Correction>
0.1174

> <Gold.Rescore>
     Score         DG    S(hbond)    S(metal)    S(lipo)     H(rot)  DE(clash)    DE(int)     intcor
     13.29     -16.04       3.34        0.00      44.21       2.26       0.00       2.75       ----

> <Gold.Chemscore.Fitness>
13.2914

> <Gold.Chemscore.DG>
-16.0426

> <Gold.Chemscore.ZeroCoef>
-5.4800

> <Gold.Chemscore.Hbond>
3.3428

> <Gold.Chemscore.Metal>
0.0000

> <Gold.Chemscore.Lipo>
44.2079

> <Gold.Chemscore.Internal_Hbond>
0.0000

> <Gold.Chemscore.DEClash>
0.0000

> <Gold.Chemscore.DEInternal>
2.7512

> <Gold.Chemscore.Rot>
2.2558

> <Gold.Chemscore.Internal.Correction>
   9.000000E+99

> <Gold.Chemscore.Hbonds>
donor molecule, donor type, donor heavy atom, donor atom, acceptor molecule, acceptor atom, score
      P1  H  6896  6909       L1     4  1.00
      P1  H  6931  6943       L1    11  0.51
      P1  H  6934  6947       L1    11  0.49
      P1  H  7989  7998       L1    14  1.00

> <Gold.Chemscore.Hbond.Weighted>
-11.1650

> <Gold.Chemscore.Metal.Weighted>
-0.0000

> <Gold.Chemscore.Lipo.Weighted>
-5.1723

> <Gold.Chemscore.Internal_Hbond.Weighted>
0.0000

> <Gold.Chemscore.DEClash.Weighted>
0.0000

> <Gold.Chemscore.DEInternal.Weighted>
2.7512

> <Gold.Chemscore.Rot.Weighted>
5.7747

> <Gold.Chemscore.Internal.Correction.Weighted>
   9.000000E+99

> <Gold.Protein.RotatedTorsions>
[ 6907 6896 6895 6894 ] final  107.67 input  -60.11 | X-H torsion
[ 7974 7965 7964 7962 ] final -131.97 input  175.53 | X-H torsion
[ 8008 7997 7996 7995 ] final  -78.72 input   59.86 | X-H torsion
[ 10167 10162 10161 10158 ] final  -28.11 input  -65.29 | X-H torsion
[ 10718 10713 10712 10709 ] final  139.87 input   66.30 | X-H torsion
[ 10763 10752 10751 10750 ] final   63.65 input  -60.55 | X-H torsion
[ 11005 11000 10999 10996 ] final  110.36 input  -57.11 | X-H torsion

> <Gold.Protein.ActiveResidues>
 VAL166  LYS551  ARG553  GLY616  TRP617  ASP618  TYR619  PRO620  LYS621  CYS622 
 ASP623  PHE694  ASN695  SER759  ASP760  ASP761  ALA762  ILE779  LEU786  VAL792 
 PHE793  MET794  SER795  GLU796  ALA797  LYS798  CYS799  TRP800  GLU811  SER814 

> <Gold.Protein.RotatedAtoms>
  152.5145  133.9201  159.7529 H   0  0  0  0  0  0  0  0  0  0  0  0  # atno 6907 bound_to 6896
  150.9574  133.6474  159.2767 H   0  0  0  0  0  0  0  0  0  0  0  0  # atno 6908 bound_to 6896
  151.3730  135.0931  159.9524 H   0  0  0  0  0  0  0  0  0  0  0  0  # atno 6909 bound_to 6896
  144.9329  140.7149  143.4895 H   0  0  0  0  0  0  0  0  0  0  0  0  # atno 7974 bound_to 7965
  154.5716  140.0690  156.8972 H   0  0  0  0  0  0  0  0  0  0  0  0  # atno 8008 bound_to 7997
  155.2625  140.3359  155.4254 H   0  0  0  0  0  0  0  0  0  0  0  0  # atno 8009 bound_to 7997
  156.2122  140.1764  156.7654 H   0  0  0  0  0  0  0  0  0  0  0  0  # atno 8010 bound_to 7997
  140.7272  143.4037  151.1222 H   0  0  0  0  0  0  0  0  0  0  0  0  # atno 10167 bound_to 10162
  157.4096  131.1026  151.0468 H   0  0  0  0  0  0  0  0  0  0  0  0  # atno 10718 bound_to 10713
  153.0026  135.5421  154.6386 H   0  0  0  0  0  0  0  0  0  0  0  0  # atno 10763 bound_to 10752
  154.5647  135.2836  155.0888 H   0  0  0  0  0  0  0  0  0  0  0  0  # atno 10764 bound_to 10752
  154.2077  135.6473  153.5158 H   0  0  0  0  0  0  0  0  0  0  0  0  # atno 10765 bound_to 10752
  139.8880  134.9482  156.6267 H   0  0  0  0  0  0  0  0  0  0  0  0  # atno 11005 bound_to 11000
  145.3113  139.1817  143.4637 LP  0  0  0  0  0  0  0  0  0  0  0  0  # atno 17320 bound_to 7965
  146.3254  140.3118  142.8627 LP  0  0  0  0  0  0  0  0  0  0  0  0  # atno 17321 bound_to 7965
  139.7660  143.8564  152.3111 LP  0  0  0  0  0  0  0  0  0  0  0  0  # atno 17342 bound_to 10162
  139.8466  144.7184  150.9265 LP  0  0  0  0  0  0  0  0  0  0  0  0  # atno 17343 bound_to 10162
  157.1437  130.6154  149.5562 LP  0  0  0  0  0  0  0  0  0  0  0  0  # atno 17370 bound_to 10713
  155.9847  130.4873  150.6994 LP  0  0  0  0  0  0  0  0  0  0  0  0  # atno 17371 bound_to 10713
  140.7698  133.8748  155.8483 LP  0  0  0  0  0  0  0  0  0  0  0  0  # atno 17394 bound_to 11000
  140.9851  134.1353  157.4459 LP  0  0  0  0  0  0  0  0  0  0  0  0  # atno 17395 bound_to 11000

$$$$
