AV-unprocessed.smi:62|AV-procd|sdf|604|dock8
  -GOLD-   2262016493D 1   1.00000     0.00000
 Structure written by MMmdl.
 31 32  0  0  0  0  0  0  0  0  3 V2000
  151.5679  142.8122  158.7300 C   0  0  0  0  0  0  0  0  0  0  0  0
  151.2673  142.0030  157.5685 N   0  0  0  0  0  0  0  0  0  0  0  0
  150.2372  142.1388  156.6677 C   0  0  0  0  0  0  0  0  0  0  0  0
  150.3535  141.1460  155.7332 C   0  0  0  0  0  0  0  0  0  0  0  0
  149.4238  140.9529  154.5556 C   0  0  0  0  0  0  0  0  0  0  0  0
  148.2176  141.8045  154.6835 N   0  3  2  0  0  0  0  0  0  0  0  0
  147.3851  141.5269  155.8777 C   0  0  0  0  0  0  0  0  0  0  0  0
  145.9198  141.6822  155.4437 C   0  0  0  0  0  0  0  0  0  0  0  0
  145.9943  142.3482  154.0704 C   0  0  2  0  0  0  0  0  0  0  0  0
  144.8913  142.0085  153.2570 O   0  0  0  0  0  0  0  0  0  0  0  0
  147.3142  141.8226  153.5152 C   0  0  0  0  0  0  0  0  0  0  0  0
  151.5180  140.4256  156.1746 C   0  0  0  0  0  0  0  0  0  0  0  0
  152.0566  139.2136  155.4615 C   0  0  0  0  0  0  0  0  0  0  0  0
  153.0318  138.5888  155.9306 O   0  0  0  0  0  0  0  0  0  0  0  0
  151.4971  138.8662  154.3986 O   0  5  0  0  0  0  0  0  0  0  0  0
  152.0542  140.9556  157.2661 N   0  0  0  0  0  0  0  0  0  0  0  0
  151.0035  143.7444  158.6921 H   0  0  0  0  0  0  0  0  0  0  0  0
  152.6331  143.0447  158.7574 H   0  0  0  0  0  0  0  0  0  0  0  0
  151.2966  142.2685  159.6353 H   0  0  0  0  0  0  0  0  0  0  0  0
  149.5090  142.9310  156.7607 H   0  0  0  0  0  0  0  0  0  0  0  0
  149.8989  141.1114  153.5892 H   0  0  0  0  0  0  0  0  0  0  0  0
  149.0893  139.9149  154.5317 H   0  0  0  0  0  0  0  0  0  0  0  0
  147.5581  140.5213  156.2644 H   0  0  0  0  0  0  0  0  0  0  0  0
  147.6453  142.2351  156.6646 H   0  0  0  0  0  0  0  0  0  0  0  0
  145.4666  140.6930  155.3582 H   0  0  0  0  0  0  0  0  0  0  0  0
  145.3263  142.2566  156.1555 H   0  0  0  0  0  0  0  0  0  0  0  0
  146.0454  143.4320  154.1849 H   0  0  0  0  0  0  0  0  0  0  0  0
  144.8061  141.0671  153.2383 H   0  0  0  0  0  0  0  0  0  0  0  0
  147.7064  142.4328  152.7007 H   0  0  0  0  0  0  0  0  0  0  0  0
  147.1745  140.8055  153.1472 H   0  0  0  0  0  0  0  0  0  0  0  0
  148.5424  142.7540  154.7951 H   0  0  0  0  0  0  0  0  0  0  0  0
  1  2  1  0  0  0  0
  1 17  1  0  0  0  0
  1 18  1  0  0  0  0
  1 19  1  0  0  0  0
  2 16  1  0  0  0  0
  2  3  1  0  0  0  0
  3  4  2  0  0  0  0
  3 20  1  0  0  0  0
  4  5  1  0  0  0  0
  4 12  1  0  0  0  0
  5  6  1  0  0  0  0
  5 21  1  0  0  0  0
  5 22  1  0  0  0  0
  6 11  1  0  0  0  0
  6  7  1  0  0  0  0
  6 31  1  0  0  0  0
  7  8  1  0  0  0  0
  7 23  1  0  0  0  0
  7 24  1  0  0  0  0
  8  9  1  0  0  0  0
  8 25  1  0  0  0  0
  8 26  1  0  0  0  0
  9 10  1  0  0  0  0
  9 11  1  0  0  0  0
  9 27  1  0  0  0  0
 10 28  1  0  0  0  0
 11 29  1  0  0  0  0
 11 30  1  0  0  0  0
 12 13  1  0  0  0  0
 12 16  2  0  0  0  0
 13 14  2  0  0  0  0
 13 15  1  0  0  0  0
M  CHG  1   6   1
M  CHG  1  15  -1
M  END
> <s_m_source_file>
AV-unprocessed.smi

> <i_m_source_file_index>
62

> <i_lp_mmshare_version>
43012

> <i_f3d_flags>
0

> <s_epik_input>
W0NIM11uMVtjSF1jKGMobjEpQyg9TylbT0hdKVtDSDJdTjJbQ0gyXVtDSDJdW0NAQEhdKFtPSF0pW0NIMl0y

> <s_epik_cmdline>
J2VwaWtfcHl0aG9uJywgJy1waCcsICc3LjAnLCAnLXRuJywgJzgnLCAnLW1hJywgJzIwMCcsICctbWV0YWxfYmluZGluZycsICctaW1hZScsICc8aW5maWxlLm1hZT4nLCAnLW9tYWUnLCAnPG91dGZpbGUubWFlPic=

> <r_epik_Ionization_Penalty>
0.0522993

> <r_epik_Ionization_Penalty_Charging>
0.0522915

> <r_epik_Ionization_Penalty_Neutral>
7.84975e-06

> <r_epik_State_Penalty>
0.0448084

> <r_epik_Charging_Adjusted_Penalty>
0.0970998

> <i_epik_Tot_Q>
0

> <i_epik_Tot_abs_Q>
2

> <r_epik_Metal_State_Penalty>
0.0448097

> <b_epik_Metal_Only>
0

> <s_lp_Force_Field>
OPLS_2005

> <r_lp_Energy>
19.3538

> <b_lp_Chiralities_Consistent>
1

> <s_lp_Variant>
AV-unprocessed.smi:62-4

> <Gold.Version>
5.8.1

> <Gold.Id.Protein>
6NUR|6NUR_protein|mol2

> <Gold.PLP.Fitness>
48.0417

> <Gold.PLP.PLP>
-29.3733

> <Gold.PLP.part.hbond>
-5.2212

> <Gold.PLP.part.metal>
0.0000

> <Gold.PLP.part.buried>
-0.0407

> <Gold.PLP.part.nonpolar>
-23.6382

> <Gold.PLP.part.repulsive>
0.2451

> <Gold.PLP.ligand.clash>
0.0000

> <Gold.PLP.ligand.torsion>
0.1321

> <Gold.PLP.Chemscore.Hbond>
5.3636

> <Gold.PLP.Chemscore.CHOScore>
0.9439

> <Gold.PLP.Chemscore.Metal>
0.0000

> <Gold.Chemscore.Hbonds>
donor molecule, donor type, donor heavy atom, donor atom, acceptor molecule, acceptor atom, score
      L1  H     6    31       P1  8028  1.40
      L1  H    10    28       P1 10175  0.28
      P1  H  7989  7998       L1    15  0.43
      P1  H  7997  8008       L1    14  1.81
      L1  C     3    20       P1  8028  1.00

> <Gold.PLP.Chemscore.Internal.Correction>
0.0102

> <Gold.Rescore>
     Score         DG    S(hbond)    S(metal)    S(lipo)     H(rot)  DE(clash)    DE(int)     intcor
     13.13     -15.29       2.34        0.00      56.74       1.81       0.83       1.33       ----

> <Gold.Chemscore.Fitness>
13.1312

> <Gold.Chemscore.DG>
-15.2901

> <Gold.Chemscore.ZeroCoef>
-5.4800

> <Gold.Chemscore.Hbond>
2.3363

> <Gold.Chemscore.Metal>
0.0000

> <Gold.Chemscore.Lipo>
56.7363

> <Gold.Chemscore.Internal_Hbond>
0.0000

> <Gold.Chemscore.DEClash>
0.8333

> <Gold.Chemscore.DEInternal>
1.3256

> <Gold.Chemscore.Rot>
1.8091

> <Gold.Chemscore.Internal.Correction>
   9.000000E+99

> <Gold.Chemscore.Hbonds>
donor molecule, donor type, donor heavy atom, donor atom, acceptor molecule, acceptor atom, score
      L1  H     6    31       P1  8028  0.69
      L1  H    10    28       P1 10175  0.08
      P1  H  7989  7998       L1    15  0.04
      P1  H  7997  8008       L1    14  0.37

> <Gold.Chemscore.Hbond.Weighted>
-7.8034

> <Gold.Chemscore.Metal.Weighted>
-0.0000

> <Gold.Chemscore.Lipo.Weighted>
-6.6381

> <Gold.Chemscore.Internal_Hbond.Weighted>
0.0000

> <Gold.Chemscore.DEClash.Weighted>
0.8333

> <Gold.Chemscore.DEInternal.Weighted>
1.3256

> <Gold.Chemscore.Rot.Weighted>
4.6314

> <Gold.Chemscore.Internal.Correction.Weighted>
   9.000000E+99

> <Gold.Protein.RotatedTorsions>
[ 6907 6896 6895 6894 ] final   76.38 input  -60.11 | X-H torsion
[ 7974 7965 7964 7962 ] final  -75.89 input  175.53 | X-H torsion
[ 8008 7997 7996 7995 ] final  -51.07 input   59.86 | X-H torsion
[ 10167 10162 10161 10158 ] final   60.65 input  -65.29 | X-H torsion
[ 10718 10713 10712 10709 ] final   43.25 input   66.30 | X-H torsion
[ 10763 10752 10751 10750 ] final  -47.36 input  -60.55 | X-H torsion
[ 11005 11000 10999 10996 ] final  -39.68 input  -57.11 | X-H torsion

> <Gold.Protein.ActiveResidues>
 VAL166  LYS551  ARG553  GLY616  TRP617  ASP618  TYR619  PRO620  LYS621  CYS622 
 ASP623  PHE694  ASN695  SER759  ASP760  ASP761  ALA762  ILE779  LEU786  VAL792 
 PHE793  MET794  SER795  GLU796  ALA797  LYS798  CYS799  TRP800  GLU811  SER814 

> <Gold.Protein.RotatedAtoms>
  152.5070  134.3977  159.9405 H   0  0  0  0  0  0  0  0  0  0  0  0  # atno 6907 bound_to 6896
  151.3939  133.3773  159.2732 H   0  0  0  0  0  0  0  0  0  0  0  0  # atno 6908 bound_to 6896
  150.9412  134.8841  159.7672 H   0  0  0  0  0  0  0  0  0  0  0  0  # atno 6909 bound_to 6896
  145.6200  140.9365  143.1143 H   0  0  0  0  0  0  0  0  0  0  0  0  # atno 7974 bound_to 7965
  154.4075  140.1257  156.4769 H   0  0  0  0  0  0  0  0  0  0  0  0  # atno 8008 bound_to 7997
  155.7124  140.3493  155.4960 H   0  0  0  0  0  0  0  0  0  0  0  0  # atno 8009 bound_to 7997
  155.9289  140.1066  157.1138 H   0  0  0  0  0  0  0  0  0  0  0  0  # atno 8010 bound_to 7997
  140.1633  144.4349  150.6698 H   0  0  0  0  0  0  0  0  0  0  0  0  # atno 10167 bound_to 10162
  157.4138  130.7929  149.7454 H   0  0  0  0  0  0  0  0  0  0  0  0  # atno 10718 bound_to 10713
  154.0601  135.6619  153.4811 H   0  0  0  0  0  0  0  0  0  0  0  0  # atno 10763 bound_to 10752
  153.0430  135.5132  154.7667 H   0  0  0  0  0  0  0  0  0  0  0  0  # atno 10764 bound_to 10752
  154.6701  135.3028  154.9720 H   0  0  0  0  0  0  0  0  0  0  0  0  # atno 10765 bound_to 10752
  141.0120  133.6903  156.2220 H   0  0  0  0  0  0  0  0  0  0  0  0  # atno 11005 bound_to 11000
  144.7235  139.7952  143.7373 LP  0  0  0  0  0  0  0  0  0  0  0  0  # atno 17320 bound_to 7965
  146.1438  139.4502  143.0092 LP  0  0  0  0  0  0  0  0  0  0  0  0  # atno 17321 bound_to 7965
  140.6629  143.2258  151.5812 LP  0  0  0  0  0  0  0  0  0  0  0  0  # atno 17342 bound_to 10162
  139.5371  144.2750  152.1274 LP  0  0  0  0  0  0  0  0  0  0  0  0  # atno 17343 bound_to 10162
  155.9859  130.3979  150.3240 LP  0  0  0  0  0  0  0  0  0  0  0  0  # atno 17370 bound_to 10713
  157.1381  131.0289  151.2940 LP  0  0  0  0  0  0  0  0  0  0  0  0  # atno 17371 bound_to 10713
  140.6718  134.4860  157.5587 LP  0  0  0  0  0  0  0  0  0  0  0  0  # atno 17394 bound_to 11000
  139.9095  134.8375  156.1580 LP  0  0  0  0  0  0  0  0  0  0  0  0  # atno 17395 bound_to 11000

$$$$
