AV-unprocessed.smi:3263|AV-procd|sdf|12489|dock6
  -GOLD-   2272018393D 1   1.00000     0.00000
 Structure written by MMmdl.
 41 43  0  0  0  0  0  0  0  0  1 V2000
  154.1611  140.0690  159.2252 O   0  0  0  0  0  0  0  0  0  0  0  0
  153.6867  140.7136  160.1607 C   0  0  0  0  0  0  0  0  0  0  0  0
  152.3933  141.5129  159.9711 C   0  0  0  0  0  0  0  0  0  0  0  0
  152.6172  143.0401  160.0477 C   0  0  1  0  0  0  0  0  0  0  0  0
  153.2979  143.6692  158.8112 C   0  0  0  0  0  0  0  0  0  0  0  0
  152.3734  144.8552  158.4779 C   0  0  1  0  0  0  0  0  0  0  0  0
  151.0781  144.3184  157.8422 C   0  0  0  0  0  0  0  0  0  0  0  0
  150.3506  143.6856  159.0423 C   0  0  0  0  0  0  0  0  0  0  0  0
  151.3441  143.9056  160.2022 C   0  0  2  0  0  0  0  0  0  0  0  0
  151.8909  145.2882  159.8583 C   0  0  0  0  0  0  0  0  0  0  0  0
  154.2449  140.7607  161.3800 N   0  0  0  0  0  0  0  0  0  0  0  0
  155.4514  140.0441  161.7766 C   0  0  0  0  0  0  0  0  0  0  0  0
  155.5419  139.8979  163.3050 C   0  0  0  0  0  0  0  0  0  0  0  0
  155.4936  141.2375  164.0154 C   0  0  0  0  0  0  0  0  0  0  0  0
  156.2836  141.4751  165.1607 C   0  0  0  0  0  0  0  0  0  0  0  0
  156.1986  142.7349  165.7849 C   0  0  0  0  0  0  0  0  0  0  0  0
  155.3308  143.7028  165.2436 C   0  0  0  0  0  0  0  0  0  0  0  0
  154.5830  143.3664  164.0976 C   0  0  0  0  0  0  0  0  0  0  0  0
  154.6576  142.1619  163.4911 N   0  0  0  0  0  0  0  0  0  0  0  0
  151.9443  141.2384  159.0164 H   0  0  0  0  0  0  0  0  0  0  0  0
  151.6900  141.2060  160.7457 H   0  0  0  0  0  0  0  0  0  0  0  0
  153.2434  143.2454  160.9184 H   0  0  0  0  0  0  0  0  0  0  0  0
  154.3024  144.0125  159.0622 H   0  0  0  0  0  0  0  0  0  0  0  0
  153.3858  142.9774  157.9723 H   0  0  0  0  0  0  0  0  0  0  0  0
  152.8576  145.6359  157.8907 H   0  0  0  0  0  0  0  0  0  0  0  0
  150.4850  145.1302  157.4194 H   0  0  0  0  0  0  0  0  0  0  0  0
  151.2745  143.5979  157.0474 H   0  0  0  0  0  0  0  0  0  0  0  0
  149.4186  144.2178  159.2381 H   0  0  0  0  0  0  0  0  0  0  0  0
  150.0931  142.6401  158.8795 H   0  0  0  0  0  0  0  0  0  0  0  0
  150.8854  143.8315  161.1886 H   0  0  0  0  0  0  0  0  0  0  0  0
  152.6982  145.6142  160.5163 H   0  0  0  0  0  0  0  0  0  0  0  0
  151.1233  146.0635  159.8248 H   0  0  0  0  0  0  0  0  0  0  0  0
  153.7910  141.3184  162.0890 H   0  0  0  0  0  0  0  0  0  0  0  0
  155.4832  139.0661  161.2935 H   0  0  0  0  0  0  0  0  0  0  0  0
  156.3122  140.6014  161.4065 H   0  0  0  0  0  0  0  0  0  0  0  0
  154.7260  139.2706  163.6669 H   0  0  0  0  0  0  0  0  0  0  0  0
  156.4651  139.3873  163.5829 H   0  0  0  0  0  0  0  0  0  0  0  0
  156.9389  140.7118  165.5535 H   0  0  0  0  0  0  0  0  0  0  0  0
  156.7877  142.9547  166.6630 H   0  0  0  0  0  0  0  0  0  0  0  0
  155.2395  144.6791  165.6957 H   0  0  0  0  0  0  0  0  0  0  0  0
  153.9066  144.0836  163.6569 H   0  0  0  0  0  0  0  0  0  0  0  0
  1  2  2  0  0  0  0
  2  3  1  0  0  0  0
  2 11  1  0  0  0  0
  3  4  1  0  0  0  0
  3 20  1  0  0  0  0
  3 21  1  0  0  0  0
  4  9  1  0  0  0  0
  4  5  1  0  0  0  0
  4 22  1  0  0  0  0
  5  6  1  0  0  0  0
  5 23  1  0  0  0  0
  5 24  1  0  0  0  0
  6 10  1  0  0  0  0
  6  7  1  0  0  0  0
  6 25  1  0  0  0  0
  7  8  1  0  0  0  0
  7 26  1  0  0  0  0
  7 27  1  0  0  0  0
  8  9  1  0  0  0  0
  8 28  1  0  0  0  0
  8 29  1  0  0  0  0
  9 10  1  0  0  0  0
  9 30  1  0  0  0  0
 10 31  1  0  0  0  0
 10 32  1  0  0  0  0
 11 12  1  0  0  0  0
 11 33  1  0  0  0  0
 12 13  1  0  0  0  0
 12 34  1  0  0  0  0
 12 35  1  0  0  0  0
 13 14  1  0  0  0  0
 13 36  1  0  0  0  0
 13 37  1  0  0  0  0
 14 19  1  0  0  0  0
 14 15  2  0  0  0  0
 15 16  1  0  0  0  0
 15 38  1  0  0  0  0
 16 17  2  0  0  0  0
 16 39  1  0  0  0  0
 17 18  1  0  0  0  0
 17 40  1  0  0  0  0
 18 19  2  0  0  0  0
 18 41  1  0  0  0  0
M  END
> <s_m_source_file>
AV-unprocessed.smi

> <i_m_source_file_index>
3263

> <i_lp_mmshare_version>
43012

> <i_f3d_flags>
0

> <s_epik_input>
W0NIMl0xW0NIMl1bQ0BASF0oW0NIMl0yKVtDQEBIXShbQ0gyXVtDQEhdMTIpW0NIMl1DKD1PKVtOSF1bQ0gyXVtDSDJdYzNbY0hdW2NIXVtjSF1bY0hdbjM=

> <s_epik_cmdline>
J2VwaWtfcHl0aG9uJywgJy1waCcsICc3LjAnLCAnLXRuJywgJzgnLCAnLW1hJywgJzIwMCcsICctbWV0YWxfYmluZGluZycsICctaW1hZScsICc8aW5maWxlLm1hZT4nLCAnLW9tYWUnLCAnPG91dGZpbGUubWFlPic=

> <r_epik_Ionization_Penalty>
0.0273541

> <r_epik_Ionization_Penalty_Charging>
0

> <r_epik_Ionization_Penalty_Neutral>
0.0273541

> <r_epik_State_Penalty>
0.0223838

> <r_epik_Charging_Adjusted_Penalty>
0.0223838

> <i_epik_Tot_Q>
0

> <i_epik_Tot_abs_Q>
0

> <r_epik_Metal_State_Penalty>
0.0213927

> <b_epik_Metal_Only>
0

> <s_lp_Force_Field>
OPLS_2005

> <r_lp_Energy>
45.4659

> <b_lp_Chiralities_Consistent>
1

> <s_lp_Variant>
AV-unprocessed.smi:3263-4

> <Gold.Version>
5.8.1

> <Gold.Id.Protein>
6NUR|6NUR_protein|mol2

> <Gold.PLP.Fitness>
48.9204

> <Gold.PLP.PLP>
-47.2790

> <Gold.PLP.part.hbond>
-2.0000

> <Gold.PLP.part.metal>
0.0000

> <Gold.PLP.part.buried>
-2.6842

> <Gold.PLP.part.nonpolar>
-41.2045

> <Gold.PLP.part.repulsive>
0.0166

> <Gold.PLP.ligand.clash>
0.0000

> <Gold.PLP.ligand.torsion>
0.6166

> <Gold.PLP.Chemscore.Hbond>
0.9440

> <Gold.PLP.Chemscore.CHOScore>
0.0000

> <Gold.PLP.Chemscore.Metal>
0.0000

> <Gold.Chemscore.Hbonds>
donor molecule, donor type, donor heavy atom, donor atom, acceptor molecule, acceptor atom, score
      P1  H  7997  8010       L1     1  0.81

> <Gold.PLP.Chemscore.Internal.Correction>
0.0426

> <Gold.Rescore>
     Score         DG    S(hbond)    S(metal)    S(lipo)     H(rot)  DE(clash)    DE(int)     intcor
     20.26     -22.36       0.91        0.00     150.13       1.46       0.44       1.66       ----

> <Gold.Chemscore.Fitness>
20.2562

> <Gold.Chemscore.DG>
-22.3566

> <Gold.Chemscore.ZeroCoef>
-5.4800

> <Gold.Chemscore.Hbond>
0.9095

> <Gold.Chemscore.Metal>
0.0000

> <Gold.Chemscore.Lipo>
150.1281

> <Gold.Chemscore.Internal_Hbond>
0.0000

> <Gold.Chemscore.DEClash>
0.4378

> <Gold.Chemscore.DEInternal>
1.6626

> <Gold.Chemscore.Rot>
1.4555

> <Gold.Chemscore.Internal.Correction>
   9.000000E+99

> <Gold.Chemscore.Hbonds>
donor molecule, donor type, donor heavy atom, donor atom, acceptor molecule, acceptor atom, score
      P1  H  7997  8010       L1     1  0.75

> <Gold.Chemscore.Hbond.Weighted>
-3.0376

> <Gold.Chemscore.Metal.Weighted>
-0.0000

> <Gold.Chemscore.Lipo.Weighted>
-17.5650

> <Gold.Chemscore.Internal_Hbond.Weighted>
0.0000

> <Gold.Chemscore.DEClash.Weighted>
0.4378

> <Gold.Chemscore.DEInternal.Weighted>
1.6626

> <Gold.Chemscore.Rot.Weighted>
3.7260

> <Gold.Chemscore.Internal.Correction.Weighted>
   9.000000E+99

> <Gold.Protein.RotatedTorsions>
[ 6907 6896 6895 6894 ] final -108.56 input  -60.11 | X-H torsion
[ 7974 7965 7964 7962 ] final   59.91 input  175.53 | X-H torsion
[ 8008 7997 7996 7995 ] final    1.93 input   59.86 | X-H torsion
[ 10167 10162 10161 10158 ] final  122.29 input  -65.29 | X-H torsion
[ 10718 10713 10712 10709 ] final  175.24 input   66.30 | X-H torsion
[ 10763 10752 10751 10750 ] final  -78.11 input  -60.55 | X-H torsion
[ 11005 11000 10999 10996 ] final  -71.67 input  -57.11 | X-H torsion

> <Gold.Protein.ActiveResidues>
 VAL166  LYS551  ARG553  GLY616  TRP617  ASP618  TYR619  PRO620  LYS621  CYS622 
 ASP623  PHE694  ASN695  SER759  ASP760  ASP761  ALA762  ILE779  LEU786  VAL792 
 PHE793  MET794  SER795  GLU796  ALA797  LYS798  CYS799  TRP800  GLU811  SER814 

> <Gold.Protein.RotatedAtoms>
  150.7509  133.9659  159.3530 H   0  0  0  0  0  0  0  0  0  0  0  0  # atno 6907 bound_to 6896
  151.7589  135.0813  160.0352 H   0  0  0  0  0  0  0  0  0  0  0  0  # atno 6908 bound_to 6896
  152.3417  133.6037  159.5917 H   0  0  0  0  0  0  0  0  0  0  0  0  # atno 6909 bound_to 6896
  145.9019  139.3588  143.0587 H   0  0  0  0  0  0  0  0  0  0  0  0  # atno 7974 bound_to 7965
  154.6856  140.2642  155.6864 H   0  0  0  0  0  0  0  0  0  0  0  0  # atno 8008 bound_to 7997
  156.2713  140.2801  156.1339 H   0  0  0  0  0  0  0  0  0  0  0  0  # atno 8009 bound_to 7997
  155.0969  140.0374  157.2675 H   0  0  0  0  0  0  0  0  0  0  0  0  # atno 8010 bound_to 7997
  139.5867  144.7009  151.3391 H   0  0  0  0  0  0  0  0  0  0  0  0  # atno 10167 bound_to 10162
  156.9377  130.9991  151.2974 H   0  0  0  0  0  0  0  0  0  0  0  0  # atno 10718 bound_to 10713
  154.5217  135.5741  153.6686 H   0  0  0  0  0  0  0  0  0  0  0  0  # atno 10763 bound_to 10752
  152.9919  135.6183  154.2746 H   0  0  0  0  0  0  0  0  0  0  0  0  # atno 10764 bound_to 10752
  154.2667  135.2854  155.2735 H   0  0  0  0  0  0  0  0  0  0  0  0  # atno 10765 bound_to 10752
  141.1596  133.6824  156.6942 H   0  0  0  0  0  0  0  0  0  0  0  0  # atno 11005 bound_to 11000
  145.8780  140.9380  143.0616 LP  0  0  0  0  0  0  0  0  0  0  0  0  # atno 17320 bound_to 7965
  144.6736  140.0742  143.7472 LP  0  0  0  0  0  0  0  0  0  0  0  0  # atno 17321 bound_to 7965
  140.7138  143.7321  150.7616 LP  0  0  0  0  0  0  0  0  0  0  0  0  # atno 17342 bound_to 10162
  140.0867  143.4916  152.2501 LP  0  0  0  0  0  0  0  0  0  0  0  0  # atno 17343 bound_to 10162
  157.5805  130.8373  149.8516 LP  0  0  0  0  0  0  0  0  0  0  0  0  # atno 17370 bound_to 10713
  156.0418  130.3737  150.1416 LP  0  0  0  0  0  0  0  0  0  0  0  0  # atno 17371 bound_to 10713
  140.3008  134.8165  157.4096 LP  0  0  0  0  0  0  0  0  0  0  0  0  # atno 17394 bound_to 11000
  140.1264  134.5152  155.8141 LP  0  0  0  0  0  0  0  0  0  0  0  0  # atno 17395 bound_to 11000

$$$$
