AV-unprocessed.smi:1010|AV-procd|sdf|4416|dock6
  -GOLD-   22720 2363D 1   1.00000     0.00000
 Structure written by MMmdl.
 56 58  0  0  0  0  0  0  0  0  3 V2000
  150.3718  135.2623  154.9534 C   0  0  0  0  0  0  0  0  0  0  0  0
  149.4183  134.7902  155.9898 N   0  3  0  0  0  0  0  0  0  0  0  0
  149.3741  135.7553  157.1200 C   0  0  0  0  0  0  0  0  0  0  0  0
  149.5134  133.3356  156.3891 C   0  0  0  0  0  0  0  0  0  0  0  0
  149.0735  132.4628  155.1688 C   0  0  0  0  0  0  0  0  0  0  0  0
  148.0539  133.0959  154.3316 N   0  0  0  0  0  0  0  0  0  0  0  0
  147.4611  132.5490  153.2609 C   0  0  0  0  0  0  0  0  0  0  0  0
  147.6902  131.4065  152.8667 O   0  0  0  0  0  0  0  0  0  0  0  0
  146.6061  133.4104  152.6855 N   0  0  0  0  0  0  0  0  0  0  0  0
  145.8023  133.2142  151.5261 C   0  0  0  0  0  0  0  0  0  0  0  0
  146.1022  132.2386  150.5407 C   0  0  0  0  0  0  0  0  0  0  0  0
  145.2497  132.0827  149.4298 C   0  0  0  0  0  0  0  0  0  0  0  0
  144.1061  132.8953  149.3244 C   0  0  0  0  0  0  0  0  0  0  0  0
  143.8406  133.8042  150.2856 N   0  3  0  0  0  0  0  0  0  0  0  0
  144.6283  133.9953  151.3724 C   0  0  0  0  0  0  0  0  0  0  0  0
  144.2610  134.9697  152.3168 N   0  0  0  0  0  0  0  0  0  0  0  0
  144.4865  136.3481  151.9141 C   0  0  0  0  0  0  0  0  0  0  0  0
  143.6759  137.1972  152.8966 C   0  0  0  0  0  0  0  0  0  0  0  0
  142.6149  136.2438  153.4605 C   0  0  0  0  0  0  0  0  0  0  0  0
  142.8815  134.9042  152.7692 C   0  0  0  0  0  0  0  0  0  0  0  0
  150.9642  132.9421  156.8109 C   0  0  0  0  0  0  0  0  0  0  0  0
  151.0568  131.5224  157.3970 C   0  0  0  0  0  0  0  0  0  0  0  0
  150.1965  131.4234  158.5238 O   0  0  0  0  0  0  0  0  0  0  0  0
  148.8276  131.6226  158.1976 C   0  0  0  0  0  0  0  0  0  0  0  0
  148.6088  133.0337  157.6162 C   0  0  0  0  0  0  0  0  0  0  0  0
  151.4054  135.0896  155.2551 H   0  0  0  0  0  0  0  0  0  0  0  0
  150.2517  136.3318  154.7774 H   0  0  0  0  0  0  0  0  0  0  0  0
  150.1949  134.7777  153.9933 H   0  0  0  0  0  0  0  0  0  0  0  0
  150.3530  135.8659  157.5881 H   0  0  0  0  0  0  0  0  0  0  0  0
  148.6596  135.4688  157.8892 H   0  0  0  0  0  0  0  0  0  0  0  0
  149.0697  136.7389  156.7610 H   0  0  0  0  0  0  0  0  0  0  0  0
  149.9139  132.2524  154.5108 H   0  0  0  0  0  0  0  0  0  0  0  0
  148.7363  131.4762  155.4857 H   0  0  0  0  0  0  0  0  0  0  0  0
  147.8029  134.0437  154.5743 H   0  0  0  0  0  0  0  0  0  0  0  0
  146.5924  134.3449  153.0675 H   0  0  0  0  0  0  0  0  0  0  0  0
  146.9644  131.5950  150.6228 H   0  0  0  0  0  0  0  0  0  0  0  0
  145.4680  131.3446  148.6716 H   0  0  0  0  0  0  0  0  0  0  0  0
  143.3974  132.8420  148.5103 H   0  0  0  0  0  0  0  0  0  0  0  0
  145.5471  136.5989  151.9471 H   0  0  0  0  0  0  0  0  0  0  0  0
  144.1321  136.5143  150.8958 H   0  0  0  0  0  0  0  0  0  0  0  0
  144.3150  137.5596  153.7026 H   0  0  0  0  0  0  0  0  0  0  0  0
  143.2354  138.0661  152.4065 H   0  0  0  0  0  0  0  0  0  0  0  0
  142.7405  136.1461  154.5395 H   0  0  0  0  0  0  0  0  0  0  0  0
  141.5996  136.5958  153.2752 H   0  0  0  0  0  0  0  0  0  0  0  0
  142.2067  134.7782  151.9213 H   0  0  0  0  0  0  0  0  0  0  0  0
  142.7293  134.0650  153.4486 H   0  0  0  0  0  0  0  0  0  0  0  0
  151.6618  133.0509  155.9800 H   0  0  0  0  0  0  0  0  0  0  0  0
  151.3301  133.5968  157.6013 H   0  0  0  0  0  0  0  0  0  0  0  0
  150.8195  130.7540  156.6614 H   0  0  0  0  0  0  0  0  0  0  0  0
  152.0770  131.3262  157.7270 H   0  0  0  0  0  0  0  0  0  0  0  0
  148.4894  130.8472  157.5099 H   0  0  0  0  0  0  0  0  0  0  0  0
  148.2368  131.5041  159.1061 H   0  0  0  0  0  0  0  0  0  0  0  0
  148.8074  133.7595  158.4058 H   0  0  0  0  0  0  0  0  0  0  0  0
  147.5544  133.1408  157.3608 H   0  0  0  0  0  0  0  0  0  0  0  0
  148.5125  134.8681  155.5496 H   0  0  0  0  0  0  0  0  0  0  0  0
  143.0022  134.3774  150.1884 H   0  0  0  0  0  0  0  0  0  0  0  0
  1  2  1  0  0  0  0
  1 26  1  0  0  0  0
  1 27  1  0  0  0  0
  1 28  1  0  0  0  0
  2  3  1  0  0  0  0
  2  4  1  0  0  0  0
  2 55  1  0  0  0  0
  3 29  1  0  0  0  0
  3 30  1  0  0  0  0
  3 31  1  0  0  0  0
  4 25  1  0  0  0  0
  4  5  1  0  0  0  0
  4 21  1  0  0  0  0
  5  6  1  0  0  0  0
  5 32  1  0  0  0  0
  5 33  1  0  0  0  0
  6  7  1  0  0  0  0
  6 34  1  0  0  0  0
  7  8  2  0  0  0  0
  7  9  1  0  0  0  0
  9 10  1  0  0  0  0
  9 35  1  0  0  0  0
 10 15  1  0  0  0  0
 10 11  2  0  0  0  0
 11 12  1  0  0  0  0
 11 36  1  0  0  0  0
 12 13  2  0  0  0  0
 12 37  1  0  0  0  0
 13 14  1  0  0  0  0
 13 38  1  0  0  0  0
 14 15  2  0  0  0  0
 14 56  1  0  0  0  0
 15 16  1  0  0  0  0
 16 20  1  0  0  0  0
 16 17  1  0  0  0  0
 17 18  1  0  0  0  0
 17 39  1  0  0  0  0
 17 40  1  0  0  0  0
 18 19  1  0  0  0  0
 18 41  1  0  0  0  0
 18 42  1  0  0  0  0
 19 20  1  0  0  0  0
 19 43  1  0  0  0  0
 19 44  1  0  0  0  0
 20 45  1  0  0  0  0
 20 46  1  0  0  0  0
 21 22  1  0  0  0  0
 21 47  1  0  0  0  0
 21 48  1  0  0  0  0
 22 23  1  0  0  0  0
 22 49  1  0  0  0  0
 22 50  1  0  0  0  0
 23 24  1  0  0  0  0
 24 25  1  0  0  0  0
 24 51  1  0  0  0  0
 24 52  1  0  0  0  0
 25 53  1  0  0  0  0
 25 54  1  0  0  0  0
M  CHG  1   2   1
M  CHG  1  14   1
M  END
> <s_m_source_file>
AV-unprocessed.smi

> <i_m_source_file_index>
1010

> <i_lp_mmshare_version>
43012

> <i_f3d_flags>
0

> <s_epik_input>
W0NIMl0xW0NIMl1PW0NIMl1bQ0gyXUMxKE4oW0NIM10pW0NIM10pW0NIMl1bTkhdQyg9TylbTkhdYzJbY0hdW2NIXVtjSF1uYzJOM1tDSDJdW0NIMl1bQ0gyXVtDSDJdMw==

> <s_epik_cmdline>
J2VwaWtfcHl0aG9uJywgJy1waCcsICc3LjAnLCAnLXRuJywgJzgnLCAnLW1hJywgJzIwMCcsICctbWV0YWxfYmluZGluZycsICctaW1hZScsICc8aW5maWxlLm1hZT4nLCAnLW9tYWUnLCAnPG91dGZpbGUubWFlPic=

> <r_lp_tautomer_probability>
0.999994

> <r_epik_Ionization_Penalty>
1.20932

> <r_epik_Ionization_Penalty_Charging>
1.2093

> <r_epik_Ionization_Penalty_Neutral>
2.0507e-05

> <r_epik_State_Penalty>
1.27047

> <r_epik_Charging_Adjusted_Penalty>
2.47977

> <i_epik_Tot_Q>
2

> <i_epik_Tot_abs_Q>
2

> <r_epik_Metal_State_Penalty>
1.34666

> <b_epik_Metal_Only>
0

> <s_lp_Force_Field>
OPLS_2005

> <r_lp_Energy>
72.2457

> <b_lp_Chiralities_Consistent>
1

> <s_lp_Variant>
AV-unprocessed.smi:1010-2

> <Gold.Version>
5.8.1

> <Gold.Id.Protein>
6NUR|6NUR_protein|mol2

> <Gold.PLP.Fitness>
41.9735

> <Gold.PLP.PLP>
-35.2431

> <Gold.PLP.part.hbond>
-2.0000

> <Gold.PLP.part.metal>
0.0000

> <Gold.PLP.part.buried>
-5.5424

> <Gold.PLP.part.nonpolar>
-29.8872

> <Gold.PLP.part.repulsive>
2.5658

> <Gold.PLP.ligand.clash>
0.0000

> <Gold.PLP.ligand.torsion>
1.2032

> <Gold.PLP.Chemscore.Hbond>
3.0000

> <Gold.PLP.Chemscore.CHOScore>
0.0000

> <Gold.PLP.Chemscore.Metal>
0.0000

> <Gold.Chemscore.Hbonds>
donor molecule, donor type, donor heavy atom, donor atom, acceptor molecule, acceptor atom, score
      L1  H    14    56       P1 10186  1.60
      P1  H  6896  6907       L1    23  0.08

> <Gold.PLP.Chemscore.Internal.Correction>
0.1369

> <Gold.Rescore>
     Score         DG    S(hbond)    S(metal)    S(lipo)     H(rot)  DE(clash)    DE(int)     intcor
     12.63     -16.18       1.27        0.00      90.97       1.63       1.33       2.22       ----

> <Gold.Chemscore.Fitness>
12.6313

> <Gold.Chemscore.DG>
-16.1819

> <Gold.Chemscore.ZeroCoef>
-5.4800

> <Gold.Chemscore.Hbond>
1.2693

> <Gold.Chemscore.Metal>
0.0000

> <Gold.Chemscore.Lipo>
90.9699

> <Gold.Chemscore.Internal_Hbond>
0.0000

> <Gold.Chemscore.DEClash>
1.3334

> <Gold.Chemscore.DEInternal>
2.2173

> <Gold.Chemscore.Rot>
1.6332

> <Gold.Chemscore.Internal.Correction>
   9.000000E+99

> <Gold.Chemscore.Hbonds>
donor molecule, donor type, donor heavy atom, donor atom, acceptor molecule, acceptor atom, score
      L1  H    14    56       P1 10186  0.64

> <Gold.Chemscore.Hbond.Weighted>
-4.2395

> <Gold.Chemscore.Metal.Weighted>
-0.0000

> <Gold.Chemscore.Lipo.Weighted>
-10.6435

> <Gold.Chemscore.Internal_Hbond.Weighted>
0.0000

> <Gold.Chemscore.DEClash.Weighted>
1.3334

> <Gold.Chemscore.DEInternal.Weighted>
2.2173

> <Gold.Chemscore.Rot.Weighted>
4.1810

> <Gold.Chemscore.Internal.Correction.Weighted>
   9.000000E+99

> <Gold.Protein.RotatedTorsions>
[ 6907 6896 6895 6894 ] final -149.62 input  -60.11 | X-H torsion
[ 7974 7965 7964 7962 ] final -155.72 input  175.53 | X-H torsion
[ 8008 7997 7996 7995 ] final  106.73 input   59.86 | X-H torsion
[ 10167 10162 10161 10158 ] final  -56.24 input  -65.29 | X-H torsion
[ 10718 10713 10712 10709 ] final  -55.95 input   66.30 | X-H torsion
[ 10763 10752 10751 10750 ] final   82.21 input  -60.55 | X-H torsion
[ 11005 11000 10999 10996 ] final -157.02 input  -57.11 | X-H torsion

> <Gold.Protein.ActiveResidues>
 VAL166  LYS551  ARG553  GLY616  TRP617  ASP618  TYR619  PRO620  LYS621  CYS622 
 ASP623  PHE694  ASN695  SER759  ASP760  ASP761  ALA762  ILE779  LEU786  VAL792 
 PHE793  MET794  SER795  GLU796  ALA797  LYS798  CYS799  TRP800  GLU811  SER814 

> <Gold.Protein.RotatedAtoms>
  151.1867  133.4692  159.2594 H   0  0  0  0  0  0  0  0  0  0  0  0  # atno 6907 bound_to 6896
  151.1204  135.0076  159.8546 H   0  0  0  0  0  0  0  0  0  0  0  0  # atno 6908 bound_to 6896
  152.5455  134.1779  159.8676 H   0  0  0  0  0  0  0  0  0  0  0  0  # atno 6909 bound_to 6896
  144.7626  140.4210  143.5965 H   0  0  0  0  0  0  0  0  0  0  0  0  # atno 7974 bound_to 7965
  156.1767  140.3107  155.9072 H   0  0  0  0  0  0  0  0  0  0  0  0  # atno 8008 bound_to 7997
  155.3472  140.0469  157.3063 H   0  0  0  0  0  0  0  0  0  0  0  0  # atno 8009 bound_to 7997
  154.5298  140.2226  155.8835 H   0  0  0  0  0  0  0  0  0  0  0  0  # atno 8010 bound_to 7997
  140.6328  143.2468  151.5196 H   0  0  0  0  0  0  0  0  0  0  0  0  # atno 10167 bound_to 10162
  156.1327  130.4158  150.0240 H   0  0  0  0  0  0  0  0  0  0  0  0  # atno 10718 bound_to 10713
  153.1183  135.4736  154.9153 H   0  0  0  0  0  0  0  0  0  0  0  0  # atno 10763 bound_to 10752
  154.7550  135.3116  154.8488 H   0  0  0  0  0  0  0  0  0  0  0  0  # atno 10764 bound_to 10752
  153.9059  135.6870  153.4806 H   0  0  0  0  0  0  0  0  0  0  0  0  # atno 10765 bound_to 10752
  140.6691  134.4266  157.5232 H   0  0  0  0  0  0  0  0  0  0  0  0  # atno 11005 bound_to 11000
  145.6569  139.1574  143.2830 LP  0  0  0  0  0  0  0  0  0  0  0  0  # atno 17320 bound_to 7965
  146.1705  140.6653  142.9235 LP  0  0  0  0  0  0  0  0  0  0  0  0  # atno 17321 bound_to 7965
  139.5541  144.2320  152.1582 LP  0  0  0  0  0  0  0  0  0  0  0  0  # atno 17342 bound_to 10162
  140.1569  144.5062  150.6655 LP  0  0  0  0  0  0  0  0  0  0  0  0  # atno 17343 bound_to 10162
  156.8147  130.9337  151.3643 LP  0  0  0  0  0  0  0  0  0  0  0  0  # atno 17370 bound_to 10713
  157.6503  130.8879  149.9621 LP  0  0  0  0  0  0  0  0  0  0  0  0  # atno 17371 bound_to 10713
  139.8987  134.8607  156.1989 LP  0  0  0  0  0  0  0  0  0  0  0  0  # atno 17394 bound_to 11000
  141.0406  133.6940  156.1590 LP  0  0  0  0  0  0  0  0  0  0  0  0  # atno 17395 bound_to 11000

$$$$
