AV-unprocessed.smi:159|AV-procd|sdf|1341|dock4
  -GOLD-   2262019 43D 1   1.00000     0.00000
 Structure written by MMmdl.
 28 29  0  0  0  0  0  0  0  0  1 V2000
  152.0605  144.1199  160.1828 N   0  0  0  0  0  0  0  0  0  0  0  0
  151.9299  143.2216  159.1969 C   0  0  0  0  0  0  0  0  0  0  0  0
  151.0865  143.5062  158.0588 C   0  0  0  0  0  0  0  0  0  0  0  0
  151.0039  142.5526  157.1053 C   0  0  0  0  0  0  0  0  0  0  0  0
  151.6841  141.3441  157.2045 N   0  0  0  0  0  0  0  0  0  0  0  0
  151.6125  140.2774  156.1277 C   0  0  1  0  0  0  0  0  0  0  0  0
  151.1138  138.9404  156.7090 C   0  0  0  0  0  0  0  0  0  0  0  0
  149.9497  138.5980  155.7998 C   0  0  0  0  0  0  0  0  0  0  0  0
  149.4571  139.9778  155.3786 C   0  0  2  0  0  0  0  0  0  0  0  0
  148.6030  139.9675  154.1039 C   0  0  0  0  0  0  0  0  0  0  0  0
  148.7222  141.2066  153.4388 O   0  0  0  0  0  0  0  0  0  0  0  0
  150.6892  140.6504  155.1458 O   0  0  0  0  0  0  0  0  0  0  0  0
  152.5147  141.1035  158.3259 C   0  0  0  0  0  0  0  0  0  0  0  0
  153.1541  140.0587  158.4439 O   0  0  0  0  0  0  0  0  0  0  0  0
  152.5848  142.0803  159.2826 N   0  0  0  0  0  0  0  0  0  0  0  0
  152.6121  140.2331  155.6909 H   0  0  0  0  0  0  0  0  0  0  0  0
  148.9184  140.4376  156.2097 H   0  0  0  0  0  0  0  0  0  0  0  0
  152.6526  143.9193  160.9756 H   0  0  0  0  0  0  0  0  0  0  0  0
  151.5626  144.9969  160.1311 H   0  0  0  0  0  0  0  0  0  0  0  0
  150.5351  144.4285  157.9436 H   0  0  0  0  0  0  0  0  0  0  0  0
  150.3794  142.7699  156.2521 H   0  0  0  0  0  0  0  0  0  0  0  0
  151.9031  138.1883  156.6964 H   0  0  0  0  0  0  0  0  0  0  0  0
  150.7680  139.0761  157.7350 H   0  0  0  0  0  0  0  0  0  0  0  0
  150.3062  138.0402  154.9326 H   0  0  0  0  0  0  0  0  0  0  0  0
  149.1826  138.0040  156.2972 H   0  0  0  0  0  0  0  0  0  0  0  0
  148.8872  139.1499  153.4407 H   0  0  0  0  0  0  0  0  0  0  0  0
  147.5515  139.8309  154.3581 H   0  0  0  0  0  0  0  0  0  0  0  0
  148.1669  141.8356  153.8732 H   0  0  0  0  0  0  0  0  0  0  0  0
  1  2  1  0  0  0  0
  1 18  1  0  0  0  0
  1 19  1  0  0  0  0
  2 15  2  0  0  0  0
  2  3  1  0  0  0  0
  3  4  2  0  0  0  0
  3 20  1  0  0  0  0
  4  5  1  0  0  0  0
  4 21  1  0  0  0  0
  5  6  1  0  0  0  0
  5 13  1  0  0  0  0
  6 16  1  0  0  0  0
  6 12  1  0  0  0  0
  6  7  1  0  0  0  0
  7  8  1  0  0  0  0
  7 22  1  0  0  0  0
  7 23  1  0  0  0  0
  8  9  1  0  0  0  0
  8 24  1  0  0  0  0
  8 25  1  0  0  0  0
  9 17  1  0  0  0  0
  9 10  1  0  0  0  0
  9 12  1  0  0  0  0
 10 11  1  0  0  0  0
 10 26  1  0  0  0  0
 10 27  1  0  0  0  0
 11 28  1  0  0  0  0
 13 14  2  0  0  0  0
 13 15  1  0  0  0  0
M  END
> <s_m_source_file>
AV-unprocessed.smi

> <i_m_source_file_index>
159

> <i_lp_mmshare_version>
43012

> <i_f3d_flags>
0

> <s_epik_input>
W05IMl1jMVtjSF1bY0hdbihjKD1PKW4xKVtDQEhdMltDSDJdW0NIMl1bQ0BIXShPMilbQ0gyXVtPSF0=

> <s_epik_cmdline>
J2VwaWtfcHl0aG9uJywgJy1waCcsICc3LjAnLCAnLXRuJywgJzgnLCAnLW1hJywgJzIwMCcsICctbWV0YWxfYmluZGluZycsICctaW1hZScsICc8aW5maWxlLm1hZT4nLCAnLW9tYWUnLCAnPG91dGZpbGUubWFlPic=

> <r_lp_tautomer_probability>
0.99996

> <r_epik_Ionization_Penalty>
0.00126102

> <r_epik_Ionization_Penalty_Charging>
4.46248e-08

> <r_epik_Ionization_Penalty_Neutral>
0.00126097

> <r_epik_State_Penalty>
1.15523e-05

> <r_epik_Charging_Adjusted_Penalty>
1.1597e-05

> <i_epik_Tot_Q>
0

> <i_epik_Tot_abs_Q>
0

> <r_epik_Metal_State_Penalty>
-0

> <b_epik_Metal_Only>
0

> <s_epik_Chemistry_Notes>
This compound contains an acetal/aminal-like group ( X-CH(R)-Y where X, Y are N, S, or O) that may be acid/base labile, releasing an aldehyde.

> <s_lp_Force_Field>
OPLS_2005

> <r_lp_Energy>
23.8036

> <b_lp_Chiralities_Consistent>
1

> <s_lp_Variant>
AV-unprocessed.smi:159-3

> <Gold.Version>
5.8.1

> <Gold.Id.Protein>
6NUR|6NUR_protein|mol2

> <Gold.PLP.Fitness>
34.6008

> <Gold.PLP.PLP>
-23.5470

> <Gold.PLP.part.hbond>
-4.0000

> <Gold.PLP.part.metal>
0.0000

> <Gold.PLP.part.buried>
-3.5875

> <Gold.PLP.part.nonpolar>
-15.1093

> <Gold.PLP.part.repulsive>
0.1170

> <Gold.PLP.ligand.clash>
0.0000

> <Gold.PLP.ligand.torsion>
0.2931

> <Gold.PLP.Chemscore.Hbond>
2.8720

> <Gold.PLP.Chemscore.CHOScore>
1.0000

> <Gold.PLP.Chemscore.Metal>
0.0000

> <Gold.Chemscore.Hbonds>
donor molecule, donor type, donor heavy atom, donor atom, acceptor molecule, acceptor atom, score
      P1  H  7989  7998       L1    12  0.93
      P1  H  7997  8008       L1    14  1.00
      P1  H  8011  8017       L1    11  0.93
      L1  C     4    21       P1  8028  1.00

> <Gold.PLP.Chemscore.Internal.Correction>
0.0241

> <Gold.Rescore>
     Score         DG    S(hbond)    S(metal)    S(lipo)     H(rot)  DE(clash)    DE(int)     intcor
     10.84     -12.28       2.31        0.00      38.07       2.09       0.09       1.35       ----

> <Gold.Chemscore.Fitness>
10.8392

> <Gold.Chemscore.DG>
-12.2754

> <Gold.Chemscore.ZeroCoef>
-5.4800

> <Gold.Chemscore.Hbond>
2.3054

> <Gold.Chemscore.Metal>
0.0000

> <Gold.Chemscore.Lipo>
38.0735

> <Gold.Chemscore.Internal_Hbond>
0.0000

> <Gold.Chemscore.DEClash>
0.0900

> <Gold.Chemscore.DEInternal>
1.3462

> <Gold.Chemscore.Rot>
2.0935

> <Gold.Chemscore.Internal.Correction>
   9.000000E+99

> <Gold.Chemscore.Hbonds>
donor molecule, donor type, donor heavy atom, donor atom, acceptor molecule, acceptor atom, score
      P1  H  7989  7998       L1    12  0.58
      P1  H  7997  8008       L1    14  0.64
      P1  H  8011  8017       L1    11  0.23

> <Gold.Chemscore.Hbond.Weighted>
-7.7002

> <Gold.Chemscore.Metal.Weighted>
-0.0000

> <Gold.Chemscore.Lipo.Weighted>
-4.4546

> <Gold.Chemscore.Internal_Hbond.Weighted>
0.0000

> <Gold.Chemscore.DEClash.Weighted>
0.0900

> <Gold.Chemscore.DEInternal.Weighted>
1.3462

> <Gold.Chemscore.Rot.Weighted>
5.3594

> <Gold.Chemscore.Internal.Correction.Weighted>
   9.000000E+99

> <Gold.Protein.RotatedTorsions>
[ 6907 6896 6895 6894 ] final  157.46 input  -60.11 | X-H torsion
[ 7974 7965 7964 7962 ] final  -36.76 input  175.53 | X-H torsion
[ 8008 7997 7996 7995 ] final  -89.42 input   59.86 | X-H torsion
[ 10167 10162 10161 10158 ] final  106.48 input  -65.29 | X-H torsion
[ 10718 10713 10712 10709 ] final   90.32 input   66.30 | X-H torsion
[ 10763 10752 10751 10750 ] final -111.43 input  -60.55 | X-H torsion
[ 11005 11000 10999 10996 ] final  137.28 input  -57.11 | X-H torsion

> <Gold.Protein.ActiveResidues>
 VAL166  LYS551  ARG553  GLY616  TRP617  ASP618  TYR619  PRO620  LYS621  CYS622 
 ASP623  PHE694  ASN695  SER759  ASP760  ASP761  ALA762  ILE779  LEU786  VAL792 
 PHE793  MET794  SER795  GLU796  ALA797  LYS798  CYS799  TRP800  GLU811  SER814 

> <Gold.Protein.RotatedAtoms>
  152.0148  133.3875  159.4234 H   0  0  0  0  0  0  0  0  0  0  0  0  # atno 6907 bound_to 6896
  150.6896  134.3690  159.4993 H   0  0  0  0  0  0  0  0  0  0  0  0  # atno 6908 bound_to 6896
  152.1456  134.9028  160.0602 H   0  0  0  0  0  0  0  0  0  0  0  0  # atno 6909 bound_to 6896
  146.0634  140.6316  142.8986 H   0  0  0  0  0  0  0  0  0  0  0  0  # atno 7974 bound_to 7965
  154.6864  140.0542  157.0319 H   0  0  0  0  0  0  0  0  0  0  0  0  # atno 8008 bound_to 7997
  155.0879  140.3216  155.4563 H   0  0  0  0  0  0  0  0  0  0  0  0  # atno 8009 bound_to 7997
  156.2713  140.2053  156.6006 H   0  0  0  0  0  0  0  0  0  0  0  0  # atno 8010 bound_to 7997
  139.7006  144.7095  151.1192 H   0  0  0  0  0  0  0  0  0  0  0  0  # atno 10167 bound_to 10162
  157.6958  131.0366  150.3560 H   0  0  0  0  0  0  0  0  0  0  0  0  # atno 10718 bound_to 10713
  154.8300  135.4527  154.1038 H   0  0  0  0  0  0  0  0  0  0  0  0  # atno 10763 bound_to 10752
  153.2320  135.6906  153.7886 H   0  0  0  0  0  0  0  0  0  0  0  0  # atno 10764 bound_to 10752
  153.7265  135.3333  155.3253 H   0  0  0  0  0  0  0  0  0  0  0  0  # atno 10765 bound_to 10752
  140.0103  134.9441  157.0264 H   0  0  0  0  0  0  0  0  0  0  0  0  # atno 11005 bound_to 11000
  144.7188  140.4302  143.7024 LP  0  0  0  0  0  0  0  0  0  0  0  0  # atno 17320 bound_to 7965
  145.6520  139.1566  143.2856 LP  0  0  0  0  0  0  0  0  0  0  0  0  # atno 17321 bound_to 7965
  140.7708  143.5430  150.9291 LP  0  0  0  0  0  0  0  0  0  0  0  0  # atno 17342 bound_to 10162
  139.9111  143.6719  152.3115 LP  0  0  0  0  0  0  0  0  0  0  0  0  # atno 17343 bound_to 10162
  156.4002  130.3914  149.6965 LP  0  0  0  0  0  0  0  0  0  0  0  0  # atno 17370 bound_to 10713
  156.4285  130.7803  151.2822 LP  0  0  0  0  0  0  0  0  0  0  0  0  # atno 17371 bound_to 10713
  140.4566  134.1527  155.7187 LP  0  0  0  0  0  0  0  0  0  0  0  0  # atno 17394 bound_to 11000
  141.1706  133.8616  157.1581 LP  0  0  0  0  0  0  0  0  0  0  0  0  # atno 17395 bound_to 11000

$$$$
