AV-unprocessed.smi:1093|AV-procd|sdf|4743|dock9
  -GOLD-   22720 3273D 1   1.00000     0.00000
 Structure written by MMmdl.
 47 48  0  0  0  0  0  0  0  0  2 V2000
  145.1878  133.0323  150.5912 C   0  0  0  0  0  0  0  0  0  0  0  0
  146.5005  133.7825  150.8598 C   0  0  0  0  0  0  0  0  0  0  0  0
  146.3135  134.9365  151.7740 N   0  3  2  0  0  0  0  0  0  0  0  0
  145.4870  134.5938  152.9608 C   0  0  0  0  0  0  0  0  0  0  0  0
  145.4400  135.7609  153.9630 C   0  0  0  0  0  0  0  0  0  0  0  0
  144.9635  137.0608  153.2920 C   0  0  0  0  0  0  0  0  0  0  0  0
  145.7990  137.3711  152.0369 C   0  0  1  0  0  0  0  0  0  0  0  0
  147.1586  137.7489  152.4258 N   0  0  0  0  0  0  0  0  0  0  0  0
  147.4806  138.5343  153.4636 C   0  0  0  0  0  0  0  0  0  0  0  0
  146.6474  139.0273  154.2227 O   0  0  0  0  0  0  0  0  0  0  0  0
  148.8117  138.6915  153.5587 N   0  0  0  0  0  0  0  0  0  0  0  0
  149.5476  139.5047  154.4628 C   0  0  0  0  0  0  0  0  0  0  0  0
  150.8833  139.2593  154.8564 C   0  0  0  0  0  0  0  0  0  0  0  0
  151.4944  140.1274  155.7813 C   0  0  0  0  0  0  0  0  0  0  0  0
  150.7580  141.2209  156.3009 C   0  0  0  0  0  0  0  0  0  0  0  0
  151.3278  142.1181  157.2331 N   0  0  0  0  0  0  0  0  0  0  0  0
  152.1785  141.6096  158.3046 C   0  0  0  0  0  0  0  0  0  0  0  0
  151.0757  143.5494  157.1223 C   0  0  0  0  0  0  0  0  0  0  0  0
  149.4747  141.4442  155.9262 N   0  0  0  0  0  0  0  0  0  0  0  0
  148.8927  140.6100  155.0401 C   0  0  0  0  0  0  0  0  0  0  0  0
  145.7893  136.1490  151.0912 C   0  0  0  0  0  0  0  0  0  0  0  0
  145.3396  132.2499  149.8473 H   0  0  0  0  0  0  0  0  0  0  0  0
  144.4204  133.7057  150.2084 H   0  0  0  0  0  0  0  0  0  0  0  0
  144.7964  132.5523  151.4874 H   0  0  0  0  0  0  0  0  0  0  0  0
  147.2588  133.1065  151.2572 H   0  0  0  0  0  0  0  0  0  0  0  0
  146.8781  134.1404  149.9013 H   0  0  0  0  0  0  0  0  0  0  0  0
  144.4777  134.3325  152.6386 H   0  0  0  0  0  0  0  0  0  0  0  0
  145.8986  133.7145  153.4577 H   0  0  0  0  0  0  0  0  0  0  0  0
  144.7804  135.5096  154.7941 H   0  0  0  0  0  0  0  0  0  0  0  0
  146.4303  135.9095  154.3951 H   0  0  0  0  0  0  0  0  0  0  0  0
  143.9149  136.9556  153.0102 H   0  0  0  0  0  0  0  0  0  0  0  0
  145.0080  137.8907  153.9983 H   0  0  0  0  0  0  0  0  0  0  0  0
  145.3463  138.2217  151.5241 H   0  0  0  0  0  0  0  0  0  0  0  0
  147.9113  137.3735  151.8672 H   0  0  0  0  0  0  0  0  0  0  0  0
  149.3714  138.1447  152.9205 H   0  0  0  0  0  0  0  0  0  0  0  0
  151.4479  138.4191  154.4843 H   0  0  0  0  0  0  0  0  0  0  0  0
  152.5143  139.9324  156.0766 H   0  0  0  0  0  0  0  0  0  0  0  0
  153.0409  141.0846  157.8927 H   0  0  0  0  0  0  0  0  0  0  0  0
  151.6228  140.9189  158.9396 H   0  0  0  0  0  0  0  0  0  0  0  0
  152.5506  142.4168  158.9356 H   0  0  0  0  0  0  0  0  0  0  0  0
  151.4421  143.9304  156.1685 H   0  0  0  0  0  0  0  0  0  0  0  0
  151.5767  144.1037  157.9159 H   0  0  0  0  0  0  0  0  0  0  0  0
  150.0079  143.7577  157.1957 H   0  0  0  0  0  0  0  0  0  0  0  0
  147.8679  140.8355  154.7839 H   0  0  0  0  0  0  0  0  0  0  0  0
  146.3747  136.3689  150.1995 H   0  0  0  0  0  0  0  0  0  0  0  0
  144.7729  135.9561  150.7437 H   0  0  0  0  0  0  0  0  0  0  0  0
  147.2307  135.1710  152.1259 H   0  0  0  0  0  0  0  0  0  0  0  0
  1  2  1  0  0  0  0
  1 22  1  0  0  0  0
  1 23  1  0  0  0  0
  1 24  1  0  0  0  0
  2  3  1  0  0  0  0
  2 25  1  0  0  0  0
  2 26  1  0  0  0  0
  3 21  1  0  0  0  0
  3  4  1  0  0  0  0
  3 47  1  0  0  0  0
  4  5  1  0  0  0  0
  4 27  1  0  0  0  0
  4 28  1  0  0  0  0
  5  6  1  0  0  0  0
  5 29  1  0  0  0  0
  5 30  1  0  0  0  0
  6  7  1  0  0  0  0
  6 31  1  0  0  0  0
  6 32  1  0  0  0  0
  7  8  1  0  0  0  0
  7 21  1  0  0  0  0
  7 33  1  0  0  0  0
  8  9  1  0  0  0  0
  8 34  1  0  0  0  0
  9 10  2  0  0  0  0
  9 11  1  0  0  0  0
 11 12  1  0  0  0  0
 11 35  1  0  0  0  0
 12 20  1  0  0  0  0
 12 13  2  0  0  0  0
 13 14  1  0  0  0  0
 13 36  1  0  0  0  0
 14 15  2  0  0  0  0
 14 37  1  0  0  0  0
 15 16  1  0  0  0  0
 15 19  1  0  0  0  0
 16 17  1  0  0  0  0
 16 18  1  0  0  0  0
 17 38  1  0  0  0  0
 17 39  1  0  0  0  0
 17 40  1  0  0  0  0
 18 41  1  0  0  0  0
 18 42  1  0  0  0  0
 18 43  1  0  0  0  0
 19 20  2  0  0  0  0
 20 44  1  0  0  0  0
 21 45  1  0  0  0  0
 21 46  1  0  0  0  0
M  CHG  1   3   1
M  END
> <s_m_source_file>
AV-unprocessed.smi

> <i_m_source_file_index>
1093

> <i_lp_mmshare_version>
43012

> <i_f3d_flags>
0

> <s_epik_input>
W0NIM11bQ0gyXU4xW0NIMl1bQ0gyXVtDSDJdW0NASF0oW0NIMl0xKVtOSF1DKD1PKVtOSF1jMltjSF1bY0hdYyhOKFtDSDNdKVtDSDNdKW5bY0hdMg==

> <s_epik_cmdline>
J2VwaWtfcHl0aG9uJywgJy1waCcsICc3LjAnLCAnLXRuJywgJzgnLCAnLW1hJywgJzIwMCcsICctbWV0YWxfYmluZGluZycsICctaW1hZScsICc8aW5maWxlLm1hZT4nLCAnLW9tYWUnLCAnPG91dGZpbGUubWFlPic=

> <r_lp_tautomer_probability>
1

> <r_epik_Ionization_Penalty>
0.489418

> <r_epik_Ionization_Penalty_Charging>
0.00268196

> <r_epik_Ionization_Penalty_Neutral>
0.486736

> <r_epik_State_Penalty>
0.491157

> <r_epik_Charging_Adjusted_Penalty>
0.493839

> <i_epik_Tot_Q>
1

> <i_epik_Tot_abs_Q>
1

> <r_epik_Metal_State_Penalty>
0.266953

> <b_epik_Metal_Only>
0

> <s_lp_Force_Field>
OPLS_2005

> <r_lp_Energy>
27.714

> <b_lp_Chiralities_Consistent>
1

> <s_lp_Variant>
AV-unprocessed.smi:1093-6

> <Gold.Version>
5.8.1

> <Gold.Id.Protein>
6NUR|6NUR_protein|mol2

> <Gold.PLP.Fitness>
41.5659

> <Gold.PLP.PLP>
-34.3323

> <Gold.PLP.part.hbond>
-3.6376

> <Gold.PLP.part.metal>
0.0000

> <Gold.PLP.part.buried>
-0.2745

> <Gold.PLP.part.nonpolar>
-30.7365

> <Gold.PLP.part.repulsive>
0.4369

> <Gold.PLP.ligand.clash>
0.0000

> <Gold.PLP.ligand.torsion>
1.1676

> <Gold.PLP.Chemscore.Hbond>
3.1830

> <Gold.PLP.Chemscore.CHOScore>
0.0000

> <Gold.PLP.Chemscore.Metal>
0.0000

> <Gold.Chemscore.Hbonds>
donor molecule, donor type, donor heavy atom, donor atom, acceptor molecule, acceptor atom, score
      L1  H     3    47       P1  7948  1.86
      L1  H     8    34       P1  7948  0.84
      L1  H    11    35       P1  7948  0.39

> <Gold.PLP.Chemscore.Internal.Correction>
0.0200

> <Gold.Rescore>
     Score         DG    S(hbond)    S(metal)    S(lipo)     H(rot)  DE(clash)    DE(int)     intcor
     15.33     -19.26       2.14        0.00      82.62       1.18       0.20       3.74       ----

> <Gold.Chemscore.Fitness>
15.3300

> <Gold.Chemscore.DG>
-19.2629

> <Gold.Chemscore.ZeroCoef>
-5.4800

> <Gold.Chemscore.Hbond>
2.1401

> <Gold.Chemscore.Metal>
0.0000

> <Gold.Chemscore.Lipo>
82.6192

> <Gold.Chemscore.Internal_Hbond>
0.0000

> <Gold.Chemscore.DEClash>
0.1978

> <Gold.Chemscore.DEInternal>
3.7351

> <Gold.Chemscore.Rot>
1.1842

> <Gold.Chemscore.Internal.Correction>
   9.000000E+99

> <Gold.Chemscore.Hbonds>
donor molecule, donor type, donor heavy atom, donor atom, acceptor molecule, acceptor atom, score
      L1  H     3    47       P1  7948  0.86
      L1  H     8    34       P1  7948  0.77
      L1  H    11    35       P1  7948  0.37

> <Gold.Chemscore.Hbond.Weighted>
-7.1481

> <Gold.Chemscore.Metal.Weighted>
-0.0000

> <Gold.Chemscore.Lipo.Weighted>
-9.6664

> <Gold.Chemscore.Internal_Hbond.Weighted>
0.0000

> <Gold.Chemscore.DEClash.Weighted>
0.1978

> <Gold.Chemscore.DEInternal.Weighted>
3.7351

> <Gold.Chemscore.Rot.Weighted>
3.0317

> <Gold.Chemscore.Internal.Correction.Weighted>
   9.000000E+99

> <Gold.Protein.RotatedTorsions>
[ 6907 6896 6895 6894 ] final  149.57 input  -60.11 | X-H torsion
[ 7974 7965 7964 7962 ] final  -20.40 input  175.53 | X-H torsion
[ 8008 7997 7996 7995 ] final  128.45 input   59.86 | X-H torsion
[ 10167 10162 10161 10158 ] final  178.74 input  -65.29 | X-H torsion
[ 10718 10713 10712 10709 ] final   48.13 input   66.30 | X-H torsion
[ 10763 10752 10751 10750 ] final   12.64 input  -60.55 | X-H torsion
[ 11005 11000 10999 10996 ] final -128.87 input  -57.11 | X-H torsion

> <Gold.Protein.ActiveResidues>
 VAL166  LYS551  ARG553  GLY616  TRP617  ASP618  TYR619  PRO620  LYS621  CYS622 
 ASP623  PHE694  ASN695  SER759  ASP760  ASP761  ALA762  ILE779  LEU786  VAL792 
 PHE793  MET794  SER795  GLU796  ALA797  LYS798  CYS799  TRP800  GLU811  SER814 

> <Gold.Protein.RotatedAtoms>
  152.1262  133.4381  159.4698 H   0  0  0  0  0  0  0  0  0  0  0  0  # atno 6907 bound_to 6896
  150.6875  134.2475  159.4506 H   0  0  0  0  0  0  0  0  0  0  0  0  # atno 6908 bound_to 6896
  152.0355  134.9742  160.0624 H   0  0  0  0  0  0  0  0  0  0  0  0  # atno 6909 bound_to 6896
  146.1790  140.4196  142.8502 H   0  0  0  0  0  0  0  0  0  0  0  0  # atno 7974 bound_to 7965
  156.2915  140.2644  156.2437 H   0  0  0  0  0  0  0  0  0  0  0  0  # atno 8008 bound_to 7997
  154.9951  140.0388  157.2355 H   0  0  0  0  0  0  0  0  0  0  0  0  # atno 8009 bound_to 7997
  154.7651  140.2768  155.6188 H   0  0  0  0  0  0  0  0  0  0  0  0  # atno 8010 bound_to 7997
  139.5307  144.2644  152.0680 H   0  0  0  0  0  0  0  0  0  0  0  0  # atno 10167 bound_to 10162
  157.4655  130.8223  149.7932 H   0  0  0  0  0  0  0  0  0  0  0  0  # atno 10718 bound_to 10713
  153.1801  135.6826  153.8489 H   0  0  0  0  0  0  0  0  0  0  0  0  # atno 10763 bound_to 10752
  153.7824  135.3180  155.3368 H   0  0  0  0  0  0  0  0  0  0  0  0  # atno 10764 bound_to 10752
  154.8054  135.4751  154.0475 H   0  0  0  0  0  0  0  0  0  0  0  0  # atno 10765 bound_to 10752
  140.9480  134.1104  157.4089 H   0  0  0  0  0  0  0  0  0  0  0  0  # atno 11005 bound_to 11000
  144.8284  140.6666  143.6307 LP  0  0  0  0  0  0  0  0  0  0  0  0  # atno 17320 bound_to 7965
  145.4129  139.1577  143.4116 LP  0  0  0  0  0  0  0  0  0  0  0  0  # atno 17321 bound_to 7965
  140.2107  144.4566  150.6387 LP  0  0  0  0  0  0  0  0  0  0  0  0  # atno 17342 bound_to 10162
  140.6482  143.2218  151.6137 LP  0  0  0  0  0  0  0  0  0  0  0  0  # atno 17343 bound_to 10162
  156.0048  130.3861  150.2470 LP  0  0  0  0  0  0  0  0  0  0  0  0  # atno 17370 bound_to 10713
  157.0650  131.0100  151.3210 LP  0  0  0  0  0  0  0  0  0  0  0  0  # atno 17371 bound_to 10713
  139.8839  135.0057  156.6331 LP  0  0  0  0  0  0  0  0  0  0  0  0  # atno 17394 bound_to 11000
  140.7643  133.8792  155.8442 LP  0  0  0  0  0  0  0  0  0  0  0  0  # atno 17395 bound_to 11000

$$$$
