AV-unprocessed.smi:3148|AV-procd|sdf|11993|dock10
  -GOLD-   2272017403D 1   1.00000     0.00000
 Structure written by MMmdl.
 34 36  0  0  0  0  0  0  0  0  1 V2000
  154.5154  140.0386  161.4056 C   0  0  0  0  0  0  0  0  0  0  0  0
  154.1900  141.4206  161.3062 O   0  0  0  0  0  0  0  0  0  0  0  0
  153.4071  141.8290  160.2465 C   0  0  0  0  0  0  0  0  0  0  0  0
  153.1039  143.1972  160.0943 C   0  0  0  0  0  0  0  0  0  0  0  0
  152.2971  143.5421  158.9898 C   0  0  0  0  0  0  0  0  0  0  0  0
  151.8949  144.9764  158.7207 C   0  0  0  0  0  0  0  0  0  0  0  0
  151.8389  142.6117  158.1237 N   0  0  0  0  0  0  0  0  0  0  0  0
  152.1827  141.3437  158.3591 C   0  0  0  0  0  0  0  0  0  0  0  0
  151.6907  140.4170  157.4589 N   0  0  0  0  0  0  0  0  0  0  0  0
  151.4805  140.6825  156.0402 C   0  0  2  0  0  0  0  0  0  0  0  0
  150.3933  141.7265  155.7772 C   0  0  0  0  0  0  0  0  0  0  0  0
  149.4702  140.9801  154.8034 C   0  0  2  0  0  0  0  0  0  0  0  0
  148.6319  139.9169  155.5250 C   0  0  0  0  0  0  0  0  0  0  0  0
  149.6797  138.8471  155.8257 C   0  0  0  0  0  0  0  0  0  0  0  0
  150.9546  139.4759  155.2375 C   0  0  1  0  0  0  0  0  0  0  0  0
  150.4022  140.1559  154.1230 O   0  0  0  0  0  0  0  0  0  0  0  0
  152.9405  140.9049  159.3703 N   0  0  0  0  0  0  0  0  0  0  0  0
  155.1282  139.8754  162.2920 H   0  0  0  0  0  0  0  0  0  0  0  0
  155.0876  139.6998  160.5408 H   0  0  0  0  0  0  0  0  0  0  0  0
  153.6194  139.4239  161.5044 H   0  0  0  0  0  0  0  0  0  0  0  0
  153.4705  143.9378  160.7897 H   0  0  0  0  0  0  0  0  0  0  0  0
  152.4287  145.6642  159.3771 H   0  0  0  0  0  0  0  0  0  0  0  0
  150.8253  145.1055  158.8875 H   0  0  0  0  0  0  0  0  0  0  0  0
  152.1177  145.2489  157.6887 H   0  0  0  0  0  0  0  0  0  0  0  0
  151.6496  139.4573  157.7697 H   0  0  0  0  0  0  0  0  0  0  0  0
  152.4160  141.0315  155.6005 H   0  0  0  0  0  0  0  0  0  0  0  0
  149.8637  142.0482  156.6751 H   0  0  0  0  0  0  0  0  0  0  0  0
  150.8253  142.6096  155.3055 H   0  0  0  0  0  0  0  0  0  0  0  0
  148.8892  141.6351  154.1537 H   0  0  0  0  0  0  0  0  0  0  0  0
  148.1516  140.3051  156.4240 H   0  0  0  0  0  0  0  0  0  0  0  0
  147.8575  139.5195  154.8679 H   0  0  0  0  0  0  0  0  0  0  0  0
  149.7644  138.6198  156.8886 H   0  0  0  0  0  0  0  0  0  0  0  0
  149.4350  137.9214  155.3042 H   0  0  0  0  0  0  0  0  0  0  0  0
  151.7238  138.7486  154.9764 H   0  0  0  0  0  0  0  0  0  0  0  0
  1  2  1  0  0  0  0
  1 18  1  0  0  0  0
  1 19  1  0  0  0  0
  1 20  1  0  0  0  0
  2  3  1  0  0  0  0
  3 17  1  0  0  0  0
  3  4  2  0  0  0  0
  4  5  1  0  0  0  0
  4 21  1  0  0  0  0
  5  6  1  0  0  0  0
  5  7  2  0  0  0  0
  6 22  1  0  0  0  0
  6 23  1  0  0  0  0
  6 24  1  0  0  0  0
  7  8  1  0  0  0  0
  8  9  1  0  0  0  0
  8 17  2  0  0  0  0
  9 10  1  0  0  0  0
  9 25  1  0  0  0  0
 10 15  1  0  0  0  0
 10 11  1  0  0  0  0
 10 26  1  0  0  0  0
 11 12  1  0  0  0  0
 11 27  1  0  0  0  0
 11 28  1  0  0  0  0
 12 16  1  0  0  0  0
 12 13  1  0  0  0  0
 12 29  1  0  0  0  0
 13 14  1  0  0  0  0
 13 30  1  0  0  0  0
 13 31  1  0  0  0  0
 14 15  1  0  0  0  0
 14 32  1  0  0  0  0
 14 33  1  0  0  0  0
 15 16  1  0  0  0  0
 15 34  1  0  0  0  0
M  END
> <s_m_source_file>
AV-unprocessed.smi

> <i_m_source_file_index>
3148

> <i_lp_mmshare_version>
43012

> <i_f3d_flags>
0

> <s_epik_input>
W0NIM11PYzFbY0hdYyhbQ0gzXSluYyhuMSlbTkhdW0NASF0oW0NIMl1bQ0BASF0yMylbQ0BASF0oTzMpW0NIMl1bQ0gyXTI=

> <s_epik_cmdline>
J2VwaWtfcHl0aG9uJywgJy1waCcsICc3LjAnLCAnLXRuJywgJzgnLCAnLW1hJywgJzIwMCcsICctbWV0YWxfYmluZGluZycsICctaW1hZScsICc8aW5maWxlLm1hZT4nLCAnLW9tYWUnLCAnPG91dGZpbGUubWFlPic=

> <r_lp_tautomer_probability>
1

> <r_epik_Ionization_Penalty>
0.101645

> <r_epik_Ionization_Penalty_Charging>
0

> <r_epik_Ionization_Penalty_Neutral>
0.101645

> <r_epik_State_Penalty>
0.0916212

> <r_epik_Charging_Adjusted_Penalty>
0.0916212

> <i_epik_Tot_Q>
0

> <i_epik_Tot_abs_Q>
0

> <r_epik_Metal_State_Penalty>
0.0781

> <b_epik_Metal_Only>
0

> <s_lp_Force_Field>
OPLS_2005

> <r_lp_Energy>
31.5885

> <b_lp_Chiralities_Consistent>
1

> <s_lp_Variant>
AV-unprocessed.smi:3148-3

> <Gold.Version>
5.8.1

> <Gold.Id.Protein>
6NUR|6NUR_protein|mol2

> <Gold.PLP.Fitness>
38.3139

> <Gold.PLP.PLP>
-35.7947

> <Gold.PLP.part.hbond>
-1.4138

> <Gold.PLP.part.metal>
0.0000

> <Gold.PLP.part.buried>
-5.4590

> <Gold.PLP.part.nonpolar>
-29.1413

> <Gold.PLP.part.repulsive>
0.6503

> <Gold.PLP.ligand.clash>
0.0000

> <Gold.PLP.ligand.torsion>
0.2454

> <Gold.PLP.Chemscore.Hbond>
1.0000

> <Gold.PLP.Chemscore.CHOScore>
0.0000

> <Gold.PLP.Chemscore.Metal>
0.0000

> <Gold.Chemscore.Hbonds>
donor molecule, donor type, donor heavy atom, donor atom, acceptor molecule, acceptor atom, score
      P1  H  7989  7998       L1    16  1.00

> <Gold.PLP.Chemscore.Internal.Correction>
0.0100

> <Gold.Rescore>
     Score         DG    S(hbond)    S(metal)    S(lipo)     H(rot)  DE(clash)    DE(int)     intcor
     12.75     -14.30       0.78        0.00      79.97       1.22       0.00       1.54       ----

> <Gold.Chemscore.Fitness>
12.7506

> <Gold.Chemscore.DG>
-14.2957

> <Gold.Chemscore.ZeroCoef>
-5.4800

> <Gold.Chemscore.Hbond>
0.7756

> <Gold.Chemscore.Metal>
0.0000

> <Gold.Chemscore.Lipo>
79.9707

> <Gold.Chemscore.Internal_Hbond>
0.0000

> <Gold.Chemscore.DEClash>
0.0009

> <Gold.Chemscore.DEInternal>
1.5442

> <Gold.Chemscore.Rot>
1.2232

> <Gold.Chemscore.Internal.Correction>
   9.000000E+99

> <Gold.Chemscore.Hbonds>
donor molecule, donor type, donor heavy atom, donor atom, acceptor molecule, acceptor atom, score
      P1  H  7989  7998       L1    16  0.38

> <Gold.Chemscore.Hbond.Weighted>
-2.5905

> <Gold.Chemscore.Metal.Weighted>
-0.0000

> <Gold.Chemscore.Lipo.Weighted>
-9.3566

> <Gold.Chemscore.Internal_Hbond.Weighted>
0.0000

> <Gold.Chemscore.DEClash.Weighted>
0.0009

> <Gold.Chemscore.DEInternal.Weighted>
1.5442

> <Gold.Chemscore.Rot.Weighted>
3.1314

> <Gold.Chemscore.Internal.Correction.Weighted>
   9.000000E+99

> <Gold.Protein.RotatedTorsions>
[ 6907 6896 6895 6894 ] final  173.12 input  -60.11 | X-H torsion
[ 7974 7965 7964 7962 ] final  114.07 input  175.53 | X-H torsion
[ 8008 7997 7996 7995 ] final  -15.52 input   59.86 | X-H torsion
[ 10167 10162 10161 10158 ] final -158.17 input  -65.29 | X-H torsion
[ 10718 10713 10712 10709 ] final -121.92 input   66.30 | X-H torsion
[ 10763 10752 10751 10750 ] final -105.70 input  -60.55 | X-H torsion
[ 11005 11000 10999 10996 ] final -113.12 input  -57.11 | X-H torsion

> <Gold.Protein.ActiveResidues>
 VAL166  LYS551  ARG553  GLY616  TRP617  ASP618  TYR619  PRO620  LYS621  CYS622 
 ASP623  PHE694  ASN695  SER759  ASP760  ASP761  ALA762  ILE779  LEU786  VAL792 
 PHE793  MET794  SER795  GLU796  ALA797  LYS798  CYS799  TRP800  GLU811  SER814 

> <Gold.Protein.RotatedAtoms>
  151.7734  133.3343  159.3450 H   0  0  0  0  0  0  0  0  0  0  0  0  # atno 6907 bound_to 6896
  150.7453  134.5997  159.6040 H   0  0  0  0  0  0  0  0  0  0  0  0  # atno 6908 bound_to 6896
  152.3325  134.7242  160.0337 H   0  0  0  0  0  0  0  0  0  0  0  0  # atno 6909 bound_to 6896
  145.2090  139.2915  143.4278 H   0  0  0  0  0  0  0  0  0  0  0  0  # atno 7974 bound_to 7965
  154.5124  140.2194  155.9131 H   0  0  0  0  0  0  0  0  0  0  0  0  # atno 8008 bound_to 7997
  156.1567  140.3150  155.8705 H   0  0  0  0  0  0  0  0  0  0  0  0  # atno 8009 bound_to 7997
  155.3832  140.0473  157.3033 H   0  0  0  0  0  0  0  0  0  0  0  0  # atno 8010 bound_to 7997
  139.6713  143.9740  152.2285 H   0  0  0  0  0  0  0  0  0  0  0  0  # atno 10167 bound_to 10162
  156.1376  130.6442  150.9721 H   0  0  0  0  0  0  0  0  0  0  0  0  # atno 10718 bound_to 10713
  154.7964  135.4739  154.0171 H   0  0  0  0  0  0  0  0  0  0  0  0  # atno 10763 bound_to 10752
  153.1710  135.6825  153.8614 H   0  0  0  0  0  0  0  0  0  0  0  0  # atno 10764 bound_to 10752
  153.8197  135.3206  155.3387 H   0  0  0  0  0  0  0  0  0  0  0  0  # atno 10765 bound_to 10752
  141.0634  133.9499  157.2625 H   0  0  0  0  0  0  0  0  0  0  0  0  # atno 11005 bound_to 11000
  146.3401  140.2360  142.8594 LP  0  0  0  0  0  0  0  0  0  0  0  0  # atno 17320 bound_to 7965
  144.9874  140.8515  143.5360 LP  0  0  0  0  0  0  0  0  0  0  0  0  # atno 17321 bound_to 7965
  139.9505  144.6623  150.8177 LP  0  0  0  0  0  0  0  0  0  0  0  0  # atno 17342 bound_to 10162
  140.7619  143.3185  151.2676 LP  0  0  0  0  0  0  0  0  0  0  0  0  # atno 17343 bound_to 10162
  157.6547  131.0891  150.7974 LP  0  0  0  0  0  0  0  0  0  0  0  0  # atno 17370 bound_to 10713
  156.8053  130.4934  149.5363 LP  0  0  0  0  0  0  0  0  0  0  0  0  # atno 17371 bound_to 10713
  139.9453  135.0185  156.8834 LP  0  0  0  0  0  0  0  0  0  0  0  0  # atno 17394 bound_to 11000
  140.5823  134.0340  155.7469 LP  0  0  0  0  0  0  0  0  0  0  0  0  # atno 17395 bound_to 11000

$$$$
