AV-unprocessed.smi:333|AV-procd|sdf|2361|dock5
  -GOLD-   2262022273D 1   1.00000     0.00000
 Structure written by MMmdl.
 26 26  0  0  0  0  0  0  0  0  1 V2000
  150.2968  136.3094  154.6006 N   0  0  0  0  0  0  0  0  0  0  0  0
  150.8589  135.3607  155.3600 C   0  0  0  0  0  0  0  0  0  0  0  0
  151.7446  135.6790  156.1533 O   0  0  0  0  0  0  0  0  0  0  0  0
  150.3199  134.0030  155.1321 C   0  0  0  0  0  0  0  0  0  0  0  0
  149.3359  133.7308  154.2373 C   0  0  0  0  0  0  0  0  0  0  0  0
  148.8270  132.3858  154.0339 C   0  0  0  0  0  0  0  0  0  0  0  0
  147.7182  132.1511  153.0159 C   0  0  0  0  0  0  0  0  0  0  0  0
  147.4113  133.3929  152.1624 C   0  0  0  0  0  0  0  0  0  0  0  0
  147.2289  133.0394  150.8078 O   0  0  0  0  0  0  0  0  0  0  0  0
  149.3612  131.4014  154.7936 C   0  0  0  0  0  0  0  0  0  0  0  0
  148.9714  129.9249  154.7557 C   0  0  0  0  0  0  0  0  0  0  0  0
  149.1761  129.4222  153.5383 F   0  0  0  0  0  0  0  0  0  0  0  0
  149.6924  129.2230  155.6291 F   0  0  0  0  0  0  0  0  0  0  0  0
  147.6834  129.7438  155.0569 F   0  0  0  0  0  0  0  0  0  0  0  0
  150.3790  131.6923  155.7133 N   0  0  0  0  0  0  0  0  0  0  0  0
  150.9085  132.9138  155.9456 C   0  0  0  0  0  0  0  0  0  0  0  0
  151.8046  133.0232  156.7827 O   0  0  0  0  0  0  0  0  0  0  0  0
  150.7402  130.9104  156.2410 H   0  0  0  0  0  0  0  0  0  0  0  0
  150.6063  137.2666  154.6877 H   0  0  0  0  0  0  0  0  0  0  0  0
  149.5703  136.0672  153.9432 H   0  0  0  0  0  0  0  0  0  0  0  0
  148.8924  134.5143  153.6409 H   0  0  0  0  0  0  0  0  0  0  0  0
  147.9432  131.3059  152.3675 H   0  0  0  0  0  0  0  0  0  0  0  0
  146.8205  131.8665  153.5656 H   0  0  0  0  0  0  0  0  0  0  0  0
  146.5015  133.8758  152.5198 H   0  0  0  0  0  0  0  0  0  0  0  0
  148.2131  134.1279  152.2372 H   0  0  0  0  0  0  0  0  0  0  0  0
  147.9629  132.5115  150.5326 H   0  0  0  0  0  0  0  0  0  0  0  0
  1  2  1  0  0  0  0
  1 19  1  0  0  0  0
  1 20  1  0  0  0  0
  2  3  2  0  0  0  0
  2  4  1  0  0  0  0
  4 16  1  0  0  0  0
  4  5  2  0  0  0  0
  5  6  1  0  0  0  0
  5 21  1  0  0  0  0
  6  7  1  0  0  0  0
  6 10  2  0  0  0  0
  7  8  1  0  0  0  0
  7 22  1  0  0  0  0
  7 23  1  0  0  0  0
  8  9  1  0  0  0  0
  8 24  1  0  0  0  0
  8 25  1  0  0  0  0
  9 26  1  0  0  0  0
 10 11  1  0  0  0  0
 10 15  1  0  0  0  0
 11 12  1  0  0  0  0
 11 13  1  0  0  0  0
 11 14  1  0  0  0  0
 15 18  1  0  0  0  0
 15 16  1  0  0  0  0
 16 17  2  0  0  0  0
M  END
> <s_m_source_file>
AV-unprocessed.smi

> <i_m_source_file_index>
333

> <i_lp_mmshare_version>
43012

> <i_f3d_flags>
0

> <s_epik_input>
W05IMl1DKD1PKWMxW2NIXWMoW0NIMl1bQ0gyXVtPSF0pYyhDKEYpKEYpRilbbkhdYzE9Tw==

> <s_epik_cmdline>
J2VwaWtfcHl0aG9uJywgJy1waCcsICc3LjAnLCAnLXRuJywgJzgnLCAnLW1hJywgJzIwMCcsICctbWV0YWxfYmluZGluZycsICctaW1hZScsICc8aW5maWxlLm1hZT4nLCAnLW9tYWUnLCAnPG91dGZpbGUubWFlPic=

> <r_lp_tautomer_probability>
0.999

> <r_epik_Ionization_Penalty>
1.33848

> <r_epik_Ionization_Penalty_Charging>
1.33848

> <r_epik_Ionization_Penalty_Neutral>
1.5599e-06

> <r_epik_State_Penalty>
1.41551

> <r_epik_Charging_Adjusted_Penalty>
2.75399

> <i_epik_Tot_Q>
0

> <i_epik_Tot_abs_Q>
0

> <r_epik_Metal_State_Penalty>
1.47649

> <b_epik_Metal_Only>
0

> <s_lp_Force_Field>
OPLS_2005

> <r_lp_Energy>
21.6261

> <b_lp_Chiralities_Consistent>
1

> <s_lp_Variant>
AV-unprocessed.smi:333-2

> <Gold.Version>
5.8.1

> <Gold.Id.Protein>
6NUR|6NUR_protein|mol2

> <Gold.PLP.Fitness>
34.3110

> <Gold.PLP.PLP>
-26.6669

> <Gold.PLP.part.hbond>
-3.7951

> <Gold.PLP.part.metal>
0.0000

> <Gold.PLP.part.buried>
-2.0110

> <Gold.PLP.part.nonpolar>
-20.1206

> <Gold.PLP.part.repulsive>
0.0884

> <Gold.PLP.ligand.clash>
0.0000

> <Gold.PLP.ligand.torsion>
0.3604

> <Gold.PLP.Chemscore.Hbond>
2.7840

> <Gold.PLP.Chemscore.CHOScore>
0.0000

> <Gold.PLP.Chemscore.Metal>
0.0000

> <Gold.Chemscore.Hbonds>
donor molecule, donor type, donor heavy atom, donor atom, acceptor molecule, acceptor atom, score
      L1  H     1    20       P1  7948  0.62
      L1  H     9    26       P1 10747  1.00
      P1  H 10752 10764       L1     3  0.60

> <Gold.PLP.Chemscore.Internal.Correction>
0.0130

> <Gold.Rescore>
     Score         DG    S(hbond)    S(metal)    S(lipo)     H(rot)  DE(clash)    DE(int)     intcor
      9.91     -11.68       2.22        0.00      36.14       2.13       0.00       1.76       ----

> <Gold.Chemscore.Fitness>
9.9084

> <Gold.Chemscore.DG>
-11.6774

> <Gold.Chemscore.ZeroCoef>
-5.4800

> <Gold.Chemscore.Hbond>
2.2217

> <Gold.Chemscore.Metal>
0.0000

> <Gold.Chemscore.Lipo>
36.1370

> <Gold.Chemscore.Internal_Hbond>
0.0000

> <Gold.Chemscore.DEClash>
0.0048

> <Gold.Chemscore.DEInternal>
1.7643

> <Gold.Chemscore.Rot>
2.1294

> <Gold.Chemscore.Internal.Correction>
   9.000000E+99

> <Gold.Chemscore.Hbonds>
donor molecule, donor type, donor heavy atom, donor atom, acceptor molecule, acceptor atom, score
      L1  H     1    20       P1  7948  0.33
      L1  H     9    26       P1 10747  0.98
      P1  H 10752 10764       L1     3  0.04

> <Gold.Chemscore.Hbond.Weighted>
-7.4206

> <Gold.Chemscore.Metal.Weighted>
-0.0000

> <Gold.Chemscore.Lipo.Weighted>
-4.2280

> <Gold.Chemscore.Internal_Hbond.Weighted>
0.0000

> <Gold.Chemscore.DEClash.Weighted>
0.0048

> <Gold.Chemscore.DEInternal.Weighted>
1.7643

> <Gold.Chemscore.Rot.Weighted>
5.4512

> <Gold.Chemscore.Internal.Correction.Weighted>
   9.000000E+99

> <Gold.Protein.RotatedTorsions>
[ 6907 6896 6895 6894 ] final   31.00 input  -60.11 | X-H torsion
[ 7974 7965 7964 7962 ] final  102.16 input  175.53 | X-H torsion
[ 8008 7997 7996 7995 ] final -133.95 input   59.86 | X-H torsion
[ 10167 10162 10161 10158 ] final -150.56 input  -65.29 | X-H torsion
[ 10718 10713 10712 10709 ] final -107.62 input   66.30 | X-H torsion
[ 10763 10752 10751 10750 ] final  -41.31 input  -60.55 | X-H torsion
[ 11005 11000 10999 10996 ] final   71.93 input  -57.11 | X-H torsion

> <Gold.Protein.ActiveResidues>
 VAL166  LYS551  ARG553  GLY616  TRP617  ASP618  TYR619  PRO620  LYS621  CYS622 
 ASP623  PHE694  ASN695  SER759  ASP760  ASP761  ALA762  ILE779  LEU786  VAL792 
 PHE793  MET794  SER795  GLU796  ALA797  LYS798  CYS799  TRP800  GLU811  SER814 

> <Gold.Protein.RotatedAtoms>
  152.0540  134.9636  160.0574 H   0  0  0  0  0  0  0  0  0  0  0  0  # atno 6907 bound_to 6896
  152.1025  133.4252  159.4602 H   0  0  0  0  0  0  0  0  0  0  0  0  # atno 6908 bound_to 6896
  150.6840  134.2662  159.4613 H   0  0  0  0  0  0  0  0  0  0  0  0  # atno 6909 bound_to 6896
  145.3628  139.2414  143.3497 H   0  0  0  0  0  0  0  0  0  0  0  0  # atno 7974 bound_to 7965
  155.3540  140.0479  157.3046 H   0  0  0  0  0  0  0  0  0  0  0  0  # atno 8008 bound_to 7997
  154.5212  140.2226  155.8936 H   0  0  0  0  0  0  0  0  0  0  0  0  # atno 8009 bound_to 7997
  156.1692  140.3099  155.8948 H   0  0  0  0  0  0  0  0  0  0  0  0  # atno 8010 bound_to 7997
  139.7344  143.8758  152.2544 H   0  0  0  0  0  0  0  0  0  0  0  0  # atno 10167 bound_to 10162
  156.0446  130.5672  150.7847 H   0  0  0  0  0  0  0  0  0  0  0  0  # atno 10718 bound_to 10713
  153.9604  135.6740  153.4745 H   0  0  0  0  0  0  0  0  0  0  0  0  # atno 10763 bound_to 10752
  153.0841  135.4908  154.8558 H   0  0  0  0  0  0  0  0  0  0  0  0  # atno 10764 bound_to 10752
  154.7276  135.3131  154.8905 H   0  0  0  0  0  0  0  0  0  0  0  0  # atno 10765 bound_to 10752
  139.9517  134.7215  156.0847 H   0  0  0  0  0  0  0  0  0  0  0  0  # atno 11005 bound_to 11000
  146.2920  140.4265  142.8736 LP  0  0  0  0  0  0  0  0  0  0  0  0  # atno 17320 bound_to 7965
  144.8634  140.7172  143.6093 LP  0  0  0  0  0  0  0  0  0  0  0  0  # atno 17321 bound_to 7965
  139.8691  144.7078  150.9009 LP  0  0  0  0  0  0  0  0  0  0  0  0  # atno 17342 bound_to 10162
  140.7776  143.3753  151.1574 LP  0  0  0  0  0  0  0  0  0  0  0  0  # atno 17343 bound_to 10162
  157.5305  131.0936  150.9961 LP  0  0  0  0  0  0  0  0  0  0  0  0  # atno 17370 bound_to 10713
  157.0269  130.5696  149.5338 LP  0  0  0  0  0  0  0  0  0  0  0  0  # atno 17371 bound_to 10713
  141.1181  133.6621  156.3145 LP  0  0  0  0  0  0  0  0  0  0  0  0  # atno 17394 bound_to 11000
  140.5703  134.5846  157.5456 LP  0  0  0  0  0  0  0  0  0  0  0  0  # atno 17395 bound_to 11000

$$$$
