AV-unprocessed.smi:2408|AV-procd|sdf|9520|dock6
  -GOLD-   2272013153D 1   1.00000     0.00000
 Structure written by MMmdl.
 47 49  0  0  0  0  0  0  0  0  1 V2000
  150.5276  138.2008  154.2640 C   0  0  0  0  0  0  0  0  0  0  0  0
  149.5891  139.3949  154.2822 C   0  0  0  0  0  0  0  0  0  0  0  0
  150.1231  140.5456  154.7494 N   0  0  0  0  0  0  0  0  0  0  0  0
  149.3398  141.6435  154.7895 C   0  0  0  0  0  0  0  0  0  0  0  0
  147.9947  141.6463  154.3755 C   0  0  0  0  0  0  0  0  0  0  0  0
  147.4402  140.4478  153.8887 C   0  0  0  0  0  0  0  0  0  0  0  0
  148.2525  139.2900  153.8250 C   0  0  0  0  0  0  0  0  0  0  0  0
  147.7687  138.0332  153.3687 N   0  0  0  0  0  0  0  0  0  0  0  0
  146.5331  137.5266  153.5134 C   0  0  0  0  0  0  0  0  0  0  0  0
  145.6024  138.0863  154.0930 O   0  0  0  0  0  0  0  0  0  0  0  0
  146.4250  136.3331  152.9029 N   0  0  0  0  0  0  0  0  0  0  0  0
  145.2281  135.4792  152.7844 C   0  0  0  0  0  0  0  0  0  0  0  0
  145.5350  134.0839  152.1673 C   0  0  0  0  0  0  0  0  0  0  0  0
  145.3584  133.0639  152.8353 O   0  0  0  0  0  0  0  0  0  0  0  0
  146.0093  134.0361  150.9116 N   0  0  0  0  0  0  0  0  0  0  0  0
  146.3383  132.8204  150.1848 C   0  0  0  0  0  0  0  0  0  0  0  0
  145.1391  132.1537  149.5440 C   0  0  0  0  0  0  0  0  0  0  0  0
  143.9966  132.9804  149.0023 C   0  0  0  0  0  0  0  0  0  0  0  0
  143.7969  132.1344  150.2371 C   0  0  0  0  0  0  0  0  0  0  0  0
  144.6410  135.2723  154.2022 C   0  0  0  0  0  0  0  0  0  0  0  0
  143.1218  135.2802  154.0467 C   0  0  0  0  0  0  0  0  0  0  0  0
  142.8750  136.3129  152.9559 C   0  0  0  0  0  0  0  0  0  0  0  0
  144.0827  136.2120  152.0160 C   0  0  0  0  0  0  0  0  0  0  0  0
  150.6182  137.8046  153.2523 H   0  0  0  0  0  0  0  0  0  0  0  0
  150.1481  137.4104  154.9119 H   0  0  0  0  0  0  0  0  0  0  0  0
  151.5269  138.4699  154.6090 H   0  0  0  0  0  0  0  0  0  0  0  0
  149.7971  142.5454  155.1688 H   0  0  0  0  0  0  0  0  0  0  0  0
  147.4003  142.5461  154.4346 H   0  0  0  0  0  0  0  0  0  0  0  0
  146.4036  140.4320  153.5874 H   0  0  0  0  0  0  0  0  0  0  0  0
  148.4014  137.5089  152.7823 H   0  0  0  0  0  0  0  0  0  0  0  0
  147.2561  135.9754  152.4557 H   0  0  0  0  0  0  0  0  0  0  0  0
  146.1318  134.9093  150.4197 H   0  0  0  0  0  0  0  0  0  0  0  0
  147.0809  133.0488  149.4185 H   0  0  0  0  0  0  0  0  0  0  0  0
  146.7976  132.1070  150.8707 H   0  0  0  0  0  0  0  0  0  0  0  0
  145.3918  131.2698  148.9608 H   0  0  0  0  0  0  0  0  0  0  0  0
  144.0426  134.0595  149.1357 H   0  0  0  0  0  0  0  0  0  0  0  0
  143.5255  132.6436  148.0810 H   0  0  0  0  0  0  0  0  0  0  0  0
  143.1959  131.2329  150.1391 H   0  0  0  0  0  0  0  0  0  0  0  0
  143.7093  132.6518  151.1906 H   0  0  0  0  0  0  0  0  0  0  0  0
  144.9890  134.3587  154.6875 H   0  0  0  0  0  0  0  0  0  0  0  0
  144.9263  136.0976  154.8574 H   0  0  0  0  0  0  0  0  0  0  0  0
  142.7747  134.3002  153.7166 H   0  0  0  0  0  0  0  0  0  0  0  0
  142.6051  135.5208  154.9763 H   0  0  0  0  0  0  0  0  0  0  0  0
  141.9279  136.1553  152.4389 H   0  0  0  0  0  0  0  0  0  0  0  0
  142.8445  137.3082  153.4014 H   0  0  0  0  0  0  0  0  0  0  0  0
  144.3626  137.2138  151.6888 H   0  0  0  0  0  0  0  0  0  0  0  0
  143.7964  135.6773  151.1091 H   0  0  0  0  0  0  0  0  0  0  0  0
  1  2  1  0  0  0  0
  1 24  1  0  0  0  0
  1 25  1  0  0  0  0
  1 26  1  0  0  0  0
  2  7  1  0  0  0  0
  2  3  2  0  0  0  0
  3  4  1  0  0  0  0
  4  5  2  0  0  0  0
  4 27  1  0  0  0  0
  5  6  1  0  0  0  0
  5 28  1  0  0  0  0
  6  7  2  0  0  0  0
  6 29  1  0  0  0  0
  7  8  1  0  0  0  0
  8  9  1  0  0  0  0
  8 30  1  0  0  0  0
  9 10  2  0  0  0  0
  9 11  1  0  0  0  0
 11 12  1  0  0  0  0
 11 31  1  0  0  0  0
 12 23  1  0  0  0  0
 12 13  1  0  0  0  0
 12 20  1  0  0  0  0
 13 14  2  0  0  0  0
 13 15  1  0  0  0  0
 15 16  1  0  0  0  0
 15 32  1  0  0  0  0
 16 17  1  0  0  0  0
 16 33  1  0  0  0  0
 16 34  1  0  0  0  0
 17 19  1  0  0  0  0
 17 18  1  0  0  0  0
 17 35  1  0  0  0  0
 18 19  1  0  0  0  0
 18 36  1  0  0  0  0
 18 37  1  0  0  0  0
 19 38  1  0  0  0  0
 19 39  1  0  0  0  0
 20 21  1  0  0  0  0
 20 40  1  0  0  0  0
 20 41  1  0  0  0  0
 21 22  1  0  0  0  0
 21 42  1  0  0  0  0
 21 43  1  0  0  0  0
 22 23  1  0  0  0  0
 22 44  1  0  0  0  0
 22 45  1  0  0  0  0
 23 46  1  0  0  0  0
 23 47  1  0  0  0  0
M  END
> <s_m_source_file>
AV-unprocessed.smi

> <i_m_source_file_index>
2408

> <i_lp_mmshare_version>
43012

> <i_f3d_flags>
0

> <s_epik_input>
W0NIM11jMW5bY0hdW2NIXVtjSF1jMVtOSF1DKD1PKVtOSF1DMihbQ0gyXVtDSDJdW0NIMl1bQ0gyXTIpQyg9TylbTkhdW0NIMl1bQ0hdM1tDSDJdW0NIMl0z

> <s_epik_cmdline>
J2VwaWtfcHl0aG9uJywgJy1waCcsICc3LjAnLCAnLXRuJywgJzgnLCAnLW1hJywgJzIwMCcsICctbWV0YWxfYmluZGluZycsICctaW1hZScsICc8aW5maWxlLm1hZT4nLCAnLW9tYWUnLCAnPG91dGZpbGUubWFlPic=

> <r_epik_Ionization_Penalty>
0.0173464

> <r_epik_Ionization_Penalty_Charging>
0

> <r_epik_Ionization_Penalty_Neutral>
0.0173464

> <r_epik_State_Penalty>
0.0137159

> <r_epik_Charging_Adjusted_Penalty>
0.0137159

> <i_epik_Tot_Q>
0

> <i_epik_Tot_abs_Q>
0

> <r_epik_Metal_State_Penalty>
0.0133255

> <b_epik_Metal_Only>
0

> <s_lp_Force_Field>
OPLS_2005

> <r_lp_Energy>
32.4155

> <b_lp_Chiralities_Consistent>
1

> <s_lp_Variant>
AV-unprocessed.smi:2408-1

> <Gold.Version>
5.8.1

> <Gold.Id.Protein>
6NUR|6NUR_protein|mol2

> <Gold.PLP.Fitness>
51.1362

> <Gold.PLP.PLP>
-40.3105

> <Gold.PLP.part.hbond>
-3.0000

> <Gold.PLP.part.metal>
0.0000

> <Gold.PLP.part.buried>
-2.4058

> <Gold.PLP.part.nonpolar>
-34.2859

> <Gold.PLP.part.repulsive>
0.4398

> <Gold.PLP.ligand.clash>
0.0000

> <Gold.PLP.ligand.torsion>
0.7526

> <Gold.PLP.Chemscore.Hbond>
2.8960

> <Gold.PLP.Chemscore.CHOScore>
1.0000

> <Gold.PLP.Chemscore.Metal>
0.0000

> <Gold.Chemscore.Hbonds>
donor molecule, donor type, donor heavy atom, donor atom, acceptor molecule, acceptor atom, score
      L1  H     8    30       P1  7948  1.00
      L1  H    11    31       P1  7948  1.00
      P1  H  7989  7998       L1     3  0.91
      L1  C     4    27       P1  8028  1.00

> <Gold.PLP.Chemscore.Internal.Correction>
0.6429

> <Gold.Rescore>
     Score         DG    S(hbond)    S(metal)    S(lipo)     H(rot)  DE(clash)    DE(int)     intcor
     18.07     -21.50       2.39        0.00     103.67       1.59       0.45       2.99       ----

> <Gold.Chemscore.Fitness>
18.0701

> <Gold.Chemscore.DG>
-21.5020

> <Gold.Chemscore.ZeroCoef>
-5.4800

> <Gold.Chemscore.Hbond>
2.3872

> <Gold.Chemscore.Metal>
0.0000

> <Gold.Chemscore.Lipo>
103.6738

> <Gold.Chemscore.Internal_Hbond>
0.0000

> <Gold.Chemscore.DEClash>
0.4459

> <Gold.Chemscore.DEInternal>
2.9860

> <Gold.Chemscore.Rot>
1.5941

> <Gold.Chemscore.Internal.Correction>
   9.000000E+99

> <Gold.Chemscore.Hbonds>
donor molecule, donor type, donor heavy atom, donor atom, acceptor molecule, acceptor atom, score
      L1  H     8    30       P1  7948  0.99
      L1  H    11    31       P1  7948  0.95
      P1  H  7989  7998       L1     3  0.22

> <Gold.Chemscore.Hbond.Weighted>
-7.9731

> <Gold.Chemscore.Metal.Weighted>
-0.0000

> <Gold.Chemscore.Lipo.Weighted>
-12.1298

> <Gold.Chemscore.Internal_Hbond.Weighted>
0.0000

> <Gold.Chemscore.DEClash.Weighted>
0.4459

> <Gold.Chemscore.DEInternal.Weighted>
2.9860

> <Gold.Chemscore.Rot.Weighted>
4.0809

> <Gold.Chemscore.Internal.Correction.Weighted>
   9.000000E+99

> <Gold.Protein.RotatedTorsions>
[ 6907 6896 6895 6894 ] final -124.59 input  -60.11 | X-H torsion
[ 7974 7965 7964 7962 ] final    0.52 input  175.53 | X-H torsion
[ 8008 7997 7996 7995 ] final   54.88 input   59.86 | X-H torsion
[ 10167 10162 10161 10158 ] final -150.16 input  -65.29 | X-H torsion
[ 10718 10713 10712 10709 ] final  -45.64 input   66.30 | X-H torsion
[ 10763 10752 10751 10750 ] final -116.58 input  -60.55 | X-H torsion
[ 11005 11000 10999 10996 ] final   42.36 input  -57.11 | X-H torsion

> <Gold.Protein.ActiveResidues>
 VAL166  LYS551  ARG553  GLY616  TRP617  ASP618  TYR619  PRO620  LYS621  CYS622 
 ASP623  PHE694  ASN695  SER759  ASP760  ASP761  ALA762  ILE779  LEU786  VAL792 
 PHE793  MET794  SER795  GLU796  ALA797  LYS798  CYS799  TRP800  GLU811  SER814 

> <Gold.Protein.RotatedAtoms>
  150.8783  133.7407  159.2939 H   0  0  0  0  0  0  0  0  0  0  0  0  # atno 6907 bound_to 6896
  151.4997  135.1060  159.9835 H   0  0  0  0  0  0  0  0  0  0  0  0  # atno 6908 bound_to 6896
  152.4743  133.8055  159.7031 H   0  0  0  0  0  0  0  0  0  0  0  0  # atno 6909 bound_to 6896
  146.2435  140.1125  142.8343 H   0  0  0  0  0  0  0  0  0  0  0  0  # atno 7974 bound_to 7965
  155.4920  140.3472  155.4356 H   0  0  0  0  0  0  0  0  0  0  0  0  # atno 8008 bound_to 7997
  156.0971  140.1425  156.9545 H   0  0  0  0  0  0  0  0  0  0  0  0  # atno 8009 bound_to 7997
  154.4670  140.0914  156.7024 H   0  0  0  0  0  0  0  0  0  0  0  0  # atno 8010 bound_to 7997
  139.7378  143.8708  152.2554 H   0  0  0  0  0  0  0  0  0  0  0  0  # atno 10167 bound_to 10162
  156.2263  130.4169  149.8930 H   0  0  0  0  0  0  0  0  0  0  0  0  # atno 10718 bound_to 10713
  154.8524  135.4340  154.1843 H   0  0  0  0  0  0  0  0  0  0  0  0  # atno 10763 bound_to 10752
  153.2926  135.6962  153.7284 H   0  0  0  0  0  0  0  0  0  0  0  0  # atno 10764 bound_to 10752
  153.6445  135.3462  155.3056 H   0  0  0  0  0  0  0  0  0  0  0  0  # atno 10765 bound_to 10752
  140.1746  134.4179  155.8236 H   0  0  0  0  0  0  0  0  0  0  0  0  # atno 11005 bound_to 11000
  145.0474  140.8992  143.5016 LP  0  0  0  0  0  0  0  0  0  0  0  0  # atno 17320 bound_to 7965
  145.1217  139.2689  143.5585 LP  0  0  0  0  0  0  0  0  0  0  0  0  # atno 17321 bound_to 7965
  139.8650  144.7098  150.9055 LP  0  0  0  0  0  0  0  0  0  0  0  0  # atno 17342 bound_to 10162
  140.7781  143.3786  151.1518 LP  0  0  0  0  0  0  0  0  0  0  0  0  # atno 17343 bound_to 10162
  156.6559  130.8762  151.3539 LP  0  0  0  0  0  0  0  0  0  0  0  0  # atno 17370 bound_to 10713
  157.7112  130.9442  150.1096 LP  0  0  0  0  0  0  0  0  0  0  0  0  # atno 17371 bound_to 10713
  141.2219  133.6972  156.7824 LP  0  0  0  0  0  0  0  0  0  0  0  0  # atno 17394 bound_to 11000
  140.2337  134.8666  157.3503 LP  0  0  0  0  0  0  0  0  0  0  0  0  # atno 17395 bound_to 11000

$$$$
