AV-unprocessed.smi:160|AV-procd|sdf|1364|dock4
  -GOLD-   2262019 73D 1   1.00000     0.00000
 Structure written by MMmdl.
 28 29  0  0  0  0  0  0  0  0  2 V2000
  152.1645  137.1600  153.6315 N   0  5  0  0  0  0  0  0  0  0  0  0
  153.0045  138.0701  154.1707 C   0  0  0  0  0  0  0  0  0  0  0  0
  154.2306  138.0784  154.0646 O   0  0  0  0  0  0  0  0  0  0  0  0
  152.3269  139.1569  154.9717 C   0  0  0  0  0  0  0  0  0  0  0  0
  152.7583  139.4629  156.2333 N   0  0  0  0  0  0  0  0  0  0  0  0
  151.8960  140.4274  156.5245 C   0  0  0  0  0  0  0  0  0  0  0  0
  151.0173  140.6902  155.5533 N   0  0  0  0  0  0  0  0  0  0  0  0
  149.9051  141.6971  155.5168 C   0  0  1  0  0  0  0  0  0  0  0  0
  149.3061  141.6517  154.2565 O   0  0  0  0  0  0  0  0  0  0  0  0
  148.0788  140.9346  154.3330 C   0  0  2  0  0  0  0  0  0  0  0  0
  147.1652  141.2631  153.1390 C   0  0  0  0  0  0  0  0  0  0  0  0
  147.1876  140.2075  152.2023 O   0  0  0  0  0  0  0  0  0  0  0  0
  147.5394  141.3434  155.7118 C   0  0  2  0  0  0  0  0  0  0  0  0
  146.8893  142.6009  155.6530 O   0  0  0  0  0  0  0  0  0  0  0  0
  148.7978  141.4389  156.5689 C   0  0  1  0  0  0  0  0  0  0  0  0
  148.9652  140.2516  157.3241 O   0  0  0  0  0  0  0  0  0  0  0  0
  151.2902  139.8644  154.5121 N   0  0  0  0  0  0  0  0  0  0  0  0
  150.4068  142.6562  155.6498 H   0  0  0  0  0  0  0  0  0  0  0  0
  148.2888  139.8637  154.3543 H   0  0  0  0  0  0  0  0  0  0  0  0
  146.8236  140.6154  156.0965 H   0  0  0  0  0  0  0  0  0  0  0  0
  148.7570  142.2794  157.2633 H   0  0  0  0  0  0  0  0  0  0  0  0
  152.0519  137.1395  152.6113 H   0  0  0  0  0  0  0  0  0  0  0  0
  151.9026  140.9507  157.4692 H   0  0  0  0  0  0  0  0  0  0  0  0
  146.1345  141.3749  153.4764 H   0  0  0  0  0  0  0  0  0  0  0  0
  147.4559  142.1984  152.6594 H   0  0  0  0  0  0  0  0  0  0  0  0
  148.0863  140.0202  151.9798 H   0  0  0  0  0  0  0  0  0  0  0  0
  147.5015  143.2390  155.3204 H   0  0  0  0  0  0  0  0  0  0  0  0
  149.4592  139.6326  156.8087 H   0  0  0  0  0  0  0  0  0  0  0  0
  1  2  1  0  0  0  0
  1 22  1  0  0  0  0
  2  3  2  0  0  0  0
  2  4  1  0  0  0  0
  4 17  2  0  0  0  0
  4  5  1  0  0  0  0
  5  6  2  0  0  0  0
  6  7  1  0  0  0  0
  6 23  1  0  0  0  0
  7  8  1  0  0  0  0
  7 17  1  0  0  0  0
  8 18  1  0  0  0  0
  8 15  1  0  0  0  0
  8  9  1  0  0  0  0
  9 10  1  0  0  0  0
 10 19  1  0  0  0  0
 10 11  1  0  0  0  0
 10 13  1  0  0  0  0
 11 12  1  0  0  0  0
 11 24  1  0  0  0  0
 11 25  1  0  0  0  0
 12 26  1  0  0  0  0
 13 20  1  0  0  0  0
 13 14  1  0  0  0  0
 13 15  1  0  0  0  0
 14 27  1  0  0  0  0
 15 21  1  0  0  0  0
 15 16  1  0  0  0  0
 16 28  1  0  0  0  0
M  CHG  1   1  -1
M  END
> <s_m_source_file>
AV-unprocessed.smi

> <i_m_source_file_index>
160

> <i_lp_mmshare_version>
43012

> <i_f3d_flags>
0

> <s_epik_input>
W05IMl1DKD1PKWMxbltjSF1uKG4xKVtDQEBIXTJPW0NASF0oW0NIMl1bT0hdKVtDQEBIXShbT0hdKVtDQEhdMltPSF0=

> <s_epik_cmdline>
J2VwaWtfcHl0aG9uJywgJy1waCcsICc3LjAnLCAnLXRuJywgJzgnLCAnLW1hJywgJzIwMCcsICctbWV0YWxfYmluZGluZycsICctaW1hZScsICc8aW5maWxlLm1hZT4nLCAnLW9tYWUnLCAnPG91dGZpbGUubWFlPic=

> <r_lp_tautomer_probability>
1

> <r_epik_Ionization_Penalty>
6.6993

> <r_epik_Ionization_Penalty_Charging>
6.6993

> <r_epik_Ionization_Penalty_Neutral>
6.01698e-06

> <r_epik_State_Penalty>
6.69929

> <r_epik_Charging_Adjusted_Penalty>
13.3986

> <i_epik_Tot_Q>
-1

> <i_epik_Tot_abs_Q>
1

> <r_epik_Metal_State_Penalty>
2.62798

> <b_epik_Metal_Only>
1

> <s_epik_Chemistry_Notes>
This compound contains an acetal/aminal-like group ( X-CH(R)-Y where X, Y are N, S, or O) that may be acid/base labile, releasing an aldehyde.

> <s_lp_Force_Field>
OPLS_2005

> <r_lp_Energy>
46.6633

> <b_lp_Chiralities_Consistent>
1

> <s_lp_Variant>
AV-unprocessed.smi:160-22

> <Gold.Version>
5.8.1

> <Gold.Id.Protein>
6NUR|6NUR_protein|mol2

> <Gold.PLP.Fitness>
47.1601

> <Gold.PLP.PLP>
-28.7990

> <Gold.PLP.part.hbond>
-8.9651

> <Gold.PLP.part.metal>
0.0000

> <Gold.PLP.part.buried>
-1.6776

> <Gold.PLP.part.nonpolar>
-17.7417

> <Gold.PLP.part.repulsive>
0.2754

> <Gold.PLP.ligand.clash>
0.0000

> <Gold.PLP.ligand.torsion>
1.4837

> <Gold.PLP.Chemscore.Hbond>
7.1080

> <Gold.PLP.Chemscore.CHOScore>
0.0000

> <Gold.PLP.Chemscore.Metal>
0.0000

> <Gold.Chemscore.Hbonds>
donor molecule, donor type, donor heavy atom, donor atom, acceptor molecule, acceptor atom, score
      L1  H     1    22       P1  7949  0.66
      L1  H    12    26       P1  7957  1.00
      L1  H    14    27       P1  8028  0.90
      P1  H  7989  7998       L1    17  0.83
      P1  H  7997  8009       L1     5  1.00
      P1  H  8011  8017       L1     9  0.42
      P1  H 10752 10764       L1     1  1.76

> <Gold.PLP.Chemscore.Internal.Correction>
0.0044

> <Gold.Rescore>
     Score         DG    S(hbond)    S(metal)    S(lipo)     H(rot)  DE(clash)    DE(int)     intcor
      5.77      -9.91       3.68        0.00      21.31       4.04       1.44       2.69       ----

> <Gold.Chemscore.Fitness>
5.7701

> <Gold.Chemscore.DG>
-9.9061

> <Gold.Chemscore.ZeroCoef>
-5.4800

> <Gold.Chemscore.Hbond>
3.6753

> <Gold.Chemscore.Metal>
0.0000

> <Gold.Chemscore.Lipo>
21.3136

> <Gold.Chemscore.Internal_Hbond>
0.0000

> <Gold.Chemscore.DEClash>
1.4450

> <Gold.Chemscore.DEInternal>
2.6910

> <Gold.Chemscore.Rot>
4.0403

> <Gold.Chemscore.Internal.Correction>
   9.000000E+99

> <Gold.Chemscore.Hbonds>
donor molecule, donor type, donor heavy atom, donor atom, acceptor molecule, acceptor atom, score
      L1  H     1    22       P1  7949  0.66
      L1  H    12    26       P1  7957  1.00
      L1  H    14    27       P1  8028  0.16
      P1  H  7989  7998       L1    17  0.19
      P1  H  7997  8009       L1     5  0.61
      P1  H  8011  8017       L1     9  0.38
      P1  H 10752 10764       L1     1  0.14

> <Gold.Chemscore.Hbond.Weighted>
-12.2755

> <Gold.Chemscore.Metal.Weighted>
-0.0000

> <Gold.Chemscore.Lipo.Weighted>
-2.4937

> <Gold.Chemscore.Internal_Hbond.Weighted>
0.0000

> <Gold.Chemscore.DEClash.Weighted>
1.4450

> <Gold.Chemscore.DEInternal.Weighted>
2.6910

> <Gold.Chemscore.Rot.Weighted>
10.3431

> <Gold.Chemscore.Internal.Correction.Weighted>
   9.000000E+99

> <Gold.Protein.RotatedTorsions>
[ 6907 6896 6895 6894 ] final   50.20 input  -60.11 | X-H torsion
[ 7974 7965 7964 7962 ] final   88.89 input  175.53 | X-H torsion
[ 8008 7997 7996 7995 ] final -162.29 input   59.86 | X-H torsion
[ 10167 10162 10161 10158 ] final -161.46 input  -65.29 | X-H torsion
[ 10718 10713 10712 10709 ] final  117.59 input   66.30 | X-H torsion
[ 10763 10752 10751 10750 ] final  -82.93 input  -60.55 | X-H torsion
[ 11005 11000 10999 10996 ] final  -40.79 input  -57.11 | X-H torsion

> <Gold.Protein.ActiveResidues>
 VAL166  LYS551  ARG553  GLY616  TRP617  ASP618  TYR619  PRO620  LYS621  CYS622 
 ASP623  PHE694  ASN695  SER759  ASP760  ASP761  ALA762  ILE779  LEU786  VAL792 
 PHE793  MET794  SER795  GLU796  ALA797  LYS798  CYS799  TRP800  GLU811  SER814 

> <Gold.Protein.RotatedAtoms>
  152.2992  134.7630  160.0361 H   0  0  0  0  0  0  0  0  0  0  0  0  # atno 6907 bound_to 6896
  151.8149  133.3381  159.3575 H   0  0  0  0  0  0  0  0  0  0  0  0  # atno 6908 bound_to 6896
  150.7266  134.5558  159.5862 H   0  0  0  0  0  0  0  0  0  0  0  0  # atno 6909 bound_to 6896
  145.5396  139.2288  143.2573 H   0  0  0  0  0  0  0  0  0  0  0  0  # atno 7974 bound_to 7965
  155.8047  140.0897  157.1937 H   0  0  0  0  0  0  0  0  0  0  0  0  # atno 8008 bound_to 7997
  154.3981  140.1466  156.3375 H   0  0  0  0  0  0  0  0  0  0  0  0  # atno 8009 bound_to 7997
  155.8426  140.3438  155.5644 H   0  0  0  0  0  0  0  0  0  0  0  0  # atno 8010 bound_to 7997
  139.6463  144.0166  152.2129 H   0  0  0  0  0  0  0  0  0  0  0  0  # atno 10167 bound_to 10162
  157.6086  131.1039  150.7637 H   0  0  0  0  0  0  0  0  0  0  0  0  # atno 10718 bound_to 10713
  154.5816  135.5574  153.7191 H   0  0  0  0  0  0  0  0  0  0  0  0  # atno 10763 bound_to 10752
  153.0084  135.6321  154.1974 H   0  0  0  0  0  0  0  0  0  0  0  0  # atno 10764 bound_to 10752
  154.1914  135.2882  155.3000 H   0  0  0  0  0  0  0  0  0  0  0  0  # atno 10765 bound_to 10752
  141.0200  133.6867  156.2369 H   0  0  0  0  0  0  0  0  0  0  0  0  # atno 11005 bound_to 11000
  146.1990  140.6215  142.9111 LP  0  0  0  0  0  0  0  0  0  0  0  0  # atno 17320 bound_to 7965
  144.7584  140.5362  143.6753 LP  0  0  0  0  0  0  0  0  0  0  0  0  # atno 17321 bound_to 7965
  139.9868  144.6389  150.7850 LP  0  0  0  0  0  0  0  0  0  0  0  0  # atno 17342 bound_to 10162
  140.7516  143.2976  151.3165 LP  0  0  0  0  0  0  0  0  0  0  0  0  # atno 17343 bound_to 10162
  156.8019  130.4924  149.5368 LP  0  0  0  0  0  0  0  0  0  0  0  0  # atno 17370 bound_to 10713
  156.1181  130.6090  151.0151 LP  0  0  0  0  0  0  0  0  0  0  0  0  # atno 17371 bound_to 10713
  140.6590  134.4988  157.5582 LP  0  0  0  0  0  0  0  0  0  0  0  0  # atno 17394 bound_to 11000
  139.9140  134.8285  156.1430 LP  0  0  0  0  0  0  0  0  0  0  0  0  # atno 17395 bound_to 11000

$$$$
