AV-unprocessed.smi:36|AV-procd|sdf|297|dock1
  -GOLD-   2262016 93D 1   1.00000     0.00000
 Structure written by MMmdl.
 63 66  0  0  0  0  0  0  0  0  2 V2000
  144.3985  134.6247  162.6142 C   0  0  0  0  0  0  0  0  0  0  0  0
  145.5325  134.4454  161.5915 C   0  0  0  0  0  0  0  0  0  0  0  0
  146.7232  135.3412  161.9710 C   0  0  0  0  0  0  0  0  0  0  0  0
  145.9814  132.9746  161.5577 C   0  0  0  0  0  0  0  0  0  0  0  0
  144.9094  134.9427  159.8550 Si  0  0  0  0  0  0  0  0  0  0  0  0
  143.2445  134.1162  159.4593 C   0  0  0  0  0  0  0  0  0  0  0  0
  144.7451  136.8287  159.6976 C   0  0  0  0  0  0  0  0  0  0  0  0
  146.0533  134.4138  158.7276 O   0  0  0  0  0  0  0  0  0  0  0  0
  147.4393  134.6519  158.8478 C   0  0  0  0  0  0  0  0  0  0  0  0
  148.1192  134.3009  157.5186 C   0  0  2  0  0  0  0  0  0  0  0  0
  149.5353  134.4806  157.6055 O   0  0  0  0  0  0  0  0  0  0  0  0
  150.0151  135.1516  156.4761 C   0  0  2  0  0  0  0  0  0  0  0  0
  150.2980  136.5739  156.8533 N   0  0  0  0  0  0  0  0  0  0  0  0
  150.4921  137.1184  158.0734 C   0  0  0  0  0  0  0  0  0  0  0  0
  150.7387  138.4259  158.1302 N   0  0  0  0  0  0  0  0  0  0  0  0
  150.7180  138.7737  156.7878 C   0  0  0  0  0  0  0  0  0  0  0  0
  150.9078  140.0108  156.1135 C   0  0  0  0  0  0  0  0  0  0  0  0
  151.1689  141.1561  156.7610 N   0  5  0  0  0  0  0  0  0  0  0  0
  152.0079  141.1540  157.8276 C   0  0  0  0  0  0  0  0  0  0  0  0
  152.6921  140.2200  158.2514 O   0  0  0  0  0  0  0  0  0  0  0  0
  152.0090  142.4555  158.5836 C   0  0  0  0  0  0  0  0  0  0  0  0
  151.6101  143.6445  157.9312 C   0  0  0  0  0  0  0  0  0  0  0  0
  151.5826  144.8687  158.6272 C   0  0  0  0  0  0  0  0  0  0  0  0
  151.9439  144.9151  159.9866 C   0  0  0  0  0  0  0  0  0  0  0  0
  152.3296  143.7356  160.6505 C   0  0  0  0  0  0  0  0  0  0  0  0
  152.3580  142.5110  159.9551 C   0  0  0  0  0  0  0  0  0  0  0  0
  150.8370  139.9895  154.7576 N   0  0  0  0  0  0  0  0  0  0  0  0
  150.5843  138.8453  154.1113 C   0  0  0  0  0  0  0  0  0  0  0  0
  150.3784  137.6238  154.6137 N   0  0  0  0  0  0  0  0  0  0  0  0
  150.4545  137.6327  155.9764 C   0  0  0  0  0  0  0  0  0  0  0  0
  148.8919  135.1016  155.4401 C   0  0  0  0  0  0  0  0  0  0  0  0
  147.6647  135.1503  156.3263 C   0  0  1  0  0  0  0  0  0  0  0  0
  146.5422  134.6024  155.6663 O   0  0  0  0  0  0  0  0  0  0  0  0
  144.7244  134.3504  163.6181 H   0  0  0  0  0  0  0  0  0  0  0  0
  143.5374  134.0032  162.3674 H   0  0  0  0  0  0  0  0  0  0  0  0
  144.0579  135.6597  162.6518 H   0  0  0  0  0  0  0  0  0  0  0  0
  146.4341  136.3918  162.0103 H   0  0  0  0  0  0  0  0  0  0  0  0
  147.5338  135.2501  161.2473 H   0  0  0  0  0  0  0  0  0  0  0  0
  147.1239  135.0749  162.9497 H   0  0  0  0  0  0  0  0  0  0  0  0
  146.3686  132.6554  162.5259 H   0  0  0  0  0  0  0  0  0  0  0  0
  146.7692  132.8179  160.8196 H   0  0  0  0  0  0  0  0  0  0  0  0
  145.1549  132.3116  161.3012 H   0  0  0  0  0  0  0  0  0  0  0  0
  142.4789  134.3905  160.1848 H   0  0  0  0  0  0  0  0  0  0  0  0
  143.3253  133.0294  159.4654 H   0  0  0  0  0  0  0  0  0  0  0  0
  142.8767  134.4074  158.4755 H   0  0  0  0  0  0  0  0  0  0  0  0
  144.0291  137.2297  160.4146 H   0  0  0  0  0  0  0  0  0  0  0  0
  144.4046  137.1185  158.7038 H   0  0  0  0  0  0  0  0  0  0  0  0
  145.6966  137.3300  159.8729 H   0  0  0  0  0  0  0  0  0  0  0  0
  147.6210  135.6904  159.1241 H   0  0  0  0  0  0  0  0  0  0  0  0
  147.8339  134.0252  159.6481 H   0  0  0  0  0  0  0  0  0  0  0  0
  147.9649  133.2433  157.2978 H   0  0  0  0  0  0  0  0  0  0  0  0
  150.9728  134.7608  156.1305 H   0  0  0  0  0  0  0  0  0  0  0  0
  150.4544  136.5270  158.9751 H   0  0  0  0  0  0  0  0  0  0  0  0
  151.3284  143.6252  156.8883 H   0  0  0  0  0  0  0  0  0  0  0  0
  151.2824  145.7720  158.1170 H   0  0  0  0  0  0  0  0  0  0  0  0
  151.9221  145.8537  160.5203 H   0  0  0  0  0  0  0  0  0  0  0  0
  152.6017  143.7680  161.6951 H   0  0  0  0  0  0  0  0  0  0  0  0
  152.6470  141.6151  160.4856 H   0  0  0  0  0  0  0  0  0  0  0  0
  150.5415  138.9194  153.0349 H   0  0  0  0  0  0  0  0  0  0  0  0
  148.9518  135.9155  154.7168 H   0  0  0  0  0  0  0  0  0  0  0  0
  148.9588  134.1510  154.9088 H   0  0  0  0  0  0  0  0  0  0  0  0
  147.4575  136.1775  156.6300 H   0  0  0  0  0  0  0  0  0  0  0  0
  145.9776  135.3105  155.3973 H   0  0  0  0  0  0  0  0  0  0  0  0
  1  2  1  0  0  0  0
  1 34  1  0  0  0  0
  1 35  1  0  0  0  0
  1 36  1  0  0  0  0
  2  3  1  0  0  0  0
  2  4  1  0  0  0  0
  2  5  1  0  0  0  0
  3 37  1  0  0  0  0
  3 38  1  0  0  0  0
  3 39  1  0  0  0  0
  4 40  1  0  0  0  0
  4 41  1  0  0  0  0
  4 42  1  0  0  0  0
  5  6  1  0  0  0  0
  5  7  1  0  0  0  0
  5  8  1  0  0  0  0
  6 43  1  0  0  0  0
  6 44  1  0  0  0  0
  6 45  1  0  0  0  0
  7 46  1  0  0  0  0
  7 47  1  0  0  0  0
  7 48  1  0  0  0  0
  8  9  1  0  0  0  0
  9 10  1  0  0  0  0
  9 49  1  0  0  0  0
  9 50  1  0  0  0  0
 10 32  1  0  0  0  0
 10 11  1  0  0  0  0
 10 51  1  0  0  0  0
 11 12  1  0  0  0  0
 12 13  1  0  0  0  0
 12 31  1  0  0  0  0
 12 52  1  0  0  0  0
 13 30  1  0  0  0  0
 13 14  1  0  0  0  0
 14 15  2  0  0  0  0
 14 53  1  0  0  0  0
 15 16  1  0  0  0  0
 16 30  2  0  0  0  0
 16 17  1  0  0  0  0
 17 18  1  0  0  0  0
 17 27  2  0  0  0  0
 18 19  1  0  0  0  0
 19 20  2  0  0  0  0
 19 21  1  0  0  0  0
 21 26  1  0  0  0  0
 21 22  2  0  0  0  0
 22 23  1  0  0  0  0
 22 54  1  0  0  0  0
 23 24  2  0  0  0  0
 23 55  1  0  0  0  0
 24 25  1  0  0  0  0
 24 56  1  0  0  0  0
 25 26  2  0  0  0  0
 25 57  1  0  0  0  0
 26 58  1  0  0  0  0
 27 28  1  0  0  0  0
 28 29  2  0  0  0  0
 28 59  1  0  0  0  0
 29 30  1  0  0  0  0
 31 32  1  0  0  0  0
 31 60  1  0  0  0  0
 31 61  1  0  0  0  0
 32 33  1  0  0  0  0
 32 62  1  0  0  0  0
 33 63  1  0  0  0  0
M  CHG  1  18  -1
M  END
> <s_m_source_file>
AV-unprocessed.smi

> <i_m_source_file_index>
36

> <i_lp_mmshare_version>
43012

> <i_f3d_flags>
0

> <s_epik_input>
W0NIM11DKFtDSDNdKShbQ0gzXSlbU2ldKFtDSDNdKShbQ0gzXSlPW0NIMl1bQ0BASF0xT1tDQEhdKFtDSDJdW0NASF0xW09IXSluKFtjSF1uMiljKGMyMyluW2NIXW5jM1tOSF1DKD1PKWM0W2NIXVtjSF1bY0hdW2NIXVtjSF00

> <s_epik_cmdline>
J2VwaWtfcHl0aG9uJywgJy1waCcsICc3LjAnLCAnLXRuJywgJzgnLCAnLW1hJywgJzIwMCcsICctbWV0YWxfYmluZGluZycsICctaW1hZScsICc8aW5maWxlLm1hZT4nLCAnLW9tYWUnLCAnPG91dGZpbGUubWFlPic=

> <r_lp_tautomer_probability>
1

> <r_epik_Ionization_Penalty>
4.75685

> <r_epik_Ionization_Penalty_Charging>
3.55822

> <r_epik_Ionization_Penalty_Neutral>
1.19863

> <r_epik_State_Penalty>
3.564

> <r_epik_Charging_Adjusted_Penalty>
7.12222

> <i_epik_Tot_Q>
-1

> <i_epik_Tot_abs_Q>
1

> <r_epik_Metal_State_Penalty>
0.523258

> <b_epik_Metal_Only>
1

> <s_epik_Chemistry_Notes>
This compound contains an acetal/aminal-like group ( X-CH(R)-Y where X, Y are N, S, or O) that may be acid/base labile, releasing an aldehyde.

> <s_lp_Force_Field>
OPLS_2005

> <r_lp_Energy>
31.8386

> <b_lp_Chiralities_Consistent>
1

> <s_lp_Variant>
AV-unprocessed.smi:36-19

> <Gold.Version>
5.8.1

> <Gold.Id.Protein>
6NUR|6NUR_protein|mol2

> <Gold.PLP.Fitness>
59.3575

> <Gold.PLP.PLP>
-49.4487

> <Gold.PLP.part.hbond>
-3.0000

> <Gold.PLP.part.metal>
0.0000

> <Gold.PLP.part.buried>
-8.4018

> <Gold.PLP.part.nonpolar>
-38.0529

> <Gold.PLP.part.repulsive>
0.2868

> <Gold.PLP.ligand.clash>
0.0000

> <Gold.PLP.ligand.torsion>
1.4661

> <Gold.PLP.Chemscore.Hbond>
2.9273

> <Gold.PLP.Chemscore.CHOScore>
1.0000

> <Gold.PLP.Chemscore.Metal>
0.0000

> <Gold.Chemscore.Hbonds>
donor molecule, donor type, donor heavy atom, donor atom, acceptor molecule, acceptor atom, score
      P1  H  6896  6907       L1    11  0.78
      P1  H  7989  7998       L1    27  1.00
      P1  H  7997  8008       L1    20  0.43
      L1  C    28    59       P1  7957  1.00

> <Gold.PLP.Chemscore.Internal.Correction>
1.0589

> <Gold.Rescore>
     Score         DG    S(hbond)    S(metal)    S(lipo)     H(rot)  DE(clash)    DE(int)     intcor
     14.48     -21.65       2.67        0.00     120.48       2.67       0.24       6.92       ----

> <Gold.Chemscore.Fitness>
14.4824

> <Gold.Chemscore.DG>
-21.6495

> <Gold.Chemscore.ZeroCoef>
-5.4800

> <Gold.Chemscore.Hbond>
2.6674

> <Gold.Chemscore.Metal>
0.0000

> <Gold.Chemscore.Lipo>
120.4790

> <Gold.Chemscore.Internal_Hbond>
0.0000

> <Gold.Chemscore.DEClash>
0.2450

> <Gold.Chemscore.DEInternal>
6.9221

> <Gold.Chemscore.Rot>
2.6702

> <Gold.Chemscore.Internal.Correction>
   9.000000E+99

> <Gold.Chemscore.Hbonds>
donor molecule, donor type, donor heavy atom, donor atom, acceptor molecule, acceptor atom, score
      P1  H  6896  6907       L1    11  0.74
      P1  H  7989  7998       L1    27  0.26
      P1  H  7997  8008       L1    20  0.26

> <Gold.Chemscore.Hbond.Weighted>
-8.9092

> <Gold.Chemscore.Metal.Weighted>
-0.0000

> <Gold.Chemscore.Lipo.Weighted>
-14.0960

> <Gold.Chemscore.Internal_Hbond.Weighted>
0.0000

> <Gold.Chemscore.DEClash.Weighted>
0.2450

> <Gold.Chemscore.DEInternal.Weighted>
6.9221

> <Gold.Chemscore.Rot.Weighted>
6.8358

> <Gold.Chemscore.Internal.Correction.Weighted>
   9.000000E+99

> <Gold.Protein.RotatedTorsions>
[ 6907 6896 6895 6894 ] final -107.24 input  -60.11 | X-H torsion
[ 7974 7965 7964 7962 ] final   30.25 input  175.53 | X-H torsion
[ 8008 7997 7996 7995 ] final  -78.98 input   59.86 | X-H torsion
[ 10167 10162 10161 10158 ] final  147.02 input  -65.29 | X-H torsion
[ 10718 10713 10712 10709 ] final  -97.69 input   66.30 | X-H torsion
[ 10763 10752 10751 10750 ] final   86.59 input  -60.55 | X-H torsion
[ 11005 11000 10999 10996 ] final -128.81 input  -57.11 | X-H torsion

> <Gold.Protein.ActiveResidues>
 VAL166  LYS551  ARG553  GLY616  TRP617  ASP618  TYR619  PRO620  LYS621  CYS622 
 ASP623  PHE694  ASN695  SER759  ASP760  ASP761  ALA762  ILE779  LEU786  VAL792 
 PHE793  MET794  SER795  GLU796  ALA797  LYS798  CYS799  TRP800  GLU811  SER814 

> <Gold.Protein.RotatedAtoms>
  150.7433  133.9857  159.3590 H   0  0  0  0  0  0  0  0  0  0  0  0  # atno 6907 bound_to 6896
  151.7801  135.0762  160.0382 H   0  0  0  0  0  0  0  0  0  0  0  0  # atno 6908 bound_to 6896
  152.3280  133.5890  159.5826 H   0  0  0  0  0  0  0  0  0  0  0  0  # atno 6909 bound_to 6896
  146.1623  139.6813  142.9025 H   0  0  0  0  0  0  0  0  0  0  0  0  # atno 7974 bound_to 7965
  154.5741  140.0685  156.9008 H   0  0  0  0  0  0  0  0  0  0  0  0  # atno 8008 bound_to 7997
  155.2580  140.3356  155.4257 H   0  0  0  0  0  0  0  0  0  0  0  0  # atno 8009 bound_to 7997
  156.2141  140.1771  156.7614 H   0  0  0  0  0  0  0  0  0  0  0  0  # atno 8010 bound_to 7997
  139.4897  144.5786  151.6916 H   0  0  0  0  0  0  0  0  0  0  0  0  # atno 10167 bound_to 10162
  156.0089  130.5205  150.6412 H   0  0  0  0  0  0  0  0  0  0  0  0  # atno 10718 bound_to 10713
  153.1585  135.4575  154.9738 H   0  0  0  0  0  0  0  0  0  0  0  0  # atno 10763 bound_to 10752
  154.7880  135.3210  154.7845 H   0  0  0  0  0  0  0  0  0  0  0  0  # atno 10764 bound_to 10752
  153.8339  135.6936  153.4865 H   0  0  0  0  0  0  0  0  0  0  0  0  # atno 10765 bound_to 10752
  140.9484  134.1098  157.4085 H   0  0  0  0  0  0  0  0  0  0  0  0  # atno 11005 bound_to 11000
  145.4557  141.0430  143.2779 LP  0  0  0  0  0  0  0  0  0  0  0  0  # atno 17320 bound_to 7965
  144.8044  139.6080  143.7057 LP  0  0  0  0  0  0  0  0  0  0  0  0  # atno 17321 bound_to 7965
  140.5388  144.0613  150.6080 LP  0  0  0  0  0  0  0  0  0  0  0  0  # atno 17342 bound_to 10162
  140.3628  143.2898  152.0365 LP  0  0  0  0  0  0  0  0  0  0  0  0  # atno 17343 bound_to 10162
  157.4192  131.0834  151.1147 LP  0  0  0  0  0  0  0  0  0  0  0  0  # atno 17370 bound_to 10713
  157.1755  130.6286  149.5654 LP  0  0  0  0  0  0  0  0  0  0  0  0  # atno 17371 bound_to 10713
  139.8840  135.0058  156.6340 LP  0  0  0  0  0  0  0  0  0  0  0  0  # atno 17394 bound_to 11000
  140.7636  133.8796  155.8437 LP  0  0  0  0  0  0  0  0  0  0  0  0  # atno 17395 bound_to 11000

$$$$
