AV-unprocessed.smi:3212|AV-procd|sdf|12280|dock10
  -GOLD-   2272018113D 1   1.00000     0.00000
 Structure written by MMmdl.
 39 39  0  0  0  0  0  0  0  0  1 V2000
  149.6816  132.7412  154.3145 C   0  0  0  0  0  0  0  0  0  0  0  0
  148.7348  133.9251  154.5717 C   0  0  2  0  0  0  0  0  0  0  0  0
  148.0980  134.3334  153.3057 N   0  0  0  0  0  0  0  0  0  0  0  0
  147.7286  133.2203  152.4381 C   0  0  0  0  0  0  0  0  0  0  0  0
  146.3738  132.6526  152.8836 C   0  0  0  0  0  0  0  0  0  0  0  0
  145.4015  132.6946  151.8087 N   0  0  0  0  0  0  0  0  0  0  0  0
  145.4851  132.1254  150.5553 C   0  0  0  0  0  0  0  0  0  0  0  0
  144.3281  132.4256  149.8951 C   0  0  0  0  0  0  0  0  0  0  0  0
  143.5893  133.1919  150.8397 C   0  0  0  0  0  0  0  0  0  0  0  0
  144.2342  133.3506  151.9843 N   0  0  0  0  0  0  0  0  0  0  0  0
  149.4712  135.0746  155.2821 C   0  0  0  0  0  0  0  0  0  0  0  0
  149.9782  134.8921  156.3890 O   0  0  0  0  0  0  0  0  0  0  0  0
  149.5394  136.2386  154.6103 N   0  0  0  0  0  0  0  0  0  0  0  0
  150.2125  137.4817  155.0034 C   0  0  0  0  0  0  0  0  0  0  0  0
  149.6706  137.8637  156.3920 C   0  0  0  0  0  0  0  0  0  0  0  0
  149.8812  138.6146  154.0088 C   0  0  0  0  0  0  0  0  0  0  0  0
  151.7378  137.2692  155.1009 C   0  0  0  0  0  0  0  0  0  0  0  0
  150.1579  132.4065  155.2370 H   0  0  0  0  0  0  0  0  0  0  0  0
  150.4706  133.0014  153.6071 H   0  0  0  0  0  0  0  0  0  0  0  0
  149.1388  131.8900  153.9022 H   0  0  0  0  0  0  0  0  0  0  0  0
  147.9503  133.5639  155.2394 H   0  0  0  0  0  0  0  0  0  0  0  0
  148.6861  134.9740  152.7923 H   0  0  0  0  0  0  0  0  0  0  0  0
  147.6624  133.5686  151.4063 H   0  0  0  0  0  0  0  0  0  0  0  0
  148.4815  132.4319  152.4727 H   0  0  0  0  0  0  0  0  0  0  0  0
  146.4805  131.6195  153.2185 H   0  0  0  0  0  0  0  0  0  0  0  0
  145.9789  133.2207  153.7271 H   0  0  0  0  0  0  0  0  0  0  0  0
  146.3498  131.5592  150.2421 H   0  0  0  0  0  0  0  0  0  0  0  0
  144.0513  132.1409  148.8910 H   0  0  0  0  0  0  0  0  0  0  0  0
  142.6099  133.6338  150.7286 H   0  0  0  0  0  0  0  0  0  0  0  0
  149.0856  136.2602  153.7087 H   0  0  0  0  0  0  0  0  0  0  0  0
  150.1252  138.7859  156.7556 H   0  0  0  0  0  0  0  0  0  0  0  0
  149.8766  137.0856  157.1282 H   0  0  0  0  0  0  0  0  0  0  0  0
  148.5910  138.0179  156.3698 H   0  0  0  0  0  0  0  0  0  0  0  0
  148.8036  138.7448  153.9005 H   0  0  0  0  0  0  0  0  0  0  0  0
  150.2909  138.4235  153.0171 H   0  0  0  0  0  0  0  0  0  0  0  0
  150.2940  139.5662  154.3457 H   0  0  0  0  0  0  0  0  0  0  0  0
  152.2331  138.1589  155.4910 H   0  0  0  0  0  0  0  0  0  0  0  0
  152.1858  137.0552  154.1306 H   0  0  0  0  0  0  0  0  0  0  0  0
  151.9816  136.4406  155.7664 H   0  0  0  0  0  0  0  0  0  0  0  0
  1  2  1  0  0  0  0
  1 18  1  0  0  0  0
  1 19  1  0  0  0  0
  1 20  1  0  0  0  0
  2  3  1  0  0  0  0
  2 11  1  0  0  0  0
  2 21  1  0  0  0  0
  3  4  1  0  0  0  0
  3 22  1  0  0  0  0
  4  5  1  0  0  0  0
  4 23  1  0  0  0  0
  4 24  1  0  0  0  0
  5  6  1  0  0  0  0
  5 25  1  0  0  0  0
  5 26  1  0  0  0  0
  6 10  1  0  0  0  0
  6  7  1  0  0  0  0
  7  8  2  0  0  0  0
  7 27  1  0  0  0  0
  8  9  1  0  0  0  0
  8 28  1  0  0  0  0
  9 10  2  0  0  0  0
  9 29  1  0  0  0  0
 11 12  2  0  0  0  0
 11 13  1  0  0  0  0
 13 14  1  0  0  0  0
 13 30  1  0  0  0  0
 14 15  1  0  0  0  0
 14 16  1  0  0  0  0
 14 17  1  0  0  0  0
 15 31  1  0  0  0  0
 15 32  1  0  0  0  0
 15 33  1  0  0  0  0
 16 34  1  0  0  0  0
 16 35  1  0  0  0  0
 16 36  1  0  0  0  0
 17 37  1  0  0  0  0
 17 38  1  0  0  0  0
 17 39  1  0  0  0  0
M  END
> <s_m_source_file>
AV-unprocessed.smi

> <i_m_source_file_index>
3212

> <i_lp_mmshare_version>
43012

> <i_f3d_flags>
0

> <s_epik_input>
W0NIM11DKFtDSDNdKShbQ0gzXSlbTkhdQyg9TylbQ0BIXShbQ0gzXSlbTkhdW0NIMl1bQ0gyXW4xW2NIXVtjSF1bY0hdbjE=

> <s_epik_cmdline>
J2VwaWtfcHl0aG9uJywgJy1waCcsICc3LjAnLCAnLXRuJywgJzgnLCAnLW1hJywgJzIwMCcsICctbWV0YWxfYmluZGluZycsICctaW1hZScsICc8aW5maWxlLm1hZT4nLCAnLW9tYWUnLCAnPG91dGZpbGUubWFlPic=

> <r_lp_tautomer_probability>
1

> <r_epik_Ionization_Penalty>
0.745735

> <r_epik_Ionization_Penalty_Charging>
0

> <r_epik_Ionization_Penalty_Neutral>
0.745735

> <r_epik_State_Penalty>
0.771152

> <r_epik_Charging_Adjusted_Penalty>
0.771152

> <i_epik_Tot_Q>
0

> <i_epik_Tot_abs_Q>
0

> <r_epik_Metal_State_Penalty>
0.770403

> <b_epik_Metal_Only>
0

> <s_lp_Force_Field>
OPLS_2005

> <r_lp_Energy>
5.75151

> <b_lp_Chiralities_Consistent>
1

> <s_lp_Variant>
AV-unprocessed.smi:3212-3

> <Gold.Version>
5.8.1

> <Gold.Id.Protein>
6NUR|6NUR_protein|mol2

> <Gold.PLP.Fitness>
40.0806

> <Gold.PLP.PLP>
-29.5171

> <Gold.PLP.part.hbond>
-2.0000

> <Gold.PLP.part.metal>
0.0000

> <Gold.PLP.part.buried>
-3.9631

> <Gold.PLP.part.nonpolar>
-23.9310

> <Gold.PLP.part.repulsive>
0.1625

> <Gold.PLP.ligand.clash>
0.0000

> <Gold.PLP.ligand.torsion>
0.7453

> <Gold.PLP.Chemscore.Hbond>
2.0000

> <Gold.PLP.Chemscore.CHOScore>
2.0000

> <Gold.PLP.Chemscore.Metal>
0.0000

> <Gold.Chemscore.Hbonds>
donor molecule, donor type, donor heavy atom, donor atom, acceptor molecule, acceptor atom, score
      L1  H     3    22       P1  7948  1.00
      L1  H    13    30       P1  7948  1.00
      L1  C     7    27       P1 10747  0.55
      L1  C     9    29       P1 10186  1.00

> <Gold.PLP.Chemscore.Internal.Correction>
0.0542

> <Gold.Rescore>
     Score         DG    S(hbond)    S(metal)    S(lipo)     H(rot)  DE(clash)    DE(int)     intcor
     13.68     -14.57       1.80        0.00      69.76       1.99       0.00       0.89       ----

> <Gold.Chemscore.Fitness>
13.6786

> <Gold.Chemscore.DG>
-14.5728

> <Gold.Chemscore.ZeroCoef>
-5.4800

> <Gold.Chemscore.Hbond>
1.8023

> <Gold.Chemscore.Metal>
0.0000

> <Gold.Chemscore.Lipo>
69.7633

> <Gold.Chemscore.Internal_Hbond>
0.0000

> <Gold.Chemscore.DEClash>
0.0004

> <Gold.Chemscore.DEInternal>
0.8938

> <Gold.Chemscore.Rot>
1.9880

> <Gold.Chemscore.Internal.Correction>
   9.000000E+99

> <Gold.Chemscore.Hbonds>
donor molecule, donor type, donor heavy atom, donor atom, acceptor molecule, acceptor atom, score
      L1  H     3    22       P1  7948  0.28
      L1  H    13    30       P1  7948  0.95

> <Gold.Chemscore.Hbond.Weighted>
-6.0198

> <Gold.Chemscore.Metal.Weighted>
-0.0000

> <Gold.Chemscore.Lipo.Weighted>
-8.1623

> <Gold.Chemscore.Internal_Hbond.Weighted>
0.0000

> <Gold.Chemscore.DEClash.Weighted>
0.0004

> <Gold.Chemscore.DEInternal.Weighted>
0.8938

> <Gold.Chemscore.Rot.Weighted>
5.0893

> <Gold.Chemscore.Internal.Correction.Weighted>
   9.000000E+99

> <Gold.Protein.RotatedTorsions>
[ 6907 6896 6895 6894 ] final  -88.72 input  -60.11 | X-H torsion
[ 7974 7965 7964 7962 ] final  160.96 input  175.53 | X-H torsion
[ 8008 7997 7996 7995 ] final  -50.83 input   59.86 | X-H torsion
[ 10167 10162 10161 10158 ] final  -99.32 input  -65.29 | X-H torsion
[ 10718 10713 10712 10709 ] final -112.88 input   66.30 | X-H torsion
[ 10763 10752 10751 10750 ] final   97.46 input  -60.55 | X-H torsion
[ 11005 11000 10999 10996 ] final   68.79 input  -57.11 | X-H torsion

> <Gold.Protein.ActiveResidues>
 VAL166  LYS551  ARG553  GLY616  TRP617  ASP618  TYR619  PRO620  LYS621  CYS622 
 ASP623  PHE694  ASN695  SER759  ASP760  ASP761  ALA762  ILE779  LEU786  VAL792 
 PHE793  MET794  SER795  GLU796  ALA797  LYS798  CYS799  TRP800  GLU811  SER814 

> <Gold.Protein.RotatedAtoms>
  150.6870  134.2697  159.4582 H   0  0  0  0  0  0  0  0  0  0  0  0  # atno 6907 bound_to 6896
  152.0621  134.9585  160.0584 H   0  0  0  0  0  0  0  0  0  0  0  0  # atno 6908 bound_to 6896
  152.1008  133.4214  159.4623 H   0  0  0  0  0  0  0  0  0  0  0  0  # atno 6909 bound_to 6896
  144.7710  139.7831  143.6297 H   0  0  0  0  0  0  0  0  0  0  0  0  # atno 7974 bound_to 7965
  154.4070  140.1262  156.4731 H   0  0  0  0  0  0  0  0  0  0  0  0  # atno 8008 bound_to 7997
  155.7160  140.3493  155.4975 H   0  0  0  0  0  0  0  0  0  0  0  0  # atno 8009 bound_to 7997
  155.9258  140.1060  157.1162 H   0  0  0  0  0  0  0  0  0  0  0  0  # atno 8010 bound_to 7997
  140.2637  143.3390  152.0601 H   0  0  0  0  0  0  0  0  0  0  0  0  # atno 10167 bound_to 10162
  156.0732  130.5943  150.8567 H   0  0  0  0  0  0  0  0  0  0  0  0  # atno 10718 bound_to 10713
  153.2772  135.4182  155.1044 H   0  0  0  0  0  0  0  0  0  0  0  0  # atno 10763 bound_to 10752
  154.8477  135.3486  154.6162 H   0  0  0  0  0  0  0  0  0  0  0  0  # atno 10764 bound_to 10752
  153.6582  135.7049  153.5243 H   0  0  0  0  0  0  0  0  0  0  0  0  # atno 10765 bound_to 10752
  139.9691  134.6931  156.0484 H   0  0  0  0  0  0  0  0  0  0  0  0  # atno 11005 bound_to 11000
  146.1856  139.5069  142.9838 LP  0  0  0  0  0  0  0  0  0  0  0  0  # atno 17320 bound_to 7965
  145.6325  141.0301  143.1855 LP  0  0  0  0  0  0  0  0  0  0  0  0  # atno 17321 bound_to 7965
  139.5009  144.6702  151.6260 LP  0  0  0  0  0  0  0  0  0  0  0  0  # atno 17342 bound_to 10162
  140.5946  143.9719  150.6346 LP  0  0  0  0  0  0  0  0  0  0  0  0  # atno 17343 bound_to 10162
  157.5814  131.0946  150.9265 LP  0  0  0  0  0  0  0  0  0  0  0  0  # atno 17370 bound_to 10713
  156.9460  130.5402  149.5281 LP  0  0  0  0  0  0  0  0  0  0  0  0  # atno 17371 bound_to 10713
  141.1370  133.6573  156.3623 LP  0  0  0  0  0  0  0  0  0  0  0  0  # atno 17394 bound_to 11000
  140.5333  134.6192  157.5357 LP  0  0  0  0  0  0  0  0  0  0  0  0  # atno 17395 bound_to 11000

$$$$
