AV-unprocessed.smi:1313|AV-procd|sdf|5452|dock4
  -GOLD-   22720 5 23D 1   1.00000     0.00000
 Structure written by MMmdl.
 36 37  0  0  0  0  0  0  0  0  2 V2000
  146.7572  142.7315  153.3058 C   0  0  0  0  0  0  0  0  0  0  0  0
  147.6345  142.0388  154.3265 C   0  0  0  0  0  0  0  0  0  0  0  0
  147.3324  142.1144  155.5663 N   0  0  0  0  0  0  0  0  0  0  0  0
  148.1440  141.4721  156.5168 C   0  0  0  0  0  0  0  0  0  0  0  0
  147.7063  141.6157  157.9644 C   0  0  0  0  0  0  0  0  0  0  0  0
  149.2493  140.7665  156.1402 C   0  0  0  0  0  0  0  0  0  0  0  0
  150.1645  140.0516  157.1338 C   0  0  0  0  0  0  0  0  0  0  0  0
  151.3958  140.8455  157.5729 C   0  0  0  0  0  0  0  0  0  0  0  0
  152.5221  140.3771  157.4092 O   0  0  0  0  0  0  0  0  0  0  0  0
  151.1691  142.0429  158.1346 N   0  0  0  0  0  0  0  0  0  0  0  0
  152.2008  142.9377  158.6510 C   0  0  0  0  0  0  0  0  0  0  0  0
  152.0544  143.1209  160.1735 C   0  0  0  0  0  0  0  0  0  0  0  0
  152.1765  144.6236  160.4300 C   0  0  0  0  0  0  0  0  0  0  0  0
  151.6156  145.2654  159.1653 C   0  0  0  0  0  0  0  0  0  0  0  0
  152.0918  144.3485  158.0373 C   0  0  0  0  0  0  0  0  0  0  0  0
  149.5603  140.7010  154.7006 C   0  0  0  0  0  0  0  0  0  0  0  0
  150.5391  140.0698  154.3036 O   0  0  0  0  0  0  0  0  0  0  0  0
  148.7279  141.3567  153.8425 N   0  5  0  0  0  0  0  0  0  0  0  0
  145.8735  143.1655  153.7756 H   0  0  0  0  0  0  0  0  0  0  0  0
  146.4260  142.0221  152.5467 H   0  0  0  0  0  0  0  0  0  0  0  0
  147.3115  143.5312  152.8139 H   0  0  0  0  0  0  0  0  0  0  0  0
  148.5012  142.0538  158.5681 H   0  0  0  0  0  0  0  0  0  0  0  0
  147.4450  140.6434  158.3823 H   0  0  0  0  0  0  0  0  0  0  0  0
  146.8312  142.2610  158.0486 H   0  0  0  0  0  0  0  0  0  0  0  0
  149.6134  139.7590  158.0279 H   0  0  0  0  0  0  0  0  0  0  0  0
  150.4829  139.1067  156.6925 H   0  0  0  0  0  0  0  0  0  0  0  0
  150.2111  142.3476  158.2284 H   0  0  0  0  0  0  0  0  0  0  0  0
  153.1862  142.5221  158.4312 H   0  0  0  0  0  0  0  0  0  0  0  0
  151.0712  142.7854  160.5082 H   0  0  0  0  0  0  0  0  0  0  0  0
  152.7962  142.5489  160.7317 H   0  0  0  0  0  0  0  0  0  0  0  0
  151.6520  144.9405  161.3319 H   0  0  0  0  0  0  0  0  0  0  0  0
  153.2275  144.8935  160.5428 H   0  0  0  0  0  0  0  0  0  0  0  0
  150.5254  145.2638  159.2061 H   0  0  0  0  0  0  0  0  0  0  0  0
  151.9440  146.2971  159.0353 H   0  0  0  0  0  0  0  0  0  0  0  0
  153.0796  144.6703  157.7049 H   0  0  0  0  0  0  0  0  0  0  0  0
  151.4331  144.3964  157.1689 H   0  0  0  0  0  0  0  0  0  0  0  0
  1  2  1  0  0  0  0
  1 19  1  0  0  0  0
  1 20  1  0  0  0  0
  1 21  1  0  0  0  0
  2 18  1  0  0  0  0
  2  3  2  0  0  0  0
  3  4  1  0  0  0  0
  4  5  1  0  0  0  0
  4  6  2  0  0  0  0
  5 22  1  0  0  0  0
  5 23  1  0  0  0  0
  5 24  1  0  0  0  0
  6  7  1  0  0  0  0
  6 16  1  0  0  0  0
  7  8  1  0  0  0  0
  7 25  1  0  0  0  0
  7 26  1  0  0  0  0
  8  9  2  0  0  0  0
  8 10  1  0  0  0  0
 10 11  1  0  0  0  0
 10 27  1  0  0  0  0
 11 15  1  0  0  0  0
 11 12  1  0  0  0  0
 11 28  1  0  0  0  0
 12 13  1  0  0  0  0
 12 29  1  0  0  0  0
 12 30  1  0  0  0  0
 13 14  1  0  0  0  0
 13 31  1  0  0  0  0
 13 32  1  0  0  0  0
 14 15  1  0  0  0  0
 14 33  1  0  0  0  0
 14 34  1  0  0  0  0
 15 35  1  0  0  0  0
 15 36  1  0  0  0  0
 16 17  2  0  0  0  0
 16 18  1  0  0  0  0
M  CHG  1  18  -1
M  END
> <s_m_source_file>
AV-unprocessed.smi

> <i_m_source_file_index>
1313

> <i_lp_mmshare_version>
43012

> <i_f3d_flags>
0

> <s_epik_input>
W0NIM11jMW5jKFtDSDNdKWMoYyg9TylbbkhdMSlbQ0gyXUMoPU8pW05IXVtDSF0yW0NIMl1bQ0gyXVtDSDJdW0NIMl0y

> <s_epik_cmdline>
J2VwaWtfcHl0aG9uJywgJy1waCcsICc3LjAnLCAnLXRuJywgJzgnLCAnLW1hJywgJzIwMCcsICctbWV0YWxfYmluZGluZycsICctaW1hZScsICc8aW5maWxlLm1hZT4nLCAnLW9tYWUnLCAnPG91dGZpbGUubWFlPic=

> <r_lp_tautomer_probability>
0.839158

> <r_epik_Ionization_Penalty>
6.62586

> <r_epik_Ionization_Penalty_Charging>
7.38068e-08

> <r_epik_Ionization_Penalty_Neutral>
6.62586

> <r_epik_State_Penalty>
4.443

> <r_epik_Charging_Adjusted_Penalty>
4.443

> <i_epik_Tot_Q>
-1

> <i_epik_Tot_abs_Q>
1

> <r_epik_Metal_State_Penalty>
0.804085

> <b_epik_Metal_Only>
1

> <s_lp_Force_Field>
OPLS_2005

> <r_lp_Energy>
23.3314

> <b_lp_Chiralities_Consistent>
1

> <s_lp_Variant>
AV-unprocessed.smi:1313-3

> <Gold.Version>
5.8.1

> <Gold.Id.Protein>
6NUR|6NUR_protein|mol2

> <Gold.PLP.Fitness>
41.8809

> <Gold.PLP.PLP>
-35.2160

> <Gold.PLP.part.hbond>
-3.0000

> <Gold.PLP.part.metal>
0.0000

> <Gold.PLP.part.buried>
-4.9537

> <Gold.PLP.part.nonpolar>
-27.1798

> <Gold.PLP.part.repulsive>
1.3590

> <Gold.PLP.ligand.clash>
0.0000

> <Gold.PLP.ligand.torsion>
0.3834

> <Gold.PLP.Chemscore.Hbond>
2.4758

> <Gold.PLP.Chemscore.CHOScore>
0.0000

> <Gold.PLP.Chemscore.Metal>
0.0000

> <Gold.Chemscore.Hbonds>
donor molecule, donor type, donor heavy atom, donor atom, acceptor molecule, acceptor atom, score
      P1  H  7989  7998       L1    17  1.00
      P1  H  7997  8010       L1     9  0.93
      P1  H  8011  8017       L1    18  0.59

> <Gold.PLP.Chemscore.Internal.Correction>
0.0044

> <Gold.Rescore>
     Score         DG    S(hbond)    S(metal)    S(lipo)     H(rot)  DE(clash)    DE(int)     intcor
     16.15     -18.12       2.14        0.00      79.34       1.48       1.64       0.33       ----

> <Gold.Chemscore.Fitness>
16.1531

> <Gold.Chemscore.DG>
-18.1208

> <Gold.Chemscore.ZeroCoef>
-5.4800

> <Gold.Chemscore.Hbond>
2.1378

> <Gold.Chemscore.Metal>
0.0000

> <Gold.Chemscore.Lipo>
79.3433

> <Gold.Chemscore.Internal_Hbond>
0.0000

> <Gold.Chemscore.DEClash>
1.6422

> <Gold.Chemscore.DEInternal>
0.3255

> <Gold.Chemscore.Rot>
1.4776

> <Gold.Chemscore.Internal.Correction>
   9.000000E+99

> <Gold.Chemscore.Hbonds>
donor molecule, donor type, donor heavy atom, donor atom, acceptor molecule, acceptor atom, score
      P1  H  7989  7998       L1    17  0.91
      P1  H  7997  8010       L1     9  0.85
      P1  H  8011  8017       L1    18  0.41

> <Gold.Chemscore.Hbond.Weighted>
-7.1403

> <Gold.Chemscore.Metal.Weighted>
-0.0000

> <Gold.Chemscore.Lipo.Weighted>
-9.2832

> <Gold.Chemscore.Internal_Hbond.Weighted>
0.0000

> <Gold.Chemscore.DEClash.Weighted>
1.6422

> <Gold.Chemscore.DEInternal.Weighted>
0.3255

> <Gold.Chemscore.Rot.Weighted>
3.7827

> <Gold.Chemscore.Internal.Correction.Weighted>
   9.000000E+99

> <Gold.Protein.RotatedTorsions>
[ 6907 6896 6895 6894 ] final   82.11 input  -60.11 | X-H torsion
[ 7974 7965 7964 7962 ] final  137.01 input  175.53 | X-H torsion
[ 8008 7997 7996 7995 ] final   52.94 input   59.86 | X-H torsion
[ 10167 10162 10161 10158 ] final  -97.49 input  -65.29 | X-H torsion
[ 10718 10713 10712 10709 ] final  167.54 input   66.30 | X-H torsion
[ 10763 10752 10751 10750 ] final   74.63 input  -60.55 | X-H torsion
[ 11005 11000 10999 10996 ] final   -4.53 input  -57.11 | X-H torsion

> <Gold.Protein.ActiveResidues>
 VAL166  LYS551  ARG553  GLY616  TRP617  ASP618  TYR619  PRO620  LYS621  CYS622 
 ASP623  PHE694  ASN695  SER759  ASP760  ASP761  ALA762  ILE779  LEU786  VAL792 
 PHE793  MET794  SER795  GLU796  ALA797  LYS798  CYS799  TRP800  GLU811  SER814 

> <Gold.Protein.RotatedAtoms>
  152.5289  134.3100  159.9109 H   0  0  0  0  0  0  0  0  0  0  0  0  # atno 6907 bound_to 6896
  151.3050  133.4099  159.2650 H   0  0  0  0  0  0  0  0  0  0  0  0  # atno 6908 bound_to 6896
  151.0087  134.9396  159.8052 H   0  0  0  0  0  0  0  0  0  0  0  0  # atno 6909 bound_to 6896
  144.9509  139.4820  143.5526 H   0  0  0  0  0  0  0  0  0  0  0  0  # atno 7974 bound_to 7965
  155.4601  140.3461  155.4311 H   0  0  0  0  0  0  0  0  0  0  0  0  # atno 8008 bound_to 7997
  156.1166  140.1475  156.9293 H   0  0  0  0  0  0  0  0  0  0  0  0  # atno 8009 bound_to 7997
  154.4793  140.0875  156.7318 H   0  0  0  0  0  0  0  0  0  0  0  0  # atno 8010 bound_to 7997
  140.2829  143.3270  152.0423 H   0  0  0  0  0  0  0  0  0  0  0  0  # atno 10167 bound_to 10162
  157.0500  131.0311  151.2684 H   0  0  0  0  0  0  0  0  0  0  0  0  # atno 10718 bound_to 10713
  153.0599  135.5019  154.8070 H   0  0  0  0  0  0  0  0  0  0  0  0  # atno 10763 bound_to 10752
  154.6867  135.2977  154.9540 H   0  0  0  0  0  0  0  0  0  0  0  0  # atno 10764 bound_to 10752
  154.0308  135.6730  153.4833 H   0  0  0  0  0  0  0  0  0  0  0  0  # atno 10765 bound_to 10752
  140.6813  133.9151  155.8557 H   0  0  0  0  0  0  0  0  0  0  0  0  # atno 11005 bound_to 11000
  146.3320  139.8594  142.8859 LP  0  0  0  0  0  0  0  0  0  0  0  0  # atno 17320 bound_to 7965
  145.2845  141.0149  143.3698 LP  0  0  0  0  0  0  0  0  0  0  0  0  # atno 17321 bound_to 7965
  139.4958  144.6579  151.6530 LP  0  0  0  0  0  0  0  0  0  0  0  0  # atno 17342 bound_to 10162
  140.5797  143.9967  150.6261 LP  0  0  0  0  0  0  0  0  0  0  0  0  # atno 17343 bound_to 10162
  157.5037  130.7896  149.7632 LP  0  0  0  0  0  0  0  0  0  0  0  0  # atno 17370 bound_to 10713
  156.0010  130.3880  150.2604 LP  0  0  0  0  0  0  0  0  0  0  0  0  # atno 17371 bound_to 10713
  141.0315  134.0749  157.4008 LP  0  0  0  0  0  0  0  0  0  0  0  0  # atno 17394 bound_to 11000
  139.8951  135.0139  156.6984 LP  0  0  0  0  0  0  0  0  0  0  0  0  # atno 17395 bound_to 11000

$$$$
