AV-unprocessed.smi:2148|AV-procd|sdf|8746|dock2
  -GOLD-   2272011523D 1   1.00000     0.00000
 Structure written by MMmdl.
 44 45  0  0  0  0  0  0  0  0  1 V2000
  147.1139  132.7126  153.0934 C   0  0  0  0  0  0  0  0  0  0  0  0
  147.4623  133.7983  154.5038 S   0  0  0  0  0  0  0  0  0  0  0  0
  149.2305  134.1400  154.2520 C   0  0  2  0  0  0  0  0  0  0  0  0
  150.0408  132.8367  154.3401 C   0  0  0  0  0  0  0  0  0  0  0  0
  149.7585  135.1898  155.2390 C   0  0  0  0  0  0  0  0  0  0  0  0
  149.8151  134.9251  156.4399 O   0  0  0  0  0  0  0  0  0  0  0  0
  150.1054  136.3743  154.7015 N   0  0  0  0  0  0  0  0  0  0  0  0
  150.6191  137.5290  155.3515 C   0  0  0  0  0  0  0  0  0  0  0  0
  150.8911  138.7559  154.7036 C   0  0  0  0  0  0  0  0  0  0  0  0
  151.3795  139.8353  155.4645 C   0  0  0  0  0  0  0  0  0  0  0  0
  151.5765  139.6703  156.8557 C   0  0  0  0  0  0  0  0  0  0  0  0
  152.0633  140.7418  157.6355 N   0  0  0  0  0  0  0  0  0  0  0  0
  151.2539  141.9572  157.6131 C   0  0  0  0  0  0  0  0  0  0  0  0
  152.0331  143.1352  158.2288 C   0  0  1  0  0  0  0  0  0  0  0  0
  151.1727  144.3981  158.3393 C   0  0  0  0  0  0  0  0  0  0  0  0
  152.4709  142.7773  159.5369 O   0  0  0  0  0  0  0  0  0  0  0  0
  153.3515  141.6571  159.5282 C   0  0  1  0  0  0  0  0  0  0  0  0
  153.8391  141.4161  160.9607 C   0  0  0  0  0  0  0  0  0  0  0  0
  152.6075  140.4359  158.9569 C   0  0  0  0  0  0  0  0  0  0  0  0
  151.3085  138.4939  157.4739 N   0  0  0  0  0  0  0  0  0  0  0  0
  150.8390  137.4627  156.7415 C   0  0  0  0  0  0  0  0  0  0  0  0
  146.0810  132.3675  153.1347 H   0  0  0  0  0  0  0  0  0  0  0  0
  147.7693  131.8418  153.1098 H   0  0  0  0  0  0  0  0  0  0  0  0
  147.2592  133.2424  152.1520 H   0  0  0  0  0  0  0  0  0  0  0  0
  149.3422  134.5256  153.2373 H   0  0  0  0  0  0  0  0  0  0  0  0
  151.1073  133.0209  154.2044 H   0  0  0  0  0  0  0  0  0  0  0  0
  149.7301  132.1339  153.5664 H   0  0  0  0  0  0  0  0  0  0  0  0
  149.9066  132.3439  155.3041 H   0  0  0  0  0  0  0  0  0  0  0  0
  149.9233  136.4794  153.7139 H   0  0  0  0  0  0  0  0  0  0  0  0
  150.7258  138.8968  153.6470 H   0  0  0  0  0  0  0  0  0  0  0  0
  151.6051  140.7691  154.9719 H   0  0  0  0  0  0  0  0  0  0  0  0
  150.9537  142.2212  156.6001 H   0  0  0  0  0  0  0  0  0  0  0  0
  150.3381  141.7765  158.1774 H   0  0  0  0  0  0  0  0  0  0  0  0
  152.9033  143.3623  157.6102 H   0  0  0  0  0  0  0  0  0  0  0  0
  150.8234  144.7220  157.3587 H   0  0  0  0  0  0  0  0  0  0  0  0
  151.7404  145.2191  158.7779 H   0  0  0  0  0  0  0  0  0  0  0  0
  150.2978  144.2257  158.9665 H   0  0  0  0  0  0  0  0  0  0  0  0
  154.2159  141.8866  158.9025 H   0  0  0  0  0  0  0  0  0  0  0  0
  154.5300  140.5739  161.0031 H   0  0  0  0  0  0  0  0  0  0  0  0
  153.0059  141.2003  161.6301 H   0  0  0  0  0  0  0  0  0  0  0  0
  154.3595  142.2927  161.3473 H   0  0  0  0  0  0  0  0  0  0  0  0
  151.7933  140.1455  159.6226 H   0  0  0  0  0  0  0  0  0  0  0  0
  153.2948  139.5912  158.8929 H   0  0  0  0  0  0  0  0  0  0  0  0
  150.6368  136.5517  157.2858 H   0  0  0  0  0  0  0  0  0  0  0  0
  1  2  1  0  0  0  0
  1 22  1  0  0  0  0
  1 23  1  0  0  0  0
  1 24  1  0  0  0  0
  2  3  1  0  0  0  0
  3  4  1  0  0  0  0
  3  5  1  0  0  0  0
  3 25  1  0  0  0  0
  4 26  1  0  0  0  0
  4 27  1  0  0  0  0
  4 28  1  0  0  0  0
  5  6  2  0  0  0  0
  5  7  1  0  0  0  0
  7  8  1  0  0  0  0
  7 29  1  0  0  0  0
  8 21  1  0  0  0  0
  8  9  2  0  0  0  0
  9 10  1  0  0  0  0
  9 30  1  0  0  0  0
 10 11  2  0  0  0  0
 10 31  1  0  0  0  0
 11 12  1  0  0  0  0
 11 20  1  0  0  0  0
 12 19  1  0  0  0  0
 12 13  1  0  0  0  0
 13 14  1  0  0  0  0
 13 32  1  0  0  0  0
 13 33  1  0  0  0  0
 14 15  1  0  0  0  0
 14 16  1  0  0  0  0
 14 34  1  0  0  0  0
 15 35  1  0  0  0  0
 15 36  1  0  0  0  0
 15 37  1  0  0  0  0
 16 17  1  0  0  0  0
 17 18  1  0  0  0  0
 17 19  1  0  0  0  0
 17 38  1  0  0  0  0
 18 39  1  0  0  0  0
 18 40  1  0  0  0  0
 18 41  1  0  0  0  0
 19 42  1  0  0  0  0
 19 43  1  0  0  0  0
 20 21  2  0  0  0  0
 21 44  1  0  0  0  0
M  END
> <s_m_source_file>
AV-unprocessed.smi

> <i_m_source_file_index>
2148

> <i_lp_mmshare_version>
43012

> <i_f3d_flags>
0

> <s_epik_input>
W0NIM11TW0NASF0oW0NIM10pQyg9TylbTkhdYzFbY0hdW2NIXWMobltjSF0xKU4yW0NIMl1bQ0BASF0oW0NIM10pT1tDQEBIXShbQ0gzXSlbQ0gyXTI=

> <s_epik_cmdline>
J2VwaWtfcHl0aG9uJywgJy1waCcsICc3LjAnLCAnLXRuJywgJzgnLCAnLW1hJywgJzIwMCcsICctbWV0YWxfYmluZGluZycsICctaW1hZScsICc8aW5maWxlLm1hZT4nLCAnLW9tYWUnLCAnPG91dGZpbGUubWFlPic=

> <r_lp_tautomer_probability>
1

> <r_epik_Ionization_Penalty>
0.000646494

> <r_epik_Ionization_Penalty_Charging>
0

> <r_epik_Ionization_Penalty_Neutral>
0.000646494

> <r_epik_State_Penalty>
0.000408447

> <r_epik_Charging_Adjusted_Penalty>
0.000408447

> <i_epik_Tot_Q>
0

> <i_epik_Tot_abs_Q>
0

> <r_epik_Metal_State_Penalty>
-0

> <b_epik_Metal_Only>
0

> <s_lp_Force_Field>
OPLS_2005

> <r_lp_Energy>
22.6119

> <b_lp_Chiralities_Consistent>
1

> <s_lp_Variant>
AV-unprocessed.smi:2148-1

> <Gold.Version>
5.8.1

> <Gold.Id.Protein>
6NUR|6NUR_protein|mol2

> <Gold.PLP.Fitness>
39.2362

> <Gold.PLP.PLP>
-36.5378

> <Gold.PLP.part.hbond>
-1.0000

> <Gold.PLP.part.metal>
0.0000

> <Gold.PLP.part.buried>
-3.9777

> <Gold.PLP.part.nonpolar>
-31.5558

> <Gold.PLP.part.repulsive>
0.0635

> <Gold.PLP.ligand.clash>
0.0000

> <Gold.PLP.ligand.torsion>
0.3173

> <Gold.PLP.Chemscore.Hbond>
0.9913

> <Gold.PLP.Chemscore.CHOScore>
0.0000

> <Gold.PLP.Chemscore.Metal>
0.0000

> <Gold.Chemscore.Hbonds>
donor molecule, donor type, donor heavy atom, donor atom, acceptor molecule, acceptor atom, score
      L1  H     7    29       P1  7948  0.91

> <Gold.PLP.Chemscore.Internal.Correction>
0.3592

> <Gold.Rescore>
     Score         DG    S(hbond)    S(metal)    S(lipo)     H(rot)  DE(clash)    DE(int)     intcor
     14.74     -16.58       0.87        0.00      97.75       1.27       0.07       1.77       ----

> <Gold.Chemscore.Fitness>
14.7441

> <Gold.Chemscore.DG>
-16.5811

> <Gold.Chemscore.ZeroCoef>
-5.4800

> <Gold.Chemscore.Hbond>
0.8698

> <Gold.Chemscore.Metal>
0.0000

> <Gold.Chemscore.Lipo>
97.7491

> <Gold.Chemscore.Internal_Hbond>
0.0000

> <Gold.Chemscore.DEClash>
0.0683

> <Gold.Chemscore.DEInternal>
1.7687

> <Gold.Chemscore.Rot>
1.2659

> <Gold.Chemscore.Internal.Correction>
   9.000000E+99

> <Gold.Chemscore.Hbonds>
donor molecule, donor type, donor heavy atom, donor atom, acceptor molecule, acceptor atom, score
      L1  H     7    29       P1  7948  0.22

> <Gold.Chemscore.Hbond.Weighted>
-2.9050

> <Gold.Chemscore.Metal.Weighted>
-0.0000

> <Gold.Chemscore.Lipo.Weighted>
-11.4366

> <Gold.Chemscore.Internal_Hbond.Weighted>
0.0000

> <Gold.Chemscore.DEClash.Weighted>
0.0683

> <Gold.Chemscore.DEInternal.Weighted>
1.7687

> <Gold.Chemscore.Rot.Weighted>
3.2406

> <Gold.Chemscore.Internal.Correction.Weighted>
   9.000000E+99

> <Gold.Protein.RotatedTorsions>
[ 6907 6896 6895 6894 ] final  174.88 input  -60.11 | X-H torsion
[ 7974 7965 7964 7962 ] final   78.10 input  175.53 | X-H torsion
[ 8008 7997 7996 7995 ] final    0.65 input   59.86 | X-H torsion
[ 10167 10162 10161 10158 ] final  -97.53 input  -65.29 | X-H torsion
[ 10718 10713 10712 10709 ] final   33.60 input   66.30 | X-H torsion
[ 10763 10752 10751 10750 ] final   -1.97 input  -60.55 | X-H torsion
[ 11005 11000 10999 10996 ] final  -30.90 input  -57.11 | X-H torsion

> <Gold.Protein.ActiveResidues>
 VAL166  LYS551  ARG553  GLY616  TRP617  ASP618  TYR619  PRO620  LYS621  CYS622 
 ASP623  PHE694  ASN695  SER759  ASP760  ASP761  ALA762  ILE779  LEU786  VAL792 
 PHE793  MET794  SER795  GLU796  ALA797  LYS798  CYS799  TRP800  GLU811  SER814 

> <Gold.Protein.RotatedAtoms>
  151.7451  133.3324  159.3376 H   0  0  0  0  0  0  0  0  0  0  0  0  # atno 6907 bound_to 6896
  150.7557  134.6243  159.6162 H   0  0  0  0  0  0  0  0  0  0  0  0  # atno 6908 bound_to 6896
  152.3505  134.7014  160.0289 H   0  0  0  0  0  0  0  0  0  0  0  0  # atno 6909 bound_to 6896
  145.6815  139.2525  143.1811 H   0  0  0  0  0  0  0  0  0  0  0  0  # atno 7974 bound_to 7965
  154.6705  140.2611  155.7012 H   0  0  0  0  0  0  0  0  0  0  0  0  # atno 8008 bound_to 7997
  156.2657  140.2830  156.1135 H   0  0  0  0  0  0  0  0  0  0  0  0  # atno 8009 bound_to 7997
  155.1175  140.0376  157.2731 H   0  0  0  0  0  0  0  0  0  0  0  0  # atno 8010 bound_to 7997
  140.2824  143.3273  152.0428 H   0  0  0  0  0  0  0  0  0  0  0  0  # atno 10167 bound_to 10162
  157.2999  130.7345  149.6660 H   0  0  0  0  0  0  0  0  0  0  0  0  # atno 10718 bound_to 10713
  153.3519  135.6986  153.6782 H   0  0  0  0  0  0  0  0  0  0  0  0  # atno 10763 bound_to 10752
  153.5505  135.3554  155.2758 H   0  0  0  0  0  0  0  0  0  0  0  0  # atno 10764 bound_to 10752
  154.8654  135.4225  154.2756 H   0  0  0  0  0  0  0  0  0  0  0  0  # atno 10765 bound_to 10752
  140.9422  133.7271  156.1093 H   0  0  0  0  0  0  0  0  0  0  0  0  # atno 11005 bound_to 11000
  146.0960  140.7600  142.9572 LP  0  0  0  0  0  0  0  0  0  0  0  0  # atno 17320 bound_to 7965
  144.7024  140.3712  143.7145 LP  0  0  0  0  0  0  0  0  0  0  0  0  # atno 17321 bound_to 7965
  139.4959  144.6582  151.6524 LP  0  0  0  0  0  0  0  0  0  0  0  0  # atno 17342 bound_to 10162
  140.5800  143.9961  150.6263 LP  0  0  0  0  0  0  0  0  0  0  0  0  # atno 17343 bound_to 10162
  155.9671  130.4283  150.4783 LP  0  0  0  0  0  0  0  0  0  0  0  0  # atno 17370 bound_to 10713
  157.2762  131.0597  151.2228 LP  0  0  0  0  0  0  0  0  0  0  0  0  # atno 17371 bound_to 10713
  140.7718  134.3824  157.5506 LP  0  0  0  0  0  0  0  0  0  0  0  0  # atno 17394 bound_to 11000
  139.8823  134.9027  156.2837 LP  0  0  0  0  0  0  0  0  0  0  0  0  # atno 17395 bound_to 11000

$$$$
