AV-unprocessed.smi:265|AV-procd|sdf|2021|dock1
  -GOLD-   2262021223D 1   1.00000     0.00000
 Structure written by MMmdl.
 52 56  0  0  0  0  0  0  0  0  1 V2000
  145.2597  134.7192  160.3604 C   0  0  0  0  0  0  0  0  0  0  0  0
  146.7046  134.2886  160.6628 C   0  0  2  0  0  0  0  0  0  0  0  0
  146.7202  133.7006  161.9625 O   0  0  0  0  0  0  0  0  0  0  0  0
  147.9275  134.0443  162.6194 C   0  0  0  0  0  0  0  0  0  0  0  0
  148.1536  135.4761  162.1639 C   0  0  0  0  0  0  0  0  0  0  0  0
  147.7724  135.4176  160.6854 C   0  0  2  0  0  0  0  0  0  0  0  0
  147.2450  136.6778  160.3080 O   0  0  0  0  0  0  0  0  0  0  0  0
  148.9585  135.0785  159.7428 C   0  0  0  0  0  0  0  0  0  0  0  0
  148.5654  134.5981  158.4260 N   0  0  0  0  0  0  0  0  0  0  0  0
  147.8325  135.2878  157.4861 C   0  0  0  0  0  0  0  0  0  0  0  0
  147.6117  134.6469  156.3713 N   0  0  0  0  0  0  0  0  0  0  0  0
  148.2492  133.4248  156.5501 C   0  0  0  0  0  0  0  0  0  0  0  0
  148.4143  132.2658  155.7400 C   0  0  0  0  0  0  0  0  0  0  0  0
  147.8765  132.1578  154.4984 N   0  0  0  0  0  0  0  0  0  0  0  0
  146.8984  131.0948  154.2693 C   0  0  0  0  0  0  0  0  0  0  0  0
  146.7081  130.8473  152.7651 C   0  0  0  0  0  0  0  0  0  0  0  0
  146.3642  132.1420  152.0106 C   0  0  1  0  0  0  0  0  0  0  0  0
  145.0689  132.5985  152.3788 O   0  0  0  0  0  0  0  0  0  0  0  0
  144.5983  133.6930  151.5900 C   0  0  0  0  0  0  0  0  0  0  0  0
  145.6402  134.8209  151.4717 C   0  0  0  0  0  0  0  0  0  0  0  0
  145.2966  135.9345  151.0821 O   0  0  0  0  0  0  0  0  0  0  0  0
  146.9190  134.5340  151.7639 N   0  0  0  0  0  0  0  0  0  0  0  0
  147.3664  133.2700  152.3393 C   0  0  1  0  0  0  0  0  0  0  0  0
  147.5555  133.4333  153.8613 C   0  0  0  0  0  0  0  0  0  0  0  0
  149.1452  131.2416  156.2565 N   0  0  0  0  0  0  0  0  0  0  0  0
  149.6724  131.3380  157.4806 C   0  0  0  0  0  0  0  0  0  0  0  0
  149.5939  132.3513  158.3450 N   0  0  0  0  0  0  0  0  0  0  0  0
  148.8653  133.3837  157.8330 C   0  0  0  0  0  0  0  0  0  0  0  0
  146.3705  131.9312  150.9393 H   0  0  0  0  0  0  0  0  0  0  0  0
  148.3309  133.0224  151.8941 H   0  0  0  0  0  0  0  0  0  0  0  0
  145.1773  135.1594  159.3663 H   0  0  0  0  0  0  0  0  0  0  0  0
  144.9035  135.4510  161.0863 H   0  0  0  0  0  0  0  0  0  0  0  0
  144.5858  133.8633  160.3970 H   0  0  0  0  0  0  0  0  0  0  0  0
  146.9918  133.5166  159.9472 H   0  0  0  0  0  0  0  0  0  0  0  0
  147.8359  133.9543  163.7018 H   0  0  0  0  0  0  0  0  0  0  0  0
  148.7334  133.3903  162.2831 H   0  0  0  0  0  0  0  0  0  0  0  0
  147.4663  136.1255  162.7092 H   0  0  0  0  0  0  0  0  0  0  0  0
  149.1622  135.8340  162.3644 H   0  0  0  0  0  0  0  0  0  0  0  0
  147.4857  136.8479  159.4102 H   0  0  0  0  0  0  0  0  0  0  0  0
  149.5873  135.9583  159.6002 H   0  0  0  0  0  0  0  0  0  0  0  0
  149.5987  134.3243  160.2029 H   0  0  0  0  0  0  0  0  0  0  0  0
  147.4592  136.2872  157.6574 H   0  0  0  0  0  0  0  0  0  0  0  0
  147.2263  130.1707  154.7476 H   0  0  0  0  0  0  0  0  0  0  0  0
  145.9477  131.3747  154.7253 H   0  0  0  0  0  0  0  0  0  0  0  0
  147.6287  130.4301  152.3552 H   0  0  0  0  0  0  0  0  0  0  0  0
  145.9320  130.0991  152.6023 H   0  0  0  0  0  0  0  0  0  0  0  0
  144.3478  133.3379  150.5897 H   0  0  0  0  0  0  0  0  0  0  0  0
  143.6820  134.0821  152.0343 H   0  0  0  0  0  0  0  0  0  0  0  0
  147.6100  135.2620  151.6516 H   0  0  0  0  0  0  0  0  0  0  0  0
  146.6393  133.8174  154.3126 H   0  0  0  0  0  0  0  0  0  0  0  0
  148.3267  134.1792  154.0510 H   0  0  0  0  0  0  0  0  0  0  0  0
  150.2379  130.4808  157.8150 H   0  0  0  0  0  0  0  0  0  0  0  0
  1  2  1  0  0  0  0
  1 31  1  0  0  0  0
  1 32  1  0  0  0  0
  1 33  1  0  0  0  0
  2  6  1  0  0  0  0
  2  3  1  0  0  0  0
  2 34  1  0  0  0  0
  3  4  1  0  0  0  0
  4  5  1  0  0  0  0
  4 35  1  0  0  0  0
  4 36  1  0  0  0  0
  5  6  1  0  0  0  0
  5 37  1  0  0  0  0
  5 38  1  0  0  0  0
  6  7  1  0  0  0  0
  6  8  1  0  0  0  0
  7 39  1  0  0  0  0
  8  9  1  0  0  0  0
  8 40  1  0  0  0  0
  8 41  1  0  0  0  0
  9 28  1  0  0  0  0
  9 10  1  0  0  0  0
 10 11  2  0  0  0  0
 10 42  1  0  0  0  0
 11 12  1  0  0  0  0
 12 28  2  0  0  0  0
 12 13  1  0  0  0  0
 13 14  1  0  0  0  0
 13 25  2  0  0  0  0
 14 24  1  0  0  0  0
 14 15  1  0  0  0  0
 15 16  1  0  0  0  0
 15 43  1  0  0  0  0
 15 44  1  0  0  0  0
 16 17  1  0  0  0  0
 16 45  1  0  0  0  0
 16 46  1  0  0  0  0
 17 29  1  0  0  0  0
 17 23  1  0  0  0  0
 17 18  1  0  0  0  0
 18 19  1  0  0  0  0
 19 20  1  0  0  0  0
 19 47  1  0  0  0  0
 19 48  1  0  0  0  0
 20 21  2  0  0  0  0
 20 22  1  0  0  0  0
 22 23  1  0  0  0  0
 22 49  1  0  0  0  0
 23 30  1  0  0  0  0
 23 24  1  0  0  0  0
 24 50  1  0  0  0  0
 24 51  1  0  0  0  0
 25 26  1  0  0  0  0
 26 27  2  0  0  0  0
 26 52  1  0  0  0  0
 27 28  1  0  0  0  0
M  END
> <s_m_source_file>
AV-unprocessed.smi

> <i_m_source_file_index>
265

> <i_lp_mmshare_version>
43012

> <i_f3d_flags>
0

> <s_epik_input>
W0NIMl0xW0NIMl1PW0NAQEhdKFtDSDNdKVtDQEBdMShbT0hdKVtDSDJdbihbY0hdbjIpYyhjMjMpbltjSF1uYzNOKFtDSDJdW0NIMl00KVtDSDJdW0NAQEhdKFtDQEhdNDUpW05IXUMoPU8pW0NIMl1PNQ==

> <s_epik_cmdline>
J2VwaWtfcHl0aG9uJywgJy1waCcsICc3LjAnLCAnLXRuJywgJzgnLCAnLW1hJywgJzIwMCcsICctbWV0YWxfYmluZGluZycsICctaW1hZScsICc8aW5maWxlLm1hZT4nLCAnLW9tYWUnLCAnPG91dGZpbGUubWFlPic=

> <r_lp_tautomer_probability>
1

> <r_epik_Ionization_Penalty>
0.00221504

> <r_epik_Ionization_Penalty_Charging>
0

> <r_epik_Ionization_Penalty_Neutral>
0.00221504

> <r_epik_State_Penalty>
-0

> <r_epik_Charging_Adjusted_Penalty>
0

> <i_epik_Tot_Q>
0

> <i_epik_Tot_abs_Q>
0

> <r_epik_Metal_State_Penalty>
-0

> <b_epik_Metal_Only>
0

> <s_lp_Force_Field>
OPLS_2005

> <r_lp_Energy>
45.2978

> <b_lp_Chiralities_Consistent>
1

> <s_lp_Variant>
AV-unprocessed.smi:265-7

> <Gold.Version>
5.8.1

> <Gold.Id.Protein>
6NUR|6NUR_protein|mol2

> <Gold.PLP.Fitness>
38.1877

> <Gold.PLP.PLP>
-29.8350

> <Gold.PLP.part.hbond>
-3.0000

> <Gold.PLP.part.metal>
0.0000

> <Gold.PLP.part.buried>
-5.6016

> <Gold.PLP.part.nonpolar>
-21.9489

> <Gold.PLP.part.repulsive>
0.4435

> <Gold.PLP.ligand.clash>
0.0000

> <Gold.PLP.ligand.torsion>
0.5157

> <Gold.PLP.Chemscore.Hbond>
3.0000

> <Gold.PLP.Chemscore.CHOScore>
0.0000

> <Gold.PLP.Chemscore.Metal>
0.0000

> <Gold.Chemscore.Hbonds>
donor molecule, donor type, donor heavy atom, donor atom, acceptor molecule, acceptor atom, score
      L1  H    22    49       P1  7948  1.00
      P1  H  6896  6907       L1    27  0.65
      P1  H  6934  6947       L1     7  0.01

> <Gold.PLP.Chemscore.Internal.Correction>
0.3841

> <Gold.Rescore>
     Score         DG    S(hbond)    S(metal)    S(lipo)     H(rot)  DE(clash)    DE(int)     intcor
     14.33     -16.28       2.65        0.00      65.74       2.25       0.01       1.95       ----

> <Gold.Chemscore.Fitness>
14.3294

> <Gold.Chemscore.DG>
-16.2839

> <Gold.Chemscore.ZeroCoef>
-5.4800

> <Gold.Chemscore.Hbond>
2.6529

> <Gold.Chemscore.Metal>
0.0000

> <Gold.Chemscore.Lipo>
65.7355

> <Gold.Chemscore.Internal_Hbond>
0.0000

> <Gold.Chemscore.DEClash>
0.0050

> <Gold.Chemscore.DEInternal>
1.9495

> <Gold.Chemscore.Rot>
2.2453

> <Gold.Chemscore.Internal.Correction>
   9.000000E+99

> <Gold.Chemscore.Hbonds>
donor molecule, donor type, donor heavy atom, donor atom, acceptor molecule, acceptor atom, score
      L1  H    22    49       P1  7948  0.81
      P1  H  6896  6907       L1    27  0.05
      P1  H  6934  6947       L1     7  0.01

> <Gold.Chemscore.Hbond.Weighted>
-8.8608

> <Gold.Chemscore.Metal.Weighted>
-0.0000

> <Gold.Chemscore.Lipo.Weighted>
-7.6911

> <Gold.Chemscore.Internal_Hbond.Weighted>
0.0000

> <Gold.Chemscore.DEClash.Weighted>
0.0050

> <Gold.Chemscore.DEInternal.Weighted>
1.9495

> <Gold.Chemscore.Rot.Weighted>
5.7479

> <Gold.Chemscore.Internal.Correction.Weighted>
   9.000000E+99

> <Gold.Protein.RotatedTorsions>
[ 6907 6896 6895 6894 ] final -133.37 input  -60.11 | X-H torsion
[ 7974 7965 7964 7962 ] final  -24.94 input  175.53 | X-H torsion
[ 8008 7997 7996 7995 ] final -111.36 input   59.86 | X-H torsion
[ 10167 10162 10161 10158 ] final   89.15 input  -65.29 | X-H torsion
[ 10718 10713 10712 10709 ] final -176.30 input   66.30 | X-H torsion
[ 10763 10752 10751 10750 ] final  156.47 input  -60.55 | X-H torsion
[ 11005 11000 10999 10996 ] final  -49.47 input  -57.11 | X-H torsion

> <Gold.Protein.ActiveResidues>
 VAL166  LYS551  ARG553  GLY616  TRP617  ASP618  TYR619  PRO620  LYS621  CYS622 
 ASP623  PHE694  ASN695  SER759  ASP760  ASP761  ALA762  ILE779  LEU786  VAL792 
 PHE793  MET794  SER795  GLU796  ALA797  LYS798  CYS799  TRP800  GLU811  SER814 

> <Gold.Protein.RotatedAtoms>
  150.9732  133.6322  159.2734 H   0  0  0  0  0  0  0  0  0  0  0  0  # atno 6907 bound_to 6896
  151.3603  135.0901  159.9442 H   0  0  0  0  0  0  0  0  0  0  0  0  # atno 6908 bound_to 6896
  152.5190  133.9307  159.7633 H   0  0  0  0  0  0  0  0  0  0  0  0  # atno 6909 bound_to 6896
  146.1522  140.4820  142.8606 H   0  0  0  0  0  0  0  0  0  0  0  0  # atno 7974 bound_to 7965
  154.9886  140.0395  157.2309 H   0  0  0  0  0  0  0  0  0  0  0  0  # atno 8008 bound_to 7997
  154.7649  140.2791  155.6161 H   0  0  0  0  0  0  0  0  0  0  0  0  # atno 8009 bound_to 7997
  156.2911  140.2621  156.2437 H   0  0  0  0  0  0  0  0  0  0  0  0  # atno 8010 bound_to 7997
  139.8602  144.6548  150.9068 H   0  0  0  0  0  0  0  0  0  0  0  0  # atno 10167 bound_to 10162
  156.8126  130.9592  151.3115 H   0  0  0  0  0  0  0  0  0  0  0  0  # atno 10718 bound_to 10713
  154.1848  135.2797  155.3040 H   0  0  0  0  0  0  0  0  0  0  0  0  # atno 10763 bound_to 10752
  154.5974  135.5540  153.7343 H   0  0  0  0  0  0  0  0  0  0  0  0  # atno 10764 bound_to 10752
  153.0128  135.6383  154.1987 H   0  0  0  0  0  0  0  0  0  0  0  0  # atno 10765 bound_to 10752
  141.0761  133.6665  156.3590 H   0  0  0  0  0  0  0  0  0  0  0  0  # atno 11005 bound_to 11000
  144.7919  140.6048  143.6536 LP  0  0  0  0  0  0  0  0  0  0  0  0  # atno 17320 bound_to 7965
  145.4794  139.1496  143.3770 LP  0  0  0  0  0  0  0  0  0  0  0  0  # atno 17321 bound_to 7965
  140.7776  143.3751  151.1578 LP  0  0  0  0  0  0  0  0  0  0  0  0  # atno 17342 bound_to 10162
  139.7381  143.8967  152.3041 LP  0  0  0  0  0  0  0  0  0  0  0  0  # atno 17343 bound_to 10162
  157.6498  130.8874  149.9610 LP  0  0  0  0  0  0  0  0  0  0  0  0  # atno 17370 bound_to 10713
  156.1035  130.3654  150.0175 LP  0  0  0  0  0  0  0  0  0  0  0  0  # atno 17371 bound_to 10713
  140.5570  134.5971  157.5423 LP  0  0  0  0  0  0  0  0  0  0  0  0  # atno 17394 bound_to 11000
  139.9573  134.7512  156.0313 LP  0  0  0  0  0  0  0  0  0  0  0  0  # atno 17395 bound_to 11000

$$$$
