AV-unprocessed.smi:2273|AV-procd|sdf|9164|dock10
  -GOLD-   2272012373D 1   1.00000     0.00000
 Structure written by MMmdl.
 53 54  0  0  0  0  0  0  0  0  1 V2000
  151.6790  138.0987  154.2271 C   0  0  0  0  0  0  0  0  0  0  0  0
  151.1245  139.3453  154.9269 C   0  0  0  0  0  0  0  0  0  0  0  0
  149.8311  139.9541  154.3203 C   0  0  0  0  0  0  0  0  0  0  0  0
  149.5032  141.3030  155.0155 C   0  0  0  0  0  0  0  0  0  0  0  0
  150.6394  141.8944  155.8648 C   0  0  0  0  0  0  0  0  0  0  0  0
  148.6324  138.9588  154.3856 C   0  0  2  0  0  0  0  0  0  0  0  0
  147.4247  139.3989  153.5199 C   0  0  0  0  0  0  0  0  0  0  0  0
  146.2690  138.3834  153.5947 C   0  0  1  0  0  0  0  0  0  0  0  0
  146.6130  137.1301  152.9147 N   0  0  0  0  0  0  0  0  0  0  0  0
  145.8241  136.0719  152.6554 C   0  0  0  0  0  0  0  0  0  0  0  0
  144.6441  136.0548  153.0021 O   0  0  0  0  0  0  0  0  0  0  0  0
  146.4404  135.0616  152.0084 N   0  0  0  0  0  0  0  0  0  0  0  0
  145.8697  133.8371  151.6250 C   0  0  0  0  0  0  0  0  0  0  0  0
  144.7557  133.8494  150.8465 C   0  0  0  0  0  0  0  0  0  0  0  0
  144.1408  135.1468  150.3468 C   0  0  0  0  0  0  0  0  0  0  0  0
  144.1533  132.5914  150.4572 C   0  0  0  0  0  0  0  0  0  0  0  0
  144.6979  131.4420  150.8772 C   0  0  0  0  0  0  0  0  0  0  0  0
  145.8302  131.4228  151.7036 N   0  0  0  0  0  0  0  0  0  0  0  0
  146.3404  130.1150  152.1234 C   0  0  0  0  0  0  0  0  0  0  0  0
  146.4304  132.5654  152.1454 C   0  0  0  0  0  0  0  0  0  0  0  0
  147.3682  132.5151  152.9445 O   0  0  0  0  0  0  0  0  0  0  0  0
  145.9243  138.1140  155.0666 C   0  0  0  0  0  0  0  0  0  0  0  0
  147.1840  137.7905  155.8856 C   0  0  0  0  0  0  0  0  0  0  0  0
  148.1454  138.8278  155.7223 O   0  0  0  0  0  0  0  0  0  0  0  0
  152.6487  137.8258  154.6439 H   0  0  0  0  0  0  0  0  0  0  0  0
  151.8173  138.2734  153.1601 H   0  0  0  0  0  0  0  0  0  0  0  0
  151.0239  137.2378  154.3595 H   0  0  0  0  0  0  0  0  0  0  0  0
  150.9611  139.1152  155.9804 H   0  0  0  0  0  0  0  0  0  0  0  0
  151.9198  140.0887  154.9038 H   0  0  0  0  0  0  0  0  0  0  0  0
  150.0209  140.1847  153.2710 H   0  0  0  0  0  0  0  0  0  0  0  0
  149.2675  142.0538  154.2611 H   0  0  0  0  0  0  0  0  0  0  0  0
  148.6079  141.1971  155.6292 H   0  0  0  0  0  0  0  0  0  0  0  0
  150.3851  142.9024  156.1930 H   0  0  0  0  0  0  0  0  0  0  0  0
  151.5672  141.9572  155.2957 H   0  0  0  0  0  0  0  0  0  0  0  0
  150.8281  141.3075  156.7631 H   0  0  0  0  0  0  0  0  0  0  0  0
  148.9887  137.9776  154.0666 H   0  0  0  0  0  0  0  0  0  0  0  0
  147.0673  140.3649  153.8792 H   0  0  0  0  0  0  0  0  0  0  0  0
  147.7046  139.5613  152.4820 H   0  0  0  0  0  0  0  0  0  0  0  0
  145.3828  138.8109  153.1234 H   0  0  0  0  0  0  0  0  0  0  0  0
  147.5568  137.0762  152.5593 H   0  0  0  0  0  0  0  0  0  0  0  0
  147.4389  135.1386  151.8825 H   0  0  0  0  0  0  0  0  0  0  0  0
  143.2165  134.9609  149.7992 H   0  0  0  0  0  0  0  0  0  0  0  0
  144.8322  135.6548  149.6756 H   0  0  0  0  0  0  0  0  0  0  0  0
  143.9084  135.8131  151.1782 H   0  0  0  0  0  0  0  0  0  0  0  0
  143.2774  132.5731  149.8253 H   0  0  0  0  0  0  0  0  0  0  0  0
  144.2956  130.4738  150.6173 H   0  0  0  0  0  0  0  0  0  0  0  0
  147.4057  130.0270  151.9039 H   0  0  0  0  0  0  0  0  0  0  0  0
  145.8405  129.2869  151.6198 H   0  0  0  0  0  0  0  0  0  0  0  0
  146.2019  129.9794  153.1968 H   0  0  0  0  0  0  0  0  0  0  0  0
  145.4509  139.0014  155.4888 H   0  0  0  0  0  0  0  0  0  0  0  0
  145.1950  137.3076  155.1517 H   0  0  0  0  0  0  0  0  0  0  0  0
  146.9301  137.7105  156.9425 H   0  0  0  0  0  0  0  0  0  0  0  0
  147.6101  136.8304  155.5907 H   0  0  0  0  0  0  0  0  0  0  0  0
  1  2  1  0  0  0  0
  1 25  1  0  0  0  0
  1 26  1  0  0  0  0
  1 27  1  0  0  0  0
  2  3  1  0  0  0  0
  2 28  1  0  0  0  0
  2 29  1  0  0  0  0
  3  4  1  0  0  0  0
  3  6  1  0  0  0  0
  3 30  1  0  0  0  0
  4  5  1  0  0  0  0
  4 31  1  0  0  0  0
  4 32  1  0  0  0  0
  5 33  1  0  0  0  0
  5 34  1  0  0  0  0
  5 35  1  0  0  0  0
  6 24  1  0  0  0  0
  6  7  1  0  0  0  0
  6 36  1  0  0  0  0
  7  8  1  0  0  0  0
  7 37  1  0  0  0  0
  7 38  1  0  0  0  0
  8  9  1  0  0  0  0
  8 22  1  0  0  0  0
  8 39  1  0  0  0  0
  9 10  1  0  0  0  0
  9 40  1  0  0  0  0
 10 11  2  0  0  0  0
 10 12  1  0  0  0  0
 12 13  1  0  0  0  0
 12 41  1  0  0  0  0
 13 20  1  0  0  0  0
 13 14  2  0  0  0  0
 14 15  1  0  0  0  0
 14 16  1  0  0  0  0
 15 42  1  0  0  0  0
 15 43  1  0  0  0  0
 15 44  1  0  0  0  0
 16 17  2  0  0  0  0
 16 45  1  0  0  0  0
 17 18  1  0  0  0  0
 17 46  1  0  0  0  0
 18 19  1  0  0  0  0
 18 20  1  0  0  0  0
 19 47  1  0  0  0  0
 19 48  1  0  0  0  0
 19 49  1  0  0  0  0
 20 21  2  0  0  0  0
 22 23  1  0  0  0  0
 22 50  1  0  0  0  0
 22 51  1  0  0  0  0
 23 24  1  0  0  0  0
 23 52  1  0  0  0  0
 23 53  1  0  0  0  0
M  END
> <s_m_source_file>
AV-unprocessed.smi

> <i_m_source_file_index>
2273

> <i_lp_mmshare_version>
43012

> <i_f3d_flags>
0

> <s_epik_input>
W0NIM11bQ0gyXVtDSF0oW0NIMl1bQ0gzXSlbQ0BASF0xW0NIMl1bQ0BIXShbQ0gyXVtDSDJdTzEpW05IXUMoPU8pW05IXWMyYyhbQ0gzXSlbY0hdW2NIXW4oW0NIM10pYzI9Tw==

> <s_epik_cmdline>
J2VwaWtfcHl0aG9uJywgJy1waCcsICc3LjAnLCAnLXRuJywgJzgnLCAnLW1hJywgJzIwMCcsICctbWV0YWxfYmluZGluZycsICctaW1hZScsICc8aW5maWxlLm1hZT4nLCAnLW9tYWUnLCAnPG91dGZpbGUubWFlPic=

> <r_lp_tautomer_probability>
1

> <r_epik_Ionization_Penalty>
2.66245e-05

> <r_epik_Ionization_Penalty_Charging>
6.91055e-06

> <r_epik_Ionization_Penalty_Neutral>
1.97139e-05

> <r_epik_State_Penalty>
-0

> <r_epik_Charging_Adjusted_Penalty>
6.91055e-06

> <i_epik_Tot_Q>
0

> <i_epik_Tot_abs_Q>
0

> <r_epik_Metal_State_Penalty>
-0

> <b_epik_Metal_Only>
0

> <s_lp_Force_Field>
OPLS_2005

> <r_lp_Energy>
42.8548

> <b_lp_Chiralities_Consistent>
1

> <s_lp_Variant>
AV-unprocessed.smi:2273-1

> <Gold.Version>
5.8.1

> <Gold.Id.Protein>
6NUR|6NUR_protein|mol2

> <Gold.PLP.Fitness>
46.0581

> <Gold.PLP.PLP>
-42.2438

> <Gold.PLP.part.hbond>
-2.0000

> <Gold.PLP.part.metal>
0.0000

> <Gold.PLP.part.buried>
-5.1397

> <Gold.PLP.part.nonpolar>
-35.6147

> <Gold.PLP.part.repulsive>
0.3007

> <Gold.PLP.ligand.clash>
0.0000

> <Gold.PLP.ligand.torsion>
1.3381

> <Gold.PLP.Chemscore.Hbond>
1.9760

> <Gold.PLP.Chemscore.CHOScore>
0.0000

> <Gold.PLP.Chemscore.Metal>
0.0000

> <Gold.Chemscore.Hbonds>
donor molecule, donor type, donor heavy atom, donor atom, acceptor molecule, acceptor atom, score
      L1  H     9    40       P1  7948  1.00
      L1  H    12    41       P1  7948  0.99

> <Gold.PLP.Chemscore.Internal.Correction>
0.5623

> <Gold.Rescore>
     Score         DG    S(hbond)    S(metal)    S(lipo)     H(rot)  DE(clash)    DE(int)     intcor
     18.37     -19.78       1.91        0.00      98.96       1.42       0.13       1.28       ----

> <Gold.Chemscore.Fitness>
18.3722

> <Gold.Chemscore.DG>
-19.7834

> <Gold.Chemscore.ZeroCoef>
-5.4800

> <Gold.Chemscore.Hbond>
1.9069

> <Gold.Chemscore.Metal>
0.0000

> <Gold.Chemscore.Lipo>
98.9629

> <Gold.Chemscore.Internal_Hbond>
0.0000

> <Gold.Chemscore.DEClash>
0.1343

> <Gold.Chemscore.DEInternal>
1.2768

> <Gold.Chemscore.Rot>
1.4236

> <Gold.Chemscore.Internal.Correction>
   9.000000E+99

> <Gold.Chemscore.Hbonds>
donor molecule, donor type, donor heavy atom, donor atom, acceptor molecule, acceptor atom, score
      L1  H     9    40       P1  7948  0.98
      L1  H    12    41       P1  7948  0.88

> <Gold.Chemscore.Hbond.Weighted>
-6.3692

> <Gold.Chemscore.Metal.Weighted>
-0.0000

> <Gold.Chemscore.Lipo.Weighted>
-11.5787

> <Gold.Chemscore.Internal_Hbond.Weighted>
0.0000

> <Gold.Chemscore.DEClash.Weighted>
0.1343

> <Gold.Chemscore.DEInternal.Weighted>
1.2768

> <Gold.Chemscore.Rot.Weighted>
3.6445

> <Gold.Chemscore.Internal.Correction.Weighted>
   9.000000E+99

> <Gold.Protein.RotatedTorsions>
[ 6907 6896 6895 6894 ] final  100.72 input  -60.11 | X-H torsion
[ 7974 7965 7964 7962 ] final  138.73 input  175.53 | X-H torsion
[ 8008 7997 7996 7995 ] final  -16.20 input   59.86 | X-H torsion
[ 10167 10162 10161 10158 ] final   70.31 input  -65.29 | X-H torsion
[ 10718 10713 10712 10709 ] final  -14.80 input   66.30 | X-H torsion
[ 10763 10752 10751 10750 ] final  -12.12 input  -60.55 | X-H torsion
[ 11005 11000 10999 10996 ] final   84.75 input  -57.11 | X-H torsion

> <Gold.Protein.ActiveResidues>
 VAL166  LYS551  ARG553  GLY616  TRP617  ASP618  TYR619  PRO620  LYS621  CYS622 
 ASP623  PHE694  ASN695  SER759  ASP760  ASP761  ALA762  ILE779  LEU786  VAL792 
 PHE793  MET794  SER795  GLU796  ALA797  LYS798  CYS799  TRP800  GLU811  SER814 

> <Gold.Protein.RotatedAtoms>
  152.5366  134.0234  159.7991 H   0  0  0  0  0  0  0  0  0  0  0  0  # atno 6907 bound_to 6896
  151.0416  133.5693  159.2658 H   0  0  0  0  0  0  0  0  0  0  0  0  # atno 6908 bound_to 6896
  151.2661  135.0677  159.9170 H   0  0  0  0  0  0  0  0  0  0  0  0  # atno 6909 bound_to 6896
  144.9344  139.5007  143.5602 H   0  0  0  0  0  0  0  0  0  0  0  0  # atno 7974 bound_to 7965
  154.5071  140.2176  155.9229 H   0  0  0  0  0  0  0  0  0  0  0  0  # atno 8008 bound_to 7997
  156.1507  140.3162  155.8610 H   0  0  0  0  0  0  0  0  0  0  0  0  # atno 8009 bound_to 7997
  155.3943  140.0480  157.3030 H   0  0  0  0  0  0  0  0  0  0  0  0  # atno 8010 bound_to 7997
  140.0583  144.5254  150.7312 H   0  0  0  0  0  0  0  0  0  0  0  0  # atno 10167 bound_to 10162
  156.6108  130.4849  149.6202 H   0  0  0  0  0  0  0  0  0  0  0  0  # atno 10718 bound_to 10713
  153.4938  135.7017  153.5869 H   0  0  0  0  0  0  0  0  0  0  0  0  # atno 10763 bound_to 10752
  153.4030  135.3867  155.2000 H   0  0  0  0  0  0  0  0  0  0  0  0  # atno 10764 bound_to 10752
  154.8715  135.3886  154.4401 H   0  0  0  0  0  0  0  0  0  0  0  0  # atno 10765 bound_to 10752
  139.8991  134.8238  156.2488 H   0  0  0  0  0  0  0  0  0  0  0  0  # atno 11005 bound_to 11000
  146.3260  139.8319  142.8907 LP  0  0  0  0  0  0  0  0  0  0  0  0  # atno 17320 bound_to 7965
  145.3090  141.0214  143.3565 LP  0  0  0  0  0  0  0  0  0  0  0  0  # atno 17321 bound_to 7965
  140.7184  143.2565  151.4360 LP  0  0  0  0  0  0  0  0  0  0  0  0  # atno 17342 bound_to 10162
  139.5909  144.1501  152.2087 LP  0  0  0  0  0  0  0  0  0  0  0  0  # atno 17343 bound_to 10162
  156.2392  130.6841  151.1539 LP  0  0  0  0  0  0  0  0  0  0  0  0  # atno 17370 bound_to 10713
  157.7255  131.0653  150.5951 LP  0  0  0  0  0  0  0  0  0  0  0  0  # atno 17371 bound_to 10713
  141.0237  133.7027  156.1312 LP  0  0  0  0  0  0  0  0  0  0  0  0  # atno 17394 bound_to 11000
  140.7196  134.4373  157.5576 LP  0  0  0  0  0  0  0  0  0  0  0  0  # atno 17395 bound_to 11000

$$$$
