AV-unprocessed.smi:1655|AV-procd|sdf|6644|dock4
  -GOLD-   22720 7343D 1   1.00000     0.00000
 Structure written by MMmdl.
 34 35  0  0  0  0  0  0  0  0  1 V2000
  143.9907  143.5532  162.8858 C   0  0  0  0  0  0  0  0  0  0  0  0
  144.9157  143.7278  161.7304 C   0  0  0  0  0  0  0  0  0  0  0  0
  146.1178  144.3621  161.5882 C   0  0  0  0  0  0  0  0  0  0  0  0
  146.4387  144.1376  160.2228 C   0  0  0  0  0  0  0  0  0  0  0  0
  147.6369  144.6496  159.6628 N   0  0  0  0  0  0  0  0  0  0  0  0
  148.8541  144.6942  160.2313 C   0  0  0  0  0  0  0  0  0  0  0  0
  149.1246  144.2879  161.3619 O   0  0  0  0  0  0  0  0  0  0  0  0
  149.7573  145.2421  159.4054 N   0  0  0  0  0  0  0  0  0  0  0  0
  151.1696  145.4343  159.7155 C   0  0  0  0  0  0  0  0  0  0  0  0
  152.0415  144.3283  159.0976 C   0  0  0  0  0  0  0  0  0  0  0  0
  152.2906  143.1618  160.0651 C   0  0  2  0  0  0  0  0  0  0  0  0
  152.6438  143.5965  161.4858 C   0  0  0  0  0  0  0  0  0  0  0  0
  153.4212  142.4107  162.0356 C   0  0  0  0  0  0  0  0  0  0  0  0
  153.7985  141.6002  160.7915 C   0  0  0  0  0  0  0  0  0  0  0  0
  153.4377  142.4182  159.6869 O   0  0  0  0  0  0  0  0  0  0  0  0
  145.5167  143.4282  159.5896 N   0  0  0  0  0  0  0  0  0  0  0  0
  144.5364  143.1616  160.5526 O   0  0  0  0  0  0  0  0  0  0  0  0
  144.3047  144.1637  163.7326 H   0  0  0  0  0  0  0  0  0  0  0  0
  143.9685  142.5124  163.2090 H   0  0  0  0  0  0  0  0  0  0  0  0
  142.9759  143.8459  162.6163 H   0  0  0  0  0  0  0  0  0  0  0  0
  146.6737  144.9003  162.3415 H   0  0  0  0  0  0  0  0  0  0  0  0
  147.5604  145.0170  158.7261 H   0  0  0  0  0  0  0  0  0  0  0  0
  149.4463  145.5493  158.4954 H   0  0  0  0  0  0  0  0  0  0  0  0
  151.4702  146.4064  159.3241 H   0  0  0  0  0  0  0  0  0  0  0  0
  151.3138  145.4779  160.7966 H   0  0  0  0  0  0  0  0  0  0  0  0
  151.5744  143.9527  158.1861 H   0  0  0  0  0  0  0  0  0  0  0  0
  153.0006  144.7535  158.7994 H   0  0  0  0  0  0  0  0  0  0  0  0
  151.4260  142.4956  160.0874 H   0  0  0  0  0  0  0  0  0  0  0  0
  153.2908  144.4745  161.4612 H   0  0  0  0  0  0  0  0  0  0  0  0
  151.7651  143.8427  162.0823 H   0  0  0  0  0  0  0  0  0  0  0  0
  154.3021  142.7422  162.5861 H   0  0  0  0  0  0  0  0  0  0  0  0
  152.8091  141.8116  162.7104 H   0  0  0  0  0  0  0  0  0  0  0  0
  154.8585  141.3475  160.7615 H   0  0  0  0  0  0  0  0  0  0  0  0
  153.2266  140.6721  160.7521 H   0  0  0  0  0  0  0  0  0  0  0  0
  1  2  1  0  0  0  0
  1 18  1  0  0  0  0
  1 19  1  0  0  0  0
  1 20  1  0  0  0  0
  2 17  1  0  0  0  0
  2  3  2  0  0  0  0
  3  4  1  0  0  0  0
  3 21  1  0  0  0  0
  4  5  1  0  0  0  0
  4 16  2  0  0  0  0
  5  6  1  0  0  0  0
  5 22  1  0  0  0  0
  6  7  2  0  0  0  0
  6  8  1  0  0  0  0
  8  9  1  0  0  0  0
  8 23  1  0  0  0  0
  9 10  1  0  0  0  0
  9 24  1  0  0  0  0
  9 25  1  0  0  0  0
 10 11  1  0  0  0  0
 10 26  1  0  0  0  0
 10 27  1  0  0  0  0
 11 15  1  0  0  0  0
 11 12  1  0  0  0  0
 11 28  1  0  0  0  0
 12 13  1  0  0  0  0
 12 29  1  0  0  0  0
 12 30  1  0  0  0  0
 13 14  1  0  0  0  0
 13 31  1  0  0  0  0
 13 32  1  0  0  0  0
 14 15  1  0  0  0  0
 14 33  1  0  0  0  0
 14 34  1  0  0  0  0
 16 17  1  0  0  0  0
M  END
> <s_m_source_file>
AV-unprocessed.smi

> <i_m_source_file_index>
1655

> <i_lp_mmshare_version>
43012

> <i_f3d_flags>
0

> <s_epik_input>
W0NIM11jMVtjSF1jKG5vMSlbTkhdQyg9TylbTkhdW0NIMl1bQ0gyXVtDQEBIXTJbQ0gyXVtDSDJdW0NIMl1PMg==

> <s_epik_cmdline>
J2VwaWtfcHl0aG9uJywgJy1waCcsICc3LjAnLCAnLXRuJywgJzgnLCAnLW1hJywgJzIwMCcsICctbWV0YWxfYmluZGluZycsICctaW1hZScsICc8aW5maWxlLm1hZT4nLCAnLW9tYWUnLCAnPG91dGZpbGUubWFlPic=

> <r_lp_tautomer_probability>
1

> <r_epik_Ionization_Penalty>
2.23964e-05

> <r_epik_Ionization_Penalty_Charging>
0

> <r_epik_Ionization_Penalty_Neutral>
2.23964e-05

> <r_epik_State_Penalty>
-0

> <r_epik_Charging_Adjusted_Penalty>
0

> <i_epik_Tot_Q>
0

> <i_epik_Tot_abs_Q>
0

> <r_epik_Metal_State_Penalty>
-0

> <b_epik_Metal_Only>
0

> <s_lp_Force_Field>
OPLS_2005

> <r_lp_Energy>
15.5425

> <b_lp_Chiralities_Consistent>
1

> <s_lp_Variant>
AV-unprocessed.smi:1655-1

> <Gold.Version>
5.8.1

> <Gold.Id.Protein>
6NUR|6NUR_protein|mol2

> <Gold.PLP.Fitness>
49.6946

> <Gold.PLP.PLP>
-43.6547

> <Gold.PLP.part.hbond>
-3.0000

> <Gold.PLP.part.metal>
0.0000

> <Gold.PLP.part.buried>
-8.0309

> <Gold.PLP.part.nonpolar>
-34.4961

> <Gold.PLP.part.repulsive>
0.6508

> <Gold.PLP.ligand.clash>
0.0000

> <Gold.PLP.ligand.torsion>
0.8387

> <Gold.PLP.Chemscore.Hbond>
2.5680

> <Gold.PLP.Chemscore.CHOScore>
0.0000

> <Gold.PLP.Chemscore.Metal>
0.0000

> <Gold.Chemscore.Hbonds>
donor molecule, donor type, donor heavy atom, donor atom, acceptor molecule, acceptor atom, score
      L1  H     5    22       P1  8029  1.00
      L1  H     8    23       P1  8029  0.98
      P1  H  6933  6944       L1     7  0.53

> <Gold.PLP.Chemscore.Internal.Correction>
0.0132

> <Gold.Rescore>
     Score         DG    S(hbond)    S(metal)    S(lipo)     H(rot)  DE(clash)    DE(int)     intcor
     19.82     -20.73       2.52        0.00      92.35       1.55       0.00       0.91       ----

> <Gold.Chemscore.Fitness>
19.8239

> <Gold.Chemscore.DG>
-20.7312

> <Gold.Chemscore.ZeroCoef>
-5.4800

> <Gold.Chemscore.Hbond>
2.5193

> <Gold.Chemscore.Metal>
0.0000

> <Gold.Chemscore.Lipo>
92.3535

> <Gold.Chemscore.Internal_Hbond>
0.0000

> <Gold.Chemscore.DEClash>
0.0000

> <Gold.Chemscore.DEInternal>
0.9073

> <Gold.Chemscore.Rot>
1.5503

> <Gold.Chemscore.Internal.Correction>
   9.000000E+99

> <Gold.Chemscore.Hbonds>
donor molecule, donor type, donor heavy atom, donor atom, acceptor molecule, acceptor atom, score
      L1  H     5    22       P1  8029  1.00
      L1  H     8    23       P1  8029  0.80
      P1  H  6933  6944       L1     7  0.33

> <Gold.Chemscore.Hbond.Weighted>
-8.4146

> <Gold.Chemscore.Metal.Weighted>
-0.0000

> <Gold.Chemscore.Lipo.Weighted>
-10.8054

> <Gold.Chemscore.Internal_Hbond.Weighted>
0.0000

> <Gold.Chemscore.DEClash.Weighted>
0.0000

> <Gold.Chemscore.DEInternal.Weighted>
0.9073

> <Gold.Chemscore.Rot.Weighted>
3.9687

> <Gold.Chemscore.Internal.Correction.Weighted>
   9.000000E+99

> <Gold.Protein.RotatedTorsions>
[ 6907 6896 6895 6894 ] final -178.12 input  -60.11 | X-H torsion
[ 7974 7965 7964 7962 ] final -116.76 input  175.53 | X-H torsion
[ 8008 7997 7996 7995 ] final  159.50 input   59.86 | X-H torsion
[ 10167 10162 10161 10158 ] final  -93.65 input  -65.29 | X-H torsion
[ 10718 10713 10712 10709 ] final -124.32 input   66.30 | X-H torsion
[ 10763 10752 10751 10750 ] final  -75.87 input  -60.55 | X-H torsion
[ 11005 11000 10999 10996 ] final  113.49 input  -57.11 | X-H torsion

> <Gold.Protein.ActiveResidues>
 VAL166  LYS551  ARG553  GLY616  TRP617  ASP618  TYR619  PRO620  LYS621  CYS622 
 ASP623  PHE694  ASN695  SER759  ASP760  ASP761  ALA762  ILE779  LEU786  VAL792 
 PHE793  MET794  SER795  GLU796  ALA797  LYS798  CYS799  TRP800  GLU811  SER814 

> <Gold.Protein.RotatedAtoms>
  151.6321  133.3331  159.3110 H   0  0  0  0  0  0  0  0  0  0  0  0  # atno 6907 bound_to 6896
  150.8051  134.7174  159.6648 H   0  0  0  0  0  0  0  0  0  0  0  0  # atno 6908 bound_to 6896
  152.4146  134.6069  160.0066 H   0  0  0  0  0  0  0  0  0  0  0  0  # atno 6909 bound_to 6896
  145.0930  140.8502  143.3971 H   0  0  0  0  0  0  0  0  0  0  0  0  # atno 7974 bound_to 7965
  156.2235  140.1829  156.7420 H   0  0  0  0  0  0  0  0  0  0  0  0  # atno 8008 bound_to 7997
  154.5903  140.0652  156.9257 H   0  0  0  0  0  0  0  0  0  0  0  0  # atno 8009 bound_to 7997
  155.2348  140.3317  155.4301 H   0  0  0  0  0  0  0  0  0  0  0  0  # atno 8010 bound_to 7997
  140.3225  143.3041  152.0030 H   0  0  0  0  0  0  0  0  0  0  0  0  # atno 10167 bound_to 10162
  156.1577  130.6580  151.0005 H   0  0  0  0  0  0  0  0  0  0  0  0  # atno 10718 bound_to 10713
  154.4924  135.5816  153.6469 H   0  0  0  0  0  0  0  0  0  0  0  0  # atno 10763 bound_to 10752
  152.9864  135.6116  154.3108 H   0  0  0  0  0  0  0  0  0  0  0  0  # atno 10764 bound_to 10752
  154.3009  135.2847  155.2591 H   0  0  0  0  0  0  0  0  0  0  0  0  # atno 10765 bound_to 10752
  139.8954  134.9551  156.6747 H   0  0  0  0  0  0  0  0  0  0  0  0  # atno 11005 bound_to 11000
  145.1043  139.2801  143.5670 LP  0  0  0  0  0  0  0  0  0  0  0  0  # atno 17320 bound_to 7965
  146.3531  140.0620  142.8628 LP  0  0  0  0  0  0  0  0  0  0  0  0  # atno 17321 bound_to 7965
  139.4871  144.6299  151.7090 LP  0  0  0  0  0  0  0  0  0  0  0  0  # atno 17342 bound_to 10162
  140.5470  144.0487  150.6111 LP  0  0  0  0  0  0  0  0  0  0  0  0  # atno 17343 bound_to 10162
  157.6708  131.0862  150.7617 LP  0  0  0  0  0  0  0  0  0  0  0  0  # atno 17370 bound_to 10713
  156.7681  130.4820  149.5423 LP  0  0  0  0  0  0  0  0  0  0  0  0  # atno 17371 bound_to 10713
  140.7346  133.9030  155.8235 LP  0  0  0  0  0  0  0  0  0  0  0  0  # atno 17394 bound_to 11000
  141.0126  134.0999  157.4205 LP  0  0  0  0  0  0  0  0  0  0  0  0  # atno 17395 bound_to 11000

$$$$
