AV-unprocessed.smi:1703|AV-procd|sdf|6880|dock6
  -GOLD-   22720 8 83D 1   1.00000     0.00000
 Structure written by MMmdl.
 50 52  0  0  0  0  0  0  0  0  3 V2000
  149.5858  141.5996  154.6536 C   0  0  0  0  0  0  0  0  0  0  0  0
  148.7662  140.4686  155.2998 C   0  0  1  0  0  0  0  0  0  0  0  0
  147.5335  140.0521  154.4729 C   0  0  0  0  0  0  0  0  0  0  0  0
  147.9306  139.2678  153.2771 N   0  3  2  0  0  0  0  0  0  0  0  0
  146.7852  138.8793  152.4160 C   0  0  0  0  0  0  0  0  0  0  0  0
  145.9182  137.7640  153.0413 C   0  0  1  0  0  0  0  0  0  0  0  0
  145.0361  138.3361  153.9853 O   0  0  0  0  0  0  0  0  0  0  0  0
  145.0578  137.0019  152.0139 C   0  0  0  0  0  0  0  0  0  0  0  0
  144.0472  136.1332  152.6407 N   0  0  0  0  0  0  0  0  0  0  0  0
  144.1259  134.8187  153.0008 C   0  0  0  0  0  0  0  0  0  0  0  0
  145.2932  133.9040  152.8242 C   0  0  0  0  0  0  0  0  0  0  0  0
  145.0237  132.5973  153.2823 O   0  0  0  0  0  0  0  0  0  0  0  0
  142.9248  134.4759  153.5448 N   0  3  0  0  0  0  0  0  0  0  0  0
  142.0687  135.5769  153.5348 C   0  0  0  0  0  0  0  0  0  0  0  0
  140.7561  135.7109  153.9765 C   0  0  0  0  0  0  0  0  0  0  0  0
  140.1607  136.9790  153.8165 C   0  0  0  0  0  0  0  0  0  0  0  0
  140.8663  138.0521  153.2353 C   0  0  0  0  0  0  0  0  0  0  0  0
  142.1968  137.9042  152.7909 C   0  0  0  0  0  0  0  0  0  0  0  0
  142.7814  136.6475  152.9553 C   0  0  0  0  0  0  0  0  0  0  0  0
  148.7565  138.1060  153.6777 C   0  0  0  0  0  0  0  0  0  0  0  0
  149.9899  138.5713  154.4717 C   0  0  2  0  0  0  0  0  0  0  0  0
  150.8270  137.3909  154.9764 C   0  0  0  0  0  0  0  0  0  0  0  0
  149.5665  139.3260  155.6040 O   0  0  0  0  0  0  0  0  0  0  0  0
  148.9852  142.5044  154.5570 H   0  0  0  0  0  0  0  0  0  0  0  0
  149.9399  141.3390  153.6567 H   0  0  0  0  0  0  0  0  0  0  0  0
  150.4549  141.8469  155.2638 H   0  0  0  0  0  0  0  0  0  0  0  0
  148.4089  140.8483  156.2574 H   0  0  0  0  0  0  0  0  0  0  0  0
  146.8708  139.4449  155.0916 H   0  0  0  0  0  0  0  0  0  0  0  0
  146.9674  140.9386  154.1885 H   0  0  0  0  0  0  0  0  0  0  0  0
  146.1487  139.7458  152.2286 H   0  0  0  0  0  0  0  0  0  0  0  0
  147.1758  138.5768  151.4438 H   0  0  0  0  0  0  0  0  0  0  0  0
  146.5434  137.0428  153.5652 H   0  0  0  0  0  0  0  0  0  0  0  0
  144.7101  139.1553  153.6459 H   0  0  0  0  0  0  0  0  0  0  0  0
  144.5238  137.7081  151.3772 H   0  0  0  0  0  0  0  0  0  0  0  0
  145.6815  136.4129  151.3424 H   0  0  0  0  0  0  0  0  0  0  0  0
  145.5767  133.8648  151.7726 H   0  0  0  0  0  0  0  0  0  0  0  0
  146.1490  134.3003  153.3714 H   0  0  0  0  0  0  0  0  0  0  0  0
  144.1468  132.5788  153.6356 H   0  0  0  0  0  0  0  0  0  0  0  0
  140.2130  134.8894  154.4207 H   0  0  0  0  0  0  0  0  0  0  0  0
  139.1427  137.1312  154.1451 H   0  0  0  0  0  0  0  0  0  0  0  0
  140.3766  139.0094  153.1280 H   0  0  0  0  0  0  0  0  0  0  0  0
  142.7198  138.7372  152.3459 H   0  0  0  0  0  0  0  0  0  0  0  0
  148.1544  137.4188  154.2750 H   0  0  0  0  0  0  0  0  0  0  0  0
  149.0804  137.5605  152.7902 H   0  0  0  0  0  0  0  0  0  0  0  0
  150.6251  139.1870  153.8346 H   0  0  0  0  0  0  0  0  0  0  0  0
  151.1821  136.7777  154.1476 H   0  0  0  0  0  0  0  0  0  0  0  0
  150.2477  136.7509  155.6426 H   0  0  0  0  0  0  0  0  0  0  0  0
  151.7004  137.7407  155.5274 H   0  0  0  0  0  0  0  0  0  0  0  0
  148.5282  139.8573  152.7155 H   0  0  0  0  0  0  0  0  0  0  0  0
  142.7087  133.5516  153.8962 H   0  0  0  0  0  0  0  0  0  0  0  0
  1  2  1  0  0  0  0
  1 24  1  0  0  0  0
  1 25  1  0  0  0  0
  1 26  1  0  0  0  0
  2 23  1  0  0  0  0
  2  3  1  0  0  0  0
  2 27  1  0  0  0  0
  3  4  1  0  0  0  0
  3 28  1  0  0  0  0
  3 29  1  0  0  0  0
  4  5  1  0  0  0  0
  4 20  1  0  0  0  0
  4 49  1  0  0  0  0
  5  6  1  0  0  0  0
  5 30  1  0  0  0  0
  5 31  1  0  0  0  0
  6  7  1  0  0  0  0
  6  8  1  0  0  0  0
  6 32  1  0  0  0  0
  7 33  1  0  0  0  0
  8  9  1  0  0  0  0
  8 34  1  0  0  0  0
  8 35  1  0  0  0  0
  9 19  1  0  0  0  0
  9 10  1  0  0  0  0
 10 11  1  0  0  0  0
 10 13  2  0  0  0  0
 11 12  1  0  0  0  0
 11 36  1  0  0  0  0
 11 37  1  0  0  0  0
 12 38  1  0  0  0  0
 13 14  1  0  0  0  0
 13 50  1  0  0  0  0
 14 19  2  0  0  0  0
 14 15  1  0  0  0  0
 15 16  2  0  0  0  0
 15 39  1  0  0  0  0
 16 17  1  0  0  0  0
 16 40  1  0  0  0  0
 17 18  2  0  0  0  0
 17 41  1  0  0  0  0
 18 19  1  0  0  0  0
 18 42  1  0  0  0  0
 20 21  1  0  0  0  0
 20 43  1  0  0  0  0
 20 44  1  0  0  0  0
 21 22  1  0  0  0  0
 21 23  1  0  0  0  0
 21 45  1  0  0  0  0
 22 46  1  0  0  0  0
 22 47  1  0  0  0  0
 22 48  1  0  0  0  0
M  CHG  1   4   1
M  CHG  1  13   1
M  END
> <s_m_source_file>
AV-unprocessed.smi

> <i_m_source_file_index>
1703

> <i_lp_mmshare_version>
43012

> <i_f3d_flags>
0

> <s_epik_input>
W0NIM11bQ0BASF0xW0NIMl1OKFtDSDJdW0NASF0oTzEpW0NIM10pW0NIMl1bQ0BIXShbT0hdKVtDSDJdbihjKG4yKVtDSDJdW09IXSljKGMyMylbY0hdW2NIXVtjSF1bY0hdMw==

> <s_epik_cmdline>
J2VwaWtfcHl0aG9uJywgJy1waCcsICc3LjAnLCAnLXRuJywgJzgnLCAnLW1hJywgJzIwMCcsICctbWV0YWxfYmluZGluZycsICctaW1hZScsICc8aW5maWxlLm1hZT4nLCAnLW9tYWUnLCAnPG91dGZpbGUubWFlPic=

> <r_epik_Ionization_Penalty>
2.22579

> <r_epik_Ionization_Penalty_Charging>
2.22492

> <r_epik_Ionization_Penalty_Neutral>
0.000870007

> <r_epik_State_Penalty>
2.3141

> <r_epik_Charging_Adjusted_Penalty>
4.53902

> <i_epik_Tot_Q>
2

> <i_epik_Tot_abs_Q>
2

> <r_epik_Metal_State_Penalty>
6.36517

> <b_epik_Metal_Only>
0

> <s_lp_Force_Field>
OPLS_2005

> <r_lp_Energy>
31.7221

> <b_lp_Chiralities_Consistent>
1

> <s_lp_Variant>
AV-unprocessed.smi:1703-28

> <Gold.Version>
5.8.1

> <Gold.Id.Protein>
6NUR|6NUR_protein|mol2

> <Gold.PLP.Fitness>
44.6208

> <Gold.PLP.PLP>
-31.3830

> <Gold.PLP.part.hbond>
-4.0000

> <Gold.PLP.part.metal>
0.0000

> <Gold.PLP.part.buried>
3.5934

> <Gold.PLP.part.nonpolar>
-30.6859

> <Gold.PLP.part.repulsive>
0.0768

> <Gold.PLP.ligand.clash>
0.0231

> <Gold.PLP.ligand.torsion>
0.6945

> <Gold.PLP.Chemscore.Hbond>
4.8708

> <Gold.PLP.Chemscore.CHOScore>
0.0000

> <Gold.PLP.Chemscore.Metal>
0.0000

> <Gold.Chemscore.Hbonds>
donor molecule, donor type, donor heavy atom, donor atom, acceptor molecule, acceptor atom, score
      L1  H     4    49       P1  7957  0.94
      L1  H     7    33       P1 10175  0.99
      L1  H    12    38       P1 10957  0.99
      L1  H    13    50       P1 10957  2.00

> <Gold.PLP.Chemscore.Internal.Correction>
0.0378

> <Gold.Rescore>
     Score         DG    S(hbond)    S(metal)    S(lipo)     H(rot)  DE(clash)    DE(int)     intcor
     16.77     -20.18       3.61        0.00      88.93       3.04       1.51       1.90       ----

> <Gold.Chemscore.Fitness>
16.7668

> <Gold.Chemscore.DG>
-20.1792

> <Gold.Chemscore.ZeroCoef>
-5.4800

> <Gold.Chemscore.Hbond>
3.6142

> <Gold.Chemscore.Metal>
0.0000

> <Gold.Chemscore.Lipo>
88.9259

> <Gold.Chemscore.Internal_Hbond>
0.0000

> <Gold.Chemscore.DEClash>
1.5099

> <Gold.Chemscore.DEInternal>
1.9025

> <Gold.Chemscore.Rot>
3.0378

> <Gold.Chemscore.Internal.Correction>
   9.000000E+99

> <Gold.Chemscore.Hbonds>
donor molecule, donor type, donor heavy atom, donor atom, acceptor molecule, acceptor atom, score
      L1  H     4    49       P1  7957  0.91
      L1  H     7    33       P1 10175  0.92
      L1  H    12    38       P1 10957  0.40
      L1  H    13    50       P1 10957  0.97

> <Gold.Chemscore.Hbond.Weighted>
-12.0716

> <Gold.Chemscore.Metal.Weighted>
-0.0000

> <Gold.Chemscore.Lipo.Weighted>
-10.4043

> <Gold.Chemscore.Internal_Hbond.Weighted>
0.0000

> <Gold.Chemscore.DEClash.Weighted>
1.5099

> <Gold.Chemscore.DEInternal.Weighted>
1.9025

> <Gold.Chemscore.Rot.Weighted>
7.7767

> <Gold.Chemscore.Internal.Correction.Weighted>
   9.000000E+99

> <Gold.Protein.RotatedTorsions>
[ 6907 6896 6895 6894 ] final  126.05 input  -60.11 | X-H torsion
[ 7974 7965 7964 7962 ] final -154.24 input  175.53 | X-H torsion
[ 8008 7997 7996 7995 ] final  -22.68 input   59.86 | X-H torsion
[ 10167 10162 10161 10158 ] final  178.04 input  -65.29 | X-H torsion
[ 10718 10713 10712 10709 ] final  114.26 input   66.30 | X-H torsion
[ 10763 10752 10751 10750 ] final -179.02 input  -60.55 | X-H torsion
[ 11005 11000 10999 10996 ] final -107.07 input  -57.11 | X-H torsion

> <Gold.Protein.ActiveResidues>
 VAL166  LYS551  ARG553  GLY616  TRP617  ASP618  TYR619  PRO620  LYS621  CYS622 
 ASP623  PHE694  ASN695  SER759  ASP760  ASP761  ALA762  ILE779  LEU786  VAL792 
 PHE793  MET794  SER795  GLU796  ALA797  LYS798  CYS799  TRP800  GLU811  SER814 

> <Gold.Protein.RotatedAtoms>
  152.3938  133.6717  159.6259 H   0  0  0  0  0  0  0  0  0  0  0  0  # atno 6907 bound_to 6896
  150.7841  133.8909  159.3322 H   0  0  0  0  0  0  0  0  0  0  0  0  # atno 6908 bound_to 6896
  151.6690  135.0980  160.0245 H   0  0  0  0  0  0  0  0  0  0  0  0  # atno 6909 bound_to 6896
  144.7699  140.4415  143.5915 H   0  0  0  0  0  0  0  0  0  0  0  0  # atno 7974 bound_to 7965
  154.4629  140.2001  156.0195 H   0  0  0  0  0  0  0  0  0  0  0  0  # atno 8008 bound_to 7997
  156.0874  140.3263  155.7743 H   0  0  0  0  0  0  0  0  0  0  0  0  # atno 8009 bound_to 7997
  155.5012  140.0554  157.2929 H   0  0  0  0  0  0  0  0  0  0  0  0  # atno 8010 bound_to 7997
  139.5277  144.2727  152.0614 H   0  0  0  0  0  0  0  0  0  0  0  0  # atno 10167 bound_to 10162
  157.6291  131.0996  150.7160 H   0  0  0  0  0  0  0  0  0  0  0  0  # atno 10718 bound_to 10713
  154.5404  135.2805  155.1101 H   0  0  0  0  0  0  0  0  0  0  0  0  # atno 10763 bound_to 10752
  154.2586  135.6326  153.5270 H   0  0  0  0  0  0  0  0  0  0  0  0  # atno 10764 bound_to 10752
  152.9977  135.5600  154.5941 H   0  0  0  0  0  0  0  0  0  0  0  0  # atno 10765 bound_to 10752
  141.0973  133.8949  157.1932 H   0  0  0  0  0  0  0  0  0  0  0  0  # atno 11005 bound_to 11000
  145.6355  139.1542  143.2945 LP  0  0  0  0  0  0  0  0  0  0  0  0  # atno 17320 bound_to 7965
  146.1837  140.6456  142.9177 LP  0  0  0  0  0  0  0  0  0  0  0  0  # atno 17321 bound_to 7965
  140.2186  144.4489  150.6352 LP  0  0  0  0  0  0  0  0  0  0  0  0  # atno 17342 bound_to 10162
  140.6433  143.2208  151.6241 LP  0  0  0  0  0  0  0  0  0  0  0  0  # atno 17343 bound_to 10162
  156.7503  130.4766  149.5458 LP  0  0  0  0  0  0  0  0  0  0  0  0  # atno 17370 bound_to 10713
  156.1483  130.6292  151.0561 LP  0  0  0  0  0  0  0  0  0  0  0  0  # atno 17371 bound_to 10713
  139.9813  135.0097  156.9756 LP  0  0  0  0  0  0  0  0  0  0  0  0  # atno 17394 bound_to 11000
  140.5110  134.1002  155.7270 LP  0  0  0  0  0  0  0  0  0  0  0  0  # atno 17395 bound_to 11000

$$$$
