AV-unprocessed.smi:265|AV-procd|sdf|2020|dock3
  -GOLD-   2262021223D 1   1.00000     0.00000
 Structure written by MMmdl.
 52 56  0  0  0  0  0  0  0  0  1 V2000
  143.7457  132.9620  148.2672 C   0  0  0  0  0  0  0  0  0  0  0  0
  143.5813  132.8400  149.7918 C   0  0  1  0  0  0  0  0  0  0  0  0
  143.8432  131.4762  150.1274 O   0  0  0  0  0  0  0  0  0  0  0  0
  144.7569  131.3999  151.2111 C   0  0  0  0  0  0  0  0  0  0  0  0
  145.5971  132.6575  151.0576 C   0  0  0  0  0  0  0  0  0  0  0  0
  144.5545  133.6925  150.6475 C   0  0  1  0  0  0  0  0  0  0  0  0
  145.1937  134.7127  149.9004 O   0  0  0  0  0  0  0  0  0  0  0  0
  143.8126  134.3518  151.8418 C   0  0  0  0  0  0  0  0  0  0  0  0
  144.6210  135.2872  152.6099 N   0  0  0  0  0  0  0  0  0  0  0  0
  144.5197  136.6602  152.5994 C   0  0  0  0  0  0  0  0  0  0  0  0
  145.3602  137.2869  153.3762 N   0  0  0  0  0  0  0  0  0  0  0  0
  146.1135  136.2705  153.9520 C   0  0  0  0  0  0  0  0  0  0  0  0
  147.1907  136.2407  154.8825 C   0  0  0  0  0  0  0  0  0  0  0  0
  147.7348  137.3671  155.4093 N   0  0  0  0  0  0  0  0  0  0  0  0
  147.6408  137.5542  156.8571 C   0  0  0  0  0  0  0  0  0  0  0  0
  147.9317  139.0141  157.2367 C   0  0  0  0  0  0  0  0  0  0  0  0
  149.2743  139.4972  156.6644 C   0  0  1  0  0  0  0  0  0  0  0  0
  150.3527  138.8269  157.3043 O   0  0  0  0  0  0  0  0  0  0  0  0
  151.6383  139.3471  156.9610 C   0  0  0  0  0  0  0  0  0  0  0  0
  151.8222  139.4965  155.4392 C   0  0  0  0  0  0  0  0  0  0  0  0
  152.9481  139.6461  154.9697 O   0  0  0  0  0  0  0  0  0  0  0  0
  150.7237  139.5012  154.6668 N   0  0  0  0  0  0  0  0  0  0  0  0
  149.3783  139.2100  155.1506 C   0  0  1  0  0  0  0  0  0  0  0  0
  149.0204  137.7456  154.8258 C   0  0  0  0  0  0  0  0  0  0  0  0
  147.6776  135.0207  155.2353 N   0  0  0  0  0  0  0  0  0  0  0  0
  147.1582  133.9078  154.7089 C   0  0  0  0  0  0  0  0  0  0  0  0
  146.1625  133.7874  153.8293 N   0  0  0  0  0  0  0  0  0  0  0  0
  145.6608  135.0060  153.4794 C   0  0  0  0  0  0  0  0  0  0  0  0
  149.3659  140.5688  156.8529 H   0  0  0  0  0  0  0  0  0  0  0  0
  148.6832  139.8631  154.6214 H   0  0  0  0  0  0  0  0  0  0  0  0
  143.5188  133.9713  147.9228 H   0  0  0  0  0  0  0  0  0  0  0  0
  143.0695  132.2813  147.7495 H   0  0  0  0  0  0  0  0  0  0  0  0
  144.7622  132.7183  147.9558 H   0  0  0  0  0  0  0  0  0  0  0  0
  142.5461  133.0690  150.0480 H   0  0  0  0  0  0  0  0  0  0  0  0
  144.2082  131.4080  152.1536 H   0  0  0  0  0  0  0  0  0  0  0  0
  145.3516  130.4875  151.1688 H   0  0  0  0  0  0  0  0  0  0  0  0
  146.1644  132.9076  151.9530 H   0  0  0  0  0  0  0  0  0  0  0  0
  146.3163  132.5030  150.2511 H   0  0  0  0  0  0  0  0  0  0  0  0
  145.4131  134.3685  149.0480 H   0  0  0  0  0  0  0  0  0  0  0  0
  142.9263  134.8795  151.4867 H   0  0  0  0  0  0  0  0  0  0  0  0
  143.4481  133.5869  152.5283 H   0  0  0  0  0  0  0  0  0  0  0  0
  143.7903  137.1855  152.0000 H   0  0  0  0  0  0  0  0  0  0  0  0
  146.6443  137.2824  157.2082 H   0  0  0  0  0  0  0  0  0  0  0  0
  148.3502  136.8907  157.3542 H   0  0  0  0  0  0  0  0  0  0  0  0
  147.1315  139.6474  156.8515 H   0  0  0  0  0  0  0  0  0  0  0  0
  147.9212  139.1297  158.3208 H   0  0  0  0  0  0  0  0  0  0  0  0
  151.7710  140.3229  157.4298 H   0  0  0  0  0  0  0  0  0  0  0  0
  152.4074  138.6875  157.3633 H   0  0  0  0  0  0  0  0  0  0  0  0
  150.8383  139.6383  153.6732 H   0  0  0  0  0  0  0  0  0  0  0  0
  149.7845  137.0767  155.2248 H   0  0  0  0  0  0  0  0  0  0  0  0
  149.0240  137.6062  153.7452 H   0  0  0  0  0  0  0  0  0  0  0  0
  147.6047  132.9816  155.0396 H   0  0  0  0  0  0  0  0  0  0  0  0
  1  2  1  0  0  0  0
  1 31  1  0  0  0  0
  1 32  1  0  0  0  0
  1 33  1  0  0  0  0
  2  6  1  0  0  0  0
  2  3  1  0  0  0  0
  2 34  1  0  0  0  0
  3  4  1  0  0  0  0
  4  5  1  0  0  0  0
  4 35  1  0  0  0  0
  4 36  1  0  0  0  0
  5  6  1  0  0  0  0
  5 37  1  0  0  0  0
  5 38  1  0  0  0  0
  6  7  1  0  0  0  0
  6  8  1  0  0  0  0
  7 39  1  0  0  0  0
  8  9  1  0  0  0  0
  8 40  1  0  0  0  0
  8 41  1  0  0  0  0
  9 28  1  0  0  0  0
  9 10  1  0  0  0  0
 10 11  2  0  0  0  0
 10 42  1  0  0  0  0
 11 12  1  0  0  0  0
 12 28  2  0  0  0  0
 12 13  1  0  0  0  0
 13 14  1  0  0  0  0
 13 25  2  0  0  0  0
 14 24  1  0  0  0  0
 14 15  1  0  0  0  0
 15 16  1  0  0  0  0
 15 43  1  0  0  0  0
 15 44  1  0  0  0  0
 16 17  1  0  0  0  0
 16 45  1  0  0  0  0
 16 46  1  0  0  0  0
 17 29  1  0  0  0  0
 17 23  1  0  0  0  0
 17 18  1  0  0  0  0
 18 19  1  0  0  0  0
 19 20  1  0  0  0  0
 19 47  1  0  0  0  0
 19 48  1  0  0  0  0
 20 21  2  0  0  0  0
 20 22  1  0  0  0  0
 22 23  1  0  0  0  0
 22 49  1  0  0  0  0
 23 30  1  0  0  0  0
 23 24  1  0  0  0  0
 24 50  1  0  0  0  0
 24 51  1  0  0  0  0
 25 26  1  0  0  0  0
 26 27  2  0  0  0  0
 26 52  1  0  0  0  0
 27 28  1  0  0  0  0
M  END
> <s_m_source_file>
AV-unprocessed.smi

> <i_m_source_file_index>
265

> <i_lp_mmshare_version>
43012

> <i_f3d_flags>
0

> <s_epik_input>
W0NIMl0xW0NIMl1PW0NAQEhdKFtDSDNdKVtDQEBdMShbT0hdKVtDSDJdbihbY0hdbjIpYyhjMjMpbltjSF1uYzNOKFtDSDJdW0NIMl00KVtDSDJdW0NAQEhdKFtDQEhdNDUpW05IXUMoPU8pW0NIMl1PNQ==

> <s_epik_cmdline>
J2VwaWtfcHl0aG9uJywgJy1waCcsICc3LjAnLCAnLXRuJywgJzgnLCAnLW1hJywgJzIwMCcsICctbWV0YWxfYmluZGluZycsICctaW1hZScsICc8aW5maWxlLm1hZT4nLCAnLW9tYWUnLCAnPG91dGZpbGUubWFlPic=

> <r_lp_tautomer_probability>
1

> <r_epik_Ionization_Penalty>
0.00221504

> <r_epik_Ionization_Penalty_Charging>
0

> <r_epik_Ionization_Penalty_Neutral>
0.00221504

> <r_epik_State_Penalty>
-0

> <r_epik_Charging_Adjusted_Penalty>
0

> <i_epik_Tot_Q>
0

> <i_epik_Tot_abs_Q>
0

> <r_epik_Metal_State_Penalty>
-0

> <b_epik_Metal_Only>
0

> <s_lp_Force_Field>
OPLS_2005

> <r_lp_Energy>
44.9484

> <b_lp_Chiralities_Consistent>
1

> <s_lp_Variant>
AV-unprocessed.smi:265-6

> <Gold.Version>
5.8.1

> <Gold.Id.Protein>
6NUR|6NUR_protein|mol2

> <Gold.PLP.Fitness>
42.6388

> <Gold.PLP.PLP>
-32.7066

> <Gold.PLP.part.hbond>
-3.6988

> <Gold.PLP.part.metal>
0.0000

> <Gold.PLP.part.buried>
-4.8808

> <Gold.PLP.part.nonpolar>
-25.1027

> <Gold.PLP.part.repulsive>
1.4213

> <Gold.PLP.ligand.clash>
0.0000

> <Gold.PLP.ligand.torsion>
0.4479

> <Gold.PLP.Chemscore.Hbond>
2.4848

> <Gold.PLP.Chemscore.CHOScore>
1.0000

> <Gold.PLP.Chemscore.Metal>
0.0000

> <Gold.Chemscore.Hbonds>
donor molecule, donor type, donor heavy atom, donor atom, acceptor molecule, acceptor atom, score
      L1  H     7    39       P1  7921  0.82
      P1  H  7997  8010       L1    21  1.00
      P1  H 10785 10796       L1     3  0.77
      L1  C    10    42       P1 10171  0.85

> <Gold.PLP.Chemscore.Internal.Correction>
0.3737

> <Gold.Rescore>
     Score         DG    S(hbond)    S(metal)    S(lipo)     H(rot)  DE(clash)    DE(int)     intcor
     15.75     -16.70       2.62        0.00      70.20       2.25       0.39       0.56       ----

> <Gold.Chemscore.Fitness>
15.7536

> <Gold.Chemscore.DG>
-16.6994

> <Gold.Chemscore.ZeroCoef>
-5.4800

> <Gold.Chemscore.Hbond>
2.6211

> <Gold.Chemscore.Metal>
0.0000

> <Gold.Chemscore.Lipo>
70.1963

> <Gold.Chemscore.Internal_Hbond>
0.0000

> <Gold.Chemscore.DEClash>
0.3884

> <Gold.Chemscore.DEInternal>
0.5574

> <Gold.Chemscore.Rot>
2.2453

> <Gold.Chemscore.Internal.Correction>
   9.000000E+99

> <Gold.Chemscore.Hbonds>
donor molecule, donor type, donor heavy atom, donor atom, acceptor molecule, acceptor atom, score
      L1  H     7    39       P1  7921  0.79
      P1  H  7997  8010       L1    21  1.00
      P1  H 10785 10796       L1     3  0.65

> <Gold.Chemscore.Hbond.Weighted>
-8.7543

> <Gold.Chemscore.Metal.Weighted>
-0.0000

> <Gold.Chemscore.Lipo.Weighted>
-8.2130

> <Gold.Chemscore.Internal_Hbond.Weighted>
0.0000

> <Gold.Chemscore.DEClash.Weighted>
0.3884

> <Gold.Chemscore.DEInternal.Weighted>
0.5574

> <Gold.Chemscore.Rot.Weighted>
5.7479

> <Gold.Chemscore.Internal.Correction.Weighted>
   9.000000E+99

> <Gold.Protein.RotatedTorsions>
[ 6907 6896 6895 6894 ] final   59.59 input  -60.11 | X-H torsion
[ 7974 7965 7964 7962 ] final  115.33 input  175.53 | X-H torsion
[ 8008 7997 7996 7995 ] final   98.78 input   59.86 | X-H torsion
[ 10167 10162 10161 10158 ] final  -56.29 input  -65.29 | X-H torsion
[ 10718 10713 10712 10709 ] final  -80.30 input   66.30 | X-H torsion
[ 10763 10752 10751 10750 ] final -106.04 input  -60.55 | X-H torsion
[ 11005 11000 10999 10996 ] final  -12.30 input  -57.11 | X-H torsion

> <Gold.Protein.ActiveResidues>
 VAL166  LYS551  ARG553  GLY616  TRP617  ASP618  TYR619  PRO620  LYS621  CYS622 
 ASP623  PHE694  ASN695  SER759  ASP760  ASP761  ALA762  ILE779  LEU786  VAL792 
 PHE793  MET794  SER795  GLU796  ALA797  LYS798  CYS799  TRP800  GLU811  SER814 

> <Gold.Protein.RotatedAtoms>
  152.3928  134.6414  160.0100 H   0  0  0  0  0  0  0  0  0  0  0  0  # atno 6907 bound_to 6896
  151.6642  133.3310  159.3189 H   0  0  0  0  0  0  0  0  0  0  0  0  # atno 6908 bound_to 6896
  150.7841  134.6854  159.6512 H   0  0  0  0  0  0  0  0  0  0  0  0  # atno 6909 bound_to 6896
  145.1933  139.2989  143.4356 H   0  0  0  0  0  0  0  0  0  0  0  0  # atno 7974 bound_to 7965
  156.1039  140.3238  155.7980 H   0  0  0  0  0  0  0  0  0  0  0  0  # atno 8008 bound_to 7997
  155.4789  140.0552  157.2987 H   0  0  0  0  0  0  0  0  0  0  0  0  # atno 8009 bound_to 7997
  154.4715  140.2013  155.9998 H   0  0  0  0  0  0  0  0  0  0  0  0  # atno 8010 bound_to 7997
  140.6326  143.2466  151.5202 H   0  0  0  0  0  0  0  0  0  0  0  0  # atno 10167 bound_to 10162
  156.0073  130.4570  150.3780 H   0  0  0  0  0  0  0  0  0  0  0  0  # atno 10718 bound_to 10713
  154.7986  135.4726  154.0221 H   0  0  0  0  0  0  0  0  0  0  0  0  # atno 10763 bound_to 10752
  153.1744  135.6830  153.8570 H   0  0  0  0  0  0  0  0  0  0  0  0  # atno 10764 bound_to 10752
  153.8141  135.3213  155.3381 H   0  0  0  0  0  0  0  0  0  0  0  0  # atno 10765 bound_to 10752
  140.7642  133.8490  155.9151 H   0  0  0  0  0  0  0  0  0  0  0  0  # atno 11005 bound_to 11000
  146.3432  140.2153  142.8590 LP  0  0  0  0  0  0  0  0  0  0  0  0  # atno 17320 bound_to 7965
  145.0019  140.8639  143.5276 LP  0  0  0  0  0  0  0  0  0  0  0  0  # atno 17321 bound_to 7965
  139.5539  144.2326  152.1578 LP  0  0  0  0  0  0  0  0  0  0  0  0  # atno 17342 bound_to 10162
  140.1574  144.5058  150.6652 LP  0  0  0  0  0  0  0  0  0  0  0  0  # atno 17343 bound_to 10162
  157.1861  131.0404  151.2724 LP  0  0  0  0  0  0  0  0  0  0  0  0  # atno 17370 bound_to 10713
  157.4102  130.7381  149.6833 LP  0  0  0  0  0  0  0  0  0  0  0  0  # atno 17371 bound_to 10713
  140.9634  134.1625  157.4635 LP  0  0  0  0  0  0  0  0  0  0  0  0  # atno 17394 bound_to 11000
  139.8766  134.9953  156.5736 LP  0  0  0  0  0  0  0  0  0  0  0  0  # atno 17395 bound_to 11000

$$$$
