#       Name:                AV-unprocessed.smi:1134
#       Creating user name   scv26
#       Creation time:       Fri Mar 27 03:42:50 2020


#       File generated by GOLD software.
#

@<TRIPOS>MOLECULE
AV-unprocessed.smi:1134
    45    46     1
SMALL
NO_CHARGES


@<TRIPOS>ATOM
      1 ****         0.7696   2.5053   1.5030 O.2            1 S1                 0.0000
      2 ****         0.9437   1.7732   0.5297 C.2            1 S1                 0.0000
      3 ****         2.3284   1.7437  -0.1409 C.3            1 S1                 0.0000
      4 ****         2.4411   0.8412  -1.3013 N.am           1 S1                 0.0000
      5 ****         2.8886  -0.4700  -1.0458 C.2            1 S1                 0.0000
      6 ****         3.0268  -1.3834  -2.0266 C.2            1 S1                 0.0000
      7 ****         3.4802  -2.7274  -1.7440 N.pl3          1 S1                 1.0000
      8 ****         3.6147  -3.5113  -2.6780 O.2            1 S1                 0.0000
      9 ****         3.7160  -3.0441  -0.5818 O.2            1 S1                -1.0000
     10 ****         2.6998  -0.9749  -3.3790 C.2            1 S1                 0.0000
     11 ****         2.2673   0.2765  -3.6295 C.2            1 S1                 0.0000
     12 ****         2.1111   1.2669  -2.5592 C.2            1 S1                 0.0000
     13 ****         1.7023   2.4067  -2.7792 O.2            1 S1                 0.0000
     14 ****        -0.0267   0.9896   0.0289 N.am           1 S1                 0.0000
     15 ****        -1.3826   0.8929   0.5523 C.3            1 S1                 0.0000
     16 ****        -1.4521  -0.0678   1.7531 C.3            1 S1                 0.0000
     17 ****        -2.8287  -0.2097   2.2427 N.am           1 S1                 0.0000
     18 ****        -3.6850  -1.1400   1.7616 C.2            1 S1                 0.0000
     19 ****        -3.4130  -1.9579   0.8829 O.2            1 S1                 0.0000
     20 ****        -5.0796  -1.1080   2.3988 C.3            1 S1                 0.0000
     21 ****        -5.0166   0.2426   3.5792 S.3            1 S1                 0.0000
     22 ****        -3.3566   0.5943   3.1810 C.2            1 S1                 0.0000
     23 ****        -2.7552   1.5157   3.7323 O.2            1 S1                 0.0000
     24 ****         2.5949   2.7638  -0.4231 H              1 S1                 0.0000
     25 ****         3.0624   1.4658   0.6170 H              1 S1                 0.0000
     26 ****         3.0998  -0.6755  -0.0061 H              1 S1                 0.0000
     27 ****         2.7982  -1.6693  -4.2004 H              1 S1                 0.0000
     28 ****         2.0288   0.5592  -4.6444 H              1 S1                 0.0000
     29 ****         0.1925   0.4165  -0.7729 H              1 S1                 0.0000
     30 ****        -1.7527   1.8824   0.8261 H              1 S1                 0.0000
     31 ****        -2.0249   0.5333  -0.2521 H              1 S1                 0.0000
     32 ****        -1.0516  -1.0433   1.4710 H              1 S1                 0.0000
     33 ****        -0.8022   0.2861   2.5554 H              1 S1                 0.0000
     34 ****        -5.8451  -0.9235   1.6450 H              1 S1                 0.0000
     35 ****        -5.2950  -2.0496   2.9041 H              1 S1                 0.0000
     36 ****         1.5215   3.0685   1.8459 LP             1 S1                 0.0000
     37 ****        -0.1237   2.5371   1.9513 LP             1 S1                 0.0000
     38 ****         3.4121  -3.2161  -3.6117 LP             1 S1                 0.0000
     39 ****         3.9270  -4.4455  -2.5057 LP             1 S1                 0.0000
     40 ****         1.6020   3.0561  -2.0254 LP             1 S1                 0.0000
     41 ****         1.4705   2.6834  -3.7118 LP             1 S1                 0.0000
     42 ****        -2.5017  -1.9649   0.4712 LP             1 S1                 0.0000
     43 ****        -4.1032  -2.6153   0.5808 LP             1 S1                 0.0000
     44 ****        -1.8045   1.7084   3.4893 LP             1 S1                 0.0000
     45 ****        -3.2172   2.0717   4.4233 LP             1 S1                 0.0000
@<TRIPOS>BOND
    1    1    2 2     
    2    2    3 1     
    3    2   14 am    
    4    3    4 1     
    5    3   24 1     
    6    3   25 1     
    7    4   12 am    
    8    4    5 1     
    9    5    6 2     
   10    5   26 1     
   11    6    7 1     
   12    6   10 1     
   13    7    8 2     
   14    7    9 1     
   15   10   11 2     
   16   10   27 1     
   17   11   12 1     
   18   11   28 1     
   19   12   13 2     
   20   14   15 1     
   21   14   29 1     
   22   15   16 1     
   23   15   30 1     
   24   15   31 1     
   25   16   17 1     
   26   16   32 1     
   27   16   33 1     
   28   17   22 am    
   29   17   18 am    
   30   18   19 2     
   31   18   20 1     
   32   20   21 1     
   33   20   34 1     
   34   20   35 1     
   35   21   22 1     
   36   22   23 2     
   37    1   36 1     
   38    1   37 1     
   39    8   38 1     
   40    8   39 1     
   41   13   40 1     
   42   13   41 1     
   43   19   42 1     
   44   19   43 1     
   45   23   44 1     
   46   23   45 1     
@<TRIPOS>SUBSTRUCTURE
      1 S1             1
@<TRIPOS>SET
LONE_PAIRS      STATIC     ATOMS    <user>   **** ""
11 36 37 38 39 9 40 41 42 43 44 45
DONOR_HYDROGENS      STATIC     ATOMS    <user>   **** ""
1 29
ATOM$BLUE        STATIC     ATOMS    COLORGROUP SYSTEM
11 36 37 38 39 9 40 41 42 43 44 45
ATOM$RED        STATIC     ATOMS    COLORGROUP SYSTEM
1 29
