#       Name:                AV-unprocessed.smi:2013
#       Creating user name   scv26
#       Creation time:       Fri Mar 27 10:40:38 2020


#       File generated by GOLD software.
#

@<TRIPOS>MOLECULE
AV-unprocessed.smi:2013
    59    60     1
SMALL
NO_CHARGES


@<TRIPOS>ATOM
      1 ****        -0.7059   2.4058   1.8133 C.3            1 S1                 0.0000
      2 ****        -1.0488   1.1948   0.9222 C.3            1 S1                 0.0000
      3 ****        -2.5475   1.1655   0.5765 C.3            1 S1                 0.0000
      4 ****        -0.5159  -0.1978   1.3904 C.3            1 S1                 0.0000
      5 ****         1.0015  -0.2062   1.7358 C.3            1 S1                 0.0000
      6 ****         1.8231   0.3663   0.6747 N.am           1 S1                 0.0000
      7 ****         2.1151  -0.2427  -0.4840 C.2            1 S1                 0.0000
      8 ****         1.7644  -1.3929  -0.7506 O.2            1 S1                 0.0000
      9 ****         2.9347   0.5727  -1.4914 C.3            1 S1                 0.0000
     10 ****         2.4777   0.3722  -2.8720 N.am           1 S1                 0.0000
     11 ****         3.1750  -0.4779  -3.7108 C.2            1 S1                 0.0000
     12 ****         2.8065  -0.7339  -4.9851 C.2            1 S1                 0.0000
     13 ****         1.6220  -0.1100  -5.5627 C.2            1 S1                 0.0000
     14 ****         1.2442  -0.3292  -6.7141 O.2            1 S1                 0.0000
     15 ****         0.9342   0.7641  -4.6867 N.am           1 S1                 0.0000
     16 ****        -0.2668   1.4251  -5.1538 C.3            1 S1                 0.0000
     17 ****         1.3190   1.0200  -3.3524 C.2            1 S1                 0.0000
     18 ****         0.6709   1.7746  -2.6224 O.2            1 S1                 0.0000
     19 ****        -1.3750  -0.9017   2.3630 N.3            1 S1                 0.0000
     20 ****        -1.1742  -2.3496   2.3603 C.3            1 S1                 0.0000
     21 ****        -2.1764  -3.0658   3.2807 C.3            1 S1                 0.0000
     22 ****        -2.0668  -2.5423   4.6000 O.3            1 S1                 0.0000
     23 ****        -2.3037  -1.1394   4.6540 C.3            1 S1                 0.0000
     24 ****        -1.3096  -0.4060   3.7366 C.3            1 S1                 0.0000
     25 ****        -1.2756   2.4240   2.7393 H              1 S1                 0.0000
     26 ****        -0.9413   3.3331   1.2904 H              1 S1                 0.0000
     27 ****         0.3531   2.4497   2.0639 H              1 S1                 0.0000
     28 ****        -0.5463   1.3959  -0.0247 H              1 S1                 0.0000
     29 ****        -3.1613   1.0265   1.4670 H              1 S1                 0.0000
     30 ****        -2.7752   0.3552  -0.1168 H              1 S1                 0.0000
     31 ****        -2.8593   2.0978   0.1048 H              1 S1                 0.0000
     32 ****        -0.5921  -0.7919   0.4784 H              1 S1                 0.0000
     33 ****         1.1935   0.3630   2.6448 H              1 S1                 0.0000
     34 ****         1.3556  -1.2173   1.9369 H              1 S1                 0.0000
     35 ****         2.1580   1.3086   0.8148 H              1 S1                 0.0000
     36 ****         2.8988   1.6340  -1.2382 H              1 S1                 0.0000
     37 ****         3.9808   0.2799  -1.3949 H              1 S1                 0.0000
     38 ****         4.0575  -0.9700  -3.3280 H              1 S1                 0.0000
     39 ****         3.3942  -1.4134  -5.5847 H              1 S1                 0.0000
     40 ****        -0.1885   2.4835  -4.8981 H              1 S1                 0.0000
     41 ****        -1.1080   0.9525  -4.6442 H              1 S1                 0.0000
     42 ****        -0.3701   1.3334  -6.2347 H              1 S1                 0.0000
     43 ****        -1.2780  -2.7389   1.3471 H              1 S1                 0.0000
     44 ****        -0.1641  -2.5936   2.6887 H              1 S1                 0.0000
     45 ****        -3.1963  -2.9401   2.9143 H              1 S1                 0.0000
     46 ****        -1.9732  -4.1365   3.3030 H              1 S1                 0.0000
     47 ****        -3.3314  -0.9263   4.3558 H              1 S1                 0.0000
     48 ****        -2.1920  -0.7983   5.6831 H              1 S1                 0.0000
     49 ****        -0.3024  -0.5319   4.1346 H              1 S1                 0.0000
     50 ****        -1.5352   0.6546   3.7749 H              1 S1                 0.0000
     51 ****         1.2345  -1.9206  -0.0867 LP             1 S1                 0.0000
     52 ****         2.0096  -1.7990  -1.6309 LP             1 S1                 0.0000
     53 ****         1.7569  -0.9594  -7.2971 LP             1 S1                 0.0000
     54 ****         0.4247   0.1231  -7.0660 LP             1 S1                 0.0000
     55 ****         0.9649   1.9327  -1.6797 LP             1 S1                 0.0000
     56 ****        -0.1483   2.2281  -2.9734 LP             1 S1                 0.0000
     57 ****        -2.2934  -0.6918   2.0276 LP             1 S1                 0.0000
     58 ****        -1.1447  -2.7247   4.9414 LP             1 S1                 0.0000
     59 ****        -2.7355  -3.0027   5.1838 LP             1 S1                 0.0000
@<TRIPOS>BOND
    1    1    2 1     
    2    1   25 1     
    3    1   26 1     
    4    1   27 1     
    5    2    3 1     
    6    2    4 1     
    7    2   28 1     
    8    3   29 1     
    9    3   30 1     
   10    3   31 1     
   11    4    5 1     
   12    4   19 1     
   13    4   32 1     
   14    5    6 1     
   15    5   33 1     
   16    5   34 1     
   17    6    7 am    
   18    6   35 1     
   19    7    8 2     
   20    7    9 1     
   21    9   10 1     
   22    9   36 1     
   23    9   37 1     
   24   10   17 am    
   25   10   11 1     
   26   11   12 2     
   27   11   38 1     
   28   12   13 1     
   29   12   39 1     
   30   13   14 2     
   31   13   15 am    
   32   15   16 1     
   33   15   17 am    
   34   16   40 1     
   35   16   41 1     
   36   16   42 1     
   37   17   18 2     
   38   19   24 1     
   39   19   20 1     
   40   20   21 1     
   41   20   43 1     
   42   20   44 1     
   43   21   22 1     
   44   21   45 1     
   45   21   46 1     
   46   22   23 1     
   47   23   24 1     
   48   23   47 1     
   49   23   48 1     
   50   24   49 1     
   51   24   50 1     
   52    8   51 1     
   53    8   52 1     
   54   14   53 1     
   55   14   54 1     
   56   18   55 1     
   57   18   56 1     
   58   19   57 1     
   59   22   58 1     
   60   22   59 1     
@<TRIPOS>SUBSTRUCTURE
      1 S1             1
@<TRIPOS>SET
LONE_PAIRS      STATIC     ATOMS    <user>   **** ""
9 51 52 53 54 55 56 57 58 59
DONOR_HYDROGENS      STATIC     ATOMS    <user>   **** ""
1 35
ATOM$BLUE        STATIC     ATOMS    COLORGROUP SYSTEM
9 51 52 53 54 55 56 57 58 59
ATOM$RED        STATIC     ATOMS    COLORGROUP SYSTEM
1 35
