#       Name:                AV-unprocessed.smi:2565
#       Creating user name   scv26
#       Creation time:       Fri Mar 27 14:10:29 2020


#       File generated by GOLD software.
#

@<TRIPOS>MOLECULE
AV-unprocessed.smi:2565
    29    30     1
SMALL
NO_CHARGES


@<TRIPOS>ATOM
      1 ****        -1.6948   2.3280   0.4873 C.3            1 S1                 0.0000
      2 ****        -0.2502   2.2802   0.3811 N.pl3          1 S1                 0.0000
      3 ****         0.6219   3.2992   0.3659 C.2            1 S1                 0.0000
      4 ****         1.9005   2.9453   0.2460 N.2            1 S1                 0.0000
      5 ****         1.8734   1.5665   0.1755 N.2            1 S1                 0.0000
      6 ****         0.5812   1.2237   0.2691 C.2            1 S1                 0.0000
      7 ****         0.0808  -0.1903   0.2193 C.3            1 S1                 0.0000
      8 ****        -0.0589  -0.7100  -1.2248 C.3            1 S1                 0.0000
      9 ****        -0.4691  -2.1133  -1.2206 N.3            1 S1                 0.0000
     10 ****         0.4501  -2.9307  -0.4298 C.3            1 S1                 0.0000
     11 ****         0.5940  -2.3555   0.9909 C.3            1 S1                 0.0000
     12 ****         1.0241  -1.0002   0.9172 O.3            1 S1                 0.0000
     13 ****        -2.0403   3.3612   0.4416 H              1 S1                 0.0000
     14 ****        -2.0087   1.8909   1.4354 H              1 S1                 0.0000
     15 ****        -2.1447   1.7687  -0.3333 H              1 S1                 0.0000
     16 ****         0.3133   4.3317   0.4412 H              1 S1                 0.0000
     17 ****        -0.8791  -0.2459   0.7353 H              1 S1                 0.0000
     18 ****        -0.7866  -0.1099  -1.7716 H              1 S1                 0.0000
     19 ****         0.8921  -0.6049  -1.7485 H              1 S1                 0.0000
     20 ****        -0.4989  -2.4615  -2.1735 H              1 S1                 0.0000
     21 ****         0.0908  -3.9589  -0.3828 H              1 S1                 0.0000
     22 ****         1.4276  -2.9622  -0.9125 H              1 S1                 0.0000
     23 ****        -0.3480  -2.4240   1.5375 H              1 S1                 0.0000
     24 ****         1.3300  -2.9292   1.5541 H              1 S1                 0.0000
     25 ****         2.7008   3.5441   0.2142 LP             1 S1                 0.0000
     26 ****         2.6555   0.9515   0.0754 LP             1 S1                 0.0000
     27 ****        -1.3775  -2.1729  -0.8066 LP             1 S1                 0.0000
     28 ****         1.1352  -0.6435   1.8448 LP             1 S1                 0.0000
     29 ****         1.9013  -0.9631   0.4385 LP             1 S1                 0.0000
@<TRIPOS>BOND
    1    1    2 1     
    2    1   13 1     
    3    1   14 1     
    4    1   15 1     
    5    2    6 1     
    6    2    3 1     
    7    3    4 2     
    8    3   16 1     
    9    4    5 1     
   10    5    6 2     
   11    6    7 1     
   12    7   12 1     
   13    7    8 1     
   14    7   17 1     
   15    8    9 1     
   16    8   18 1     
   17    8   19 1     
   18    9   10 1     
   19    9   20 1     
   20   10   11 1     
   21   10   21 1     
   22   10   22 1     
   23   11   12 1     
   24   11   23 1     
   25   11   24 1     
   26    4   25 1     
   27    5   26 1     
   28    9   27 1     
   29   12   28 1     
   30   12   29 1     
@<TRIPOS>SUBSTRUCTURE
      1 S1             1
@<TRIPOS>SET
LONE_PAIRS      STATIC     ATOMS    <user>   **** ""
5 25 26 27 28 29
DONOR_HYDROGENS      STATIC     ATOMS    <user>   **** ""
1 20
ATOM$BLUE        STATIC     ATOMS    COLORGROUP SYSTEM
5 25 26 27 28 29
ATOM$RED        STATIC     ATOMS    COLORGROUP SYSTEM
1 20
