#       Name:                AV-unprocessed.smi:559
#       Creating user name   scv26
#       Creation time:       Thu Mar 26 23:41:49 2020


#       File generated by GOLD software.
#

@<TRIPOS>MOLECULE
AV-unprocessed.smi:559
    44    45     1
SMALL
NO_CHARGES


@<TRIPOS>ATOM
      1 ****        -2.4720   3.5614  -1.0901 C.3            1 S1                 0.0000
      2 ****        -2.8131   2.1001  -1.1537 C.2            1 S1                 0.0000
      3 ****        -4.0576   1.7133  -0.9309 N.2            1 S1                 0.0000
      4 ****        -4.0313   0.3720  -1.0588 N.pl3          1 S1                 0.0000
      5 ****        -5.2659  -0.3661  -0.8715 C.3            1 S1                 0.0000
      6 ****        -2.7648  -0.0908  -1.3668 C.2            1 S1                 0.0000
      7 ****        -2.4647  -1.5428  -1.5616 C.3            1 S1                 0.0000
      8 ****        -1.9451   1.0051  -1.4362 C.2            1 S1                 0.0000
      9 ****        -0.4684   1.0673  -1.7384 C.3            1 S1                 0.0000
     10 ****         0.3353   1.0496  -0.4372 C.2            1 S1                 0.0000
     11 ****         0.9464   2.0554  -0.0782 O.2            1 S1                 0.0000
     12 ****         0.3337  -0.1022   0.2524 N.am           1 S1                 0.0000
     13 ****         1.0207  -0.3381   1.5180 C.3            1 S1                 0.0000
     14 ****         2.3629  -1.0695   1.3224 C.3            1 S1                 0.0000
     15 ****         3.4087  -0.2587   0.5270 C.3            1 S1                 0.0000
     16 ****         4.7694  -0.9511   0.6531 C.3            1 S1                 0.0000
     17 ****         4.7934  -1.6949   2.3258 S.o2           1 S1                 0.0000
     18 ****         5.0932  -3.1298   2.2069 O.2            1 S1                 0.0000
     19 ****         5.5624  -0.8333   3.2365 O.2            1 S1                 0.0000
     20 ****         3.0055  -1.4682   2.6602 C.3            1 S1                 0.0000
     21 ****        -1.5756   3.7274  -0.4928 H              1 S1                 0.0000
     22 ****        -3.2770   4.1463  -0.6437 H              1 S1                 0.0000
     23 ****        -2.2849   3.9601  -2.0871 H              1 S1                 0.0000
     24 ****        -5.0778  -1.4391  -0.8513 H              1 S1                 0.0000
     25 ****        -5.9525  -0.1435  -1.6885 H              1 S1                 0.0000
     26 ****        -5.7298  -0.0765   0.0721 H              1 S1                 0.0000
     27 ****        -1.4103  -1.7052  -1.7828 H              1 S1                 0.0000
     28 ****        -3.0456  -1.9509  -2.3888 H              1 S1                 0.0000
     29 ****        -2.7051  -2.1120  -0.6634 H              1 S1                 0.0000
     30 ****        -0.1476   0.2343  -2.3642 H              1 S1                 0.0000
     31 ****        -0.2206   1.9710  -2.2965 H              1 S1                 0.0000
     32 ****        -0.1993  -0.8727  -0.1240 H              1 S1                 0.0000
     33 ****         1.1685   0.5957   2.0634 H              1 S1                 0.0000
     34 ****         0.3614  -0.9479   2.1364 H              1 S1                 0.0000
     35 ****         2.1763  -1.9906   0.7679 H              1 S1                 0.0000
     36 ****         3.1261  -0.1416  -0.5193 H              1 S1                 0.0000
     37 ****         3.4819   0.7436   0.9511 H              1 S1                 0.0000
     38 ****         4.8632  -1.7564  -0.0757 H              1 S1                 0.0000
     39 ****         5.6097  -0.2677   0.5300 H              1 S1                 0.0000
     40 ****         2.9056  -0.6709   3.3975 H              1 S1                 0.0000
     41 ****         2.5830  -2.3815   3.0793 H              1 S1                 0.0000
     42 ****        -4.8456   2.2897  -0.7148 LP             1 S1                 0.0000
     43 ****         0.9175   2.8841  -0.6371 LP             1 S1                 0.0000
     44 ****         1.4720   2.0441   0.7725 LP             1 S1                 0.0000
@<TRIPOS>BOND
    1    1    2 1     
    2    1   21 1     
    3    1   22 1     
    4    1   23 1     
    5    2    8 1     
    6    2    3 2     
    7    3    4 1     
    8    4    5 1     
    9    4    6 1     
   10    5   24 1     
   11    5   25 1     
   12    5   26 1     
   13    6    7 1     
   14    6    8 2     
   15    7   27 1     
   16    7   28 1     
   17    7   29 1     
   18    8    9 1     
   19    9   10 1     
   20    9   30 1     
   21    9   31 1     
   22   10   11 2     
   23   10   12 am    
   24   12   13 1     
   25   12   32 1     
   26   13   14 1     
   27   13   33 1     
   28   13   34 1     
   29   14   20 1     
   30   14   15 1     
   31   14   35 1     
   32   15   16 1     
   33   15   36 1     
   34   15   37 1     
   35   16   17 1     
   36   16   38 1     
   37   16   39 1     
   38   17   18 2     
   39   17   19 2     
   40   17   20 1     
   41   20   40 1     
   42   20   41 1     
   43    3   42 1     
   44   11   43 1     
   45   11   44 1     
@<TRIPOS>SUBSTRUCTURE
      1 S1             1
@<TRIPOS>SET
LONE_PAIRS      STATIC     ATOMS    <user>   **** ""
5 42 43 44 18 19
DONOR_HYDROGENS      STATIC     ATOMS    <user>   **** ""
1 32
ATOM$BLUE        STATIC     ATOMS    COLORGROUP SYSTEM
5 42 43 44 18 19
ATOM$RED        STATIC     ATOMS    COLORGROUP SYSTEM
1 32
