#       Name:                AV-unprocessed.smi:69
#       Creating user name   scv26
#       Creation time:       Thu Mar 26 16:54:37 2020


#       File generated by GOLD software.
#

@<TRIPOS>MOLECULE
AV-unprocessed.smi:69
    43    45     1
SMALL
NO_CHARGES


@<TRIPOS>ATOM
      1 ****        -4.9941   0.4622   0.5493 N.pl3          1 S1                 0.0000
      2 ****        -3.7221   0.5835   0.1453 C.ar           1 S1                 0.0000
      3 ****        -3.3617   1.7109  -0.5096 N.ar           1 S1                 0.0000
      4 ****        -2.0980   1.8564  -0.9174 C.ar           1 S1                 0.0000
      5 ****        -1.0733   1.0132  -0.7733 N.ar           1 S1                 0.0000
      6 ****        -1.4320  -0.1277  -0.1128 C.ar           1 S1                 0.0000
      7 ****        -2.7390  -0.4119   0.3761 C.ar           1 S1                 0.0000
      8 ****        -2.7552  -1.6503   0.9986 N.2            1 S1                 0.0000
      9 ****        -1.5238  -2.0681   0.8910 C.2            1 S1                 0.0000
     10 ****        -0.6569  -1.2268   0.2254 N.pl3          1 S1                 0.0000
     11 ****         0.8133  -1.4736   0.0074 C.3            1 S1                 0.0000
     12 ****         1.5208  -0.8185   1.0107 O.3            1 S1                 0.0000
     13 ****         1.9402   0.4572   0.5487 C.3            1 S1                 0.0000
     14 ****         3.1491   0.9332   1.3678 C.3            1 S1                 0.0000
     15 ****         2.7178   1.4965   2.5882 O.3            1 S1                 0.0000
     16 ****         2.2706   0.1963  -0.9292 C.3            1 S1                 0.0000
     17 ****         2.0152   1.3524  -1.7012 O.3            1 S1                 0.0000
     18 ****         1.3401  -0.9490  -1.3410 C.3            1 S1                 0.0000
     19 ****         2.0721  -1.9436  -2.0296 O.3            1 S1                 0.0000
     20 ****         0.9174  -2.5537   0.1229 H              1 S1                 0.0000
     21 ****         1.1169   1.1656   0.6411 H              1 S1                 0.0000
     22 ****         3.3169  -0.0959  -1.0348 H              1 S1                 0.0000
     23 ****         0.5179  -0.6331  -1.9821 H              1 S1                 0.0000
     24 ****        -5.2869  -0.3689   1.0427 H              1 S1                 0.0000
     25 ****        -5.6535   1.2046   0.3674 H              1 S1                 0.0000
     26 ****        -1.8747   2.7796  -1.4314 H              1 S1                 0.0000
     27 ****        -1.2095  -3.0160   1.3032 H              1 S1                 0.0000
     28 ****         3.8516   0.1197   1.5502 H              1 S1                 0.0000
     29 ****         3.6864   1.7098   0.8229 H              1 S1                 0.0000
     30 ****         3.4756   1.8006   3.0636 H              1 S1                 0.0000
     31 ****         2.1756   1.1466  -2.6095 H              1 S1                 0.0000
     32 ****         1.4842  -2.6502  -2.2492 H              1 S1                 0.0000
     33 ****        -4.0350   2.4287  -0.6869 LP             1 S1                 0.0000
     34 ****        -0.1495   1.1955  -1.1100 LP             1 S1                 0.0000
     35 ****        -3.5292  -2.1147   1.4291 LP             1 S1                 0.0000
     36 ****         2.3226  -1.3614   1.2602 LP             1 S1                 0.0000
     37 ****         0.9328  -0.7048   1.8115 LP             1 S1                 0.0000
     38 ****         2.2368   0.8050   3.1272 LP             1 S1                 0.0000
     39 ****         2.1034   2.2643   2.4065 LP             1 S1                 0.0000
     40 ****         2.6211   2.0929  -1.4108 LP             1 S1                 0.0000
     41 ****         1.0632   1.6344  -1.5820 LP             1 S1                 0.0000
     42 ****         2.8079  -2.2862  -1.4455 LP             1 S1                 0.0000
     43 ****         2.4624  -1.5574  -2.8654 LP             1 S1                 0.0000
@<TRIPOS>BOND
    1    1    2 1     
    2    1   24 1     
    3    1   25 1     
    4    2    7 ar    
    5    2    3 ar    
    6    3    4 ar    
    7    4    5 ar    
    8    4   26 1     
    9    5    6 ar    
   10    6   10 1     
   11    6    7 ar    
   12    7    8 1     
   13    8    9 2     
   14    9   10 1     
   15    9   27 1     
   16   10   11 1     
   17   11   20 1     
   18   11   18 1     
   19   11   12 1     
   20   12   13 1     
   21   13   21 1     
   22   13   14 1     
   23   13   16 1     
   24   14   15 1     
   25   14   28 1     
   26   14   29 1     
   27   15   30 1     
   28   16   22 1     
   29   16   17 1     
   30   16   18 1     
   31   17   31 1     
   32   18   23 1     
   33   18   19 1     
   34   19   32 1     
   35    3   33 1     
   36    5   34 1     
   37    8   35 1     
   38   12   36 1     
   39   12   37 1     
   40   15   38 1     
   41   15   39 1     
   42   17   40 1     
   43   17   41 1     
   44   19   42 1     
   45   19   43 1     
@<TRIPOS>SUBSTRUCTURE
      1 S1             1
@<TRIPOS>SET
LONE_PAIRS      STATIC     ATOMS    <user>   **** ""
11 33 34 35 36 37 38 39 40 41 42 43
DONOR_HYDROGENS      STATIC     ATOMS    <user>   **** ""
5 24 25 30 31 32
ATOM$BLUE        STATIC     ATOMS    COLORGROUP SYSTEM
11 33 34 35 36 37 38 39 40 41 42 43
ATOM$RED        STATIC     ATOMS    COLORGROUP SYSTEM
5 24 25 30 31 32
