AV-unprocessed.smi:2768|AV-procd|sdf|10653|dock7
  -GOLD-   2272015103D 1   1.00000     0.00000
 Structure written by MMmdl.
 34 35  0  0  0  0  0  0  0  0  2 V2000
  151.5467  138.4888  158.1400 O   0  0  0  0  0  0  0  0  0  0  0  0
  151.6434  139.2971  157.2095 C   0  0  0  0  0  0  0  0  0  0  0  0
  151.9260  140.6317  157.2384 N   0  5  0  0  0  0  0  0  0  0  0  0
  151.5499  141.5345  158.3301 C   0  0  1  0  0  0  0  0  0  0  0  0
  152.8001  142.2512  158.9010 C   0  0  0  0  0  0  0  0  0  0  0  0
  152.4562  143.3087  159.9805 C   0  0  0  0  0  0  0  0  0  0  0  0
  151.4523  144.3685  159.4793 C   0  0  0  0  0  0  0  0  0  0  0  0
  150.1959  143.6726  158.9096 C   0  0  0  0  0  0  0  0  0  0  0  0
  150.5205  142.5940  157.8407 C   0  0  1  0  0  0  0  0  0  0  0  0
  150.9827  143.2409  156.6687 O   0  0  0  0  0  0  0  0  0  0  0  0
  151.4394  138.7838  155.7678 C   0  0  0  0  0  0  0  0  0  0  0  0
  152.5295  139.0637  155.0479 F   0  0  0  0  0  0  0  0  0  0  0  0
  151.3011  137.4536  155.7753 F   0  0  0  0  0  0  0  0  0  0  0  0
  150.2168  139.4419  155.1298 C   0  0  0  0  0  0  0  0  0  0  0  0
  149.1354  138.6631  154.6575 C   0  0  0  0  0  0  0  0  0  0  0  0
  148.0264  139.3183  154.0894 C   0  0  0  0  0  0  0  0  0  0  0  0
  148.0360  140.7237  154.0103 C   0  0  0  0  0  0  0  0  0  0  0  0
  149.1580  141.4135  154.5096 C   0  0  0  0  0  0  0  0  0  0  0  0
  150.2251  140.7953  155.0581 N   0  0  0  0  0  0  0  0  0  0  0  0
  151.0809  140.9947  159.1546 H   0  0  0  0  0  0  0  0  0  0  0  0
  149.5960  142.0818  157.5709 H   0  0  0  0  0  0  0  0  0  0  0  0
  153.4842  141.5148  159.3242 H   0  0  0  0  0  0  0  0  0  0  0  0
  153.3464  142.7389  158.0921 H   0  0  0  0  0  0  0  0  0  0  0  0
  152.0532  142.8193  160.8696 H   0  0  0  0  0  0  0  0  0  0  0  0
  153.3714  143.8045  160.3052 H   0  0  0  0  0  0  0  0  0  0  0  0
  151.1776  145.0458  160.2882 H   0  0  0  0  0  0  0  0  0  0  0  0
  151.9186  144.9785  158.7049 H   0  0  0  0  0  0  0  0  0  0  0  0
  149.6427  143.2163  159.7327 H   0  0  0  0  0  0  0  0  0  0  0  0
  149.5240  144.4208  158.4872 H   0  0  0  0  0  0  0  0  0  0  0  0
  150.3221  143.8692  156.4165 H   0  0  0  0  0  0  0  0  0  0  0  0
  149.1498  137.5863  154.7400 H   0  0  0  0  0  0  0  0  0  0  0  0
  147.1826  138.7530  153.7225 H   0  0  0  0  0  0  0  0  0  0  0  0
  147.2032  141.2602  153.5803 H   0  0  0  0  0  0  0  0  0  0  0  0
  149.1996  142.4918  154.4665 H   0  0  0  0  0  0  0  0  0  0  0  0
  1  2  2  0  0  0  0
  2  3  1  0  0  0  0
  2 11  1  0  0  0  0
  3  4  1  0  0  0  0
  4 20  1  0  0  0  0
  4  9  1  0  0  0  0
  4  5  1  0  0  0  0
  5  6  1  0  0  0  0
  5 22  1  0  0  0  0
  5 23  1  0  0  0  0
  6  7  1  0  0  0  0
  6 24  1  0  0  0  0
  6 25  1  0  0  0  0
  7  8  1  0  0  0  0
  7 26  1  0  0  0  0
  7 27  1  0  0  0  0
  8  9  1  0  0  0  0
  8 28  1  0  0  0  0
  8 29  1  0  0  0  0
  9 21  1  0  0  0  0
  9 10  1  0  0  0  0
 10 30  1  0  0  0  0
 11 12  1  0  0  0  0
 11 13  1  0  0  0  0
 11 14  1  0  0  0  0
 14 19  1  0  0  0  0
 14 15  2  0  0  0  0
 15 16  1  0  0  0  0
 15 31  1  0  0  0  0
 16 17  2  0  0  0  0
 16 32  1  0  0  0  0
 17 18  1  0  0  0  0
 17 33  1  0  0  0  0
 18 19  2  0  0  0  0
 18 34  1  0  0  0  0
M  CHG  1   3  -1
M  END
> <s_m_source_file>
AV-unprocessed.smi

> <i_m_source_file_index>
2768

> <i_lp_mmshare_version>
43012

> <i_f3d_flags>
0

> <s_epik_input>
bjFbY0hdW2NIXVtjSF1bY0hdYzFDKEYpKEYpQyg9TylbTkhdW0NAQEhdMltDSDJdW0NIMl1bQ0gyXVtDSDJdW0NASF0yW09IXQ==

> <s_epik_cmdline>
J2VwaWtfcHl0aG9uJywgJy1waCcsICc3LjAnLCAnLXRuJywgJzgnLCAnLW1hJywgJzIwMCcsICctbWV0YWxfYmluZGluZycsICctaW1hZScsICc8aW5maWxlLm1hZT4nLCAnLW9tYWUnLCAnPG91dGZpbGUubWFlPic=

> <r_lp_tautomer_probability>
1

> <r_epik_Ionization_Penalty>
5.70553

> <r_epik_Ionization_Penalty_Charging>
5.70553

> <r_epik_Ionization_Penalty_Neutral>
5.5493e-06

> <r_epik_State_Penalty>
5.70549

> <r_epik_Charging_Adjusted_Penalty>
11.411

> <i_epik_Tot_Q>
-1

> <i_epik_Tot_abs_Q>
1

> <r_epik_Metal_State_Penalty>
1.6859

> <b_epik_Metal_Only>
1

> <s_lp_Force_Field>
OPLS_2005

> <r_lp_Energy>
27.4562

> <b_lp_Chiralities_Consistent>
1

> <s_lp_Variant>
AV-unprocessed.smi:2768-6

> <Gold.Version>
5.8.1

> <Gold.Id.Protein>
6NUR|6NUR_protein|mol2

> <Gold.PLP.Fitness>
43.6962

> <Gold.PLP.PLP>
-37.6358

> <Gold.PLP.part.hbond>
-2.0000

> <Gold.PLP.part.metal>
0.0000

> <Gold.PLP.part.buried>
-3.1152

> <Gold.PLP.part.nonpolar>
-32.2369

> <Gold.PLP.part.repulsive>
0.0953

> <Gold.PLP.ligand.clash>
1.0547

> <Gold.PLP.ligand.torsion>
0.2928

> <Gold.PLP.Chemscore.Hbond>
1.5600

> <Gold.PLP.Chemscore.CHOScore>
1.0000

> <Gold.PLP.Chemscore.Metal>
0.0000

> <Gold.Chemscore.Hbonds>
donor molecule, donor type, donor heavy atom, donor atom, acceptor molecule, acceptor atom, score
      L1  H    10    30       P1  8028  1.00
      P1  H  7989  7998       L1    19  0.52
      L1  C    18    34       P1  8028  1.00

> <Gold.PLP.Chemscore.Internal.Correction>
0.0207

> <Gold.Rescore>
     Score         DG    S(hbond)    S(metal)    S(lipo)     H(rot)  DE(clash)    DE(int)     intcor
     13.62     -15.56       1.12        0.00      96.96       1.95       0.18       1.76       ----

> <Gold.Chemscore.Fitness>
13.6199

> <Gold.Chemscore.DG>
-15.5563

> <Gold.Chemscore.ZeroCoef>
-5.4800

> <Gold.Chemscore.Hbond>
1.1152

> <Gold.Chemscore.Metal>
0.0000

> <Gold.Chemscore.Lipo>
96.9583

> <Gold.Chemscore.Internal_Hbond>
0.0000

> <Gold.Chemscore.DEClash>
0.1813

> <Gold.Chemscore.DEInternal>
1.7551

> <Gold.Chemscore.Rot>
1.9503

> <Gold.Chemscore.Internal.Correction>
   9.000000E+99

> <Gold.Chemscore.Hbonds>
donor molecule, donor type, donor heavy atom, donor atom, acceptor molecule, acceptor atom, score
      L1  H    10    30       P1  8028  1.00
      P1  H  7989  7998       L1    19  0.02

> <Gold.Chemscore.Hbond.Weighted>
-3.7249

> <Gold.Chemscore.Metal.Weighted>
-0.0000

> <Gold.Chemscore.Lipo.Weighted>
-11.3441

> <Gold.Chemscore.Internal_Hbond.Weighted>
0.0000

> <Gold.Chemscore.DEClash.Weighted>
0.1813

> <Gold.Chemscore.DEInternal.Weighted>
1.7551

> <Gold.Chemscore.Rot.Weighted>
4.9928

> <Gold.Chemscore.Internal.Correction.Weighted>
   9.000000E+99

> <Gold.Protein.RotatedTorsions>
[ 6907 6896 6895 6894 ] final   61.18 input  -60.11 | X-H torsion
[ 7974 7965 7964 7962 ] final   14.37 input  175.53 | X-H torsion
[ 8008 7997 7996 7995 ] final   -0.16 input   59.86 | X-H torsion
[ 10167 10162 10161 10158 ] final   47.00 input  -65.29 | X-H torsion
[ 10718 10713 10712 10709 ] final  161.64 input   66.30 | X-H torsion
[ 10763 10752 10751 10750 ] final   84.72 input  -60.55 | X-H torsion
[ 11005 11000 10999 10996 ] final  -13.39 input  -57.11 | X-H torsion

> <Gold.Protein.ActiveResidues>
 VAL166  LYS551  ARG553  GLY616  TRP617  ASP618  TYR619  PRO620  LYS621  CYS622 
 ASP623  PHE694  ASN695  SER759  ASP760  ASP761  ALA762  ILE779  LEU786  VAL792 
 PHE793  MET794  SER795  GLU796  ALA797  LYS798  CYS799  TRP800  GLU811  SER814 

> <Gold.Protein.RotatedAtoms>
  152.4067  134.6195  160.0046 H   0  0  0  0  0  0  0  0  0  0  0  0  # atno 6907 bound_to 6896
  151.6384  133.3322  159.3132 H   0  0  0  0  0  0  0  0  0  0  0  0  # atno 6908 bound_to 6896
  150.7961  134.7063  159.6623 H   0  0  0  0  0  0  0  0  0  0  0  0  # atno 6909 bound_to 6896
  146.2306  139.9050  142.8533 H   0  0  0  0  0  0  0  0  0  0  0  0  # atno 7974 bound_to 7965
  154.6612  140.2591  155.7107 H   0  0  0  0  0  0  0  0  0  0  0  0  # atno 8008 bound_to 7997
  156.2619  140.2848  156.1006 H   0  0  0  0  0  0  0  0  0  0  0  0  # atno 8009 bound_to 7997
  155.1306  140.0378  157.2764 H   0  0  0  0  0  0  0  0  0  0  0  0  # atno 8010 bound_to 7997
  140.3081  144.2853  150.6205 H   0  0  0  0  0  0  0  0  0  0  0  0  # atno 10167 bound_to 10162
  157.1337  131.0523  151.2359 H   0  0  0  0  0  0  0  0  0  0  0  0  # atno 10718 bound_to 10713
  153.1407  135.4644  154.9492 H   0  0  0  0  0  0  0  0  0  0  0  0  # atno 10763 bound_to 10752
  154.7745  135.3169  154.8124 H   0  0  0  0  0  0  0  0  0  0  0  0  # atno 10764 bound_to 10752
  153.8647  135.6909  153.4834 H   0  0  0  0  0  0  0  0  0  0  0  0  # atno 10765 bound_to 10752
  140.7756  133.8403  155.9246 H   0  0  0  0  0  0  0  0  0  0  0  0  # atno 11005 bound_to 11000
  145.2285  140.9964  143.4004 LP  0  0  0  0  0  0  0  0  0  0  0  0  # atno 17320 bound_to 7965
  144.9550  139.4041  143.6384 LP  0  0  0  0  0  0  0  0  0  0  0  0  # atno 17321 bound_to 7965
  140.5592  143.2194  151.7795 LP  0  0  0  0  0  0  0  0  0  0  0  0  # atno 17342 bound_to 10162
  139.4900  144.4372  151.9806 LP  0  0  0  0  0  0  0  0  0  0  0  0  # atno 17343 bound_to 10162
  157.4369  130.7522  149.7037 LP  0  0  0  0  0  0  0  0  0  0  0  0  # atno 17370 bound_to 10713
  155.9802  130.4031  150.3539 LP  0  0  0  0  0  0  0  0  0  0  0  0  # atno 17371 bound_to 10713
  140.9532  134.1752  157.4712 LP  0  0  0  0  0  0  0  0  0  0  0  0  # atno 17394 bound_to 11000
  139.8749  134.9917  156.5561 LP  0  0  0  0  0  0  0  0  0  0  0  0  # atno 17395 bound_to 11000

$$$$
