AV-unprocessed.smi:2600|AV-procd|sdf|10182|dock8
  -GOLD-   2272014193D 1   1.00000     0.00000
 Structure written by MMmdl.
 44 45  0  0  0  0  0  0  0  0  1 V2000
  147.6953  141.6796  155.1809 C   0  0  0  0  0  0  0  0  0  0  0  0
  148.5780  140.8276  154.2541 C   0  0  0  0  0  0  0  0  0  0  0  0
  149.6511  139.9665  154.9621 C   0  0  2  0  0  0  0  0  0  0  0  0
  148.9822  139.2469  156.1552 C   0  0  0  0  0  0  0  0  0  0  0  0
  150.8640  140.8213  155.4174 C   0  0  0  0  0  0  0  0  0  0  0  0
  151.9362  139.9417  155.9048 N   0  0  0  0  0  0  0  0  0  0  0  0
  152.4017  139.8424  157.1747 C   0  0  0  0  0  0  0  0  0  0  0  0
  153.2886  139.0545  157.5053 O   0  0  0  0  0  0  0  0  0  0  0  0
  151.8274  140.6856  158.0510 N   0  0  0  0  0  0  0  0  0  0  0  0
  152.1447  140.7887  159.4734 C   0  0  0  0  0  0  0  0  0  0  0  0
  153.0699  141.9813  159.7831 C   0  0  0  0  0  0  0  0  0  0  0  0
  152.4179  143.3282  159.6987 C   0  0  0  0  0  0  0  0  0  0  0  0
  151.9731  144.0142  158.6035 C   0  0  0  0  0  0  0  0  0  0  0  0
  151.4329  145.2145  159.1402 C   0  0  0  0  0  0  0  0  0  0  0  0
  151.5440  145.2762  160.4552 N   0  0  0  0  0  0  0  0  0  0  0  0
  152.1546  144.1231  160.8017 N   0  0  0  0  0  0  0  0  0  0  0  0
  152.4312  143.8751  162.2038 C   0  0  0  0  0  0  0  0  0  0  0  0
  152.3839  139.0584  154.8261 C   0  0  0  0  0  0  0  0  0  0  0  0
  151.1997  138.1790  154.3940 C   0  0  0  0  0  0  0  0  0  0  0  0
  150.0915  138.9940  154.0045 O   0  0  0  0  0  0  0  0  0  0  0  0
  147.0412  142.3259  154.5952 H   0  0  0  0  0  0  0  0  0  0  0  0
  148.2948  142.3205  155.8277 H   0  0  0  0  0  0  0  0  0  0  0  0
  147.0543  141.0651  155.8120 H   0  0  0  0  0  0  0  0  0  0  0  0
  147.9356  140.1861  153.6493 H   0  0  0  0  0  0  0  0  0  0  0  0
  149.0723  141.4997  153.5515 H   0  0  0  0  0  0  0  0  0  0  0  0
  148.5803  139.9664  156.8691 H   0  0  0  0  0  0  0  0  0  0  0  0
  149.6740  138.6091  156.7029 H   0  0  0  0  0  0  0  0  0  0  0  0
  148.1570  138.6165  155.8232 H   0  0  0  0  0  0  0  0  0  0  0  0
  151.2711  141.3939  154.5844 H   0  0  0  0  0  0  0  0  0  0  0  0
  150.5371  141.5663  156.1426 H   0  0  0  0  0  0  0  0  0  0  0  0
  151.1109  141.3051  157.7014 H   0  0  0  0  0  0  0  0  0  0  0  0
  151.2324  140.8554  160.0677 H   0  0  0  0  0  0  0  0  0  0  0  0
  152.6319  139.8632  159.7802 H   0  0  0  0  0  0  0  0  0  0  0  0
  153.5062  141.8510  160.7736 H   0  0  0  0  0  0  0  0  0  0  0  0
  153.9122  141.9569  159.0906 H   0  0  0  0  0  0  0  0  0  0  0  0
  152.0171  143.6995  157.5716 H   0  0  0  0  0  0  0  0  0  0  0  0
  150.9682  146.0371  158.6166 H   0  0  0  0  0  0  0  0  0  0  0  0
  153.3075  143.2363  162.3107 H   0  0  0  0  0  0  0  0  0  0  0  0
  151.5735  143.3847  162.6643 H   0  0  0  0  0  0  0  0  0  0  0  0
  152.6230  144.8153  162.7223 H   0  0  0  0  0  0  0  0  0  0  0  0
  152.7318  139.6588  153.9843 H   0  0  0  0  0  0  0  0  0  0  0  0
  153.2266  138.4283  155.1136 H   0  0  0  0  0  0  0  0  0  0  0  0
  151.4869  137.5590  153.5447 H   0  0  0  0  0  0  0  0  0  0  0  0
  150.9137  137.4929  155.1914 H   0  0  0  0  0  0  0  0  0  0  0  0
  1  2  1  0  0  0  0
  1 21  1  0  0  0  0
  1 22  1  0  0  0  0
  1 23  1  0  0  0  0
  2  3  1  0  0  0  0
  2 24  1  0  0  0  0
  2 25  1  0  0  0  0
  3 20  1  0  0  0  0
  3  4  1  0  0  0  0
  3  5  1  0  0  0  0
  4 26  1  0  0  0  0
  4 27  1  0  0  0  0
  4 28  1  0  0  0  0
  5  6  1  0  0  0  0
  5 29  1  0  0  0  0
  5 30  1  0  0  0  0
  6  7  1  0  0  0  0
  6 18  1  0  0  0  0
  7  8  2  0  0  0  0
  7  9  1  0  0  0  0
  9 10  1  0  0  0  0
  9 31  1  0  0  0  0
 10 11  1  0  0  0  0
 10 32  1  0  0  0  0
 10 33  1  0  0  0  0
 11 12  1  0  0  0  0
 11 34  1  0  0  0  0
 11 35  1  0  0  0  0
 12 16  1  0  0  0  0
 12 13  2  0  0  0  0
 13 14  1  0  0  0  0
 13 36  1  0  0  0  0
 14 15  2  0  0  0  0
 14 37  1  0  0  0  0
 15 16  1  0  0  0  0
 16 17  1  0  0  0  0
 17 38  1  0  0  0  0
 17 39  1  0  0  0  0
 17 40  1  0  0  0  0
 18 19  1  0  0  0  0
 18 41  1  0  0  0  0
 18 42  1  0  0  0  0
 19 20  1  0  0  0  0
 19 43  1  0  0  0  0
 19 44  1  0  0  0  0
M  END
> <s_m_source_file>
AV-unprocessed.smi

> <i_m_source_file_index>
2600

> <i_lp_mmshare_version>
43012

> <i_f3d_flags>
0

> <s_epik_input>
W0NIM11bQ0gyXVtDQEBdMShbQ0gzXSlbQ0gyXU4oW0NIMl1bQ0gyXU8xKUMoPU8pW05IXVtDSDJdW0NIMl1jMltjSF1bY0hdbm4yW0NIM10=

> <s_epik_cmdline>
J2VwaWtfcHl0aG9uJywgJy1waCcsICc3LjAnLCAnLXRuJywgJzgnLCAnLW1hJywgJzIwMCcsICctbWV0YWxfYmluZGluZycsICctaW1hZScsICc8aW5maWxlLm1hZT4nLCAnLW9tYWUnLCAnPG91dGZpbGUubWFlPic=

> <r_lp_tautomer_probability>
1

> <r_epik_Ionization_Penalty>
0.00252014

> <r_epik_Ionization_Penalty_Charging>
0

> <r_epik_Ionization_Penalty_Neutral>
0.00252014

> <r_epik_State_Penalty>
0.00172506

> <r_epik_Charging_Adjusted_Penalty>
0.00172506

> <i_epik_Tot_Q>
0

> <i_epik_Tot_abs_Q>
0

> <r_epik_Metal_State_Penalty>
-0

> <b_epik_Metal_Only>
0

> <s_lp_Force_Field>
OPLS_2005

> <r_lp_Energy>
29.2507

> <b_lp_Chiralities_Consistent>
1

> <s_lp_Variant>
AV-unprocessed.smi:2600-2

> <Gold.Version>
5.8.1

> <Gold.Id.Protein>
6NUR|6NUR_protein|mol2

> <Gold.PLP.Fitness>
48.3177

> <Gold.PLP.PLP>
-46.5008

> <Gold.PLP.part.hbond>
-1.0000

> <Gold.PLP.part.metal>
0.0000

> <Gold.PLP.part.buried>
-3.3412

> <Gold.PLP.part.nonpolar>
-42.6454

> <Gold.PLP.part.repulsive>
0.5237

> <Gold.PLP.ligand.clash>
0.0000

> <Gold.PLP.ligand.torsion>
0.4510

> <Gold.PLP.Chemscore.Hbond>
0.8960

> <Gold.PLP.Chemscore.CHOScore>
0.0000

> <Gold.PLP.Chemscore.Metal>
0.0000

> <Gold.Chemscore.Hbonds>
donor molecule, donor type, donor heavy atom, donor atom, acceptor molecule, acceptor atom, score
      P1  H  7997  8009       L1     8  0.86

> <Gold.PLP.Chemscore.Internal.Correction>
0.0308

> <Gold.Rescore>
     Score         DG    S(hbond)    S(metal)    S(lipo)     H(rot)  DE(clash)    DE(int)     intcor
     15.38     -16.10       0.44        0.00     110.50       1.47       0.36       0.37       ----

> <Gold.Chemscore.Fitness>
15.3755

> <Gold.Chemscore.DG>
-16.1040

> <Gold.Chemscore.ZeroCoef>
-5.4800

> <Gold.Chemscore.Hbond>
0.4392

> <Gold.Chemscore.Metal>
0.0000

> <Gold.Chemscore.Lipo>
110.5046

> <Gold.Chemscore.Internal_Hbond>
0.0000

> <Gold.Chemscore.DEClash>
0.3564

> <Gold.Chemscore.DEInternal>
0.3721

> <Gold.Chemscore.Rot>
1.4735

> <Gold.Chemscore.Internal.Correction>
   9.000000E+99

> <Gold.Chemscore.Hbonds>
donor molecule, donor type, donor heavy atom, donor atom, acceptor molecule, acceptor atom, score
      P1  H  7997  8009       L1     8  0.29

> <Gold.Chemscore.Hbond.Weighted>
-1.4670

> <Gold.Chemscore.Metal.Weighted>
-0.0000

> <Gold.Chemscore.Lipo.Weighted>
-12.9290

> <Gold.Chemscore.Internal_Hbond.Weighted>
0.0000

> <Gold.Chemscore.DEClash.Weighted>
0.3564

> <Gold.Chemscore.DEInternal.Weighted>
0.3721

> <Gold.Chemscore.Rot.Weighted>
3.7721

> <Gold.Chemscore.Internal.Correction.Weighted>
   9.000000E+99

> <Gold.Protein.RotatedTorsions>
[ 6907 6896 6895 6894 ] final -122.99 input  -60.11 | X-H torsion
[ 7974 7965 7964 7962 ] final   53.79 input  175.53 | X-H torsion
[ 8008 7997 7996 7995 ] final  139.53 input   59.86 | X-H torsion
[ 10167 10162 10161 10158 ] final -178.83 input  -65.29 | X-H torsion
[ 10718 10713 10712 10709 ] final -150.46 input   66.30 | X-H torsion
[ 10763 10752 10751 10750 ] final   96.96 input  -60.55 | X-H torsion
[ 11005 11000 10999 10996 ] final  -35.86 input  -57.11 | X-H torsion

> <Gold.Protein.ActiveResidues>
 VAL166  LYS551  ARG553  GLY616  TRP617  ASP618  TYR619  PRO620  LYS621  CYS622 
 ASP623  PHE694  ASN695  SER759  ASP760  ASP761  ALA762  ILE779  LEU786  VAL792 
 PHE793  MET794  SER795  GLU796  ALA797  LYS798  CYS799  TRP800  GLU811  SER814 

> <Gold.Protein.RotatedAtoms>
  150.8628  133.7619  159.2986 H   0  0  0  0  0  0  0  0  0  0  0  0  # atno 6907 bound_to 6896
  151.5256  135.1066  159.9899 H   0  0  0  0  0  0  0  0  0  0  0  0  # atno 6908 bound_to 6896
  152.4639  133.7836  159.6919 H   0  0  0  0  0  0  0  0  0  0  0  0  # atno 6909 bound_to 6896
  145.9676  139.4118  143.0210 H   0  0  0  0  0  0  0  0  0  0  0  0  # atno 7974 bound_to 7965
  156.2989  140.2365  156.4253 H   0  0  0  0  0  0  0  0  0  0  0  0  # atno 8008 bound_to 7997
  154.8319  140.0432  157.1503 H   0  0  0  0  0  0  0  0  0  0  0  0  # atno 8009 bound_to 7997
  154.9198  140.3002  155.5226 H   0  0  0  0  0  0  0  0  0  0  0  0  # atno 8010 bound_to 7997
  139.5414  144.2353  152.0903 H   0  0  0  0  0  0  0  0  0  0  0  0  # atno 10167 bound_to 10162
  156.4465  130.8147  151.2377 H   0  0  0  0  0  0  0  0  0  0  0  0  # atno 10718 bound_to 10713
  153.2712  135.4200  155.0989 H   0  0  0  0  0  0  0  0  0  0  0  0  # atno 10763 bound_to 10752
  154.8456  135.3472  154.6241 H   0  0  0  0  0  0  0  0  0  0  0  0  # atno 10764 bound_to 10752
  153.6661  135.7046  153.5219 H   0  0  0  0  0  0  0  0  0  0  0  0  # atno 10765 bound_to 10752
  140.9830  133.7046  156.1716 H   0  0  0  0  0  0  0  0  0  0  0  0  # atno 11005 bound_to 11000
  145.7952  140.9796  143.1028 LP  0  0  0  0  0  0  0  0  0  0  0  0  # atno 17320 bound_to 7965
  144.6829  139.9732  143.7482 LP  0  0  0  0  0  0  0  0  0  0  0  0  # atno 17321 bound_to 7965
  140.1832  144.4824  150.6517 LP  0  0  0  0  0  0  0  0  0  0  0  0  # atno 17342 bound_to 10162
  140.6645  143.2263  151.5775 LP  0  0  0  0  0  0  0  0  0  0  0  0  # atno 17343 bound_to 10162
  157.7504  131.0151  150.3493 LP  0  0  0  0  0  0  0  0  0  0  0  0  # atno 17370 bound_to 10713
  156.3862  130.3889  149.7064 LP  0  0  0  0  0  0  0  0  0  0  0  0  # atno 17371 bound_to 10713
  140.7158  134.4412  157.5578 LP  0  0  0  0  0  0  0  0  0  0  0  0  # atno 17394 bound_to 11000
  139.8958  134.8674  156.2115 LP  0  0  0  0  0  0  0  0  0  0  0  0  # atno 17395 bound_to 11000

$$$$
