AV-unprocessed.smi:415|AV-procd|sdf|2525|dock2
  -GOLD-   2262022483D 1   1.00000     0.00000
 Structure written by MMmdl.
 53 54  0  0  0  0  0  0  0  0  1 V2000
  147.7026  136.5217  163.0058 C   0  0  0  0  0  0  0  0  0  0  0  0
  147.6589  137.1621  161.7432 O   0  0  0  0  0  0  0  0  0  0  0  0
  148.0625  136.3080  160.6859 C   0  0  0  0  0  0  0  0  0  0  0  0
  147.7101  136.9591  159.3379 C   0  0  0  0  0  0  0  0  0  0  0  0
  148.6733  136.6661  158.2929 N   0  0  0  0  0  0  0  0  0  0  0  0
  148.3745  135.9128  157.1605 C   0  0  0  0  0  0  0  0  0  0  0  0
  147.1062  135.3834  157.0039 N   0  0  0  0  0  0  0  0  0  0  0  0
  149.3040  135.6732  156.2089 C   0  0  0  0  0  0  0  0  0  0  0  0
  150.6649  136.1806  156.3165 C   0  0  0  0  0  0  0  0  0  0  0  0
  151.5187  135.9911  155.4498 O   0  0  0  0  0  0  0  0  0  0  0  0
  150.9541  136.9176  157.4877 N   0  0  0  0  0  0  0  0  0  0  0  0
  152.3134  137.4735  157.6684 C   0  0  0  0  0  0  0  0  0  0  0  0
  152.3776  138.9895  157.4327 C   0  0  0  0  0  0  0  0  0  0  0  0
  153.0031  139.4534  156.4785 O   0  0  0  0  0  0  0  0  0  0  0  0
  151.7275  139.7502  158.3262 N   0  0  0  0  0  0  0  0  0  0  0  0
  151.6449  141.2090  158.2972 C   0  0  1  0  0  0  0  0  0  0  0  0
  150.1658  141.6418  158.2094 C   0  0  0  0  0  0  0  0  0  0  0  0
  150.0113  143.1680  158.2558 C   0  0  0  0  0  0  0  0  0  0  0  0
  150.6881  143.7561  159.5037 C   0  0  0  0  0  0  0  0  0  0  0  0
  152.1752  143.3588  159.6015 C   0  0  2  0  0  0  0  0  0  0  0  0
  153.0346  144.1124  158.5655 C   0  0  0  0  0  0  0  0  0  0  0  0
  152.3271  141.8146  159.5515 C   0  0  2  0  0  0  0  0  0  0  0  0
  153.7913  141.3627  159.7196 C   0  0  0  0  0  0  0  0  0  0  0  0
  149.9847  137.1706  158.4849 C   0  0  0  0  0  0  0  0  0  0  0  0
  150.2830  137.8188  159.4926 O   0  0  0  0  0  0  0  0  0  0  0  0
  147.3867  137.2198  163.7807 H   0  0  0  0  0  0  0  0  0  0  0  0
  148.7132  136.1879  163.2447 H   0  0  0  0  0  0  0  0  0  0  0  0
  147.0329  135.6609  163.0352 H   0  0  0  0  0  0  0  0  0  0  0  0
  149.1401  136.1471  160.7395 H   0  0  0  0  0  0  0  0  0  0  0  0
  147.5856  135.3312  160.7815 H   0  0  0  0  0  0  0  0  0  0  0  0
  146.7311  136.6375  158.9849 H   0  0  0  0  0  0  0  0  0  0  0  0
  147.6354  138.0449  159.4193 H   0  0  0  0  0  0  0  0  0  0  0  0
  146.3828  135.5282  157.6935 H   0  0  0  0  0  0  0  0  0  0  0  0
  146.8088  134.9828  156.1257 H   0  0  0  0  0  0  0  0  0  0  0  0
  149.0396  135.0882  155.3395 H   0  0  0  0  0  0  0  0  0  0  0  0
  152.6847  137.2452  158.6694 H   0  0  0  0  0  0  0  0  0  0  0  0
  153.0376  136.9991  157.0052 H   0  0  0  0  0  0  0  0  0  0  0  0
  151.2450  139.2841  159.0807 H   0  0  0  0  0  0  0  0  0  0  0  0
  152.1708  141.5678  157.4109 H   0  0  0  0  0  0  0  0  0  0  0  0
  149.7142  141.2607  157.2927 H   0  0  0  0  0  0  0  0  0  0  0  0
  149.6046  141.1994  159.0338 H   0  0  0  0  0  0  0  0  0  0  0  0
  150.4383  143.6087  157.3545 H   0  0  0  0  0  0  0  0  0  0  0  0
  148.9535  143.4315  158.2512 H   0  0  0  0  0  0  0  0  0  0  0  0
  150.5843  144.8415  159.5080 H   0  0  0  0  0  0  0  0  0  0  0  0
  150.1633  143.4010  160.3915 H   0  0  0  0  0  0  0  0  0  0  0  0
  152.5230  143.6882  160.5816 H   0  0  0  0  0  0  0  0  0  0  0  0
  152.8030  143.8156  157.5431 H   0  0  0  0  0  0  0  0  0  0  0  0
  154.0986  143.9406  158.7265 H   0  0  0  0  0  0  0  0  0  0  0  0
  152.8742  145.1884  158.6374 H   0  0  0  0  0  0  0  0  0  0  0  0
  151.7921  141.4277  160.4207 H   0  0  0  0  0  0  0  0  0  0  0  0
  154.3880  141.5975  158.8382 H   0  0  0  0  0  0  0  0  0  0  0  0
  153.8613  140.2871  159.8830 H   0  0  0  0  0  0  0  0  0  0  0  0
  154.2553  141.8482  160.5784 H   0  0  0  0  0  0  0  0  0  0  0  0
  1  2  1  0  0  0  0
  1 26  1  0  0  0  0
  1 27  1  0  0  0  0
  1 28  1  0  0  0  0
  2  3  1  0  0  0  0
  3  4  1  0  0  0  0
  3 29  1  0  0  0  0
  3 30  1  0  0  0  0
  4  5  1  0  0  0  0
  4 31  1  0  0  0  0
  4 32  1  0  0  0  0
  5 24  1  0  0  0  0
  5  6  1  0  0  0  0
  6  7  1  0  0  0  0
  6  8  2  0  0  0  0
  7 33  1  0  0  0  0
  7 34  1  0  0  0  0
  8  9  1  0  0  0  0
  8 35  1  0  0  0  0
  9 10  2  0  0  0  0
  9 11  1  0  0  0  0
 11 12  1  0  0  0  0
 11 24  1  0  0  0  0
 12 13  1  0  0  0  0
 12 36  1  0  0  0  0
 12 37  1  0  0  0  0
 13 14  2  0  0  0  0
 13 15  1  0  0  0  0
 15 16  1  0  0  0  0
 15 38  1  0  0  0  0
 16 22  1  0  0  0  0
 16 17  1  0  0  0  0
 16 39  1  0  0  0  0
 17 18  1  0  0  0  0
 17 40  1  0  0  0  0
 17 41  1  0  0  0  0
 18 19  1  0  0  0  0
 18 42  1  0  0  0  0
 18 43  1  0  0  0  0
 19 20  1  0  0  0  0
 19 44  1  0  0  0  0
 19 45  1  0  0  0  0
 20 21  1  0  0  0  0
 20 22  1  0  0  0  0
 20 46  1  0  0  0  0
 21 47  1  0  0  0  0
 21 48  1  0  0  0  0
 21 49  1  0  0  0  0
 22 23  1  0  0  0  0
 22 50  1  0  0  0  0
 23 51  1  0  0  0  0
 23 52  1  0  0  0  0
 23 53  1  0  0  0  0
 24 25  2  0  0  0  0
M  END
> <s_m_source_file>
AV-unprocessed.smi

> <i_m_source_file_index>
415

> <i_lp_mmshare_version>
43012

> <i_f3d_flags>
0

> <s_epik_input>
W0NIM11PW0NIMl1bQ0gyXW4xYyhbTkgyXSlbY0hdYyg9TyluKGMxPU8pW0NIMl1DKD1PKVtOSF1bQ0BASF0yW0NIMl1bQ0gyXVtDSDJdW0NAQEhdKFtDSDNdKVtDQEhdMltDSDNd

> <s_epik_cmdline>
J2VwaWtfcHl0aG9uJywgJy1waCcsICc3LjAnLCAnLXRuJywgJzgnLCAnLW1hJywgJzIwMCcsICctbWV0YWxfYmluZGluZycsICctaW1hZScsICc8aW5maWxlLm1hZT4nLCAnLW9tYWUnLCAnPG91dGZpbGUubWFlPic=

> <r_lp_tautomer_probability>
1

> <r_epik_Ionization_Penalty>
8.6647e-06

> <r_epik_Ionization_Penalty_Charging>
1.81162e-08

> <r_epik_Ionization_Penalty_Neutral>
8.64658e-06

> <r_epik_State_Penalty>
-0

> <r_epik_Charging_Adjusted_Penalty>
1.81162e-08

> <i_epik_Tot_Q>
0

> <i_epik_Tot_abs_Q>
0

> <r_epik_Metal_State_Penalty>
-0

> <b_epik_Metal_Only>
0

> <s_lp_Force_Field>
OPLS_2005

> <r_lp_Energy>
23.106

> <b_lp_Chiralities_Consistent>
1

> <s_lp_Variant>
AV-unprocessed.smi:415-8

> <Gold.Version>
5.8.1

> <Gold.Id.Protein>
6NUR|6NUR_protein|mol2

> <Gold.PLP.Fitness>
50.8332

> <Gold.PLP.PLP>
-40.7666

> <Gold.PLP.part.hbond>
-4.7994

> <Gold.PLP.part.metal>
0.0000

> <Gold.PLP.part.buried>
-5.5978

> <Gold.PLP.part.nonpolar>
-29.4253

> <Gold.PLP.part.repulsive>
0.1826

> <Gold.PLP.ligand.clash>
0.0000

> <Gold.PLP.ligand.torsion>
0.5168

> <Gold.PLP.Chemscore.Hbond>
3.6940

> <Gold.PLP.Chemscore.CHOScore>
0.0000

> <Gold.PLP.Chemscore.Metal>
0.0000

> <Gold.Chemscore.Hbonds>
donor molecule, donor type, donor heavy atom, donor atom, acceptor molecule, acceptor atom, score
      P1  H  6931  6943       L1     2  1.00
      P1  H  6934  6947       L1     2  0.63
      P1  H  7997  8009       L1    14  1.00
      P1  H 10752 10763       L1    10  1.00

> <Gold.PLP.Chemscore.Internal.Correction>
0.0181

> <Gold.Rescore>
     Score         DG    S(hbond)    S(metal)    S(lipo)     H(rot)  DE(clash)    DE(int)     intcor
     18.15     -21.20       3.05        0.00      96.94       2.26       0.00       3.05       ----

> <Gold.Chemscore.Fitness>
18.1454

> <Gold.Chemscore.DG>
-21.1962

> <Gold.Chemscore.ZeroCoef>
-5.4800

> <Gold.Chemscore.Hbond>
3.0453

> <Gold.Chemscore.Metal>
0.0000

> <Gold.Chemscore.Lipo>
96.9405

> <Gold.Chemscore.Internal_Hbond>
0.0000

> <Gold.Chemscore.DEClash>
0.0009

> <Gold.Chemscore.DEInternal>
3.0499

> <Gold.Chemscore.Rot>
2.2645

> <Gold.Chemscore.Internal.Correction>
   9.000000E+99

> <Gold.Chemscore.Hbonds>
donor molecule, donor type, donor heavy atom, donor atom, acceptor molecule, acceptor atom, score
      P1  H  6931  6943       L1     2  0.10
      P1  H  6934  6947       L1     2  0.43
      P1  H  7997  8009       L1    14  0.92
      P1  H 10752 10763       L1    10  1.00

> <Gold.Chemscore.Hbond.Weighted>
-10.1714

> <Gold.Chemscore.Metal.Weighted>
-0.0000

> <Gold.Chemscore.Lipo.Weighted>
-11.3420

> <Gold.Chemscore.Internal_Hbond.Weighted>
0.0000

> <Gold.Chemscore.DEClash.Weighted>
0.0009

> <Gold.Chemscore.DEInternal.Weighted>
3.0499

> <Gold.Chemscore.Rot.Weighted>
5.7972

> <Gold.Chemscore.Internal.Correction.Weighted>
   9.000000E+99

> <Gold.Protein.RotatedTorsions>
[ 6907 6896 6895 6894 ] final  -73.56 input  -60.11 | X-H torsion
[ 7974 7965 7964 7962 ] final  -84.41 input  175.53 | X-H torsion
[ 8008 7997 7996 7995 ] final -151.29 input   59.86 | X-H torsion
[ 10167 10162 10161 10158 ] final  100.74 input  -65.29 | X-H torsion
[ 10718 10713 10712 10709 ] final  166.81 input   66.30 | X-H torsion
[ 10763 10752 10751 10750 ] final   72.18 input  -60.55 | X-H torsion
[ 11005 11000 10999 10996 ] final  -52.59 input  -57.11 | X-H torsion

> <Gold.Protein.ActiveResidues>
 VAL166  LYS551  ARG553  GLY616  TRP617  ASP618  TYR619  PRO620  LYS621  CYS622 
 ASP623  PHE694  ASN695  SER759  ASP760  ASP761  ALA762  ILE779  LEU786  VAL792 
 PHE793  MET794  SER795  GLU796  ALA797  LYS798  CYS799  TRP800  GLU811  SER814 

> <Gold.Protein.RotatedAtoms>
  150.7125  134.4999  159.5555 H   0  0  0  0  0  0  0  0  0  0  0  0  # atno 6907 bound_to 6896
  152.2598  134.8043  160.0441 H   0  0  0  0  0  0  0  0  0  0  0  0  # atno 6908 bound_to 6896
  151.8760  133.3450  159.3787 H   0  0  0  0  0  0  0  0  0  0  0  0  # atno 6909 bound_to 6896
  145.5070  140.9543  143.1728 H   0  0  0  0  0  0  0  0  0  0  0  0  # atno 7974 bound_to 7965
  155.6370  140.0697  157.2630 H   0  0  0  0  0  0  0  0  0  0  0  0  # atno 8008 bound_to 7997
  154.4192  140.1757  156.1582 H   0  0  0  0  0  0  0  0  0  0  0  0  # atno 8009 bound_to 7997
  155.9886  140.3347  155.6734 H   0  0  0  0  0  0  0  0  0  0  0  0  # atno 8010 bound_to 7997
  139.7500  144.6986  151.0446 H   0  0  0  0  0  0  0  0  0  0  0  0  # atno 10167 bound_to 10162
  157.0606  131.0339  151.2648 H   0  0  0  0  0  0  0  0  0  0  0  0  # atno 10718 bound_to 10713
  153.0443  135.5109  154.7705 H   0  0  0  0  0  0  0  0  0  0  0  0  # atno 10763 bound_to 10752
  154.6617  135.2939  154.9860 H   0  0  0  0  0  0  0  0  0  0  0  0  # atno 10764 bound_to 10752
  154.0708  135.6678  153.4876 H   0  0  0  0  0  0  0  0  0  0  0  0  # atno 10765 bound_to 10752
  141.0932  133.6629  156.4047 H   0  0  0  0  0  0  0  0  0  0  0  0  # atno 11005 bound_to 11000
  144.7748  139.6654  143.7179 LP  0  0  0  0  0  0  0  0  0  0  0  0  # atno 17320 bound_to 7965
  146.2190  139.5601  142.9631 LP  0  0  0  0  0  0  0  0  0  0  0  0  # atno 17321 bound_to 7965
  140.7797  143.4820  151.0006 LP  0  0  0  0  0  0  0  0  0  0  0  0  # atno 17342 bound_to 10162
  139.8508  143.7441  152.3178 LP  0  0  0  0  0  0  0  0  0  0  0  0  # atno 17343 bound_to 10162
  157.4958  130.7849  149.7553 LP  0  0  0  0  0  0  0  0  0  0  0  0  # atno 17370 bound_to 10713
  155.9979  130.3897  150.2720 LP  0  0  0  0  0  0  0  0  0  0  0  0  # atno 17371 bound_to 10713
  140.5202  134.6312  157.5315 LP  0  0  0  0  0  0  0  0  0  0  0  0  # atno 17394 bound_to 11000
  139.9763  134.7210  155.9944 LP  0  0  0  0  0  0  0  0  0  0  0  0  # atno 17395 bound_to 11000

$$$$
