AV-unprocessed.smi:2603|AV-procd|sdf|10187|dock2
  -GOLD-   2272014203D 1   1.00000     0.00000
 Structure written by MMmdl.
 35 36  0  0  0  0  0  0  0  0  1 V2000
  153.2119  142.2520  161.2283 C   0  0  0  0  0  0  0  0  0  0  0  0
  152.4452  143.1355  160.2414 C   0  0  0  0  0  0  0  0  0  0  0  0
  152.5142  142.5526  158.9527 O   0  0  0  0  0  0  0  0  0  0  0  0
  151.6416  143.1860  158.0307 C   0  0  2  0  0  0  0  0  0  0  0  0
  150.2030  142.7753  158.1757 C   0  0  0  0  0  0  0  0  0  0  0  0
  151.0330  142.2317  157.0257 C   0  0  2  0  0  0  0  0  0  0  0  0
  151.4239  140.8612  157.0834 N   0  0  0  0  0  0  0  0  0  0  0  0
  151.3159  139.9693  156.0879 C   0  0  0  0  0  0  0  0  0  0  0  0
  150.8113  140.2245  154.9949 O   0  0  0  0  0  0  0  0  0  0  0  0
  151.8734  138.5724  156.3672 C   0  0  0  0  0  0  0  0  0  0  0  0
  151.3736  138.0741  157.7014 C   0  0  0  0  0  0  0  0  0  0  0  0
  150.0374  138.0893  158.1958 C   0  0  0  0  0  0  0  0  0  0  0  0
  148.7959  138.6043  157.5260 C   0  0  0  0  0  0  0  0  0  0  0  0
  149.9526  137.5669  159.4075 N   0  0  0  0  0  0  0  0  0  0  0  0
  151.2514  137.1789  159.7492 O   0  0  0  0  0  0  0  0  0  0  0  0
  152.0780  137.4893  158.7189 C   0  0  0  0  0  0  0  0  0  0  0  0
  153.5166  137.1380  158.8956 C   0  0  0  0  0  0  0  0  0  0  0  0
  153.2007  142.6855  162.2283 H   0  0  0  0  0  0  0  0  0  0  0  0
  154.2527  142.1372  160.9243 H   0  0  0  0  0  0  0  0  0  0  0  0
  152.7689  141.2582  161.2907 H   0  0  0  0  0  0  0  0  0  0  0  0
  151.4048  143.2314  160.5555 H   0  0  0  0  0  0  0  0  0  0  0  0
  152.8796  144.1360  160.2228 H   0  0  0  0  0  0  0  0  0  0  0  0
  151.9141  144.1920  157.7156 H   0  0  0  0  0  0  0  0  0  0  0  0
  149.9515  142.0980  158.9897 H   0  0  0  0  0  0  0  0  0  0  0  0
  149.4445  143.5185  157.9384 H   0  0  0  0  0  0  0  0  0  0  0  0
  150.8104  142.6455  156.0433 H   0  0  0  0  0  0  0  0  0  0  0  0
  151.8623  140.5557  157.9401 H   0  0  0  0  0  0  0  0  0  0  0  0
  151.5781  137.9086  155.5542 H   0  0  0  0  0  0  0  0  0  0  0  0
  152.9633  138.6096  156.3442 H   0  0  0  0  0  0  0  0  0  0  0  0
  148.8820  138.5533  156.4403 H   0  0  0  0  0  0  0  0  0  0  0  0
  148.6103  139.6439  157.7961 H   0  0  0  0  0  0  0  0  0  0  0  0
  147.9182  138.0232  157.8115 H   0  0  0  0  0  0  0  0  0  0  0  0
  154.0979  137.3959  158.0106 H   0  0  0  0  0  0  0  0  0  0  0  0
  153.6324  136.0690  159.0719 H   0  0  0  0  0  0  0  0  0  0  0  0
  153.9422  137.6696  159.7466 H   0  0  0  0  0  0  0  0  0  0  0  0
  1  2  1  0  0  0  0
  1 18  1  0  0  0  0
  1 19  1  0  0  0  0
  1 20  1  0  0  0  0
  2  3  1  0  0  0  0
  2 21  1  0  0  0  0
  2 22  1  0  0  0  0
  3  4  1  0  0  0  0
  4  6  1  0  0  0  0
  4  5  1  0  0  0  0
  4 23  1  0  0  0  0
  5  6  1  0  0  0  0
  5 24  1  0  0  0  0
  5 25  1  0  0  0  0
  6  7  1  0  0  0  0
  6 26  1  0  0  0  0
  7  8  1  0  0  0  0
  7 27  1  0  0  0  0
  8  9  2  0  0  0  0
  8 10  1  0  0  0  0
 10 11  1  0  0  0  0
 10 28  1  0  0  0  0
 10 29  1  0  0  0  0
 11 16  2  0  0  0  0
 11 12  1  0  0  0  0
 12 13  1  0  0  0  0
 12 14  2  0  0  0  0
 13 30  1  0  0  0  0
 13 31  1  0  0  0  0
 13 32  1  0  0  0  0
 14 15  1  0  0  0  0
 15 16  1  0  0  0  0
 16 17  1  0  0  0  0
 17 33  1  0  0  0  0
 17 34  1  0  0  0  0
 17 35  1  0  0  0  0
M  END
> <s_m_source_file>
AV-unprocessed.smi

> <i_m_source_file_index>
2603

> <i_lp_mmshare_version>
43012

> <i_f3d_flags>
0

> <s_epik_input>
W0NIM11bQ0gyXU9bQ0BASF0xW0NIMl1bQ0BIXTFbTkhdQyg9TylbQ0gyXWMyYyhbQ0gzXSlub2MyW0NIM10=

> <s_epik_cmdline>
J2VwaWtfcHl0aG9uJywgJy1waCcsICc3LjAnLCAnLXRuJywgJzgnLCAnLW1hJywgJzIwMCcsICctbWV0YWxfYmluZGluZycsICctaW1hZScsICc8aW5maWxlLm1hZT4nLCAnLW9tYWUnLCAnPG91dGZpbGUubWFlPic=

> <r_lp_tautomer_probability>
1

> <r_epik_Ionization_Penalty>
2.37325e-08

> <r_epik_Ionization_Penalty_Charging>
0

> <r_epik_Ionization_Penalty_Neutral>
2.37325e-08

> <r_epik_State_Penalty>
-0

> <r_epik_Charging_Adjusted_Penalty>
0

> <i_epik_Tot_Q>
0

> <i_epik_Tot_abs_Q>
0

> <r_epik_Metal_State_Penalty>
-0

> <b_epik_Metal_Only>
0

> <s_lp_Force_Field>
OPLS_2005

> <r_lp_Energy>
11.1697

> <b_lp_Chiralities_Consistent>
1

> <s_lp_Variant>
AV-unprocessed.smi:2603-3

> <Gold.Version>
5.8.1

> <Gold.Id.Protein>
6NUR|6NUR_protein|mol2

> <Gold.PLP.Fitness>
33.5306

> <Gold.PLP.PLP>
-28.5156

> <Gold.PLP.part.hbond>
-2.8685

> <Gold.PLP.part.metal>
0.0000

> <Gold.PLP.part.buried>
-6.6097

> <Gold.PLP.part.nonpolar>
-19.8073

> <Gold.PLP.part.repulsive>
0.1409

> <Gold.PLP.ligand.clash>
0.0000

> <Gold.PLP.ligand.torsion>
0.8268

> <Gold.PLP.Chemscore.Hbond>
1.9913

> <Gold.PLP.Chemscore.CHOScore>
0.0000

> <Gold.PLP.Chemscore.Metal>
0.0000

> <Gold.Chemscore.Hbonds>
donor molecule, donor type, donor heavy atom, donor atom, acceptor molecule, acceptor atom, score
      P1  H  6896  6908       L1    15  1.00
      P1  H  7989  7998       L1     9  1.00

> <Gold.PLP.Chemscore.Internal.Correction>
0.6948

> <Gold.Rescore>
     Score         DG    S(hbond)    S(metal)    S(lipo)     H(rot)  DE(clash)    DE(int)     intcor
     15.05     -15.82       1.89        0.00      71.41       1.69       0.00       0.78       ----

> <Gold.Chemscore.Fitness>
15.0469

> <Gold.Chemscore.DG>
-15.8221

> <Gold.Chemscore.ZeroCoef>
-5.4800

> <Gold.Chemscore.Hbond>
1.8927

> <Gold.Chemscore.Metal>
0.0000

> <Gold.Chemscore.Lipo>
71.4108

> <Gold.Chemscore.Internal_Hbond>
0.0000

> <Gold.Chemscore.DEClash>
0.0000

> <Gold.Chemscore.DEInternal>
0.7752

> <Gold.Chemscore.Rot>
1.6933

> <Gold.Chemscore.Internal.Correction>
   9.000000E+99

> <Gold.Chemscore.Hbonds>
donor molecule, donor type, donor heavy atom, donor atom, acceptor molecule, acceptor atom, score
      P1  H  6896  6908       L1    15  0.38
      P1  H  7989  7998       L1     9  1.00

> <Gold.Chemscore.Hbond.Weighted>
-6.3218

> <Gold.Chemscore.Metal.Weighted>
-0.0000

> <Gold.Chemscore.Lipo.Weighted>
-8.3551

> <Gold.Chemscore.Internal_Hbond.Weighted>
0.0000

> <Gold.Chemscore.DEClash.Weighted>
0.0000

> <Gold.Chemscore.DEInternal.Weighted>
0.7752

> <Gold.Chemscore.Rot.Weighted>
4.3348

> <Gold.Chemscore.Internal.Correction.Weighted>
   9.000000E+99

> <Gold.Protein.RotatedTorsions>
[ 6907 6896 6895 6894 ] final -128.98 input  -60.11 | X-H torsion
[ 7974 7965 7964 7962 ] final   -0.78 input  175.53 | X-H torsion
[ 8008 7997 7996 7995 ] final  -29.04 input   59.86 | X-H torsion
[ 10167 10162 10161 10158 ] final  103.00 input  -65.29 | X-H torsion
[ 10718 10713 10712 10709 ] final  105.41 input   66.30 | X-H torsion
[ 10763 10752 10751 10750 ] final  111.77 input  -60.55 | X-H torsion
[ 11005 11000 10999 10996 ] final -127.26 input  -57.11 | X-H torsion

> <Gold.Protein.ActiveResidues>
 VAL166  LYS551  ARG553  GLY616  TRP617  ASP618  TYR619  PRO620  LYS621  CYS622 
 ASP623  PHE694  ASN695  SER759  ASP760  ASP761  ALA762  ILE779  LEU786  VAL792 
 PHE793  MET794  SER795  GLU796  ALA797  LYS798  CYS799  TRP800  GLU811  SER814 

> <Gold.Protein.RotatedAtoms>
  150.9237  133.6849  159.2825 H   0  0  0  0  0  0  0  0  0  0  0  0  # atno 6907 bound_to 6896
  151.4295  135.1006  159.9647 H   0  0  0  0  0  0  0  0  0  0  0  0  # atno 6908 bound_to 6896
  152.4992  133.8671  159.7334 H   0  0  0  0  0  0  0  0  0  0  0  0  # atno 6909 bound_to 6896
  146.2424  140.1322  142.8337 H   0  0  0  0  0  0  0  0  0  0  0  0  # atno 7974 bound_to 7965
  154.4306  140.1829  156.1185 H   0  0  0  0  0  0  0  0  0  0  0  0  # atno 8008 bound_to 7997
  156.0161  140.3345  155.6965 H   0  0  0  0  0  0  0  0  0  0  0  0  # atno 8009 bound_to 7997
  155.6042  140.0643  157.2715 H   0  0  0  0  0  0  0  0  0  0  0  0  # atno 8010 bound_to 7997
  139.7301  144.7038  151.0736 H   0  0  0  0  0  0  0  0  0  0  0  0  # atno 10167 bound_to 10162
  157.6706  131.0827  150.5853 H   0  0  0  0  0  0  0  0  0  0  0  0  # atno 10718 bound_to 10713
  153.4681  135.3707  155.2376 H   0  0  0  0  0  0  0  0  0  0  0  0  # atno 10763 bound_to 10752
  154.8757  135.3925  154.3844 H   0  0  0  0  0  0  0  0  0  0  0  0  # atno 10764 bound_to 10752
  153.4428  135.7084  153.6222 H   0  0  0  0  0  0  0  0  0  0  0  0  # atno 10765 bound_to 10752
  140.9614  134.0931  157.3964 H   0  0  0  0  0  0  0  0  0  0  0  0  # atno 11005 bound_to 11000
  145.0317  140.8876  143.5105 LP  0  0  0  0  0  0  0  0  0  0  0  0  # atno 17320 bound_to 7965
  145.1387  139.2586  143.5501 LP  0  0  0  0  0  0  0  0  0  0  0  0  # atno 17321 bound_to 7965
  140.7769  143.5054  150.9718 LP  0  0  0  0  0  0  0  0  0  0  0  0  # atno 17342 bound_to 10162
  139.8742  143.7153  152.3163 LP  0  0  0  0  0  0  0  0  0  0  0  0  # atno 17343 bound_to 10162
  156.6153  130.4391  149.5843 LP  0  0  0  0  0  0  0  0  0  0  0  0  # atno 17370 bound_to 10713
  156.2398  130.6844  151.1544 LP  0  0  0  0  0  0  0  0  0  0  0  0  # atno 17371 bound_to 10713
  139.8879  135.0094  156.6590 LP  0  0  0  0  0  0  0  0  0  0  0  0  # atno 17394 bound_to 11000
  140.7462  133.8936  155.8313 LP  0  0  0  0  0  0  0  0  0  0  0  0  # atno 17395 bound_to 11000

$$$$
