AV-unprocessed.smi:952|AV-procd|sdf|4255|dock8
  -GOLD-   22720 2163D 1   1.00000     0.00000
 Structure written by MMmdl.
 35 35  0  0  0  0  0  0  0  0  1 V2000
  144.9673  136.4436  151.4985 C   0  0  0  0  0  0  0  0  0  0  0  0
  145.7808  135.3835  150.7488 C   0  0  0  0  0  0  0  0  0  0  0  0
  146.4001  134.3414  151.6946 C   0  0  0  0  0  0  0  0  0  0  0  0
  146.9903  134.9677  152.8719 N   0  0  0  0  0  0  0  0  0  0  0  0
  146.5907  134.7609  154.1356 C   0  0  0  0  0  0  0  0  0  0  0  0
  145.6528  134.0195  154.4341 O   0  0  0  0  0  0  0  0  0  0  0  0
  147.3563  135.5269  155.2212 C   0  0  0  0  0  0  0  0  0  0  0  0
  148.4243  136.3497  154.6615 N   0  0  0  0  0  0  0  0  0  0  0  0
  149.1910  137.2018  155.3610 C   0  0  0  0  0  0  0  0  0  0  0  0
  149.1190  137.3222  156.5848 O   0  0  0  0  0  0  0  0  0  0  0  0
  150.1701  138.0575  154.5438 C   0  0  2  0  0  0  0  0  0  0  0  0
  151.6378  137.8572  154.9746 C   0  0  0  0  0  0  0  0  0  0  0  0
  149.7574  139.4560  154.5902 N   0  0  0  0  0  0  0  0  0  0  0  0
  148.5615  139.9996  154.1656 C   0  0  0  0  0  0  0  0  0  0  0  0
  148.5883  141.3333  154.4564 C   0  0  0  0  0  0  0  0  0  0  0  0
  149.8525  141.5163  155.0821 C   0  0  0  0  0  0  0  0  0  0  0  0
  150.5449  140.3927  155.1690 N   0  0  0  0  0  0  0  0  0  0  0  0
  144.5413  137.1684  150.8044 H   0  0  0  0  0  0  0  0  0  0  0  0
  145.5895  136.9883  152.2090 H   0  0  0  0  0  0  0  0  0  0  0  0
  144.1446  135.9894  152.0515 H   0  0  0  0  0  0  0  0  0  0  0  0
  145.1347  134.8889  150.0222 H   0  0  0  0  0  0  0  0  0  0  0  0
  146.5692  135.8735  150.1762 H   0  0  0  0  0  0  0  0  0  0  0  0
  145.6324  133.6446  152.0320 H   0  0  0  0  0  0  0  0  0  0  0  0
  147.1504  133.7465  151.1708 H   0  0  0  0  0  0  0  0  0  0  0  0
  147.7650  135.5962  152.7153 H   0  0  0  0  0  0  0  0  0  0  0  0
  146.6707  136.1390  155.8103 H   0  0  0  0  0  0  0  0  0  0  0  0
  147.8007  134.8052  155.9066 H   0  0  0  0  0  0  0  0  0  0  0  0
  148.5458  136.3154  153.6598 H   0  0  0  0  0  0  0  0  0  0  0  0
  150.0964  137.7382  153.5028 H   0  0  0  0  0  0  0  0  0  0  0  0
  151.9379  136.8142  154.8688 H   0  0  0  0  0  0  0  0  0  0  0  0
  151.8062  138.1442  156.0134 H   0  0  0  0  0  0  0  0  0  0  0  0
  152.3082  138.4535  154.3550 H   0  0  0  0  0  0  0  0  0  0  0  0
  147.7962  139.3969  153.6989 H   0  0  0  0  0  0  0  0  0  0  0  0
  147.8187  142.0648  154.2602 H   0  0  0  0  0  0  0  0  0  0  0  0
  150.2820  142.4246  155.4785 H   0  0  0  0  0  0  0  0  0  0  0  0
  1  2  1  0  0  0  0
  1 18  1  0  0  0  0
  1 19  1  0  0  0  0
  1 20  1  0  0  0  0
  2  3  1  0  0  0  0
  2 21  1  0  0  0  0
  2 22  1  0  0  0  0
  3  4  1  0  0  0  0
  3 23  1  0  0  0  0
  3 24  1  0  0  0  0
  4  5  1  0  0  0  0
  4 25  1  0  0  0  0
  5  6  2  0  0  0  0
  5  7  1  0  0  0  0
  7  8  1  0  0  0  0
  7 26  1  0  0  0  0
  7 27  1  0  0  0  0
  8  9  1  0  0  0  0
  8 28  1  0  0  0  0
  9 10  2  0  0  0  0
  9 11  1  0  0  0  0
 11 12  1  0  0  0  0
 11 13  1  0  0  0  0
 11 29  1  0  0  0  0
 12 30  1  0  0  0  0
 12 31  1  0  0  0  0
 12 32  1  0  0  0  0
 13 17  1  0  0  0  0
 13 14  1  0  0  0  0
 14 15  2  0  0  0  0
 14 33  1  0  0  0  0
 15 16  1  0  0  0  0
 15 34  1  0  0  0  0
 16 17  2  0  0  0  0
 16 35  1  0  0  0  0
M  END
> <s_m_source_file>
AV-unprocessed.smi

> <i_m_source_file_index>
952

> <i_lp_mmshare_version>
43012

> <i_f3d_flags>
0

> <s_epik_input>
W0NIM11bQ0gyXVtDSDJdW05IXUMoPU8pW0NIMl1bTkhdQyg9TylbQ0BIXShbQ0gzXSluMVtjSF1bY0hdW2NIXW4x

> <s_epik_cmdline>
J2VwaWtfcHl0aG9uJywgJy1waCcsICc3LjAnLCAnLXRuJywgJzgnLCAnLW1hJywgJzIwMCcsICctbWV0YWxfYmluZGluZycsICctaW1hZScsICc8aW5maWxlLm1hZT4nLCAnLW9tYWUnLCAnPG91dGZpbGUubWFlPic=

> <r_lp_tautomer_probability>
1

> <r_epik_Ionization_Penalty>
2.62173e-05

> <r_epik_Ionization_Penalty_Charging>
0

> <r_epik_Ionization_Penalty_Neutral>
2.62173e-05

> <r_epik_State_Penalty>
-0

> <r_epik_Charging_Adjusted_Penalty>
0

> <i_epik_Tot_Q>
0

> <i_epik_Tot_abs_Q>
0

> <r_epik_Metal_State_Penalty>
-0

> <b_epik_Metal_Only>
0

> <s_lp_Force_Field>
OPLS_2005

> <r_lp_Energy>
2.54984

> <b_lp_Chiralities_Consistent>
1

> <s_lp_Variant>
AV-unprocessed.smi:952-1

> <Gold.Version>
5.8.1

> <Gold.Id.Protein>
6NUR|6NUR_protein|mol2

> <Gold.PLP.Fitness>
38.9698

> <Gold.PLP.PLP>
-27.2843

> <Gold.PLP.part.hbond>
-3.0000

> <Gold.PLP.part.metal>
0.0000

> <Gold.PLP.part.buried>
-3.0615

> <Gold.PLP.part.nonpolar>
-22.2788

> <Gold.PLP.part.repulsive>
0.1626

> <Gold.PLP.ligand.clash>
0.0000

> <Gold.PLP.ligand.torsion>
0.2149

> <Gold.PLP.Chemscore.Hbond>
2.9920

> <Gold.PLP.Chemscore.CHOScore>
1.0000

> <Gold.PLP.Chemscore.Metal>
0.0000

> <Gold.Chemscore.Hbonds>
donor molecule, donor type, donor heavy atom, donor atom, acceptor molecule, acceptor atom, score
      L1  H     4    25       P1  7948  1.00
      L1  H     8    28       P1  7948  1.00
      P1  H  7989  7998       L1    17  0.45
      L1  C    16    35       P1  8028  0.51

> <Gold.PLP.Chemscore.Internal.Correction>
0.1393

> <Gold.Rescore>
     Score         DG    S(hbond)    S(metal)    S(lipo)     H(rot)  DE(clash)    DE(int)     intcor
     14.52     -14.92       2.62        0.00      54.75       2.24       0.00       0.40       ----

> <Gold.Chemscore.Fitness>
14.5155

> <Gold.Chemscore.DG>
-14.9160

> <Gold.Chemscore.ZeroCoef>
-5.4800

> <Gold.Chemscore.Hbond>
2.6214

> <Gold.Chemscore.Metal>
0.0000

> <Gold.Chemscore.Lipo>
54.7486

> <Gold.Chemscore.Internal_Hbond>
0.0000

> <Gold.Chemscore.DEClash>
0.0000

> <Gold.Chemscore.DEInternal>
0.4005

> <Gold.Chemscore.Rot>
2.2364

> <Gold.Chemscore.Internal.Correction>
   9.000000E+99

> <Gold.Chemscore.Hbonds>
donor molecule, donor type, donor heavy atom, donor atom, acceptor molecule, acceptor atom, score
      L1  H     4    25       P1  7948  0.94
      L1  H     8    28       P1  7948  1.00

> <Gold.Chemscore.Hbond.Weighted>
-8.7555

> <Gold.Chemscore.Metal.Weighted>
-0.0000

> <Gold.Chemscore.Lipo.Weighted>
-6.4056

> <Gold.Chemscore.Internal_Hbond.Weighted>
0.0000

> <Gold.Chemscore.DEClash.Weighted>
0.0000

> <Gold.Chemscore.DEInternal.Weighted>
0.4005

> <Gold.Chemscore.Rot.Weighted>
5.7251

> <Gold.Chemscore.Internal.Correction.Weighted>
   9.000000E+99

> <Gold.Protein.RotatedTorsions>
[ 6907 6896 6895 6894 ] final  138.69 input  -60.11 | X-H torsion
[ 7974 7965 7964 7962 ] final -162.95 input  175.53 | X-H torsion
[ 8008 7997 7996 7995 ] final -124.42 input   59.86 | X-H torsion
[ 10167 10162 10161 10158 ] final   41.95 input  -65.29 | X-H torsion
[ 10718 10713 10712 10709 ] final   27.78 input   66.30 | X-H torsion
[ 10763 10752 10751 10750 ] final  179.28 input  -60.55 | X-H torsion
[ 11005 11000 10999 10996 ] final  -49.80 input  -57.11 | X-H torsion

> <Gold.Protein.ActiveResidues>
 VAL166  LYS551  ARG553  GLY616  TRP617  ASP618  TYR619  PRO620  LYS621  CYS622 
 ASP623  PHE694  ASN695  SER759  ASP760  ASP761  ALA762  ILE779  LEU786  VAL792 
 PHE793  MET794  SER795  GLU796  ALA797  LYS798  CYS799  TRP800  GLU811  SER814 

> <Gold.Protein.RotatedAtoms>
  152.2636  133.5319  159.5396 H   0  0  0  0  0  0  0  0  0  0  0  0  # atno 6907 bound_to 6896
  150.7134  134.0795  159.3902 H   0  0  0  0  0  0  0  0  0  0  0  0  # atno 6908 bound_to 6896
  151.8712  135.0489  160.0530 H   0  0  0  0  0  0  0  0  0  0  0  0  # atno 6909 bound_to 6896
  144.7341  140.3178  143.6176 H   0  0  0  0  0  0  0  0  0  0  0  0  # atno 7974 bound_to 7965
  155.1966  140.0414  157.2910 H   0  0  0  0  0  0  0  0  0  0  0  0  # atno 8008 bound_to 7997
  154.6103  140.2475  155.7650 H   0  0  0  0  0  0  0  0  0  0  0  0  # atno 8009 bound_to 7997
  156.2375  140.2916  156.0361 H   0  0  0  0  0  0  0  0  0  0  0  0  # atno 8010 bound_to 7997
  140.3592  144.2250  150.6139 H   0  0  0  0  0  0  0  0  0  0  0  0  # atno 10167 bound_to 10162
  157.2247  130.6995  149.6286 H   0  0  0  0  0  0  0  0  0  0  0  0  # atno 10718 bound_to 10713
  154.5186  135.2792  155.1281 H   0  0  0  0  0  0  0  0  0  0  0  0  # atno 10763 bound_to 10752
  154.2848  135.6278  153.5365 H   0  0  0  0  0  0  0  0  0  0  0  0  # atno 10764 bound_to 10752
  152.9932  135.5660  154.5670 H   0  0  0  0  0  0  0  0  0  0  0  0  # atno 10765 bound_to 10752
  141.0780  133.6660  156.3639 H   0  0  0  0  0  0  0  0  0  0  0  0  # atno 11005 bound_to 11000
  145.7599  139.1821  143.2273 LP  0  0  0  0  0  0  0  0  0  0  0  0  # atno 17320 bound_to 7965
  146.0995  140.7561  142.9556 LP  0  0  0  0  0  0  0  0  0  0  0  0  # atno 17321 bound_to 7965
  140.5143  143.2282  151.8487 LP  0  0  0  0  0  0  0  0  0  0  0  0  # atno 17342 bound_to 10162
  139.4816  144.4912  151.9182 LP  0  0  0  0  0  0  0  0  0  0  0  0  # atno 17343 bound_to 10162
  155.9679  130.4508  150.5712 LP  0  0  0  0  0  0  0  0  0  0  0  0  # atno 17370 bound_to 10713
  157.3540  131.0738  151.1690 LP  0  0  0  0  0  0  0  0  0  0  0  0  # atno 17371 bound_to 10713
  140.5531  134.6008  157.5413 LP  0  0  0  0  0  0  0  0  0  0  0  0  # atno 17394 bound_to 11000
  139.9593  134.7481  156.0273 LP  0  0  0  0  0  0  0  0  0  0  0  0  # atno 17395 bound_to 11000

$$$$
