AV-unprocessed.smi:1911|AV-procd|sdf|7743|dock4
  -GOLD-   22720 9483D 1   1.00000     0.00000
 Structure written by MMmdl.
 53 55  0  0  0  0  0  0  0  0  3 V2000
  146.3515  131.4940  149.6987 N   0  0  0  0  0  0  0  0  0  0  0  0
  145.2753  131.9285  150.3582 C   0  0  0  0  0  0  0  0  0  0  0  0
  144.1356  131.7866  149.9185 O   0  0  0  0  0  0  0  0  0  0  0  0
  145.5200  132.6021  151.7125 C   0  0  0  0  0  0  0  0  0  0  0  0
  145.0871  134.0232  151.7436 N   0  3  2  0  0  0  0  0  0  0  0  0
  145.7752  134.8648  150.7283 C   0  0  0  0  0  0  0  0  0  0  0  0
  145.1951  136.2896  150.7034 C   0  0  0  0  0  0  0  0  0  0  0  0
  145.2507  136.9602  152.0906 C   0  0  2  0  0  0  0  0  0  0  0  0
  146.6204  137.2938  152.4817 N   0  0  0  0  0  0  0  0  0  0  0  0
  146.9677  138.2759  153.3263 C   0  0  0  0  0  0  0  0  0  0  0  0
  146.1549  139.0304  153.8594 O   0  0  0  0  0  0  0  0  0  0  0  0
  148.3009  138.3319  153.4868 N   0  0  0  0  0  0  0  0  0  0  0  0
  149.0561  139.2232  154.2958 C   0  0  0  0  0  0  0  0  0  0  0  0
  148.5550  140.4448  154.8109 C   0  0  0  0  0  0  0  0  0  0  0  0
  149.3833  141.2485  155.6213 C   0  0  0  0  0  0  0  0  0  0  0  0
  150.7021  140.8244  155.9075 C   0  0  0  0  0  0  0  0  0  0  0  0
  151.5974  141.5382  156.7187 N   0  0  0  0  0  0  0  0  0  0  0  0
  151.1191  142.7995  157.2821 C   0  0  0  0  0  0  0  0  0  0  0  0
  151.6386  142.8540  158.7198 C   0  0  0  0  0  0  0  0  0  0  0  0
  151.7572  141.3834  159.0987 C   0  0  0  0  0  0  0  0  0  0  0  0
  152.1820  140.7312  157.7837 C   0  0  0  0  0  0  0  0  0  0  0  0
  151.1305  139.6412  155.4159 N   0  3  0  0  0  0  0  0  0  0  0  0
  150.3699  138.8411  154.6384 C   0  0  0  0  0  0  0  0  0  0  0  0
  144.6005  136.0386  153.1370 C   0  0  0  0  0  0  0  0  0  0  0  0
  145.1872  134.6152  153.1021 C   0  0  0  0  0  0  0  0  0  0  0  0
  146.2403  131.0400  148.8030 H   0  0  0  0  0  0  0  0  0  0  0  0
  147.2733  131.6143  150.0932 H   0  0  0  0  0  0  0  0  0  0  0  0
  144.9549  132.0303  152.4498 H   0  0  0  0  0  0  0  0  0  0  0  0
  146.5713  132.5248  151.9955 H   0  0  0  0  0  0  0  0  0  0  0  0
  146.8447  134.8964  150.9419 H   0  0  0  0  0  0  0  0  0  0  0  0
  145.6679  134.4214  149.7380 H   0  0  0  0  0  0  0  0  0  0  0  0
  145.7181  136.8935  149.9611 H   0  0  0  0  0  0  0  0  0  0  0  0
  144.1568  136.2430  150.3723 H   0  0  0  0  0  0  0  0  0  0  0  0
  144.6769  137.8882  152.0558 H   0  0  0  0  0  0  0  0  0  0  0  0
  147.3565  136.7228  152.0927 H   0  0  0  0  0  0  0  0  0  0  0  0
  148.8439  137.6973  152.9196 H   0  0  0  0  0  0  0  0  0  0  0  0
  147.5461  140.7746  154.6174 H   0  0  0  0  0  0  0  0  0  0  0  0
  148.9954  142.1717  156.0263 H   0  0  0  0  0  0  0  0  0  0  0  0
  151.4944  143.6409  156.6991 H   0  0  0  0  0  0  0  0  0  0  0  0
  150.0315  142.8642  157.2753 H   0  0  0  0  0  0  0  0  0  0  0  0
  152.6247  143.3205  158.7413 H   0  0  0  0  0  0  0  0  0  0  0  0
  150.9844  143.4163  159.3867 H   0  0  0  0  0  0  0  0  0  0  0  0
  152.4644  141.2050  159.9091 H   0  0  0  0  0  0  0  0  0  0  0  0
  150.7835  141.0003  159.4069 H   0  0  0  0  0  0  0  0  0  0  0  0
  151.8787  139.6838  157.7417 H   0  0  0  0  0  0  0  0  0  0  0  0
  153.2667  140.7632  157.6775 H   0  0  0  0  0  0  0  0  0  0  0  0
  150.8384  137.9236  154.3121 H   0  0  0  0  0  0  0  0  0  0  0  0
  144.7072  136.4640  154.1358 H   0  0  0  0  0  0  0  0  0  0  0  0
  143.5279  135.9836  152.9457 H   0  0  0  0  0  0  0  0  0  0  0  0
  144.6458  133.9921  153.8151 H   0  0  0  0  0  0  0  0  0  0  0  0
  146.2308  134.6245  153.4203 H   0  0  0  0  0  0  0  0  0  0  0  0
  144.1047  134.0200  151.5066 H   0  0  0  0  0  0  0  0  0  0  0  0
  152.0779  139.3375  155.6425 H   0  0  0  0  0  0  0  0  0  0  0  0
  1  2  1  0  0  0  0
  1 26  1  0  0  0  0
  1 27  1  0  0  0  0
  2  3  2  0  0  0  0
  2  4  1  0  0  0  0
  4  5  1  0  0  0  0
  4 28  1  0  0  0  0
  4 29  1  0  0  0  0
  5 25  1  0  0  0  0
  5  6  1  0  0  0  0
  5 52  1  0  0  0  0
  6  7  1  0  0  0  0
  6 30  1  0  0  0  0
  6 31  1  0  0  0  0
  7  8  1  0  0  0  0
  7 32  1  0  0  0  0
  7 33  1  0  0  0  0
  8  9  1  0  0  0  0
  8 24  1  0  0  0  0
  8 34  1  0  0  0  0
  9 10  1  0  0  0  0
  9 35  1  0  0  0  0
 10 11  2  0  0  0  0
 10 12  1  0  0  0  0
 12 13  1  0  0  0  0
 12 36  1  0  0  0  0
 13 23  1  0  0  0  0
 13 14  2  0  0  0  0
 14 15  1  0  0  0  0
 14 37  1  0  0  0  0
 15 16  2  0  0  0  0
 15 38  1  0  0  0  0
 16 17  1  0  0  0  0
 16 22  1  0  0  0  0
 17 21  1  0  0  0  0
 17 18  1  0  0  0  0
 18 19  1  0  0  0  0
 18 39  1  0  0  0  0
 18 40  1  0  0  0  0
 19 20  1  0  0  0  0
 19 41  1  0  0  0  0
 19 42  1  0  0  0  0
 20 21  1  0  0  0  0
 20 43  1  0  0  0  0
 20 44  1  0  0  0  0
 21 45  1  0  0  0  0
 21 46  1  0  0  0  0
 22 23  2  0  0  0  0
 22 53  1  0  0  0  0
 23 47  1  0  0  0  0
 24 25  1  0  0  0  0
 24 48  1  0  0  0  0
 24 49  1  0  0  0  0
 25 50  1  0  0  0  0
 25 51  1  0  0  0  0
M  CHG  1   5   1
M  CHG  1  22   1
M  END
> <s_m_source_file>
AV-unprocessed.smi

> <i_m_source_file_index>
1911

> <i_lp_mmshare_version>
43012

> <i_f3d_flags>
0

> <s_epik_input>
W05IMl1DKD1PKVtDSDJdTjFbQ0gyXVtDSDJdW0NIXShbQ0gyXVtDSDJdMSlbTkhdQyg9TylbTkhdYzJbY0hdW2NIXWMobltjSF0yKU4zW0NIMl1bQ0gyXVtDSDJdW0NIMl0z

> <s_epik_cmdline>
J2VwaWtfcHl0aG9uJywgJy1waCcsICc3LjAnLCAnLXRuJywgJzgnLCAnLW1hJywgJzIwMCcsICctbWV0YWxfYmluZGluZycsICctaW1hZScsICc8aW5maWxlLm1hZT4nLCAnLW9tYWUnLCAnPG91dGZpbGUubWFlPic=

> <r_lp_tautomer_probability>
0.999994

> <r_epik_Ionization_Penalty>
2.11361

> <r_epik_Ionization_Penalty_Charging>
2.11355

> <r_epik_Ionization_Penalty_Neutral>
5.99226e-05

> <r_epik_State_Penalty>
2.13444

> <r_epik_Charging_Adjusted_Penalty>
4.24799

> <i_epik_Tot_Q>
2

> <i_epik_Tot_abs_Q>
2

> <r_epik_Metal_State_Penalty>
2.23538

> <b_epik_Metal_Only>
0

> <s_lp_Force_Field>
OPLS_2005

> <r_lp_Energy>
50.1523

> <b_lp_Chiralities_Consistent>
1

> <s_lp_Variant>
AV-unprocessed.smi:1911-6

> <Gold.Version>
5.8.1

> <Gold.Id.Protein>
6NUR|6NUR_protein|mol2

> <Gold.PLP.Fitness>
44.2595

> <Gold.PLP.PLP>
-35.3545

> <Gold.PLP.part.hbond>
-4.5752

> <Gold.PLP.part.metal>
0.0000

> <Gold.PLP.part.buried>
-1.9617

> <Gold.PLP.part.nonpolar>
-30.4403

> <Gold.PLP.part.repulsive>
0.7748

> <Gold.PLP.ligand.clash>
0.0000

> <Gold.PLP.ligand.torsion>
0.5206

> <Gold.PLP.Chemscore.Hbond>
3.2735

> <Gold.PLP.Chemscore.CHOScore>
0.0000

> <Gold.PLP.Chemscore.Metal>
0.0000

> <Gold.Chemscore.Hbonds>
donor molecule, donor type, donor heavy atom, donor atom, acceptor molecule, acceptor atom, score
      L1  H     1    27       P1 10747  0.88
      L1  H     9    35       P1  7948  1.00
      L1  H    12    36       P1  7948  1.00
      P1  H 10785 10796       L1     3  0.37

> <Gold.PLP.Chemscore.Internal.Correction>
0.1257

> <Gold.Rescore>
     Score         DG    S(hbond)    S(metal)    S(lipo)     H(rot)  DE(clash)    DE(int)     intcor
     18.15     -21.82       3.50        0.00      88.17       2.22       1.95       1.72       ----

> <Gold.Chemscore.Fitness>
18.1481

> <Gold.Chemscore.DG>
-21.8160

> <Gold.Chemscore.ZeroCoef>
-5.4800

> <Gold.Chemscore.Hbond>
3.5045

> <Gold.Chemscore.Metal>
0.0000

> <Gold.Chemscore.Lipo>
88.1704

> <Gold.Chemscore.Internal_Hbond>
0.0000

> <Gold.Chemscore.DEClash>
1.9451

> <Gold.Chemscore.DEInternal>
1.7228

> <Gold.Chemscore.Rot>
2.2207

> <Gold.Chemscore.Internal.Correction>
   9.000000E+99

> <Gold.Chemscore.Hbonds>
donor molecule, donor type, donor heavy atom, donor atom, acceptor molecule, acceptor atom, score
      L1  H     1    27       P1 10747  0.86
      L1  H     9    35       P1  7948  0.98
      L1  H    12    36       P1  7948  0.96
      P1  H 10785 10796       L1     3  0.36

> <Gold.Chemscore.Hbond.Weighted>
-11.7050

> <Gold.Chemscore.Metal.Weighted>
-0.0000

> <Gold.Chemscore.Lipo.Weighted>
-10.3159

> <Gold.Chemscore.Internal_Hbond.Weighted>
0.0000

> <Gold.Chemscore.DEClash.Weighted>
1.9451

> <Gold.Chemscore.DEInternal.Weighted>
1.7228

> <Gold.Chemscore.Rot.Weighted>
5.6849

> <Gold.Chemscore.Internal.Correction.Weighted>
   9.000000E+99

> <Gold.Protein.RotatedTorsions>
[ 6907 6896 6895 6894 ] final   73.10 input  -60.11 | X-H torsion
[ 7974 7965 7964 7962 ] final  -60.59 input  175.53 | X-H torsion
[ 8008 7997 7996 7995 ] final   79.83 input   59.86 | X-H torsion
[ 10167 10162 10161 10158 ] final  110.93 input  -65.29 | X-H torsion
[ 10718 10713 10712 10709 ] final  -57.21 input   66.30 | X-H torsion
[ 10763 10752 10751 10750 ] final   91.31 input  -60.55 | X-H torsion
[ 11005 11000 10999 10996 ] final  -51.26 input  -57.11 | X-H torsion

> <Gold.Protein.ActiveResidues>
 VAL166  LYS551  ARG553  GLY616  TRP617  ASP618  TYR619  PRO620  LYS621  CYS622 
 ASP623  PHE694  ASN695  SER759  ASP760  ASP761  ALA762  ILE779  LEU786  VAL792 
 PHE793  MET794  SER795  GLU796  ALA797  LYS798  CYS799  TRP800  GLU811  SER814 

> <Gold.Protein.RotatedAtoms>
  152.4905  134.4472  159.9562 H   0  0  0  0  0  0  0  0  0  0  0  0  # atno 6907 bound_to 6896
  151.4460  133.3624  159.2796 H   0  0  0  0  0  0  0  0  0  0  0  0  # atno 6908 bound_to 6896
  150.9054  134.8493  159.7449 H   0  0  0  0  0  0  0  0  0  0  0  0  # atno 6909 bound_to 6896
  145.8137  140.8583  143.0169 H   0  0  0  0  0  0  0  0  0  0  0  0  # atno 7974 bound_to 7965
  155.8750  140.3447  155.5848 H   0  0  0  0  0  0  0  0  0  0  0  0  # atno 8008 bound_to 7997
  155.7784  140.0855  157.2091 H   0  0  0  0  0  0  0  0  0  0  0  0  # atno 8009 bound_to 7997
  154.4020  140.1505  156.3010 H   0  0  0  0  0  0  0  0  0  0  0  0  # atno 8010 bound_to 7997
  139.6650  144.7128  151.1793 H   0  0  0  0  0  0  0  0  0  0  0  0  # atno 10167 bound_to 10162
  156.1228  130.4165  150.0410 H   0  0  0  0  0  0  0  0  0  0  0  0  # atno 10718 bound_to 10713
  153.2069  135.4402  155.0334 H   0  0  0  0  0  0  0  0  0  0  0  0  # atno 10763 bound_to 10752
  154.8178  135.3323  154.7127 H   0  0  0  0  0  0  0  0  0  0  0  0  # atno 10764 bound_to 10752
  153.7568  135.6994  153.4989 H   0  0  0  0  0  0  0  0  0  0  0  0  # atno 10765 bound_to 10752
  141.0861  133.6642  156.3851 H   0  0  0  0  0  0  0  0  0  0  0  0  # atno 11005 bound_to 11000
  144.6754  140.0432  143.7480 LP  0  0  0  0  0  0  0  0  0  0  0  0  # atno 17320 bound_to 7965
  145.9750  139.2898  143.1076 LP  0  0  0  0  0  0  0  0  0  0  0  0  # atno 17321 bound_to 7965
  140.7596  143.5933  150.8774 LP  0  0  0  0  0  0  0  0  0  0  0  0  # atno 17342 bound_to 10162
  139.9594  143.6181  152.3006 LP  0  0  0  0  0  0  0  0  0  0  0  0  # atno 17343 bound_to 10162
  156.8344  130.9403  151.3635 LP  0  0  0  0  0  0  0  0  0  0  0  0  # atno 17370 bound_to 10713
  157.6411  130.8806  149.9450 LP  0  0  0  0  0  0  0  0  0  0  0  0  # atno 17371 bound_to 10713
  140.5359  134.6168  157.5365 LP  0  0  0  0  0  0  0  0  0  0  0  0  # atno 17394 bound_to 11000
  139.9680  134.7340  156.0099 LP  0  0  0  0  0  0  0  0  0  0  0  0  # atno 17395 bound_to 11000

$$$$
