AV-unprocessed.smi:1292|AV-procd|sdf|5396|dock6
  -GOLD-   22720 4553D 1   1.00000     0.00000
 Structure written by MMmdl.
 40 41  0  0  0  0  0  0  0  0  1 V2000
  151.8627  144.8780  158.3523 C   0  0  0  0  0  0  0  0  0  0  0  0
  152.2979  143.4069  158.3986 C   0  0  1  0  0  0  0  0  0  0  0  0
  153.0053  143.0714  159.7210 C   0  0  0  0  0  0  0  0  0  0  0  0
  153.4482  141.6031  159.7312 C   0  0  0  0  0  0  0  0  0  0  0  0
  152.2776  140.6478  159.4409 C   0  0  0  0  0  0  0  0  0  0  0  0
  151.5144  141.0467  158.2399 N   0  0  0  0  0  0  0  0  0  0  0  0
  151.5181  140.0857  156.7899 S   0  0  0  0  0  0  0  0  0  0  0  0
  151.0815  140.9108  155.6528 O   0  0  0  0  0  0  0  0  0  0  0  0
  152.7871  139.3436  156.7473 O   0  0  0  0  0  0  0  0  0  0  0  0
  150.2741  138.9492  157.1659 N   0  0  0  0  0  0  0  0  0  0  0  0
  149.9123  137.8511  156.2681 C   0  0  0  0  0  0  0  0  0  0  0  0
  149.9038  138.3266  154.8069 C   0  0  0  0  0  0  0  0  0  0  0  0
  148.6916  139.1800  154.4758 C   0  0  0  0  0  0  0  0  0  0  0  0
  147.5860  138.6297  153.7923 C   0  0  0  0  0  0  0  0  0  0  0  0
  146.4771  139.4579  153.5332 C   0  0  0  0  0  0  0  0  0  0  0  0
  146.5157  140.7977  153.9650 C   0  0  0  0  0  0  0  0  0  0  0  0
  147.6674  141.2520  154.6377 C   0  0  0  0  0  0  0  0  0  0  0  0
  148.7361  140.4661  154.8915 N   0  0  0  0  0  0  0  0  0  0  0  0
  151.1003  142.4612  158.1846 C   0  0  0  0  0  0  0  0  0  0  0  0
  151.1491  145.1058  159.1447 H   0  0  0  0  0  0  0  0  0  0  0  0
  151.3903  145.1170  157.3991 H   0  0  0  0  0  0  0  0  0  0  0  0
  152.7177  145.5440  158.4718 H   0  0  0  0  0  0  0  0  0  0  0  0
  153.0052  143.2543  157.5832 H   0  0  0  0  0  0  0  0  0  0  0  0
  153.8720  143.7179  159.8623 H   0  0  0  0  0  0  0  0  0  0  0  0
  152.3346  143.2593  160.5606 H   0  0  0  0  0  0  0  0  0  0  0  0
  154.2433  141.4512  159.0055 H   0  0  0  0  0  0  0  0  0  0  0  0
  153.8841  141.3596  160.7003 H   0  0  0  0  0  0  0  0  0  0  0  0
  152.6417  139.6258  159.3433 H   0  0  0  0  0  0  0  0  0  0  0  0
  151.5938  140.6488  160.2902 H   0  0  0  0  0  0  0  0  0  0  0  0
  149.5105  139.3262  157.7269 H   0  0  0  0  0  0  0  0  0  0  0  0
  150.6276  137.0399  156.3853 H   0  0  0  0  0  0  0  0  0  0  0  0
  148.9297  137.4647  156.5381 H   0  0  0  0  0  0  0  0  0  0  0  0
  150.8051  138.9075  154.6069 H   0  0  0  0  0  0  0  0  0  0  0  0
  149.9421  137.4687  154.1341 H   0  0  0  0  0  0  0  0  0  0  0  0
  147.5833  137.5953  153.4808 H   0  0  0  0  0  0  0  0  0  0  0  0
  145.6115  139.0712  153.0158 H   0  0  0  0  0  0  0  0  0  0  0  0
  145.6824  141.4608  153.7858 H   0  0  0  0  0  0  0  0  0  0  0  0
  147.7309  142.2730  154.9835 H   0  0  0  0  0  0  0  0  0  0  0  0
  150.3458  142.6311  158.9536 H   0  0  0  0  0  0  0  0  0  0  0  0
  150.6204  142.6692  157.2280 H   0  0  0  0  0  0  0  0  0  0  0  0
  1  2  1  0  0  0  0
  1 20  1  0  0  0  0
  1 21  1  0  0  0  0
  1 22  1  0  0  0  0
  2 19  1  0  0  0  0
  2  3  1  0  0  0  0
  2 23  1  0  0  0  0
  3  4  1  0  0  0  0
  3 24  1  0  0  0  0
  3 25  1  0  0  0  0
  4  5  1  0  0  0  0
  4 26  1  0  0  0  0
  4 27  1  0  0  0  0
  5  6  1  0  0  0  0
  5 28  1  0  0  0  0
  5 29  1  0  0  0  0
  6  7  1  0  0  0  0
  6 19  1  0  0  0  0
  7  8  2  0  0  0  0
  7  9  2  0  0  0  0
  7 10  1  0  0  0  0
 10 11  1  0  0  0  0
 10 30  1  0  0  0  0
 11 12  1  0  0  0  0
 11 31  1  0  0  0  0
 11 32  1  0  0  0  0
 12 13  1  0  0  0  0
 12 33  1  0  0  0  0
 12 34  1  0  0  0  0
 13 18  1  0  0  0  0
 13 14  2  0  0  0  0
 14 15  1  0  0  0  0
 14 35  1  0  0  0  0
 15 16  2  0  0  0  0
 15 36  1  0  0  0  0
 16 17  1  0  0  0  0
 16 37  1  0  0  0  0
 17 18  2  0  0  0  0
 17 38  1  0  0  0  0
 19 39  1  0  0  0  0
 19 40  1  0  0  0  0
M  END
> <s_m_source_file>
AV-unprocessed.smi

> <i_m_source_file_index>
1292

> <i_lp_mmshare_version>
43012

> <i_f3d_flags>
0

> <s_epik_input>
W0NIM11bQ0BASF0xW0NIMl1bQ0gyXVtDSDJdTihbQ0gyXTEpUyg9TykoPU8pW05IXVtDSDJdW0NIMl1jMltjSF1bY0hdW2NIXVtjSF1uMg==

> <s_epik_cmdline>
J2VwaWtfcHl0aG9uJywgJy1waCcsICc3LjAnLCAnLXRuJywgJzgnLCAnLW1hJywgJzIwMCcsICctbWV0YWxfYmluZGluZycsICctaW1hZScsICc8aW5maWxlLm1hZT4nLCAnLW9tYWUnLCAnPG91dGZpbGUubWFlPic=

> <r_epik_Ionization_Penalty>
0.0252758

> <r_epik_Ionization_Penalty_Charging>
0

> <r_epik_Ionization_Penalty_Neutral>
0.0252758

> <r_epik_State_Penalty>
0.0138562

> <r_epik_Charging_Adjusted_Penalty>
0.0138562

> <i_epik_Tot_Q>
0

> <i_epik_Tot_abs_Q>
0

> <r_epik_Metal_State_Penalty>
0.204365

> <b_epik_Metal_Only>
0

> <s_lp_Force_Field>
OPLS_2005

> <r_lp_Energy>
8.19125

> <b_lp_Chiralities_Consistent>
1

> <s_lp_Variant>
AV-unprocessed.smi:1292-2

> <Gold.Version>
5.8.1

> <Gold.Id.Protein>
6NUR|6NUR_protein|mol2

> <Gold.PLP.Fitness>
45.2550

> <Gold.PLP.PLP>
-38.9844

> <Gold.PLP.part.hbond>
-2.0000

> <Gold.PLP.part.metal>
0.0000

> <Gold.PLP.part.buried>
-0.8009

> <Gold.PLP.part.nonpolar>
-36.1690

> <Gold.PLP.part.repulsive>
0.1570

> <Gold.PLP.ligand.clash>
0.0000

> <Gold.PLP.ligand.torsion>
2.0739

> <Gold.PLP.Chemscore.Hbond>
1.4742

> <Gold.PLP.Chemscore.CHOScore>
1.0000

> <Gold.PLP.Chemscore.Metal>
0.0000

> <Gold.Chemscore.Hbonds>
donor molecule, donor type, donor heavy atom, donor atom, acceptor molecule, acceptor atom, score
      P1  H  7989  7998       L1     8  0.39
      P1  H  7997  8008       L1     9  1.00
      L1  C    17    38       P1  8028  0.42

> <Gold.PLP.Chemscore.Internal.Correction>
2.9957

> <Gold.Rescore>
     Score         DG    S(hbond)    S(metal)    S(lipo)     H(rot)  DE(clash)    DE(int)     intcor
     15.10     -19.87       1.54        0.00     107.56       1.30       0.27       4.49       ----

> <Gold.Chemscore.Fitness>
15.1042

> <Gold.Chemscore.DG>
-19.8658

> <Gold.Chemscore.ZeroCoef>
-5.4800

> <Gold.Chemscore.Hbond>
1.5386

> <Gold.Chemscore.Metal>
0.0000

> <Gold.Chemscore.Lipo>
107.5616

> <Gold.Chemscore.Internal_Hbond>
0.0000

> <Gold.Chemscore.DEClash>
0.2737

> <Gold.Chemscore.DEInternal>
4.4879

> <Gold.Chemscore.Rot>
1.3039

> <Gold.Chemscore.Internal.Correction>
   9.000000E+99

> <Gold.Chemscore.Hbonds>
donor molecule, donor type, donor heavy atom, donor atom, acceptor molecule, acceptor atom, score
      P1  H  7989  7998       L1     8  0.39
      P1  H  7997  8008       L1     9  1.00

> <Gold.Chemscore.Hbond.Weighted>
-5.1391

> <Gold.Chemscore.Metal.Weighted>
-0.0000

> <Gold.Chemscore.Lipo.Weighted>
-12.5847

> <Gold.Chemscore.Internal_Hbond.Weighted>
0.0000

> <Gold.Chemscore.DEClash.Weighted>
0.2737

> <Gold.Chemscore.DEInternal.Weighted>
4.4879

> <Gold.Chemscore.Rot.Weighted>
3.3379

> <Gold.Chemscore.Internal.Correction.Weighted>
   9.000000E+99

> <Gold.Protein.RotatedTorsions>
[ 6907 6896 6895 6894 ] final -118.46 input  -60.11 | X-H torsion
[ 7974 7965 7964 7962 ] final  152.07 input  175.53 | X-H torsion
[ 8008 7997 7996 7995 ] final  -51.58 input   59.86 | X-H torsion
[ 10167 10162 10161 10158 ] final   50.37 input  -65.29 | X-H torsion
[ 10718 10713 10712 10709 ] final    1.30 input   66.30 | X-H torsion
[ 10763 10752 10751 10750 ] final  -23.67 input  -60.55 | X-H torsion
[ 11005 11000 10999 10996 ] final -108.77 input  -57.11 | X-H torsion

> <Gold.Protein.ActiveResidues>
 VAL166  LYS551  ARG553  GLY616  TRP617  ASP618  TYR619  PRO620  LYS621  CYS622 
 ASP623  PHE694  ASN695  SER759  ASP760  ASP761  ALA762  ILE779  LEU786  VAL792 
 PHE793  MET794  SER795  GLU796  ALA797  LYS798  CYS799  TRP800  GLU811  SER814 

> <Gold.Protein.RotatedAtoms>
  150.8222  133.8233  159.3133 H   0  0  0  0  0  0  0  0  0  0  0  0  # atno 6907 bound_to 6896
  151.5988  135.1047  160.0065 H   0  0  0  0  0  0  0  0  0  0  0  0  # atno 6908 bound_to 6896
  152.4310  133.7237  159.6604 H   0  0  0  0  0  0  0  0  0  0  0  0  # atno 6909 bound_to 6896
  144.8248  139.6620  143.6084 H   0  0  0  0  0  0  0  0  0  0  0  0  # atno 7974 bound_to 7965
  154.4086  140.1244  156.4851 H   0  0  0  0  0  0  0  0  0  0  0  0  # atno 8008 bound_to 7997
  155.7046  140.3494  155.4928 H   0  0  0  0  0  0  0  0  0  0  0  0  # atno 8009 bound_to 7997
  155.9355  140.1077  157.1088 H   0  0  0  0  0  0  0  0  0  0  0  0  # atno 8010 bound_to 7997
  140.2732  144.3242  150.6284 H   0  0  0  0  0  0  0  0  0  0  0  0  # atno 10167 bound_to 10162
  156.8461  130.5538  149.5673 H   0  0  0  0  0  0  0  0  0  0  0  0  # atno 10718 bound_to 10713
  153.6715  135.6971  153.5145 H   0  0  0  0  0  0  0  0  0  0  0  0  # atno 10763 bound_to 10752
  153.2554  135.4261  155.0839 H   0  0  0  0  0  0  0  0  0  0  0  0  # atno 10764 bound_to 10752
  154.8425  135.3542  154.6259 H   0  0  0  0  0  0  0  0  0  0  0  0  # atno 10765 bound_to 10752
  141.0884  133.9098  157.2133 H   0  0  0  0  0  0  0  0  0  0  0  0  # atno 11005 bound_to 11000
  146.2553  139.6290  142.9399 LP  0  0  0  0  0  0  0  0  0  0  0  0  # atno 17320 bound_to 7965
  145.5024  141.0437  143.2533 LP  0  0  0  0  0  0  0  0  0  0  0  0  # atno 17321 bound_to 7965
  140.5873  143.2169  151.7319 LP  0  0  0  0  0  0  0  0  0  0  0  0  # atno 17342 bound_to 10162
  139.4983  144.3992  152.0199 LP  0  0  0  0  0  0  0  0  0  0  0  0  # atno 17343 bound_to 10162
  156.0853  130.5853  150.9638 LP  0  0  0  0  0  0  0  0  0  0  0  0  # atno 17370 bound_to 10713
  157.6329  131.0919  150.8406 LP  0  0  0  0  0  0  0  0  0  0  0  0  # atno 17371 bound_to 10713
  139.9705  135.0129  156.9501 LP  0  0  0  0  0  0  0  0  0  0  0  0  # atno 17394 bound_to 11000
  140.5310  134.0814  155.7316 LP  0  0  0  0  0  0  0  0  0  0  0  0  # atno 17395 bound_to 11000

$$$$
