AV-unprocessed.smi:2093|AV-procd|sdf|8544|dock2
  -GOLD-   2272011263D 1   1.00000     0.00000
 Structure written by MMmdl.
 31 32  0  0  0  0  0  0  0  0  1 V2000
  151.8042  144.8745  158.2206 C   0  0  0  0  0  0  0  0  0  0  0  0
  151.8400  143.4170  157.7357 C   0  0  2  0  0  0  0  0  0  0  0  0
  150.7016  143.1882  156.8483 N   0  0  0  0  0  0  0  0  0  0  0  0
  150.3772  142.0225  156.2697 C   0  0  0  0  0  0  0  0  0  0  0  0
  151.0284  140.9865  156.4062 O   0  0  0  0  0  0  0  0  0  0  0  0
  149.2588  142.1439  155.5334 N   0  0  0  0  0  0  0  0  0  0  0  0
  148.5958  141.1464  154.7715 C   0  0  0  0  0  0  0  0  0  0  0  0
  147.4771  141.3529  154.0665 N   0  0  0  0  0  0  0  0  0  0  0  0
  147.0463  140.1943  153.4150 C   0  0  0  0  0  0  0  0  0  0  0  0
  147.8542  139.1072  153.6370 C   0  0  0  0  0  0  0  0  0  0  0  0
  149.1962  139.4970  154.6795 S   0  0  0  0  0  0  0  0  0  0  0  0
  151.7878  142.4080  158.8993 C   0  0  2  0  0  0  0  0  0  0  0  0
  152.6315  142.7885  160.1178 C   0  0  0  0  0  0  0  0  0  0  0  0
  152.9614  141.4512  160.7643 C   0  0  0  0  0  0  0  0  0  0  0  0
  152.5826  140.4174  159.7009 C   0  0  0  0  0  0  0  0  0  0  0  0
  152.3696  141.1709  158.5165 O   0  0  0  0  0  0  0  0  0  0  0  0
  152.6622  145.1043  158.8526 H   0  0  0  0  0  0  0  0  0  0  0  0
  150.9013  145.0799  158.7966 H   0  0  0  0  0  0  0  0  0  0  0  0
  151.8270  145.5674  157.3787 H   0  0  0  0  0  0  0  0  0  0  0  0
  152.7769  143.2683  157.1961 H   0  0  0  0  0  0  0  0  0  0  0  0
  150.1015  143.9813  156.6763 H   0  0  0  0  0  0  0  0  0  0  0  0
  148.8290  143.0568  155.5183 H   0  0  0  0  0  0  0  0  0  0  0  0
  146.1514  140.2334  152.8117 H   0  0  0  0  0  0  0  0  0  0  0  0
  147.7415  138.1048  153.2517 H   0  0  0  0  0  0  0  0  0  0  0  0
  150.7546  142.2302  159.2048 H   0  0  0  0  0  0  0  0  0  0  0  0
  153.5546  143.2759  159.8012 H   0  0  0  0  0  0  0  0  0  0  0  0
  152.1094  143.4660  160.7940 H   0  0  0  0  0  0  0  0  0  0  0  0
  154.0208  141.3957  161.0178 H   0  0  0  0  0  0  0  0  0  0  0  0
  152.3884  141.2931  161.6785 H   0  0  0  0  0  0  0  0  0  0  0  0
  153.3558  139.6628  159.5542 H   0  0  0  0  0  0  0  0  0  0  0  0
  151.6570  139.9083  159.9732 H   0  0  0  0  0  0  0  0  0  0  0  0
  1  2  1  0  0  0  0
  1 17  1  0  0  0  0
  1 18  1  0  0  0  0
  1 19  1  0  0  0  0
  2  3  1  0  0  0  0
  2 12  1  0  0  0  0
  2 20  1  0  0  0  0
  3  4  1  0  0  0  0
  3 21  1  0  0  0  0
  4  5  2  0  0  0  0
  4  6  1  0  0  0  0
  6  7  1  0  0  0  0
  6 22  1  0  0  0  0
  7 11  1  0  0  0  0
  7  8  2  0  0  0  0
  8  9  1  0  0  0  0
  9 10  2  0  0  0  0
  9 23  1  0  0  0  0
 10 11  1  0  0  0  0
 10 24  1  0  0  0  0
 12 16  1  0  0  0  0
 12 13  1  0  0  0  0
 12 25  1  0  0  0  0
 13 14  1  0  0  0  0
 13 26  1  0  0  0  0
 13 27  1  0  0  0  0
 14 15  1  0  0  0  0
 14 28  1  0  0  0  0
 14 29  1  0  0  0  0
 15 16  1  0  0  0  0
 15 30  1  0  0  0  0
 15 31  1  0  0  0  0
M  END
> <s_m_source_file>
AV-unprocessed.smi

> <i_m_source_file_index>
2093

> <i_lp_mmshare_version>
43012

> <i_f3d_flags>
0

> <s_epik_input>
TzFbQ0gyXVtDSDJdW0NIMl1bQ0BIXTFbQ0BIXShbQ0gzXSlbTkhdQyg9TylbTkhdYzJuW2NIXVtjSF1zMg==

> <s_epik_cmdline>
J2VwaWtfcHl0aG9uJywgJy1waCcsICc3LjAnLCAnLXRuJywgJzgnLCAnLW1hJywgJzIwMCcsICctbWV0YWxfYmluZGluZycsICctaW1hZScsICc8aW5maWxlLm1hZT4nLCAnLW9tYWUnLCAnPG91dGZpbGUubWFlPic=

> <r_lp_tautomer_probability>
0.999

> <r_epik_Ionization_Penalty>
0.000334433

> <r_epik_Ionization_Penalty_Charging>
0

> <r_epik_Ionization_Penalty_Neutral>
0.000334433

> <r_epik_State_Penalty>
0.000177984

> <r_epik_Charging_Adjusted_Penalty>
0.000177984

> <i_epik_Tot_Q>
0

> <i_epik_Tot_abs_Q>
0

> <r_epik_Metal_State_Penalty>
0.00767616

> <b_epik_Metal_Only>
0

> <s_lp_Force_Field>
OPLS_2005

> <r_lp_Energy>
16.8099

> <b_lp_Chiralities_Consistent>
1

> <s_lp_Variant>
AV-unprocessed.smi:2093-1

> <Gold.Version>
5.8.1

> <Gold.Id.Protein>
6NUR|6NUR_protein|mol2

> <Gold.PLP.Fitness>
43.7290

> <Gold.PLP.PLP>
-32.7628

> <Gold.PLP.part.hbond>
-2.0000

> <Gold.PLP.part.metal>
0.0000

> <Gold.PLP.part.buried>
-3.6319

> <Gold.PLP.part.nonpolar>
-27.3075

> <Gold.PLP.part.repulsive>
0.3863

> <Gold.PLP.ligand.clash>
0.0000

> <Gold.PLP.ligand.torsion>
0.4437

> <Gold.PLP.Chemscore.Hbond>
1.9440

> <Gold.PLP.Chemscore.CHOScore>
2.0000

> <Gold.PLP.Chemscore.Metal>
0.0000

> <Gold.Chemscore.Hbonds>
donor molecule, donor type, donor heavy atom, donor atom, acceptor molecule, acceptor atom, score
      L1  H     3    21       P1  8028  0.98
      L1  H     6    22       P1  8028  1.00
      L1  C     9    23       P1 10175  1.00
      L1  C    10    24       P1  7948  0.78

> <Gold.PLP.Chemscore.Internal.Correction>
0.0217

> <Gold.Rescore>
     Score         DG    S(hbond)    S(metal)    S(lipo)     H(rot)  DE(clash)    DE(int)     intcor
     13.79     -18.37       1.94        0.00      83.00       1.29       0.05       4.53       ----

> <Gold.Chemscore.Fitness>
13.7947

> <Gold.Chemscore.DG>
-18.3733

> <Gold.Chemscore.ZeroCoef>
-5.4800

> <Gold.Chemscore.Hbond>
1.9444

> <Gold.Chemscore.Metal>
0.0000

> <Gold.Chemscore.Lipo>
83.0027

> <Gold.Chemscore.Internal_Hbond>
0.0000

> <Gold.Chemscore.DEClash>
0.0489

> <Gold.Chemscore.DEInternal>
4.5297

> <Gold.Chemscore.Rot>
1.2938

> <Gold.Chemscore.Internal.Correction>
   9.000000E+99

> <Gold.Chemscore.Hbonds>
donor molecule, donor type, donor heavy atom, donor atom, acceptor molecule, acceptor atom, score
      L1  H     3    21       P1  8028  0.93
      L1  H     6    22       P1  8028  0.97

> <Gold.Chemscore.Hbond.Weighted>
-6.4942

> <Gold.Chemscore.Metal.Weighted>
-0.0000

> <Gold.Chemscore.Lipo.Weighted>
-9.7113

> <Gold.Chemscore.Internal_Hbond.Weighted>
0.0000

> <Gold.Chemscore.DEClash.Weighted>
0.0489

> <Gold.Chemscore.DEInternal.Weighted>
4.5297

> <Gold.Chemscore.Rot.Weighted>
3.3122

> <Gold.Chemscore.Internal.Correction.Weighted>
   9.000000E+99

> <Gold.Protein.RotatedTorsions>
[ 6907 6896 6895 6894 ] final  -40.30 input  -60.11 | X-H torsion
[ 7974 7965 7964 7962 ] final   34.96 input  175.53 | X-H torsion
[ 8008 7997 7996 7995 ] final  -34.23 input   59.86 | X-H torsion
[ 10167 10162 10161 10158 ] final  104.60 input  -65.29 | X-H torsion
[ 10718 10713 10712 10709 ] final  -26.67 input   66.30 | X-H torsion
[ 10763 10752 10751 10750 ] final   25.18 input  -60.55 | X-H torsion
[ 11005 11000 10999 10996 ] final  -68.52 input  -57.11 | X-H torsion

> <Gold.Protein.ActiveResidues>
 VAL166  LYS551  ARG553  GLY616  TRP617  ASP618  TYR619  PRO620  LYS621  CYS622 
 ASP623  PHE694  ASN695  SER759  ASP760  ASP761  ALA762  ILE779  LEU786  VAL792 
 PHE793  MET794  SER795  GLU796  ALA797  LYS798  CYS799  TRP800  GLU811  SER814 

> <Gold.Protein.RotatedAtoms>
  150.9801  134.9158  159.7838 H   0  0  0  0  0  0  0  0  0  0  0  0  # atno 6907 bound_to 6896
  152.5219  134.3422  159.9231 H   0  0  0  0  0  0  0  0  0  0  0  0  # atno 6908 bound_to 6896
  151.3430  133.3914  159.2707 H   0  0  0  0  0  0  0  0  0  0  0  0  # atno 6909 bound_to 6896
  146.1316  139.6203  142.9223 H   0  0  0  0  0  0  0  0  0  0  0  0  # atno 7974 bound_to 7965
  154.4126  140.1689  156.2016 H   0  0  0  0  0  0  0  0  0  0  0  0  # atno 8008 bound_to 7997
  155.9519  140.3400  155.6392 H   0  0  0  0  0  0  0  0  0  0  0  0  # atno 8009 bound_to 7997
  155.6859  140.0728  157.2457 H   0  0  0  0  0  0  0  0  0  0  0  0  # atno 8010 bound_to 7997
  139.7163  144.7067  151.0944 H   0  0  0  0  0  0  0  0  0  0  0  0  # atno 10167 bound_to 10162
  156.4482  130.4478  149.7007 H   0  0  0  0  0  0  0  0  0  0  0  0  # atno 10718 bound_to 10713
  153.0710  135.6589  154.0247 H   0  0  0  0  0  0  0  0  0  0  0  0  # atno 10763 bound_to 10752
  153.9893  135.2947  155.3415 H   0  0  0  0  0  0  0  0  0  0  0  0  # atno 10764 bound_to 10752
  154.7085  135.5215  153.8700 H   0  0  0  0  0  0  0  0  0  0  0  0  # atno 10765 bound_to 10752
  141.1534  133.6743  156.6459 H   0  0  0  0  0  0  0  0  0  0  0  0  # atno 11005 bound_to 11000
  145.5247  141.0430  143.2416 LP  0  0  0  0  0  0  0  0  0  0  0  0  # atno 17320 bound_to 7965
  144.7697  139.6764  143.7200 LP  0  0  0  0  0  0  0  0  0  0  0  0  # atno 17321 bound_to 7965
  140.7744  143.5225  150.9519 LP  0  0  0  0  0  0  0  0  0  0  0  0  # atno 17342 bound_to 10162
  139.8911  143.6952  152.3145 LP  0  0  0  0  0  0  0  0  0  0  0  0  # atno 17343 bound_to 10162
  156.3845  130.7596  151.2591 LP  0  0  0  0  0  0  0  0  0  0  0  0  # atno 17370 bound_to 10713
  157.7504  131.0286  150.4056 LP  0  0  0  0  0  0  0  0  0  0  0  0  # atno 17371 bound_to 10713
  140.3358  134.7891  157.4360 LP  0  0  0  0  0  0  0  0  0  0  0  0  # atno 17394 bound_to 11000
  140.0979  134.5512  155.8381 LP  0  0  0  0  0  0  0  0  0  0  0  0  # atno 17395 bound_to 11000

$$$$
