AV-unprocessed.smi:2718|AV-procd|sdf|10489|dock1
  -GOLD-   2272014533D 1   1.00000     0.00000
 Structure written by MMmdl.
 47 48  0  0  0  0  0  0  0  0  1 V2000
  151.6275  145.0170  159.3092 C   0  0  0  0  0  0  0  0  0  0  0  0
  151.8876  143.5254  159.3811 C   0  0  0  0  0  0  0  0  0  0  0  0
  152.2454  143.0094  160.7638 C   0  0  0  0  0  0  0  0  0  0  0  0
  151.8053  142.7396  158.2905 C   0  0  0  0  0  0  0  0  0  0  0  0
  152.0457  141.2738  158.2307 C   0  0  1  0  0  0  0  0  0  0  0  0
  150.8808  140.3044  158.1596 C   0  0  2  0  0  0  0  0  0  0  0  0
  150.9504  139.0357  158.9506 C   0  0  0  0  0  0  0  0  0  0  0  0
  150.0434  138.2038  158.9911 O   0  0  0  0  0  0  0  0  0  0  0  0
  152.1143  138.8728  159.5964 N   0  0  0  0  0  0  0  0  0  0  0  0
  152.4835  137.7045  160.3905 C   0  0  0  0  0  0  0  0  0  0  0  0
  152.7610  138.0489  161.8712 C   0  0  2  0  0  0  0  0  0  0  0  0
  153.7622  139.2053  162.0089 C   0  0  0  0  0  0  0  0  0  0  0  0
  153.1844  136.8486  162.6766 C   0  0  0  0  0  0  0  0  0  0  0  0
  154.1274  135.9857  162.2744 N   0  0  0  0  0  0  0  0  0  0  0  0
  154.2063  135.0278  163.2649 N   0  0  0  0  0  0  0  0  0  0  0  0
  153.3029  135.4055  164.1680 C   0  0  0  0  0  0  0  0  0  0  0  0
  152.6323  136.5274  163.8666 N   0  0  0  0  0  0  0  0  0  0  0  0
  151.5954  137.1875  164.6354 C   0  0  0  0  0  0  0  0  0  0  0  0
  151.7975  140.4845  156.9549 C   0  0  0  0  0  0  0  0  0  0  0  0
  151.1992  141.1393  155.7187 C   0  0  0  0  0  0  0  0  0  0  0  0
  152.8298  139.4481  156.5263 C   0  0  0  0  0  0  0  0  0  0  0  0
  150.7999  145.2890  159.9647 H   0  0  0  0  0  0  0  0  0  0  0  0
  151.3756  145.3329  158.2963 H   0  0  0  0  0  0  0  0  0  0  0  0
  152.5121  145.5698  159.6264 H   0  0  0  0  0  0  0  0  0  0  0  0
  153.1712  143.4707  161.1078 H   0  0  0  0  0  0  0  0  0  0  0  0
  152.3815  141.9286  160.7843 H   0  0  0  0  0  0  0  0  0  0  0  0
  151.4563  143.2588  161.4732 H   0  0  0  0  0  0  0  0  0  0  0  0
  151.5361  143.1958  157.3489 H   0  0  0  0  0  0  0  0  0  0  0  0
  152.8985  140.9842  158.8426 H   0  0  0  0  0  0  0  0  0  0  0  0
  149.8862  140.7399  158.0693 H   0  0  0  0  0  0  0  0  0  0  0  0
  152.8091  139.6005  159.5091 H   0  0  0  0  0  0  0  0  0  0  0  0
  151.6534  137.0003  160.3285 H   0  0  0  0  0  0  0  0  0  0  0  0
  153.3440  137.2039  159.9436 H   0  0  0  0  0  0  0  0  0  0  0  0
  151.8227  138.4162  162.2857 H   0  0  0  0  0  0  0  0  0  0  0  0
  153.8870  139.4923  163.0534 H   0  0  0  0  0  0  0  0  0  0  0  0
  153.4220  140.0857  161.4629 H   0  0  0  0  0  0  0  0  0  0  0  0
  154.7432  138.9317  161.6186 H   0  0  0  0  0  0  0  0  0  0  0  0
  153.1249  134.8457  165.0744 H   0  0  0  0  0  0  0  0  0  0  0  0
  151.4422  136.6685  165.5820 H   0  0  0  0  0  0  0  0  0  0  0  0
  150.6602  137.1826  164.0755 H   0  0  0  0  0  0  0  0  0  0  0  0
  151.8874  138.2173  164.8420 H   0  0  0  0  0  0  0  0  0  0  0  0
  150.7436  140.3859  155.0752 H   0  0  0  0  0  0  0  0  0  0  0  0
  151.9707  141.6613  155.1522 H   0  0  0  0  0  0  0  0  0  0  0  0
  150.4290  141.8617  155.9905 H   0  0  0  0  0  0  0  0  0  0  0  0
  152.3353  138.5812  156.0877 H   0  0  0  0  0  0  0  0  0  0  0  0
  153.4379  139.1144  157.3662 H   0  0  0  0  0  0  0  0  0  0  0  0
  153.5075  139.8716  155.7845 H   0  0  0  0  0  0  0  0  0  0  0  0
  1  2  1  0  0  0  0
  1 22  1  0  0  0  0
  1 23  1  0  0  0  0
  1 24  1  0  0  0  0
  2  3  1  0  0  0  0
  2  4  2  0  0  0  0
  3 25  1  0  0  0  0
  3 26  1  0  0  0  0
  3 27  1  0  0  0  0
  4  5  1  0  0  0  0
  4 28  1  0  0  0  0
  5 19  1  0  0  0  0
  5  6  1  0  0  0  0
  5 29  1  0  0  0  0
  6  7  1  0  0  0  0
  6 19  1  0  0  0  0
  6 30  1  0  0  0  0
  7  8  2  0  0  0  0
  7  9  1  0  0  0  0
  9 10  1  0  0  0  0
  9 31  1  0  0  0  0
 10 11  1  0  0  0  0
 10 32  1  0  0  0  0
 10 33  1  0  0  0  0
 11 12  1  0  0  0  0
 11 13  1  0  0  0  0
 11 34  1  0  0  0  0
 12 35  1  0  0  0  0
 12 36  1  0  0  0  0
 12 37  1  0  0  0  0
 13 17  1  0  0  0  0
 13 14  2  0  0  0  0
 14 15  1  0  0  0  0
 15 16  2  0  0  0  0
 16 17  1  0  0  0  0
 16 38  1  0  0  0  0
 17 18  1  0  0  0  0
 18 39  1  0  0  0  0
 18 40  1  0  0  0  0
 18 41  1  0  0  0  0
 19 20  1  0  0  0  0
 19 21  1  0  0  0  0
 20 42  1  0  0  0  0
 20 43  1  0  0  0  0
 20 44  1  0  0  0  0
 21 45  1  0  0  0  0
 21 46  1  0  0  0  0
 21 47  1  0  0  0  0
M  END
> <s_m_source_file>
AV-unprocessed.smi

> <i_m_source_file_index>
2718

> <i_lp_mmshare_version>
43012

> <i_f3d_flags>
0

> <s_epik_input>
W0NIM11DKFtDSDNdKT1bQ0hdW0NAQEhdKEMxKFtDSDNdKVtDSDNdKVtDQEhdMUMoPU8pW05IXVtDSDJdW0NASF0oW0NIM10pYzJubltjSF1uMltDSDNd

> <s_epik_cmdline>
J2VwaWtfcHl0aG9uJywgJy1waCcsICc3LjAnLCAnLXRuJywgJzgnLCAnLW1hJywgJzIwMCcsICctbWV0YWxfYmluZGluZycsICctaW1hZScsICc8aW5maWxlLm1hZT4nLCAnLW9tYWUnLCAnPG91dGZpbGUubWFlPic=

> <r_lp_tautomer_probability>
1

> <r_epik_Ionization_Penalty>
0.000449586

> <r_epik_Ionization_Penalty_Charging>
0

> <r_epik_Ionization_Penalty_Neutral>
0.000449586

> <r_epik_State_Penalty>
0.000243372

> <r_epik_Charging_Adjusted_Penalty>
0.000243372

> <i_epik_Tot_Q>
0

> <i_epik_Tot_abs_Q>
0

> <r_epik_Metal_State_Penalty>
-0

> <b_epik_Metal_Only>
0

> <s_lp_Force_Field>
OPLS_2005

> <r_lp_Energy>
15.8619

> <b_lp_Chiralities_Consistent>
1

> <s_lp_Variant>
AV-unprocessed.smi:2718-4

> <Gold.Version>
5.8.1

> <Gold.Id.Protein>
6NUR|6NUR_protein|mol2

> <Gold.PLP.Fitness>
42.4423

> <Gold.PLP.PLP>
-43.3221

> <Gold.PLP.part.hbond>
-0.8569

> <Gold.PLP.part.metal>
0.0000

> <Gold.PLP.part.buried>
-4.8304

> <Gold.PLP.part.nonpolar>
-36.7781

> <Gold.PLP.part.repulsive>
0.0879

> <Gold.PLP.ligand.clash>
0.0000

> <Gold.PLP.ligand.torsion>
0.5773

> <Gold.PLP.Chemscore.Hbond>
0.0000

> <Gold.PLP.Chemscore.CHOScore>
0.0000

> <Gold.PLP.Chemscore.Metal>
0.0000

> <Gold.PLP.Chemscore.Internal.Correction>
0.2749

> <Gold.Rescore>
     Score         DG    S(hbond)    S(metal)    S(lipo)     H(rot)  DE(clash)    DE(int)     intcor
     12.37     -12.88       0.00        0.00     106.02       1.95       0.01       0.51       ----

> <Gold.Chemscore.Fitness>
12.3675

> <Gold.Chemscore.DG>
-12.8841

> <Gold.Chemscore.ZeroCoef>
-5.4800

> <Gold.Chemscore.Hbond>
0.0000

> <Gold.Chemscore.Metal>
0.0000

> <Gold.Chemscore.Lipo>
106.0222

> <Gold.Chemscore.Internal_Hbond>
0.0000

> <Gold.Chemscore.DEClash>
0.0089

> <Gold.Chemscore.DEInternal>
0.5077

> <Gold.Chemscore.Rot>
1.9533

> <Gold.Chemscore.Internal.Correction>
   9.000000E+99

> <Gold.Chemscore.Hbond.Weighted>
-0.0000

> <Gold.Chemscore.Metal.Weighted>
-0.0000

> <Gold.Chemscore.Lipo.Weighted>
-12.4046

> <Gold.Chemscore.Internal_Hbond.Weighted>
0.0000

> <Gold.Chemscore.DEClash.Weighted>
0.0089

> <Gold.Chemscore.DEInternal.Weighted>
0.5077

> <Gold.Chemscore.Rot.Weighted>
5.0005

> <Gold.Chemscore.Internal.Correction.Weighted>
   9.000000E+99

> <Gold.Protein.RotatedTorsions>
[ 6907 6896 6895 6894 ] final -151.29 input  -60.11 | X-H torsion
[ 7974 7965 7964 7962 ] final  147.34 input  175.53 | X-H torsion
[ 8008 7997 7996 7995 ] final -150.22 input   59.86 | X-H torsion
[ 10167 10162 10161 10158 ] final  102.64 input  -65.29 | X-H torsion
[ 10718 10713 10712 10709 ] final  138.96 input   66.30 | X-H torsion
[ 10763 10752 10751 10750 ] final   35.49 input  -60.55 | X-H torsion
[ 11005 11000 10999 10996 ] final  -64.12 input  -57.11 | X-H torsion

> <Gold.Protein.ActiveResidues>
 VAL166  LYS551  ARG553  GLY616  TRP617  ASP618  TYR619  PRO620  LYS621  CYS622 
 ASP623  PHE694  ASN695  SER759  ASP760  ASP761  ALA762  ILE779  LEU786  VAL792 
 PHE793  MET794  SER795  GLU796  ALA797  LYS798  CYS799  TRP800  GLU811  SER814 

> <Gold.Protein.RotatedAtoms>
  151.2109  133.4556  159.2597 H   0  0  0  0  0  0  0  0  0  0  0  0  # atno 6907 bound_to 6896
  151.0978  134.9954  159.8444 H   0  0  0  0  0  0  0  0  0  0  0  0  # atno 6908 bound_to 6896
  152.5440  134.2038  159.8775 H   0  0  0  0  0  0  0  0  0  0  0  0  # atno 6909 bound_to 6896
  144.8599  139.6016  143.5935 H   0  0  0  0  0  0  0  0  0  0  0  0  # atno 7974 bound_to 7965
  155.6201  140.0680  157.2681 H   0  0  0  0  0  0  0  0  0  0  0  0  # atno 8008 bound_to 7997
  154.4231  140.1786  156.1411 H   0  0  0  0  0  0  0  0  0  0  0  0  # atno 8009 bound_to 7997
  156.0016  140.3335  155.6855 H   0  0  0  0  0  0  0  0  0  0  0  0  # atno 8010 bound_to 7997
  139.7332  144.7031  151.0690 H   0  0  0  0  0  0  0  0  0  0  0  0  # atno 10167 bound_to 10162
  157.4196  131.1037  151.0368 H   0  0  0  0  0  0  0  0  0  0  0  0  # atno 10718 bound_to 10713
  153.0117  135.6332  154.1835 H   0  0  0  0  0  0  0  0  0  0  0  0  # atno 10763 bound_to 10752
  154.1576  135.2825  155.3119 H   0  0  0  0  0  0  0  0  0  0  0  0  # atno 10764 bound_to 10752
  154.6006  135.5588  153.7431 H   0  0  0  0  0  0  0  0  0  0  0  0  # atno 10765 bound_to 10752
  141.1415  133.6661  156.5785 H   0  0  0  0  0  0  0  0  0  0  0  0  # atno 11005 bound_to 11000
  146.2852  139.6986  142.9200 LP  0  0  0  0  0  0  0  0  0  0  0  0  # atno 17320 bound_to 7965
  145.4332  141.0417  143.2899 LP  0  0  0  0  0  0  0  0  0  0  0  0  # atno 17321 bound_to 7965
  140.7774  143.5017  150.9763 LP  0  0  0  0  0  0  0  0  0  0  0  0  # atno 17342 bound_to 10162
  139.8705  143.7198  152.3166 LP  0  0  0  0  0  0  0  0  0  0  0  0  # atno 17343 bound_to 10162
  157.1303  130.6099  149.5527 LP  0  0  0  0  0  0  0  0  0  0  0  0  # atno 17370 bound_to 10713
  155.9876  130.4916  150.7133 LP  0  0  0  0  0  0  0  0  0  0  0  0  # atno 17371 bound_to 10713
  140.3856  134.7485  157.4689 LP  0  0  0  0  0  0  0  0  0  0  0  0  # atno 17394 bound_to 11000
  140.0604  134.6003  155.8755 LP  0  0  0  0  0  0  0  0  0  0  0  0  # atno 17395 bound_to 11000

$$$$
