AV-unprocessed.smi:1140|AV-procd|sdf|4871|dock6
  -GOLD-   22720 3443D 1   1.00000     0.00000
 Structure written by MMmdl.
 48 50  0  0  0  0  0  0  0  0  1 V2000
  146.5287  133.4550  150.6868 C   0  0  0  0  0  0  0  0  0  0  0  0
  145.6375  133.8020  151.8818 C   0  0  0  0  0  0  0  0  0  0  0  0
  146.3072  134.7681  152.6864 O   0  0  0  0  0  0  0  0  0  0  0  0
  145.9217  134.9158  154.0054 C   0  0  0  0  0  0  0  0  0  0  0  0
  144.9224  134.1288  154.4780 N   0  0  0  0  0  0  0  0  0  0  0  0
  144.5479  134.2687  155.7661 C   0  0  0  0  0  0  0  0  0  0  0  0
  145.1472  135.1873  156.6469 C   0  0  0  0  0  0  0  0  0  0  0  0
  146.1837  136.0043  156.1597 C   0  0  0  0  0  0  0  0  0  0  0  0
  146.5786  135.8796  154.8055 C   0  0  0  0  0  0  0  0  0  0  0  0
  147.6294  136.6389  154.2210 N   0  0  0  0  0  0  0  0  0  0  0  0
  148.4283  137.5478  154.8050 C   0  0  0  0  0  0  0  0  0  0  0  0
  148.3321  137.9351  155.9695 O   0  0  0  0  0  0  0  0  0  0  0  0
  149.3495  138.0070  153.9461 N   0  0  0  0  0  0  0  0  0  0  0  0
  150.3669  139.0071  154.2567 C   0  0  0  0  0  0  0  0  0  0  0  0
  151.5763  138.3232  154.9291 C   0  0  0  0  0  0  0  0  0  0  0  0
  152.5923  139.3602  155.4410 C   0  0  0  0  0  0  0  0  0  0  0  0
  151.9109  140.2828  156.3576 N   0  0  0  0  0  0  0  0  0  0  0  0
  152.1075  140.2520  157.6996 C   0  0  0  0  0  0  0  0  0  0  0  0
  152.8859  139.4592  158.2321 O   0  0  0  0  0  0  0  0  0  0  0  0
  151.3505  141.2480  158.5225 C   0  0  0  0  0  0  0  0  0  0  0  0
  151.4734  142.7179  158.1631 C   0  0  0  0  0  0  0  0  0  0  0  0
  152.1671  142.1840  159.3887 C   0  0  0  0  0  0  0  0  0  0  0  0
  150.8900  141.0734  155.6549 C   0  0  0  0  0  0  0  0  0  0  0  0
  149.7859  140.1253  155.1537 C   0  0  0  0  0  0  0  0  0  0  0  0
  146.0464  132.7206  150.0415 H   0  0  0  0  0  0  0  0  0  0  0  0
  147.4806  133.0376  151.0154 H   0  0  0  0  0  0  0  0  0  0  0  0
  146.7395  134.3401  150.0863 H   0  0  0  0  0  0  0  0  0  0  0  0
  144.6856  134.1975  151.5237 H   0  0  0  0  0  0  0  0  0  0  0  0
  145.4327  132.9001  152.4609 H   0  0  0  0  0  0  0  0  0  0  0  0
  143.7511  133.6247  156.1076 H   0  0  0  0  0  0  0  0  0  0  0  0
  144.8235  135.2596  157.6747 H   0  0  0  0  0  0  0  0  0  0  0  0
  146.6639  136.6946  156.8359 H   0  0  0  0  0  0  0  0  0  0  0  0
  147.7592  136.5024  153.2290 H   0  0  0  0  0  0  0  0  0  0  0  0
  149.3478  137.6387  153.0062 H   0  0  0  0  0  0  0  0  0  0  0  0
  150.7161  139.4570  153.3251 H   0  0  0  0  0  0  0  0  0  0  0  0
  151.2386  137.7117  155.7676 H   0  0  0  0  0  0  0  0  0  0  0  0
  152.0608  137.6441  154.2267 H   0  0  0  0  0  0  0  0  0  0  0  0
  153.4402  138.8535  155.9038 H   0  0  0  0  0  0  0  0  0  0  0  0
  153.0081  139.9232  154.6040 H   0  0  0  0  0  0  0  0  0  0  0  0
  150.3739  140.9335  158.8862 H   0  0  0  0  0  0  0  0  0  0  0  0
  152.1048  143.0096  157.3260 H   0  0  0  0  0  0  0  0  0  0  0  0
  150.5894  143.3359  158.3067 H   0  0  0  0  0  0  0  0  0  0  0  0
  151.7562  142.4373  160.3638 H   0  0  0  0  0  0  0  0  0  0  0  0
  153.2520  142.0990  159.3534 H   0  0  0  0  0  0  0  0  0  0  0  0
  150.4426  141.8606  156.2592 H   0  0  0  0  0  0  0  0  0  0  0  0
  151.3519  141.5858  154.8096 H   0  0  0  0  0  0  0  0  0  0  0  0
  149.0322  140.6947  154.6087 H   0  0  0  0  0  0  0  0  0  0  0  0
  149.2773  139.6841  156.0125 H   0  0  0  0  0  0  0  0  0  0  0  0
  1  2  1  0  0  0  0
  1 25  1  0  0  0  0
  1 26  1  0  0  0  0
  1 27  1  0  0  0  0
  2  3  1  0  0  0  0
  2 28  1  0  0  0  0
  2 29  1  0  0  0  0
  3  4  1  0  0  0  0
  4  9  1  0  0  0  0
  4  5  2  0  0  0  0
  5  6  1  0  0  0  0
  6  7  2  0  0  0  0
  6 30  1  0  0  0  0
  7  8  1  0  0  0  0
  7 31  1  0  0  0  0
  8  9  2  0  0  0  0
  8 32  1  0  0  0  0
  9 10  1  0  0  0  0
 10 11  1  0  0  0  0
 10 33  1  0  0  0  0
 11 12  2  0  0  0  0
 11 13  1  0  0  0  0
 13 14  1  0  0  0  0
 13 34  1  0  0  0  0
 14 24  1  0  0  0  0
 14 15  1  0  0  0  0
 14 35  1  0  0  0  0
 15 16  1  0  0  0  0
 15 36  1  0  0  0  0
 15 37  1  0  0  0  0
 16 17  1  0  0  0  0
 16 38  1  0  0  0  0
 16 39  1  0  0  0  0
 17 18  1  0  0  0  0
 17 23  1  0  0  0  0
 18 19  2  0  0  0  0
 18 20  1  0  0  0  0
 20 22  1  0  0  0  0
 20 21  1  0  0  0  0
 20 40  1  0  0  0  0
 21 22  1  0  0  0  0
 21 41  1  0  0  0  0
 21 42  1  0  0  0  0
 22 43  1  0  0  0  0
 22 44  1  0  0  0  0
 23 24  1  0  0  0  0
 23 45  1  0  0  0  0
 23 46  1  0  0  0  0
 24 47  1  0  0  0  0
 24 48  1  0  0  0  0
M  END
> <s_m_source_file>
AV-unprocessed.smi

> <i_m_source_file_index>
1140

> <i_lp_mmshare_version>
43012

> <i_f3d_flags>
0

> <s_epik_input>
W0NIM11bQ0gyXU9jMW5bY0hdW2NIXVtjSF1jMVtOSF1DKD1PKVtOSF1bQ0hdMltDSDJdW0NIMl1OKFtDSDJdW0NIMl0yKUMoPU8pW0NIXTNbQ0gyXVtDSDJdMw==

> <s_epik_cmdline>
J2VwaWtfcHl0aG9uJywgJy1waCcsICc3LjAnLCAnLXRuJywgJzgnLCAnLW1hJywgJzIwMCcsICctbWV0YWxfYmluZGluZycsICctaW1hZScsICc8aW5maWxlLm1hZT4nLCAnLW9tYWUnLCAnPG91dGZpbGUubWFlPic=

> <r_lp_tautomer_probability>
1

> <r_epik_Ionization_Penalty>
0.00011541

> <r_epik_Ionization_Penalty_Charging>
0

> <r_epik_Ionization_Penalty_Neutral>
0.00011541

> <r_epik_State_Penalty>
-0

> <r_epik_Charging_Adjusted_Penalty>
0

> <i_epik_Tot_Q>
0

> <i_epik_Tot_abs_Q>
0

> <r_epik_Metal_State_Penalty>
-0

> <b_epik_Metal_Only>
0

> <s_lp_Force_Field>
OPLS_2005

> <r_lp_Energy>
31.5236

> <b_lp_Chiralities_Consistent>
1

> <s_lp_Variant>
AV-unprocessed.smi:1140-1

> <Gold.Version>
5.8.1

> <Gold.Id.Protein>
6NUR|6NUR_protein|mol2

> <Gold.PLP.Fitness>
41.3897

> <Gold.PLP.PLP>
-30.6756

> <Gold.PLP.part.hbond>
-3.0000

> <Gold.PLP.part.metal>
0.0000

> <Gold.PLP.part.buried>
-1.3380

> <Gold.PLP.part.nonpolar>
-26.3528

> <Gold.PLP.part.repulsive>
0.3075

> <Gold.PLP.ligand.clash>
0.0000

> <Gold.PLP.ligand.torsion>
0.4656

> <Gold.PLP.Chemscore.Hbond>
2.9440

> <Gold.PLP.Chemscore.CHOScore>
0.9008

> <Gold.PLP.Chemscore.Metal>
0.0000

> <Gold.Chemscore.Hbonds>
donor molecule, donor type, donor heavy atom, donor atom, acceptor molecule, acceptor atom, score
      L1  H    10    33       P1  7948  0.93
      L1  H    13    34       P1  7948  0.99
      P1  H  7997  8009       L1    19  0.50
      L1  C     6    30       P1 10957  0.94

> <Gold.PLP.Chemscore.Internal.Correction>
0.1109

> <Gold.Rescore>
     Score         DG    S(hbond)    S(metal)    S(lipo)     H(rot)  DE(clash)    DE(int)     intcor
     15.95     -19.65       2.66        0.00      79.34       1.56       0.53       3.16       ----

> <Gold.Chemscore.Fitness>
15.9501

> <Gold.Chemscore.DG>
-19.6478

> <Gold.Chemscore.ZeroCoef>
-5.4800

> <Gold.Chemscore.Hbond>
2.6613

> <Gold.Chemscore.Metal>
0.0000

> <Gold.Chemscore.Lipo>
79.3415

> <Gold.Chemscore.Internal_Hbond>
0.0000

> <Gold.Chemscore.DEClash>
0.5346

> <Gold.Chemscore.DEInternal>
3.1630

> <Gold.Chemscore.Rot>
1.5640

> <Gold.Chemscore.Internal.Correction>
   9.000000E+99

> <Gold.Chemscore.Hbonds>
donor molecule, donor type, donor heavy atom, donor atom, acceptor molecule, acceptor atom, score
      L1  H    10    33       P1  7948  0.91
      L1  H    13    34       P1  7948  0.89
      P1  H  7997  8009       L1    19  0.06

> <Gold.Chemscore.Hbond.Weighted>
-8.8886

> <Gold.Chemscore.Metal.Weighted>
-0.0000

> <Gold.Chemscore.Lipo.Weighted>
-9.2830

> <Gold.Chemscore.Internal_Hbond.Weighted>
0.0000

> <Gold.Chemscore.DEClash.Weighted>
0.5346

> <Gold.Chemscore.DEInternal.Weighted>
3.1630

> <Gold.Chemscore.Rot.Weighted>
4.0038

> <Gold.Chemscore.Internal.Correction.Weighted>
   9.000000E+99

> <Gold.Protein.RotatedTorsions>
[ 6907 6896 6895 6894 ] final   45.03 input  -60.11 | X-H torsion
[ 7974 7965 7964 7962 ] final  154.72 input  175.53 | X-H torsion
[ 8008 7997 7996 7995 ] final  153.07 input   59.86 | X-H torsion
[ 10167 10162 10161 10158 ] final  -13.03 input  -65.29 | X-H torsion
[ 10718 10713 10712 10709 ] final   36.46 input   66.30 | X-H torsion
[ 10763 10752 10751 10750 ] final  168.30 input  -60.55 | X-H torsion
[ 11005 11000 10999 10996 ] final  127.22 input  -57.11 | X-H torsion

> <Gold.Protein.ActiveResidues>
 VAL166  LYS551  ARG553  GLY616  TRP617  ASP618  TYR619  PRO620  LYS621  CYS622 
 ASP623  PHE694  ASN695  SER759  ASP760  ASP761  ALA762  ILE779  LEU786  VAL792 
 PHE793  MET794  SER795  GLU796  ALA797  LYS798  CYS799  TRP800  GLU811  SER814 

> <Gold.Protein.RotatedAtoms>
  152.2396  134.8241  160.0461 H   0  0  0  0  0  0  0  0  0  0  0  0  # atno 6907 bound_to 6896
  151.8961  133.3522  159.3823 H   0  0  0  0  0  0  0  0  0  0  0  0  # atno 6908 bound_to 6896
  150.7050  134.4801  159.5510 H   0  0  0  0  0  0  0  0  0  0  0  0  # atno 6909 bound_to 6896
  144.8070  139.6972  143.6157 H   0  0  0  0  0  0  0  0  0  0  0  0  # atno 7974 bound_to 7965
  156.2599  140.2003  156.6433 H   0  0  0  0  0  0  0  0  0  0  0  0  # atno 8008 bound_to 7997
  154.6592  140.0563  157.0068 H   0  0  0  0  0  0  0  0  0  0  0  0  # atno 8009 bound_to 7997
  155.1301  140.3233  155.4479 H   0  0  0  0  0  0  0  0  0  0  0  0  # atno 8010 bound_to 7997
  140.7174  143.5469  150.9345 H   0  0  0  0  0  0  0  0  0  0  0  0  # atno 10167 bound_to 10162
  157.3351  130.7518  149.6873 H   0  0  0  0  0  0  0  0  0  0  0  0  # atno 10718 bound_to 10713
  154.3666  135.2753  155.2290 H   0  0  0  0  0  0  0  0  0  0  0  0  # atno 10763 bound_to 10752
  154.4456  135.5943  153.6161 H   0  0  0  0  0  0  0  0  0  0  0  0  # atno 10764 bound_to 10752
  152.9840  135.6029  154.3892 H   0  0  0  0  0  0  0  0  0  0  0  0  # atno 10765 bound_to 10752
  139.9496  134.9624  156.8822 H   0  0  0  0  0  0  0  0  0  0  0  0  # atno 11005 bound_to 11000
  146.2363  139.5912  142.9521 LP  0  0  0  0  0  0  0  0  0  0  0  0  # atno 17320 bound_to 7965
  145.5414  141.0420  143.2328 LP  0  0  0  0  0  0  0  0  0  0  0  0  # atno 17321 bound_to 7965
  139.9193  143.6626  152.3100 LP  0  0  0  0  0  0  0  0  0  0  0  0  # atno 17342 bound_to 10162
  139.7037  144.7631  151.1230 LP  0  0  0  0  0  0  0  0  0  0  0  0  # atno 17343 bound_to 10162
  155.9700  130.4184  150.4325 LP  0  0  0  0  0  0  0  0  0  0  0  0  # atno 17370 bound_to 10713
  157.2363  131.0515  151.2463 LP  0  0  0  0  0  0  0  0  0  0  0  0  # atno 17371 bound_to 10713
  140.5751  134.0406  155.7444 LP  0  0  0  0  0  0  0  0  0  0  0  0  # atno 17394 bound_to 11000
  141.1155  133.9546  157.2829 LP  0  0  0  0  0  0  0  0  0  0  0  0  # atno 17395 bound_to 11000

$$$$
