AV-unprocessed.smi:2373|AV-procd|sdf|9440|dock3
  -GOLD-   2272013 73D 1   1.00000     0.00000
 Structure written by MMmdl.
 46 47  0  0  0  0  0  0  0  0  1 V2000
  150.6737  145.1323  159.7358 C   0  0  0  0  0  0  0  0  0  0  0  0
  151.7135  144.2777  159.1711 N   0  0  0  0  0  0  0  0  0  0  0  0
  152.0871  144.4178  157.7692 C   0  0  0  0  0  0  0  0  0  0  0  0
  152.3270  143.2906  159.9762 C   0  0  0  0  0  0  0  0  0  0  0  0
  152.1277  143.2504  161.3785 C   0  0  0  0  0  0  0  0  0  0  0  0
  152.7650  142.2487  162.1350 C   0  0  0  0  0  0  0  0  0  0  0  0
  153.5933  141.3140  161.4852 C   0  0  0  0  0  0  0  0  0  0  0  0
  154.2100  140.3038  162.2718 N   0  0  0  0  0  0  0  0  0  0  0  0
  154.3922  139.0063  161.9727 C   0  0  0  0  0  0  0  0  0  0  0  0
  154.0755  138.4736  160.9100 O   0  0  0  0  0  0  0  0  0  0  0  0
  154.9933  138.3600  162.9861 N   0  0  0  0  0  0  0  0  0  0  0  0
  155.3731  136.9411  163.0649 C   0  0  0  0  0  0  0  0  0  0  0  0
  156.4093  136.7035  164.2054 C   0  0  0  0  0  0  0  0  0  0  0  0
  156.2333  137.5706  165.4674 C   0  0  0  0  0  0  0  0  0  0  0  0
  154.9013  137.4753  165.9241 O   0  0  0  0  0  0  0  0  0  0  0  0
  154.0605  136.1527  163.3022 C   0  0  0  0  0  0  0  0  0  0  0  0
  154.2167  134.6383  163.0800 C   0  0  0  0  0  0  0  0  0  0  0  0
  154.7066  134.3901  161.7696 O   0  0  0  0  0  0  0  0  0  0  0  0
  155.9953  134.9483  161.5549 C   0  0  0  0  0  0  0  0  0  0  0  0
  155.9412  136.4800  161.6959 C   0  0  0  0  0  0  0  0  0  0  0  0
  153.7225  141.4211  160.0807 C   0  0  0  0  0  0  0  0  0  0  0  0
  153.1118  142.3788  159.3521 N   0  0  0  0  0  0  0  0  0  0  0  0
  151.0515  145.6735  160.6038 H   0  0  0  0  0  0  0  0  0  0  0  0
  149.8149  144.5362  160.0462 H   0  0  0  0  0  0  0  0  0  0  0  0
  150.3263  145.8691  159.0114 H   0  0  0  0  0  0  0  0  0  0  0  0
  151.9273  143.4812  157.2338 H   0  0  0  0  0  0  0  0  0  0  0  0
  153.1368  144.6983  157.6793 H   0  0  0  0  0  0  0  0  0  0  0  0
  151.4935  145.1868  157.2745 H   0  0  0  0  0  0  0  0  0  0  0  0
  151.4990  143.9646  161.8881 H   0  0  0  0  0  0  0  0  0  0  0  0
  152.6197  142.2050  163.2047 H   0  0  0  0  0  0  0  0  0  0  0  0
  154.6004  140.6169  163.1484 H   0  0  0  0  0  0  0  0  0  0  0  0
  155.2100  138.9097  163.8046 H   0  0  0  0  0  0  0  0  0  0  0  0
  156.3982  135.6556  164.5031 H   0  0  0  0  0  0  0  0  0  0  0  0
  157.4141  136.8716  163.8165 H   0  0  0  0  0  0  0  0  0  0  0  0
  156.8957  137.2446  166.2690 H   0  0  0  0  0  0  0  0  0  0  0  0
  156.4520  138.6183  165.2652 H   0  0  0  0  0  0  0  0  0  0  0  0
  154.4677  138.2991  165.7619 H   0  0  0  0  0  0  0  0  0  0  0  0
  153.6572  136.3435  164.2961 H   0  0  0  0  0  0  0  0  0  0  0  0
  153.2985  136.5078  162.6063 H   0  0  0  0  0  0  0  0  0  0  0  0
  154.8761  134.1896  163.8235 H   0  0  0  0  0  0  0  0  0  0  0  0
  153.2489  134.1479  163.1862 H   0  0  0  0  0  0  0  0  0  0  0  0
  156.7157  134.5109  162.2470 H   0  0  0  0  0  0  0  0  0  0  0  0
  156.3266  134.6809  160.5515 H   0  0  0  0  0  0  0  0  0  0  0  0
  155.3147  136.8700  160.8921 H   0  0  0  0  0  0  0  0  0  0  0  0
  156.9371  136.8905  161.5274 H   0  0  0  0  0  0  0  0  0  0  0  0
  154.3064  140.7218  159.5034 H   0  0  0  0  0  0  0  0  0  0  0  0
  1  2  1  0  0  0  0
  1 23  1  0  0  0  0
  1 24  1  0  0  0  0
  1 25  1  0  0  0  0
  2  3  1  0  0  0  0
  2  4  1  0  0  0  0
  3 26  1  0  0  0  0
  3 27  1  0  0  0  0
  3 28  1  0  0  0  0
  4 22  1  0  0  0  0
  4  5  2  0  0  0  0
  5  6  1  0  0  0  0
  5 29  1  0  0  0  0
  6  7  2  0  0  0  0
  6 30  1  0  0  0  0
  7  8  1  0  0  0  0
  7 21  1  0  0  0  0
  8  9  1  0  0  0  0
  8 31  1  0  0  0  0
  9 10  2  0  0  0  0
  9 11  1  0  0  0  0
 11 12  1  0  0  0  0
 11 32  1  0  0  0  0
 12 20  1  0  0  0  0
 12 13  1  0  0  0  0
 12 16  1  0  0  0  0
 13 14  1  0  0  0  0
 13 33  1  0  0  0  0
 13 34  1  0  0  0  0
 14 15  1  0  0  0  0
 14 35  1  0  0  0  0
 14 36  1  0  0  0  0
 15 37  1  0  0  0  0
 16 17  1  0  0  0  0
 16 38  1  0  0  0  0
 16 39  1  0  0  0  0
 17 18  1  0  0  0  0
 17 40  1  0  0  0  0
 17 41  1  0  0  0  0
 18 19  1  0  0  0  0
 19 20  1  0  0  0  0
 19 42  1  0  0  0  0
 19 43  1  0  0  0  0
 20 44  1  0  0  0  0
 20 45  1  0  0  0  0
 21 22  2  0  0  0  0
 21 46  1  0  0  0  0
M  END
> <s_m_source_file>
AV-unprocessed.smi

> <i_m_source_file_index>
2373

> <i_lp_mmshare_version>
43012

> <i_f3d_flags>
0

> <s_epik_input>
W0NIM11OKFtDSDNdKWMxW2NIXVtjSF1jKFtjSF1uMSlbTkhdQyg9TylbTkhdQzIoW0NIMl1bQ0gyXVtPSF0pW0NIMl1bQ0gyXU9bQ0gyXVtDSDJdMg==

> <s_epik_cmdline>
J2VwaWtfcHl0aG9uJywgJy1waCcsICc3LjAnLCAnLXRuJywgJzgnLCAnLW1hJywgJzIwMCcsICctbWV0YWxfYmluZGluZycsICctaW1hZScsICc8aW5maWxlLm1hZT4nLCAnLW9tYWUnLCAnPG91dGZpbGUubWFlPic=

> <r_lp_tautomer_probability>
1

> <r_epik_Ionization_Penalty>
0.631973

> <r_epik_Ionization_Penalty_Charging>
0

> <r_epik_Ionization_Penalty_Neutral>
0.631973

> <r_epik_State_Penalty>
0.647706

> <r_epik_Charging_Adjusted_Penalty>
0.647706

> <i_epik_Tot_Q>
0

> <i_epik_Tot_abs_Q>
0

> <r_epik_Metal_State_Penalty>
0.309159

> <b_epik_Metal_Only>
0

> <s_lp_Force_Field>
OPLS_2005

> <r_lp_Energy>
18.939

> <b_lp_Chiralities_Consistent>
1

> <s_lp_Variant>
AV-unprocessed.smi:2373-2

> <Gold.Version>
5.8.1

> <Gold.Id.Protein>
6NUR|6NUR_protein|mol2

> <Gold.PLP.Fitness>
44.4381

> <Gold.PLP.PLP>
-46.5839

> <Gold.PLP.part.hbond>
-1.3854

> <Gold.PLP.part.metal>
0.0000

> <Gold.PLP.part.buried>
-7.4095

> <Gold.PLP.part.nonpolar>
-38.1014

> <Gold.PLP.part.repulsive>
0.0000

> <Gold.PLP.ligand.clash>
0.0000

> <Gold.PLP.ligand.torsion>
1.0864

> <Gold.PLP.Chemscore.Hbond>
0.0000

> <Gold.PLP.Chemscore.CHOScore>
0.0000

> <Gold.PLP.Chemscore.Metal>
0.0000

> <Gold.PLP.Chemscore.Internal.Correction>
0.0269

> <Gold.Rescore>
     Score         DG    S(hbond)    S(metal)    S(lipo)     H(rot)  DE(clash)    DE(int)     intcor
      8.03     -12.03       0.00        0.00     101.63       2.09       0.09       3.91       ----

> <Gold.Chemscore.Fitness>
8.0331

> <Gold.Chemscore.DG>
-12.0305

> <Gold.Chemscore.ZeroCoef>
-5.4800

> <Gold.Chemscore.Hbond>
0.0000

> <Gold.Chemscore.Metal>
0.0000

> <Gold.Chemscore.Lipo>
101.6271

> <Gold.Chemscore.Internal_Hbond>
0.0000

> <Gold.Chemscore.DEClash>
0.0883

> <Gold.Chemscore.DEInternal>
3.9092

> <Gold.Chemscore.Rot>
2.0859

> <Gold.Chemscore.Internal.Correction>
   9.000000E+99

> <Gold.Chemscore.Hbond.Weighted>
-0.0000

> <Gold.Chemscore.Metal.Weighted>
-0.0000

> <Gold.Chemscore.Lipo.Weighted>
-11.8904

> <Gold.Chemscore.Internal_Hbond.Weighted>
0.0000

> <Gold.Chemscore.DEClash.Weighted>
0.0883

> <Gold.Chemscore.DEInternal.Weighted>
3.9092

> <Gold.Chemscore.Rot.Weighted>
5.3399

> <Gold.Chemscore.Internal.Correction.Weighted>
   9.000000E+99

> <Gold.Protein.RotatedTorsions>
[ 6907 6896 6895 6894 ] final -147.37 input  -60.11 | X-H torsion
[ 7974 7965 7964 7962 ] final -168.89 input  175.53 | X-H torsion
[ 8008 7997 7996 7995 ] final   99.63 input   59.86 | X-H torsion
[ 10167 10162 10161 10158 ] final  126.84 input  -65.29 | X-H torsion
[ 10718 10713 10712 10709 ] final  -81.36 input   66.30 | X-H torsion
[ 10763 10752 10751 10750 ] final -121.39 input  -60.55 | X-H torsion
[ 11005 11000 10999 10996 ] final -144.44 input  -57.11 | X-H torsion

> <Gold.Protein.ActiveResidues>
 VAL166  LYS551  ARG553  GLY616  TRP617  ASP618  TYR619  PRO620  LYS621  CYS622 
 ASP623  PHE694  ASN695  SER759  ASP760  ASP761  ALA762  ILE779  LEU786  VAL792 
 PHE793  MET794  SER795  GLU796  ALA797  LYS798  CYS799  TRP800  GLU811  SER814 

> <Gold.Protein.RotatedAtoms>
  151.1547  133.4884  159.2594 H   0  0  0  0  0  0  0  0  0  0  0  0  # atno 6907 bound_to 6896
  151.1517  135.0230  159.8681 H   0  0  0  0  0  0  0  0  0  0  0  0  # atno 6908 bound_to 6896
  152.5463  134.1430  159.8540 H   0  0  0  0  0  0  0  0  0  0  0  0  # atno 6909 bound_to 6896
  144.7195  140.2303  143.6305 H   0  0  0  0  0  0  0  0  0  0  0  0  # atno 7974 bound_to 7965
  156.1124  140.3225  155.8092 H   0  0  0  0  0  0  0  0  0  0  0  0  # atno 8008 bound_to 7997
  155.4649  140.0542  157.3004 H   0  0  0  0  0  0  0  0  0  0  0  0  # atno 8009 bound_to 7997
  154.4769  140.2036  155.9870 H   0  0  0  0  0  0  0  0  0  0  0  0  # atno 8010 bound_to 7997
  139.5610  144.6881  151.4044 H   0  0  0  0  0  0  0  0  0  0  0  0  # atno 10167 bound_to 10162
  156.0052  130.4601  150.3941 H   0  0  0  0  0  0  0  0  0  0  0  0  # atno 10718 bound_to 10713
  154.8667  135.4169  154.2613 H   0  0  0  0  0  0  0  0  0  0  0  0  # atno 10763 bound_to 10752
  153.3541  135.7000  153.6771 H   0  0  0  0  0  0  0  0  0  0  0  0  # atno 10764 bound_to 10752
  153.5698  135.3593  155.2806 H   0  0  0  0  0  0  0  0  0  0  0  0  # atno 10765 bound_to 10752
  140.8024  134.2841  157.4973 H   0  0  0  0  0  0  0  0  0  0  0  0  # atno 11005 bound_to 11000
  145.8417  139.2133  143.1823 LP  0  0  0  0  0  0  0  0  0  0  0  0  # atno 17320 bound_to 7965
  146.0340  140.8230  142.9861 LP  0  0  0  0  0  0  0  0  0  0  0  0  # atno 17321 bound_to 7965
  140.6889  143.7908  150.7226 LP  0  0  0  0  0  0  0  0  0  0  0  0  # atno 17342 bound_to 10162
  140.1384  143.4463  152.2209 LP  0  0  0  0  0  0  0  0  0  0  0  0  # atno 17343 bound_to 10162
  157.2014  131.0439  151.2648 LP  0  0  0  0  0  0  0  0  0  0  0  0  # atno 17370 bound_to 10713
  157.3972  130.7314  149.6740 LP  0  0  0  0  0  0  0  0  0  0  0  0  # atno 17371 bound_to 10713
  139.8720  134.9437  156.3861 LP  0  0  0  0  0  0  0  0  0  0  0  0  # atno 17394 bound_to 11000
  140.9281  133.7598  155.9990 LP  0  0  0  0  0  0  0  0  0  0  0  0  # atno 17395 bound_to 11000

$$$$
