AV-unprocessed.smi:2726|AV-procd|sdf|10519|dock4
  -GOLD-   2272014563D 1   1.00000     0.00000
 Structure written by MMmdl.
 41 42  0  0  0  0  0  0  0  0  1 V2000
  147.9436  132.8277  152.8065 C   0  0  0  0  0  0  0  0  0  0  0  0
  148.4404  133.2855  154.1895 C   0  0  0  0  0  0  0  0  0  0  0  0
  147.2898  133.1414  155.2078 C   0  0  0  0  0  0  0  0  0  0  0  0
  149.6436  132.4119  154.6026 C   0  0  0  0  0  0  0  0  0  0  0  0
  148.8404  134.6918  154.0559 N   0  0  0  0  0  0  0  0  0  0  0  0
  149.1601  135.5650  155.0260 C   0  0  0  0  0  0  0  0  0  0  0  0
  149.1664  135.2911  156.2257 O   0  0  0  0  0  0  0  0  0  0  0  0
  149.4470  136.7714  154.5080 N   0  0  0  0  0  0  0  0  0  0  0  0
  149.8282  137.9566  155.1920 C   0  0  0  0  0  0  0  0  0  0  0  0
  149.7814  138.1132  156.5975 C   0  0  0  0  0  0  0  0  0  0  0  0
  150.2056  139.3321  157.1606 C   0  0  0  0  0  0  0  0  0  0  0  0
  150.6694  140.3535  156.3065 C   0  0  0  0  0  0  0  0  0  0  0  0
  151.0873  141.5681  156.8713 N   0  0  0  0  0  0  0  0  0  0  0  0
  150.0356  142.3616  157.4855 C   0  0  0  0  0  0  0  0  0  0  0  0
  150.7586  143.3994  158.3474 C   0  0  0  0  0  0  0  0  0  0  0  0
  152.1446  142.7972  158.6093 C   0  0  0  0  0  0  0  0  0  0  0  0
  152.1378  141.4566  157.8698 C   0  0  0  0  0  0  0  0  0  0  0  0
  150.7296  140.2044  154.9615 N   0  0  0  0  0  0  0  0  0  0  0  0
  150.3231  139.0332  154.4279 C   0  0  0  0  0  0  0  0  0  0  0  0
  147.6215  131.7859  152.8253 H   0  0  0  0  0  0  0  0  0  0  0  0
  148.7274  132.9142  152.0529 H   0  0  0  0  0  0  0  0  0  0  0  0
  147.0961  133.4260  152.4692 H   0  0  0  0  0  0  0  0  0  0  0  0
  146.4442  133.7780  154.9448 H   0  0  0  0  0  0  0  0  0  0  0  0
  147.6002  133.4063  156.2185 H   0  0  0  0  0  0  0  0  0  0  0  0
  146.9266  132.1138  155.2457 H   0  0  0  0  0  0  0  0  0  0  0  0
  149.3748  131.3552  154.6126 H   0  0  0  0  0  0  0  0  0  0  0  0
  150.0059  132.6569  155.6009 H   0  0  0  0  0  0  0  0  0  0  0  0
  150.4777  132.5309  153.9102 H   0  0  0  0  0  0  0  0  0  0  0  0
  148.8708  135.0415  153.1094 H   0  0  0  0  0  0  0  0  0  0  0  0
  149.3151  136.8697  153.5119 H   0  0  0  0  0  0  0  0  0  0  0  0
  149.4451  137.3243  157.2519 H   0  0  0  0  0  0  0  0  0  0  0  0
  150.1783  139.4757  158.2310 H   0  0  0  0  0  0  0  0  0  0  0  0
  149.4078  142.8343  156.7296 H   0  0  0  0  0  0  0  0  0  0  0  0
  149.3970  141.7359  158.1107 H   0  0  0  0  0  0  0  0  0  0  0  0
  150.8598  144.3389  157.8029 H   0  0  0  0  0  0  0  0  0  0  0  0
  150.2140  143.6058  159.2692 H   0  0  0  0  0  0  0  0  0  0  0  0
  152.9168  143.4512  158.2024 H   0  0  0  0  0  0  0  0  0  0  0  0
  152.3459  142.6663  159.6731 H   0  0  0  0  0  0  0  0  0  0  0  0
  151.9213  140.6462  158.5673 H   0  0  0  0  0  0  0  0  0  0  0  0
  153.1018  141.2508  157.4036 H   0  0  0  0  0  0  0  0  0  0  0  0
  150.3904  138.9565  153.3523 H   0  0  0  0  0  0  0  0  0  0  0  0
  1  2  1  0  0  0  0
  1 20  1  0  0  0  0
  1 21  1  0  0  0  0
  1 22  1  0  0  0  0
  2  3  1  0  0  0  0
  2  4  1  0  0  0  0
  2  5  1  0  0  0  0
  3 23  1  0  0  0  0
  3 24  1  0  0  0  0
  3 25  1  0  0  0  0
  4 26  1  0  0  0  0
  4 27  1  0  0  0  0
  4 28  1  0  0  0  0
  5  6  1  0  0  0  0
  5 29  1  0  0  0  0
  6  7  2  0  0  0  0
  6  8  1  0  0  0  0
  8  9  1  0  0  0  0
  8 30  1  0  0  0  0
  9 19  1  0  0  0  0
  9 10  2  0  0  0  0
 10 11  1  0  0  0  0
 10 31  1  0  0  0  0
 11 12  2  0  0  0  0
 11 32  1  0  0  0  0
 12 13  1  0  0  0  0
 12 18  1  0  0  0  0
 13 17  1  0  0  0  0
 13 14  1  0  0  0  0
 14 15  1  0  0  0  0
 14 33  1  0  0  0  0
 14 34  1  0  0  0  0
 15 16  1  0  0  0  0
 15 35  1  0  0  0  0
 15 36  1  0  0  0  0
 16 17  1  0  0  0  0
 16 37  1  0  0  0  0
 16 38  1  0  0  0  0
 17 39  1  0  0  0  0
 17 40  1  0  0  0  0
 18 19  2  0  0  0  0
 19 41  1  0  0  0  0
M  END
> <s_m_source_file>
AV-unprocessed.smi

> <i_m_source_file_index>
2726

> <i_lp_mmshare_version>
43012

> <i_f3d_flags>
0

> <s_epik_input>
W0NIM11DKFtDSDNdKShbQ0gzXSlbTkhdQyg9TylbTkhdYzFbY0hdW2NIXWMobltjSF0xKU4yW0NIMl1bQ0gyXVtDSDJdW0NIMl0y

> <s_epik_cmdline>
J2VwaWtfcHl0aG9uJywgJy1waCcsICc3LjAnLCAnLXRuJywgJzgnLCAnLW1hJywgJzIwMCcsICctbWV0YWxfYmluZGluZycsICctaW1hZScsICc8aW5maWxlLm1hZT4nLCAnLW9tYWUnLCAnPG91dGZpbGUubWFlPic=

> <r_lp_tautomer_probability>
1

> <r_epik_Ionization_Penalty>
0.105331

> <r_epik_Ionization_Penalty_Charging>
0

> <r_epik_Ionization_Penalty_Neutral>
0.105331

> <r_epik_State_Penalty>
0.0946433

> <r_epik_Charging_Adjusted_Penalty>
0.0946433

> <i_epik_Tot_Q>
0

> <i_epik_Tot_abs_Q>
0

> <r_epik_Metal_State_Penalty>
0.0802816

> <b_epik_Metal_Only>
0

> <s_lp_Force_Field>
OPLS_2005

> <r_lp_Energy>
34.5725

> <b_lp_Chiralities_Consistent>
1

> <s_lp_Variant>
AV-unprocessed.smi:2726-1

> <Gold.Version>
5.8.1

> <Gold.Id.Protein>
6NUR|6NUR_protein|mol2

> <Gold.PLP.Fitness>
38.0263

> <Gold.PLP.PLP>
-26.6475

> <Gold.PLP.part.hbond>
-3.0000

> <Gold.PLP.part.metal>
0.0000

> <Gold.PLP.part.buried>
-3.8141

> <Gold.PLP.part.nonpolar>
-18.8216

> <Gold.PLP.part.repulsive>
0.1483

> <Gold.PLP.ligand.clash>
0.0000

> <Gold.PLP.ligand.torsion>
0.2353

> <Gold.PLP.Chemscore.Hbond>
2.9500

> <Gold.PLP.Chemscore.CHOScore>
0.9928

> <Gold.PLP.Chemscore.Metal>
0.0000

> <Gold.Chemscore.Hbonds>
donor molecule, donor type, donor heavy atom, donor atom, acceptor molecule, acceptor atom, score
      L1  H     5    29       P1  7948  1.00
      L1  H     8    30       P1  7948  1.00
      P1  H  7989  7998       L1    18  0.95
      L1  C    19    41       P1  7957  0.95

> <Gold.PLP.Chemscore.Internal.Correction>
0.0209

> <Gold.Rescore>
     Score         DG    S(hbond)    S(metal)    S(lipo)     H(rot)  DE(clash)    DE(int)     intcor
     16.46     -18.94       2.70        0.00      63.43       1.17       0.06       2.42       ----

> <Gold.Chemscore.Fitness>
16.4616

> <Gold.Chemscore.DG>
-18.9374

> <Gold.Chemscore.ZeroCoef>
-5.4800

> <Gold.Chemscore.Hbond>
2.7046

> <Gold.Chemscore.Metal>
0.0000

> <Gold.Chemscore.Lipo>
63.4333

> <Gold.Chemscore.Internal_Hbond>
0.0000

> <Gold.Chemscore.DEClash>
0.0584

> <Gold.Chemscore.DEInternal>
2.4173

> <Gold.Chemscore.Rot>
1.1710

> <Gold.Chemscore.Internal.Correction>
   9.000000E+99

> <Gold.Chemscore.Hbonds>
donor molecule, donor type, donor heavy atom, donor atom, acceptor molecule, acceptor atom, score
      L1  H     5    29       P1  7948  0.30
      L1  H     8    30       P1  7948  0.93
      P1  H  7989  7998       L1    18  0.21

> <Gold.Chemscore.Hbond.Weighted>
-9.0335

> <Gold.Chemscore.Metal.Weighted>
-0.0000

> <Gold.Chemscore.Lipo.Weighted>
-7.4217

> <Gold.Chemscore.Internal_Hbond.Weighted>
0.0000

> <Gold.Chemscore.DEClash.Weighted>
0.0584

> <Gold.Chemscore.DEInternal.Weighted>
2.4173

> <Gold.Chemscore.Rot.Weighted>
2.9978

> <Gold.Chemscore.Internal.Correction.Weighted>
   9.000000E+99

> <Gold.Protein.RotatedTorsions>
[ 6907 6896 6895 6894 ] final   36.11 input  -60.11 | X-H torsion
[ 7974 7965 7964 7962 ] final  148.38 input  175.53 | X-H torsion
[ 8008 7997 7996 7995 ] final  125.82 input   59.86 | X-H torsion
[ 10167 10162 10161 10158 ] final  -31.74 input  -65.29 | X-H torsion
[ 10718 10713 10712 10709 ] final  -23.90 input   66.30 | X-H torsion
[ 10763 10752 10751 10750 ] final  -55.05 input  -60.55 | X-H torsion
[ 11005 11000 10999 10996 ] final -141.35 input  -57.11 | X-H torsion

> <Gold.Protein.ActiveResidues>
 VAL166  LYS551  ARG553  GLY616  TRP617  ASP618  TYR619  PRO620  LYS621  CYS622 
 ASP623  PHE694  ASN695  SER759  ASP760  ASP761  ALA762  ILE779  LEU786  VAL792 
 PHE793  MET794  SER795  GLU796  ALA797  LYS798  CYS799  TRP800  GLU811  SER814 

> <Gold.Protein.RotatedAtoms>
  152.1252  134.9176  160.0561 H   0  0  0  0  0  0  0  0  0  0  0  0  # atno 6907 bound_to 6896
  152.0301  133.3929  159.4302 H   0  0  0  0  0  0  0  0  0  0  0  0  # atno 6908 bound_to 6896
  150.6852  134.3451  159.4928 H   0  0  0  0  0  0  0  0  0  0  0  0  # atno 6909 bound_to 6896
  144.8518  139.6146  143.5970 H   0  0  0  0  0  0  0  0  0  0  0  0  # atno 7974 bound_to 7965
  156.2845  140.2707  156.2010 H   0  0  0  0  0  0  0  0  0  0  0  0  # atno 8008 bound_to 7997
  155.0361  140.0386  157.2510 H   0  0  0  0  0  0  0  0  0  0  0  0  # atno 8009 bound_to 7997
  154.7314  140.2707  155.6458 H   0  0  0  0  0  0  0  0  0  0  0  0  # atno 8010 bound_to 7997
  140.7232  143.3747  151.1711 H   0  0  0  0  0  0  0  0  0  0  0  0  # atno 10167 bound_to 10162
  156.4848  130.4553  149.6790 H   0  0  0  0  0  0  0  0  0  0  0  0  # atno 10718 bound_to 10713
  154.1847  135.6437  153.5043 H   0  0  0  0  0  0  0  0  0  0  0  0  # atno 10763 bound_to 10752
  153.0050  135.5414  154.6478 H   0  0  0  0  0  0  0  0  0  0  0  0  # atno 10764 bound_to 10752
  154.5851  135.2929  155.0666 H   0  0  0  0  0  0  0  0  0  0  0  0  # atno 10765 bound_to 10752
  140.8333  134.2490  157.4846 H   0  0  0  0  0  0  0  0  0  0  0  0  # atno 11005 bound_to 11000
  146.2791  139.6830  142.9242 LP  0  0  0  0  0  0  0  0  0  0  0  0  # atno 17320 bound_to 7965
  145.4484  141.0427  143.2818 LP  0  0  0  0  0  0  0  0  0  0  0  0  # atno 17321 bound_to 7965
  139.7325  143.9050  152.3024 LP  0  0  0  0  0  0  0  0  0  0  0  0  # atno 17342 bound_to 10162
  139.8844  144.7000  150.8841 LP  0  0  0  0  0  0  0  0  0  0  0  0  # atno 17343 bound_to 10162
  156.3485  130.7419  151.2375 LP  0  0  0  0  0  0  0  0  0  0  0  0  # atno 17370 bound_to 10713
  157.7480  131.0384  150.4499 LP  0  0  0  0  0  0  0  0  0  0  0  0  # atno 17371 bound_to 10713
  139.8704  134.9597  156.4342 LP  0  0  0  0  0  0  0  0  0  0  0  0  # atno 17394 bound_to 11000
  140.8974  133.7804  155.9641 LP  0  0  0  0  0  0  0  0  0  0  0  0  # atno 17395 bound_to 11000

$$$$
