#       Name:                AV-unprocessed.smi:711
#       Creating user name   scv26
#       Creation time:       Fri Mar 27 00:45:37 2020


#       File generated by GOLD software.
#

@<TRIPOS>MOLECULE
AV-unprocessed.smi:711
    35    36     1
SMALL
NO_CHARGES


@<TRIPOS>ATOM
      1 ****        -2.7526   3.7716  -1.0241 O.2            1 S1                 0.0000
      2 ****        -2.3643   2.6048  -0.9893 C.2            1 S1                 0.0000
      3 ****        -2.4406   1.8364   0.1364 N.pl3          1 S1                -1.0000
      4 ****        -2.0119   0.5381   0.1960 C.2            1 S1                 0.0000
      5 ****        -2.0844  -0.1288   1.2281 O.2            1 S1                 0.0000
      6 ****        -1.4788  -0.0312  -0.9268 N.am           1 S1                 0.0000
      7 ****        -0.9697  -1.4115  -0.9652 C.3            1 S1                 0.0000
      8 ****         0.5696  -1.4774  -0.8460 C.3            1 S1                 0.0000
      9 ****         0.9667  -2.8292  -0.9607 O.3            1 S1                 0.0000
     10 ****         1.0997  -0.8228   0.4251 C.ar           1 S1                 0.0000
     11 ****         1.0003  -1.4957   1.6634 C.ar           1 S1                 0.0000
     12 ****         1.4649  -0.8865   2.8447 C.ar           1 S1                 0.0000
     13 ****         2.0311   0.4011   2.7969 C.ar           1 S1                 0.0000
     14 ****         2.4781   0.9873   3.9328 F              1 S1                 0.0000
     15 ****         2.1315   1.0790   1.5674 C.ar           1 S1                 0.0000
     16 ****         1.6673   0.4718   0.3843 C.ar           1 S1                 0.0000
     17 ****         1.7630   1.1445  -0.7880 F              1 S1                 0.0000
     18 ****        -1.3807   0.7164  -2.1123 C.2            1 S1                 0.0000
     19 ****        -1.7949   1.9956  -2.1893 C.2            1 S1                 0.0000
     20 ****        -1.6541   2.8907  -3.6603 Cl             1 S1                 0.0000
     21 ****        -1.4281  -2.0253  -0.1881 H              1 S1                 0.0000
     22 ****        -1.2828  -1.8721  -1.9036 H              1 S1                 0.0000
     23 ****         1.0056  -0.9687  -1.7060 H              1 S1                 0.0000
     24 ****         1.9102  -2.8601  -1.0002 H              1 S1                 0.0000
     25 ****         0.5562  -2.4791   1.7124 H              1 S1                 0.0000
     26 ****         1.3822  -1.4058   3.7880 H              1 S1                 0.0000
     27 ****         2.5616   2.0689   1.5315 H              1 S1                 0.0000
     28 ****        -0.9438   0.1881  -2.9472 H              1 S1                 0.0000
     29 ****        -2.6778   4.2984  -1.8708 LP             1 S1                 0.0000
     30 ****        -3.1431   4.1932  -0.2057 LP             1 S1                 0.0000
     31 ****        -2.8308   2.2441   0.9620 LP             1 S1                 0.0000
     32 ****        -2.4663   0.2758   2.0590 LP             1 S1                 0.0000
     33 ****        -1.7615  -1.0752   1.2356 LP             1 S1                 0.0000
     34 ****         0.5805  -3.2252  -1.7938 LP             1 S1                 0.0000
     35 ****         0.6447  -3.3445  -0.1664 LP             1 S1                 0.0000
@<TRIPOS>BOND
    1    1    2 2     
    2    2   19 1     
    3    2    3 1     
    4    3    4 1     
    5    4    5 2     
    6    4    6 am    
    7    6    7 1     
    8    6   18 1     
    9    7    8 1     
   10    7   21 1     
   11    7   22 1     
   12    8    9 1     
   13    8   10 1     
   14    8   23 1     
   15    9   24 1     
   16   10   16 ar    
   17   10   11 ar    
   18   11   12 ar    
   19   11   25 1     
   20   12   13 ar    
   21   12   26 1     
   22   13   14 1     
   23   13   15 ar    
   24   15   16 ar    
   25   15   27 1     
   26   16   17 1     
   27   18   19 2     
   28   18   28 1     
   29   19   20 1     
   30    1   29 1     
   31    1   30 1     
   32    3   31 1     
   33    5   32 1     
   34    5   33 1     
   35    9   34 1     
   36    9   35 1     
@<TRIPOS>SUBSTRUCTURE
      1 S1             1
@<TRIPOS>SET
LONE_PAIRS      STATIC     ATOMS    <user>   **** ""
7 29 30 31 32 33 34 35
DONOR_HYDROGENS      STATIC     ATOMS    <user>   **** ""
1 24
ATOM$BLUE        STATIC     ATOMS    COLORGROUP SYSTEM
7 29 30 31 32 33 34 35
ATOM$RED        STATIC     ATOMS    COLORGROUP SYSTEM
1 24
