AV-unprocessed.smi:2786|AV-procd|sdf|10749|dock8
  -GOLD-   2272015183D 1   1.00000     0.00000
 Structure written by MMmdl.
 27 28  0  0  0  0  0  0  0  0  2 V2000
  151.7204  144.8971  159.2876 C   0  0  0  0  0  0  0  0  0  0  0  0
  152.0999  143.5165  159.5170 N   0  0  0  0  0  0  0  0  0  0  0  0
  153.0628  143.0773  160.4161 C   0  0  0  0  0  0  0  0  0  0  0  0
  153.1095  141.7089  160.3070 C   0  0  0  0  0  0  0  0  0  0  0  0
  152.1887  141.2915  159.3522 N   0  0  0  0  0  0  0  0  0  0  0  0
  151.6103  142.4107  158.9222 C   0  0  0  0  0  0  0  0  0  0  0  0
  150.5467  142.4515  157.8629 C   0  0  1  0  0  0  0  0  0  0  0  0
  151.0986  141.9950  156.4942 C   0  0  0  0  0  0  0  0  0  0  0  0
  150.0480  142.0845  155.4589 N   0  3  0  0  0  0  0  0  0  0  0  0
  148.8449  141.3237  155.8516 C   0  0  0  0  0  0  0  0  0  0  0  0
  148.3468  141.8029  157.2274 C   0  0  0  0  0  0  0  0  0  0  0  0
  149.3995  141.6169  158.2213 N   0  0  0  0  0  0  0  0  0  0  0  0
  152.3666  145.5645  159.8588 H   0  0  0  0  0  0  0  0  0  0  0  0
  150.6881  145.0527  159.6016 H   0  0  0  0  0  0  0  0  0  0  0  0
  151.8163  145.1374  158.2284 H   0  0  0  0  0  0  0  0  0  0  0  0
  153.6223  143.7568  161.0423 H   0  0  0  0  0  0  0  0  0  0  0  0
  153.7288  140.9991  160.8354 H   0  0  0  0  0  0  0  0  0  0  0  0
  150.1904  143.4790  157.7809 H   0  0  0  0  0  0  0  0  0  0  0  0
  151.9382  142.6227  156.1940 H   0  0  0  0  0  0  0  0  0  0  0  0
  151.4696  140.9700  156.5479 H   0  0  0  0  0  0  0  0  0  0  0  0
  149.7921  143.0543  155.3419 H   0  0  0  0  0  0  0  0  0  0  0  0
  148.0712  141.4652  155.0968 H   0  0  0  0  0  0  0  0  0  0  0  0
  149.0781  140.2581  155.8759 H   0  0  0  0  0  0  0  0  0  0  0  0
  148.0409  142.8498  157.1938 H   0  0  0  0  0  0  0  0  0  0  0  0
  147.4734  141.2244  157.5293 H   0  0  0  0  0  0  0  0  0  0  0  0
  149.6888  140.6489  158.1970 H   0  0  0  0  0  0  0  0  0  0  0  0
  150.4038  141.7275  154.5836 H   0  0  0  0  0  0  0  0  0  0  0  0
  1  2  1  0  0  0  0
  1 13  1  0  0  0  0
  1 14  1  0  0  0  0
  1 15  1  0  0  0  0
  2  6  1  0  0  0  0
  2  3  1  0  0  0  0
  3  4  2  0  0  0  0
  3 16  1  0  0  0  0
  4  5  1  0  0  0  0
  4 17  1  0  0  0  0
  5  6  2  0  0  0  0
  6  7  1  0  0  0  0
  7 12  1  0  0  0  0
  7  8  1  0  0  0  0
  7 18  1  0  0  0  0
  8  9  1  0  0  0  0
  8 19  1  0  0  0  0
  8 20  1  0  0  0  0
  9 10  1  0  0  0  0
  9 21  1  0  0  0  0
  9 27  1  0  0  0  0
 10 11  1  0  0  0  0
 10 22  1  0  0  0  0
 10 23  1  0  0  0  0
 11 12  1  0  0  0  0
 11 24  1  0  0  0  0
 11 25  1  0  0  0  0
 12 26  1  0  0  0  0
M  CHG  1   9   1
M  END
> <s_m_source_file>
AV-unprocessed.smi

> <i_m_source_file_index>
2786

> <i_lp_mmshare_version>
43012

> <i_f3d_flags>
0

> <s_epik_input>
W0NIM11uMVtjSF1bY0hdbmMxW0NAQEhdMltDSDJdW05IXVtDSDJdW0NIMl1bTkhdMg==

> <s_epik_cmdline>
J2VwaWtfcHl0aG9uJywgJy1waCcsICc3LjAnLCAnLXRuJywgJzgnLCAnLW1hJywgJzIwMCcsICctbWV0YWxfYmluZGluZycsICctaW1hZScsICc8aW5maWxlLm1hZT4nLCAnLW9tYWUnLCAnPG91dGZpbGUubWFlPic=

> <r_lp_tautomer_probability>
1

> <r_epik_Ionization_Penalty>
0.130484

> <r_epik_Ionization_Penalty_Charging>
0.130409

> <r_epik_Ionization_Penalty_Neutral>
7.57914e-05

> <r_epik_State_Penalty>
0.270147

> <r_epik_Charging_Adjusted_Penalty>
0.400555

> <i_epik_Tot_Q>
1

> <i_epik_Tot_abs_Q>
1

> <r_epik_Metal_State_Penalty>
0.136376

> <b_epik_Metal_Only>
0

> <s_lp_Force_Field>
OPLS_2005

> <r_lp_Energy>
9.37099

> <b_lp_Chiralities_Consistent>
1

> <s_lp_Variant>
AV-unprocessed.smi:2786-2

> <Gold.Version>
5.8.1

> <Gold.Id.Protein>
6NUR|6NUR_protein|mol2

> <Gold.PLP.Fitness>
33.4150

> <Gold.PLP.PLP>
-27.5168

> <Gold.PLP.part.hbond>
-1.0228

> <Gold.PLP.part.metal>
0.0000

> <Gold.PLP.part.buried>
-4.4066

> <Gold.PLP.part.nonpolar>
-22.4342

> <Gold.PLP.part.repulsive>
0.1620

> <Gold.PLP.ligand.clash>
0.0000

> <Gold.PLP.ligand.torsion>
0.0546

> <Gold.PLP.Chemscore.Hbond>
2.0000

> <Gold.PLP.Chemscore.CHOScore>
0.0000

> <Gold.PLP.Chemscore.Metal>
0.0000

> <Gold.Chemscore.Hbonds>
donor molecule, donor type, donor heavy atom, donor atom, acceptor molecule, acceptor atom, score
      L1  H     9    21       P1  8028  2.00

> <Gold.PLP.Chemscore.Internal.Correction>
0.0075

> <Gold.Rescore>
     Score         DG    S(hbond)    S(metal)    S(lipo)     H(rot)  DE(clash)    DE(int)     intcor
     12.89     -12.92       1.00        0.00      56.94       1.00       0.00       0.03       ----

> <Gold.Chemscore.Fitness>
12.8896

> <Gold.Chemscore.DG>
-12.9203

> <Gold.Chemscore.ZeroCoef>
-5.4800

> <Gold.Chemscore.Hbond>
0.9995

> <Gold.Chemscore.Metal>
0.0000

> <Gold.Chemscore.Lipo>
56.9395

> <Gold.Chemscore.Internal_Hbond>
0.0000

> <Gold.Chemscore.DEClash>
0.0000

> <Gold.Chemscore.DEInternal>
0.0306

> <Gold.Chemscore.Rot>
1.0000

> <Gold.Chemscore.Internal.Correction>
   9.000000E+99

> <Gold.Chemscore.Hbonds>
donor molecule, donor type, donor heavy atom, donor atom, acceptor molecule, acceptor atom, score
      L1  H     9    21       P1  8028  0.99

> <Gold.Chemscore.Hbond.Weighted>
-3.3383

> <Gold.Chemscore.Metal.Weighted>
-0.0000

> <Gold.Chemscore.Lipo.Weighted>
-6.6619

> <Gold.Chemscore.Internal_Hbond.Weighted>
0.0000

> <Gold.Chemscore.DEClash.Weighted>
0.0000

> <Gold.Chemscore.DEInternal.Weighted>
0.0306

> <Gold.Chemscore.Rot.Weighted>
2.5600

> <Gold.Chemscore.Internal.Correction.Weighted>
   9.000000E+99

> <Gold.Protein.RotatedTorsions>
[ 6907 6896 6895 6894 ] final -150.97 input  -60.11 | X-H torsion
[ 7974 7965 7964 7962 ] final  -14.89 input  175.53 | X-H torsion
[ 8008 7997 7996 7995 ] final    9.05 input   59.86 | X-H torsion
[ 10167 10162 10161 10158 ] final   95.67 input  -65.29 | X-H torsion
[ 10718 10713 10712 10709 ] final  149.20 input   66.30 | X-H torsion
[ 10763 10752 10751 10750 ] final  153.07 input  -60.55 | X-H torsion
[ 11005 11000 10999 10996 ] final   75.16 input  -57.11 | X-H torsion

> <Gold.Protein.ActiveResidues>
 VAL166  LYS551  ARG553  GLY616  TRP617  ASP618  TYR619  PRO620  LYS621  CYS622 
 ASP623  PHE694  ASN695  SER759  ASP760  ASP761  ALA762  ILE779  LEU786  VAL792 
 PHE793  MET794  SER795  GLU796  ALA797  LYS798  CYS799  TRP800  GLU811  SER814 

> <Gold.Protein.RotatedAtoms>
  151.2063  133.4582  159.2597 H   0  0  0  0  0  0  0  0  0  0  0  0  # atno 6907 bound_to 6896
  151.1020  134.9978  159.8463 H   0  0  0  0  0  0  0  0  0  0  0  0  # atno 6908 bound_to 6896
  152.5444  134.1989  159.8757 H   0  0  0  0  0  0  0  0  0  0  0  0  # atno 6909 bound_to 6896
  146.2055  140.3413  142.8408 H   0  0  0  0  0  0  0  0  0  0  0  0  # atno 7974 bound_to 7965
  154.7749  140.2808  155.6108 H   0  0  0  0  0  0  0  0  0  0  0  0  # atno 8008 bound_to 7997
  156.2940  140.2634  156.2489 H   0  0  0  0  0  0  0  0  0  0  0  0  # atno 8009 bound_to 7997
  154.9854  140.0374  157.2286 H   0  0  0  0  0  0  0  0  0  0  0  0  # atno 8010 bound_to 7997
  139.7967  144.6830  150.9820 H   0  0  0  0  0  0  0  0  0  0  0  0  # atno 10167 bound_to 10162
  157.2991  131.0867  151.1404 H   0  0  0  0  0  0  0  0  0  0  0  0  # atno 10718 bound_to 10713
  154.1302  135.2827  155.3187 H   0  0  0  0  0  0  0  0  0  0  0  0  # atno 10763 bound_to 10752
  154.6361  135.5418  153.7739 H   0  0  0  0  0  0  0  0  0  0  0  0  # atno 10764 bound_to 10752
  153.0284  135.6474  154.1453 H   0  0  0  0  0  0  0  0  0  0  0  0  # atno 10765 bound_to 10752
  139.9357  134.7494  156.1236 H   0  0  0  0  0  0  0  0  0  0  0  0  # atno 11005 bound_to 11000
  144.8783  140.7366  143.6003 LP  0  0  0  0  0  0  0  0  0  0  0  0  # atno 17320 bound_to 7965
  145.3333  139.1753  143.4525 LP  0  0  0  0  0  0  0  0  0  0  0  0  # atno 17321 bound_to 7965
  140.7820  143.4324  151.0674 LP  0  0  0  0  0  0  0  0  0  0  0  0  # atno 17342 bound_to 10162
  139.7998  143.8100  152.3161 LP  0  0  0  0  0  0  0  0  0  0  0  0  # atno 17343 bound_to 10162
  157.2770  130.6732  149.6047 LP  0  0  0  0  0  0  0  0  0  0  0  0  # atno 17370 bound_to 10713
  155.9670  130.4461  150.5529 LP  0  0  0  0  0  0  0  0  0  0  0  0  # atno 17371 bound_to 10713
  141.0969  133.6692  156.2665 LP  0  0  0  0  0  0  0  0  0  0  0  0  # atno 17394 bound_to 11000
  140.6083  134.5485  157.5529 LP  0  0  0  0  0  0  0  0  0  0  0  0  # atno 17395 bound_to 11000

$$$$
