AV-unprocessed.smi:2489|AV-procd|sdf|9797|dock9
  -GOLD-   2272013433D 1   1.00000     0.00000
 Structure written by MMmdl.
 33 34  0  0  0  0  0  0  0  0  1 V2000
  152.7478  137.0890  157.8842 C   0  0  0  0  0  0  0  0  0  0  0  0
  152.7566  136.9900  156.4677 O   0  0  0  0  0  0  0  0  0  0  0  0
  152.0208  137.9105  155.7538 C   0  0  0  0  0  0  0  0  0  0  0  0
  151.4291  137.6604  154.4932 C   0  0  0  0  0  0  0  0  0  0  0  0
  150.7040  138.6961  153.8761 C   0  0  0  0  0  0  0  0  0  0  0  0
  150.5434  139.9172  154.4248 N   0  0  0  0  0  0  0  0  0  0  0  0
  151.1035  140.1751  155.6316 C   0  0  0  0  0  0  0  0  0  0  0  0
  150.9985  141.4242  156.2992 N   0  0  0  0  0  0  0  0  0  0  0  0
  150.8888  141.6593  157.6199 C   0  0  0  0  0  0  0  0  0  0  0  0
  150.8497  140.7833  158.4849 O   0  0  0  0  0  0  0  0  0  0  0  0
  150.7886  143.1374  158.0181 C   0  0  2  0  0  0  0  0  0  0  0  0
  152.0076  143.9882  157.6174 C   0  0  0  0  0  0  0  0  0  0  0  0
  152.7454  144.1804  158.9261 C   0  0  0  0  0  0  0  0  0  0  0  0
  151.5934  144.2099  159.9244 C   0  0  2  0  0  0  0  0  0  0  0  0
  152.0081  143.9123  161.3688 C   0  0  0  0  0  0  0  0  0  0  0  0
  150.7140  143.2040  159.4416 O   0  0  0  0  0  0  0  0  0  0  0  0
  151.8466  139.1900  156.3194 C   0  0  0  0  0  0  0  0  0  0  0  0
  153.3700  136.2990  158.3043 H   0  0  0  0  0  0  0  0  0  0  0  0
  151.7417  136.9647  158.2866 H   0  0  0  0  0  0  0  0  0  0  0  0
  153.1558  138.0435  158.2194 H   0  0  0  0  0  0  0  0  0  0  0  0
  151.5152  136.7083  153.9920 H   0  0  0  0  0  0  0  0  0  0  0  0
  150.2401  138.5397  152.9135 H   0  0  0  0  0  0  0  0  0  0  0  0
  151.0031  142.2380  155.7019 H   0  0  0  0  0  0  0  0  0  0  0  0
  149.8844  143.5734  157.5902 H   0  0  0  0  0  0  0  0  0  0  0  0
  152.6368  143.5386  156.8483 H   0  0  0  0  0  0  0  0  0  0  0  0
  151.6711  144.9536  157.2369 H   0  0  0  0  0  0  0  0  0  0  0  0
  153.3966  143.3259  159.1163 H   0  0  0  0  0  0  0  0  0  0  0  0
  153.3515  145.0865  158.9462 H   0  0  0  0  0  0  0  0  0  0  0  0
  151.0819  145.1722  159.8698 H   0  0  0  0  0  0  0  0  0  0  0  0
  152.7052  144.6648  161.7383 H   0  0  0  0  0  0  0  0  0  0  0  0
  152.4920  142.9385  161.4484 H   0  0  0  0  0  0  0  0  0  0  0  0
  151.1409  143.9080  162.0292 H   0  0  0  0  0  0  0  0  0  0  0  0
  152.2866  139.4111  157.2812 H   0  0  0  0  0  0  0  0  0  0  0  0
  1  2  1  0  0  0  0
  1 18  1  0  0  0  0
  1 19  1  0  0  0  0
  1 20  1  0  0  0  0
  2  3  1  0  0  0  0
  3 17  1  0  0  0  0
  3  4  2  0  0  0  0
  4  5  1  0  0  0  0
  4 21  1  0  0  0  0
  5  6  2  0  0  0  0
  5 22  1  0  0  0  0
  6  7  1  0  0  0  0
  7  8  1  0  0  0  0
  7 17  2  0  0  0  0
  8  9  1  0  0  0  0
  8 23  1  0  0  0  0
  9 10  2  0  0  0  0
  9 11  1  0  0  0  0
 11 16  1  0  0  0  0
 11 12  1  0  0  0  0
 11 24  1  0  0  0  0
 12 13  1  0  0  0  0
 12 25  1  0  0  0  0
 12 26  1  0  0  0  0
 13 14  1  0  0  0  0
 13 27  1  0  0  0  0
 13 28  1  0  0  0  0
 14 15  1  0  0  0  0
 14 16  1  0  0  0  0
 14 29  1  0  0  0  0
 15 30  1  0  0  0  0
 15 31  1  0  0  0  0
 15 32  1  0  0  0  0
 17 33  1  0  0  0  0
M  END
> <s_m_source_file>
AV-unprocessed.smi

> <i_m_source_file_index>
2489

> <i_lp_mmshare_version>
43012

> <i_f3d_flags>
0

> <s_epik_input>
W0NIM11PYzFbY0hdW2NIXW5jKFtjSF0xKVtOSF1DKD1PKVtDQEBIXTJbQ0gyXVtDSDJdW0NASF0oTzIpW0NIM10=

> <s_epik_cmdline>
J2VwaWtfcHl0aG9uJywgJy1waCcsICc3LjAnLCAnLXRuJywgJzgnLCAnLW1hJywgJzIwMCcsICctbWV0YWxfYmluZGluZycsICctaW1hZScsICc8aW5maWxlLm1hZT4nLCAnLW9tYWUnLCAnPG91dGZpbGUubWFlPic=

> <r_epik_Ionization_Penalty>
0.0871917

> <r_epik_Ionization_Penalty_Charging>
0

> <r_epik_Ionization_Penalty_Neutral>
0.0871917

> <r_epik_State_Penalty>
0.146479

> <r_epik_Charging_Adjusted_Penalty>
0.146479

> <i_epik_Tot_Q>
0

> <i_epik_Tot_abs_Q>
0

> <r_epik_Metal_State_Penalty>
0.067489

> <b_epik_Metal_Only>
0

> <s_lp_Force_Field>
OPLS_2005

> <r_lp_Energy>
22.1888

> <b_lp_Chiralities_Consistent>
1

> <s_lp_Variant>
AV-unprocessed.smi:2489-3

> <Gold.Version>
5.8.1

> <Gold.Id.Protein>
6NUR|6NUR_protein|mol2

> <Gold.PLP.Fitness>
43.9840

> <Gold.PLP.PLP>
-35.9191

> <Gold.PLP.part.hbond>
-2.2021

> <Gold.PLP.part.metal>
0.0000

> <Gold.PLP.part.buried>
-5.2232

> <Gold.PLP.part.nonpolar>
-28.5536

> <Gold.PLP.part.repulsive>
0.2667

> <Gold.PLP.ligand.clash>
0.0000

> <Gold.PLP.ligand.torsion>
0.6353

> <Gold.PLP.Chemscore.Hbond>
1.5300

> <Gold.PLP.Chemscore.CHOScore>
1.5789

> <Gold.PLP.Chemscore.Metal>
0.0000

> <Gold.Chemscore.Hbonds>
donor molecule, donor type, donor heavy atom, donor atom, acceptor molecule, acceptor atom, score
      P1  H  7989  7998       L1     6  0.85
      P1  H 10752 10765       L1     2  0.83
      L1  C     5    22       P1  7948  0.34
      L1  C     5    22       P1  7957  1.00

> <Gold.PLP.Chemscore.Internal.Correction>
0.0089

> <Gold.Rescore>
     Score         DG    S(hbond)    S(metal)    S(lipo)     H(rot)  DE(clash)    DE(int)     intcor
     13.87     -15.86       0.79        0.00      92.95       1.23       0.06       1.93       ----

> <Gold.Chemscore.Fitness>
13.8736

> <Gold.Chemscore.DG>
-15.8644

> <Gold.Chemscore.ZeroCoef>
-5.4800

> <Gold.Chemscore.Hbond>
0.7931

> <Gold.Chemscore.Metal>
0.0000

> <Gold.Chemscore.Lipo>
92.9486

> <Gold.Chemscore.Internal_Hbond>
0.0000

> <Gold.Chemscore.DEClash>
0.0584

> <Gold.Chemscore.DEInternal>
1.9324

> <Gold.Chemscore.Rot>
1.2264

> <Gold.Chemscore.Internal.Correction>
   9.000000E+99

> <Gold.Chemscore.Hbonds>
donor molecule, donor type, donor heavy atom, donor atom, acceptor molecule, acceptor atom, score
      P1  H  7989  7998       L1     6  0.05
      P1  H 10752 10765       L1     2  0.50

> <Gold.Chemscore.Hbond.Weighted>
-2.6490

> <Gold.Chemscore.Metal.Weighted>
-0.0000

> <Gold.Chemscore.Lipo.Weighted>
-10.8750

> <Gold.Chemscore.Internal_Hbond.Weighted>
0.0000

> <Gold.Chemscore.DEClash.Weighted>
0.0584

> <Gold.Chemscore.DEInternal.Weighted>
1.9324

> <Gold.Chemscore.Rot.Weighted>
3.1396

> <Gold.Chemscore.Internal.Correction.Weighted>
   9.000000E+99

> <Gold.Protein.RotatedTorsions>
[ 6907 6896 6895 6894 ] final  178.25 input  -60.11 | X-H torsion
[ 7974 7965 7964 7962 ] final   90.92 input  175.53 | X-H torsion
[ 8008 7997 7996 7995 ] final   93.72 input   59.86 | X-H torsion
[ 10167 10162 10161 10158 ] final -178.45 input  -65.29 | X-H torsion
[ 10718 10713 10712 10709 ] final  -72.66 input   66.30 | X-H torsion
[ 10763 10752 10751 10750 ] final -139.24 input  -60.55 | X-H torsion
[ 11005 11000 10999 10996 ] final  -89.18 input  -57.11 | X-H torsion

> <Gold.Protein.ActiveResidues>
 VAL166  LYS551  ARG553  GLY616  TRP617  ASP618  TYR619  PRO620  LYS621  CYS622 
 ASP623  PHE694  ASN695  SER759  ASP760  ASP761  ALA762  ILE779  LEU786  VAL792 
 PHE793  MET794  SER795  GLU796  ALA797  LYS798  CYS799  TRP800  GLU811  SER814 

> <Gold.Protein.RotatedAtoms>
  151.6908  133.3311  159.3242 H   0  0  0  0  0  0  0  0  0  0  0  0  # atno 6907 bound_to 6896
  150.7780  134.6700  159.6396 H   0  0  0  0  0  0  0  0  0  0  0  0  # atno 6908 bound_to 6896
  152.3828  134.6567  160.0188 H   0  0  0  0  0  0  0  0  0  0  0  0  # atno 6909 bound_to 6896
  145.5125  139.2277  143.2716 H   0  0  0  0  0  0  0  0  0  0  0  0  # atno 7974 bound_to 7965
  156.0499  140.3309  155.7339 H   0  0  0  0  0  0  0  0  0  0  0  0  # atno 8008 bound_to 7997
  155.5616  140.0619  157.2845 H   0  0  0  0  0  0  0  0  0  0  0  0  # atno 8009 bound_to 7997
  154.4431  140.1876  156.0777 H   0  0  0  0  0  0  0  0  0  0  0  0  # atno 8010 bound_to 7997
  139.5432  144.2307  152.0936 H   0  0  0  0  0  0  0  0  0  0  0  0  # atno 10167 bound_to 10162
  156.0311  130.4377  150.2625 H   0  0  0  0  0  0  0  0  0  0  0  0  # atno 10718 bound_to 10713
  154.8615  135.3588  154.5514 H   0  0  0  0  0  0  0  0  0  0  0  0  # atno 10763 bound_to 10752
  153.6132  135.7008  153.5343 H   0  0  0  0  0  0  0  0  0  0  0  0  # atno 10764 bound_to 10752
  153.3191  135.4156  155.1362 H   0  0  0  0  0  0  0  0  0  0  0  0  # atno 10765 bound_to 10752
  141.1589  133.7615  156.9558 H   0  0  0  0  0  0  0  0  0  0  0  0  # atno 11005 bound_to 11000
  146.2157  140.5933  142.9039 LP  0  0  0  0  0  0  0  0  0  0  0  0  # atno 17320 bound_to 7965
  144.7719  140.5657  143.6664 LP  0  0  0  0  0  0  0  0  0  0  0  0  # atno 17321 bound_to 7965
  140.1789  144.4864  150.6539 LP  0  0  0  0  0  0  0  0  0  0  0  0  # atno 17342 bound_to 10162
  140.6670  143.2271  151.5719 LP  0  0  0  0  0  0  0  0  0  0  0  0  # atno 17343 bound_to 10162
  157.0727  131.0121  151.3184 LP  0  0  0  0  0  0  0  0  0  0  0  0  # atno 17370 bound_to 10713
  157.4987  130.7866  149.7582 LP  0  0  0  0  0  0  0  0  0  0  0  0  # atno 17371 bound_to 10713
  140.1226  134.9407  157.2225 LP  0  0  0  0  0  0  0  0  0  0  0  0  # atno 17394 bound_to 11000
  140.3053  134.3085  155.7280 LP  0  0  0  0  0  0  0  0  0  0  0  0  # atno 17395 bound_to 11000

$$$$
