AV-unprocessed.smi:227|AV-procd|sdf|1727|dock3
  -GOLD-   2262020213D 1   1.00000     0.00000
 Structure written by MMmdl.
 54 58  0  0  0  0  0  0  0  0  1 V2000
  143.0839  133.8948  156.1402 O   0  0  0  0  0  0  0  0  0  0  0  0
  143.2867  135.0898  155.4150 C   0  0  0  0  0  0  0  0  0  0  0  0
  144.4153  134.9276  154.3646 C   0  0  2  0  0  0  0  0  0  0  0  0
  145.7139  135.6485  154.8323 C   0  0  0  0  0  0  0  0  0  0  0  0
  146.0684  135.4022  156.2231 N   0  0  0  0  0  0  0  0  0  0  0  0
  146.3573  134.1871  156.8003 C   0  0  0  0  0  0  0  0  0  0  0  0
  146.6499  134.2309  158.0701 N   0  0  0  0  0  0  0  0  0  0  0  0
  146.5456  135.5757  158.4065 C   0  0  0  0  0  0  0  0  0  0  0  0
  146.7284  136.3280  159.6056 C   0  0  0  0  0  0  0  0  0  0  0  0
  147.0954  135.8015  160.8076 N   0  0  0  0  0  0  0  0  0  0  0  0
  146.9955  136.5702  162.0399 C   0  0  2  0  0  0  0  0  0  0  0  0
  147.6918  135.6507  163.0575 C   0  0  0  0  0  0  0  0  0  0  0  0
  147.2851  134.2642  162.5393 C   0  0  0  0  0  0  0  0  0  0  0  0
  146.3944  134.6394  161.3402 C   0  0  1  0  0  0  0  0  0  0  0  0
  145.0360  135.2281  161.8027 C   0  0  1  0  0  0  0  0  0  0  0  0
  144.2156  134.3674  162.7812 C   0  0  0  0  0  0  0  0  0  0  0  0
  143.9803  133.0938  162.2200 O   0  0  0  0  0  0  0  0  0  0  0  0
  145.4840  136.5984  162.3466 C   0  0  0  0  0  0  0  0  0  0  0  0
  146.4930  137.6655  159.5386 N   0  0  0  0  0  0  0  0  0  0  0  0
  146.1279  138.2369  158.3885 C   0  0  0  0  0  0  0  0  0  0  0  0
  145.9365  137.6656  157.1996 N   0  0  0  0  0  0  0  0  0  0  0  0
  146.1598  136.3220  157.2546 C   0  0  0  0  0  0  0  0  0  0  0  0
  143.9416  135.3748  152.9456 C   0  0  2  0  0  0  0  0  0  0  0  0
  142.8462  134.5067  152.3307 C   0  0  0  0  0  0  0  0  0  0  0  0
  143.6122  133.3587  151.6739 C   0  0  0  0  0  0  0  0  0  0  0  0
  144.9306  133.8461  151.4531 O   0  0  0  0  0  0  0  0  0  0  0  0
  144.9976  135.2105  151.8424 C   0  0  0  0  0  0  0  0  0  0  0  0
  143.0370  133.1773  155.5264 H   0  0  0  0  0  0  0  0  0  0  0  0
  142.3319  135.3242  154.9507 H   0  0  0  0  0  0  0  0  0  0  0  0
  143.5029  135.9038  156.1069 H   0  0  0  0  0  0  0  0  0  0  0  0
  144.6515  133.8638  154.3102 H   0  0  0  0  0  0  0  0  0  0  0  0
  146.5579  135.3501  154.2101 H   0  0  0  0  0  0  0  0  0  0  0  0
  145.6402  136.7248  154.6853 H   0  0  0  0  0  0  0  0  0  0  0  0
  146.3506  133.2587  156.2485 H   0  0  0  0  0  0  0  0  0  0  0  0
  147.4529  137.5575  162.0232 H   0  0  0  0  0  0  0  0  0  0  0  0
  148.7751  135.7714  163.0162 H   0  0  0  0  0  0  0  0  0  0  0  0
  147.3681  135.8340  164.0825 H   0  0  0  0  0  0  0  0  0  0  0  0
  148.1659  133.7167  162.2008 H   0  0  0  0  0  0  0  0  0  0  0  0
  146.7877  133.6501  163.2887 H   0  0  0  0  0  0  0  0  0  0  0  0
  146.2849  133.8122  160.6380 H   0  0  0  0  0  0  0  0  0  0  0  0
  144.4258  135.3899  160.9122 H   0  0  0  0  0  0  0  0  0  0  0  0
  144.7567  134.2383  163.7189 H   0  0  0  0  0  0  0  0  0  0  0  0
  143.2554  134.8259  163.0159 H   0  0  0  0  0  0  0  0  0  0  0  0
  144.0933  132.4428  162.8955 H   0  0  0  0  0  0  0  0  0  0  0  0
  145.2797  136.7325  163.4096 H   0  0  0  0  0  0  0  0  0  0  0  0
  144.9873  137.4053  161.8063 H   0  0  0  0  0  0  0  0  0  0  0  0
  145.9679  139.3043  158.4267 H   0  0  0  0  0  0  0  0  0  0  0  0
  143.6059  136.4110  152.9968 H   0  0  0  0  0  0  0  0  0  0  0  0
  142.0770  134.1559  153.0149 H   0  0  0  0  0  0  0  0  0  0  0  0
  142.3348  135.0801  151.5559 H   0  0  0  0  0  0  0  0  0  0  0  0
  143.6642  132.4933  152.3354 H   0  0  0  0  0  0  0  0  0  0  0  0
  143.1470  133.0437  150.7394 H   0  0  0  0  0  0  0  0  0  0  0  0
  144.7294  135.8236  150.9807 H   0  0  0  0  0  0  0  0  0  0  0  0
  146.0106  135.4895  152.1234 H   0  0  0  0  0  0  0  0  0  0  0  0
  1  2  1  0  0  0  0
  1 28  1  0  0  0  0
  2  3  1  0  0  0  0
  2 29  1  0  0  0  0
  2 30  1  0  0  0  0
  3  4  1  0  0  0  0
  3 23  1  0  0  0  0
  3 31  1  0  0  0  0
  4  5  1  0  0  0  0
  4 32  1  0  0  0  0
  4 33  1  0  0  0  0
  5 22  1  0  0  0  0
  5  6  1  0  0  0  0
  6  7  2  0  0  0  0
  6 34  1  0  0  0  0
  7  8  1  0  0  0  0
  8 22  2  0  0  0  0
  8  9  1  0  0  0  0
  9 10  1  0  0  0  0
  9 19  2  0  0  0  0
 10 14  1  0  0  0  0
 10 11  1  0  0  0  0
 11 18  1  0  0  0  0
 11 12  1  0  0  0  0
 11 35  1  0  0  0  0
 12 13  1  0  0  0  0
 12 36  1  0  0  0  0
 12 37  1  0  0  0  0
 13 14  1  0  0  0  0
 13 38  1  0  0  0  0
 13 39  1  0  0  0  0
 14 15  1  0  0  0  0
 14 40  1  0  0  0  0
 15 16  1  0  0  0  0
 15 18  1  0  0  0  0
 15 41  1  0  0  0  0
 16 17  1  0  0  0  0
 16 42  1  0  0  0  0
 16 43  1  0  0  0  0
 17 44  1  0  0  0  0
 18 45  1  0  0  0  0
 18 46  1  0  0  0  0
 19 20  1  0  0  0  0
 20 21  2  0  0  0  0
 20 47  1  0  0  0  0
 21 22  1  0  0  0  0
 23 27  1  0  0  0  0
 23 24  1  0  0  0  0
 23 48  1  0  0  0  0
 24 25  1  0  0  0  0
 24 49  1  0  0  0  0
 24 50  1  0  0  0  0
 25 26  1  0  0  0  0
 25 51  1  0  0  0  0
 25 52  1  0  0  0  0
 26 27  1  0  0  0  0
 27 53  1  0  0  0  0
 27 54  1  0  0  0  0
M  END
> <s_m_source_file>
AV-unprocessed.smi

> <i_m_source_file_index>
227

> <i_lp_mmshare_version>
43012

> <i_f3d_flags>
0

> <s_epik_input>
W0NIMl0xT1tDSDJdW0NIMl1bQ0BIXTFbQ0BIXShbQ0gyXVtPSF0pW0NIMl1uKFtjSF1uMiljKGMyMyluW2NIXW5jM04oW0NASF00NSlbQ0BASF0oW0NIMl1bQ0gyXTQpW0NASF0oW0NIMl01KVtDSDJdW09IXQ==

> <s_epik_cmdline>
J2VwaWtfcHl0aG9uJywgJy1waCcsICc3LjAnLCAnLXRuJywgJzgnLCAnLW1hJywgJzIwMCcsICctbWV0YWxfYmluZGluZycsICctaW1hZScsICc8aW5maWxlLm1hZT4nLCAnLW9tYWUnLCAnPG91dGZpbGUubWFlPic=

> <r_lp_tautomer_probability>
1

> <r_epik_Ionization_Penalty>
0.0055791

> <r_epik_Ionization_Penalty_Charging>
0

> <r_epik_Ionization_Penalty_Neutral>
0.0055791

> <r_epik_State_Penalty>
0.00401299

> <r_epik_Charging_Adjusted_Penalty>
0.00401299

> <i_epik_Tot_Q>
0

> <i_epik_Tot_abs_Q>
0

> <r_epik_Metal_State_Penalty>
-0

> <b_epik_Metal_Only>
0

> <s_lp_Force_Field>
OPLS_2005

> <r_lp_Energy>
89.6374

> <b_lp_Chiralities_Consistent>
1

> <s_lp_Variant>
AV-unprocessed.smi:227-1

> <Gold.Version>
5.8.1

> <Gold.Id.Protein>
6NUR|6NUR_protein|mol2

> <Gold.PLP.Fitness>
39.6186

> <Gold.PLP.PLP>
-33.9778

> <Gold.PLP.part.hbond>
-3.8969

> <Gold.PLP.part.metal>
0.0000

> <Gold.PLP.part.buried>
-6.5974

> <Gold.PLP.part.nonpolar>
-24.7635

> <Gold.PLP.part.repulsive>
0.1125

> <Gold.PLP.ligand.clash>
0.0000

> <Gold.PLP.ligand.torsion>
1.0404

> <Gold.PLP.Chemscore.Hbond>
2.5090

> <Gold.PLP.Chemscore.CHOScore>
0.0000

> <Gold.PLP.Chemscore.Metal>
0.0000

> <Gold.Chemscore.Hbonds>
donor molecule, donor type, donor heavy atom, donor atom, acceptor molecule, acceptor atom, score
      L1  H     1    28       P1 10957  1.00
      P1  H  6934  6947       L1    19  0.89
      P1  H 11000 11005       L1     1  0.64

> <Gold.PLP.Chemscore.Internal.Correction>
0.1948

> <Gold.Rescore>
     Score         DG    S(hbond)    S(metal)    S(lipo)     H(rot)  DE(clash)    DE(int)     intcor
     10.66     -11.73       1.85        0.00      79.55       3.61       0.07       0.99       ----

> <Gold.Chemscore.Fitness>
10.6639

> <Gold.Chemscore.DG>
-11.7288

> <Gold.Chemscore.ZeroCoef>
-5.4800

> <Gold.Chemscore.Hbond>
1.8490

> <Gold.Chemscore.Metal>
0.0000

> <Gold.Chemscore.Lipo>
79.5489

> <Gold.Chemscore.Internal_Hbond>
0.0000

> <Gold.Chemscore.DEClash>
0.0737

> <Gold.Chemscore.DEInternal>
0.9911

> <Gold.Chemscore.Rot>
3.6071

> <Gold.Chemscore.Internal.Correction>
   9.000000E+99

> <Gold.Chemscore.Hbonds>
donor molecule, donor type, donor heavy atom, donor atom, acceptor molecule, acceptor atom, score
      L1  H     1    28       P1 10957  0.99
      P1  H  6934  6947       L1    19  0.67
      P1  H 11000 11005       L1     1  0.13

> <Gold.Chemscore.Hbond.Weighted>
-6.1758

> <Gold.Chemscore.Metal.Weighted>
-0.0000

> <Gold.Chemscore.Lipo.Weighted>
-9.3072

> <Gold.Chemscore.Internal_Hbond.Weighted>
0.0000

> <Gold.Chemscore.DEClash.Weighted>
0.0737

> <Gold.Chemscore.DEInternal.Weighted>
0.9911

> <Gold.Chemscore.Rot.Weighted>
9.2342

> <Gold.Chemscore.Internal.Correction.Weighted>
   9.000000E+99

> <Gold.Protein.RotatedTorsions>
[ 6907 6896 6895 6894 ] final  -38.17 input  -60.11 | X-H torsion
[ 7974 7965 7964 7962 ] final   -6.43 input  175.53 | X-H torsion
[ 8008 7997 7996 7995 ] final -115.50 input   59.86 | X-H torsion
[ 10167 10162 10161 10158 ] final  -17.07 input  -65.29 | X-H torsion
[ 10718 10713 10712 10709 ] final  126.10 input   66.30 | X-H torsion
[ 10763 10752 10751 10750 ] final  121.09 input  -60.55 | X-H torsion
[ 11005 11000 10999 10996 ] final  -91.02 input  -57.11 | X-H torsion

> <Gold.Protein.ActiveResidues>
 VAL166  LYS551  ARG553  GLY616  TRP617  ASP618  TYR619  PRO620  LYS621  CYS622 
 ASP623  PHE694  ASN695  SER759  ASP760  ASP761  ALA762  ILE779  LEU786  VAL792 
 PHE793  MET794  SER795  GLU796  ALA797  LYS798  CYS799  TRP800  GLU811  SER814 

> <Gold.Protein.RotatedAtoms>
  151.0057  134.9357  159.7978 H   0  0  0  0  0  0  0  0  0  0  0  0  # atno 6907 bound_to 6896
  152.5289  134.3095  159.9118 H   0  0  0  0  0  0  0  0  0  0  0  0  # atno 6908 bound_to 6896
  151.3101  133.4043  159.2680 H   0  0  0  0  0  0  0  0  0  0  0  0  # atno 6909 bound_to 6896
  146.2331  140.2169  142.8336 H   0  0  0  0  0  0  0  0  0  0  0  0  # atno 7974 bound_to 7965
  155.0531  140.0393  157.2550 H   0  0  0  0  0  0  0  0  0  0  0  0  # atno 8008 bound_to 7997
  154.7121  140.2695  155.6595 H   0  0  0  0  0  0  0  0  0  0  0  0  # atno 8009 bound_to 7997
  156.2792  140.2719  156.1766 H   0  0  0  0  0  0  0  0  0  0  0  0  # atno 8010 bound_to 7997
  140.7242  143.5052  150.9818 H   0  0  0  0  0  0  0  0  0  0  0  0  # atno 10167 bound_to 10162
  157.5447  131.1096  150.8801 H   0  0  0  0  0  0  0  0  0  0  0  0  # atno 10718 bound_to 10713
  153.6087  135.3434  155.2971 H   0  0  0  0  0  0  0  0  0  0  0  0  # atno 10763 bound_to 10752
  154.8623  135.4245  154.2334 H   0  0  0  0  0  0  0  0  0  0  0  0  # atno 10764 bound_to 10752
  153.3179  135.7036  153.7129 H   0  0  0  0  0  0  0  0  0  0  0  0  # atno 10765 bound_to 10752
  141.1553  133.7729  156.9820 H   0  0  0  0  0  0  0  0  0  0  0  0  # atno 11005 bound_to 11000
  144.9663  140.8324  143.5483 LP  0  0  0  0  0  0  0  0  0  0  0  0  # atno 17320 bound_to 7965
  145.2145  139.2188  143.5125 LP  0  0  0  0  0  0  0  0  0  0  0  0  # atno 17321 bound_to 7965
  139.8764  143.7128  152.3161 LP  0  0  0  0  0  0  0  0  0  0  0  0  # atno 17342 bound_to 10162
  139.7394  144.7563  151.0676 LP  0  0  0  0  0  0  0  0  0  0  0  0  # atno 17343 bound_to 10162
  156.9343  130.5361  149.5279 LP  0  0  0  0  0  0  0  0  0  0  0  0  # atno 17370 bound_to 10713
  156.0526  130.5593  150.9022 LP  0  0  0  0  0  0  0  0  0  0  0  0  # atno 17371 bound_to 10713
  140.1059  134.9506  157.1994 LP  0  0  0  0  0  0  0  0  0  0  0  0  # atno 17394 bound_to 11000
  140.3256  134.2867  155.7237 LP  0  0  0  0  0  0  0  0  0  0  0  0  # atno 17395 bound_to 11000

$$$$
