AV-unprocessed.smi:1394|AV-procd|sdf|5668|dock8
  -GOLD-   22720 5293D 1   1.00000     0.00000
 Structure written by MMmdl.
 41 42  0  0  0  0  0  0  0  0  1 V2000
  149.2071  140.9060  154.3468 C   0  0  0  0  0  0  0  0  0  0  0  0
  148.0244  141.6081  155.0382 C   0  0  1  0  0  0  0  0  0  0  0  0
  146.6924  140.9407  154.6391 C   0  0  0  0  0  0  0  0  0  0  0  0
  145.4875  141.6228  155.3044 C   0  0  0  0  0  0  0  0  0  0  0  0
  145.6397  141.6412  156.8313 C   0  0  0  0  0  0  0  0  0  0  0  0
  146.9539  142.3191  157.2437 C   0  0  0  0  0  0  0  0  0  0  0  0
  148.1753  141.6471  156.5801 C   0  0  2  0  0  0  0  0  0  0  0  0
  149.3959  142.3580  156.9548 N   0  0  0  0  0  0  0  0  0  0  0  0
  150.4580  141.8128  157.5669 C   0  0  0  0  0  0  0  0  0  0  0  0
  150.5245  140.6215  157.8725 O   0  0  0  0  0  0  0  0  0  0  0  0
  151.6283  142.7624  157.8580 C   0  0  0  0  0  0  0  0  0  0  0  0
  152.3116  142.4635  159.1282 N   0  0  0  0  0  0  0  0  0  0  0  0
  152.1724  143.4037  160.1647 C   0  0  0  0  0  0  0  0  0  0  0  0
  152.7548  143.2287  161.3586 C   0  0  0  0  0  0  0  0  0  0  0  0
  153.5398  142.0365  161.5668 C   0  0  0  0  0  0  0  0  0  0  0  0
  153.6936  141.1148  160.5878 C   0  0  0  0  0  0  0  0  0  0  0  0
  154.5173  139.8453  160.7918 C   0  0  0  0  0  0  0  0  0  0  0  0
  155.5942  139.8540  160.0054 F   0  0  0  0  0  0  0  0  0  0  0  0
  154.9341  139.7226  162.0529 F   0  0  0  0  0  0  0  0  0  0  0  0
  153.7939  138.7646  160.4956 F   0  0  0  0  0  0  0  0  0  0  0  0
  153.0505  141.3199  159.2736 C   0  0  0  0  0  0  0  0  0  0  0  0
  153.1653  140.5120  158.3502 O   0  0  0  0  0  0  0  0  0  0  0  0
  149.3067  139.8748  154.6863 H   0  0  0  0  0  0  0  0  0  0  0  0
  150.1510  141.4141  154.5450 H   0  0  0  0  0  0  0  0  0  0  0  0
  149.0726  140.8871  153.2651 H   0  0  0  0  0  0  0  0  0  0  0  0
  147.9980  142.6368  154.6752 H   0  0  0  0  0  0  0  0  0  0  0  0
  146.5709  140.9681  153.5556 H   0  0  0  0  0  0  0  0  0  0  0  0
  146.7109  139.8866  154.9194 H   0  0  0  0  0  0  0  0  0  0  0  0
  145.3920  142.6439  154.9328 H   0  0  0  0  0  0  0  0  0  0  0  0
  144.5683  141.1051  155.0288 H   0  0  0  0  0  0  0  0  0  0  0  0
  144.7948  142.1609  157.2838 H   0  0  0  0  0  0  0  0  0  0  0  0
  145.6173  140.6205  157.2153 H   0  0  0  0  0  0  0  0  0  0  0  0
  146.9174  143.3739  156.9670 H   0  0  0  0  0  0  0  0  0  0  0  0
  147.0499  142.2898  158.3298 H   0  0  0  0  0  0  0  0  0  0  0  0
  148.2430  140.6176  156.9381 H   0  0  0  0  0  0  0  0  0  0  0  0
  149.4311  143.3433  156.7367 H   0  0  0  0  0  0  0  0  0  0  0  0
  152.3256  142.7041  157.0213 H   0  0  0  0  0  0  0  0  0  0  0  0
  151.2730  143.7948  157.8604 H   0  0  0  0  0  0  0  0  0  0  0  0
  151.5735  144.2704  159.9258 H   0  0  0  0  0  0  0  0  0  0  0  0
  152.6409  143.9620  162.1435 H   0  0  0  0  0  0  0  0  0  0  0  0
  154.0068  141.8920  162.5295 H   0  0  0  0  0  0  0  0  0  0  0  0
  1  2  1  0  0  0  0
  1 23  1  0  0  0  0
  1 24  1  0  0  0  0
  1 25  1  0  0  0  0
  2  7  1  0  0  0  0
  2  3  1  0  0  0  0
  2 26  1  0  0  0  0
  3  4  1  0  0  0  0
  3 27  1  0  0  0  0
  3 28  1  0  0  0  0
  4  5  1  0  0  0  0
  4 29  1  0  0  0  0
  4 30  1  0  0  0  0
  5  6  1  0  0  0  0
  5 31  1  0  0  0  0
  5 32  1  0  0  0  0
  6  7  1  0  0  0  0
  6 33  1  0  0  0  0
  6 34  1  0  0  0  0
  7  8  1  0  0  0  0
  7 35  1  0  0  0  0
  8  9  1  0  0  0  0
  8 36  1  0  0  0  0
  9 10  2  0  0  0  0
  9 11  1  0  0  0  0
 11 12  1  0  0  0  0
 11 37  1  0  0  0  0
 11 38  1  0  0  0  0
 12 21  1  0  0  0  0
 12 13  1  0  0  0  0
 13 14  2  0  0  0  0
 13 39  1  0  0  0  0
 14 15  1  0  0  0  0
 14 40  1  0  0  0  0
 15 16  2  0  0  0  0
 15 41  1  0  0  0  0
 16 17  1  0  0  0  0
 16 21  1  0  0  0  0
 17 18  1  0  0  0  0
 17 19  1  0  0  0  0
 17 20  1  0  0  0  0
 21 22  2  0  0  0  0
M  END
> <s_m_source_file>
AV-unprocessed.smi

> <i_m_source_file_index>
1394

> <i_lp_mmshare_version>
43012

> <i_f3d_flags>
0

> <s_epik_input>
W0NIM11bQ0BASF0xW0NIMl1bQ0gyXVtDSDJdW0NIMl1bQ0BIXTFbTkhdQyg9TylbQ0gyXW4yW2NIXVtjSF1bY0hdYyhDKEYpKEYpRiljMj1P

> <s_epik_cmdline>
J2VwaWtfcHl0aG9uJywgJy1waCcsICc3LjAnLCAnLXRuJywgJzgnLCAnLW1hJywgJzIwMCcsICctbWV0YWxfYmluZGluZycsICctaW1hZScsICc8aW5maWxlLm1hZT4nLCAnLW9tYWUnLCAnPG91dGZpbGUubWFlPic=

> <r_lp_tautomer_probability>
1

> <r_epik_Ionization_Penalty>
2.11487e-08

> <r_epik_Ionization_Penalty_Charging>
2.10183e-09

> <r_epik_Ionization_Penalty_Neutral>
1.90469e-08

> <r_epik_State_Penalty>
-0

> <r_epik_Charging_Adjusted_Penalty>
2.10183e-09

> <i_epik_Tot_Q>
0

> <i_epik_Tot_abs_Q>
0

> <r_epik_Metal_State_Penalty>
-0

> <b_epik_Metal_Only>
0

> <s_lp_Force_Field>
OPLS_2005

> <r_lp_Energy>
20.4612

> <b_lp_Chiralities_Consistent>
1

> <s_lp_Variant>
AV-unprocessed.smi:1394-4

> <Gold.Version>
5.8.1

> <Gold.Id.Protein>
6NUR|6NUR_protein|mol2

> <Gold.PLP.Fitness>
47.4735

> <Gold.PLP.PLP>
-43.0881

> <Gold.PLP.part.hbond>
-2.0000

> <Gold.PLP.part.metal>
0.0000

> <Gold.PLP.part.buried>
-3.4842

> <Gold.PLP.part.nonpolar>
-37.1758

> <Gold.PLP.part.repulsive>
0.0065

> <Gold.PLP.ligand.clash>
0.1867

> <Gold.PLP.ligand.torsion>
0.5254

> <Gold.PLP.Chemscore.Hbond>
1.7760

> <Gold.PLP.Chemscore.CHOScore>
0.0000

> <Gold.PLP.Chemscore.Metal>
0.0000

> <Gold.Chemscore.Hbonds>
donor molecule, donor type, donor heavy atom, donor atom, acceptor molecule, acceptor atom, score
      L1  H     8    36       P1  8028  0.98
      P1  H  7997  8008       L1    22  0.78

> <Gold.PLP.Chemscore.Internal.Correction>
0.2948

> <Gold.Rescore>
     Score         DG    S(hbond)    S(metal)    S(lipo)     H(rot)  DE(clash)    DE(int)     intcor
     13.43     -18.48       1.87        0.00      91.15       1.52       0.16       4.89       ----

> <Gold.Chemscore.Fitness>
13.4345

> <Gold.Chemscore.DG>
-18.4806

> <Gold.Chemscore.ZeroCoef>
-5.4800

> <Gold.Chemscore.Hbond>
1.8677

> <Gold.Chemscore.Metal>
0.0000

> <Gold.Chemscore.Lipo>
91.1486

> <Gold.Chemscore.Internal_Hbond>
0.0000

> <Gold.Chemscore.DEClash>
0.1585

> <Gold.Chemscore.DEInternal>
4.8875

> <Gold.Chemscore.Rot>
1.5242

> <Gold.Chemscore.Internal.Correction>
   9.000000E+99

> <Gold.Chemscore.Hbonds>
donor molecule, donor type, donor heavy atom, donor atom, acceptor molecule, acceptor atom, score
      L1  H     8    36       P1  8028  0.93
      P1  H  7997  8008       L1    22  0.75

> <Gold.Chemscore.Hbond.Weighted>
-6.2381

> <Gold.Chemscore.Metal.Weighted>
-0.0000

> <Gold.Chemscore.Lipo.Weighted>
-10.6644

> <Gold.Chemscore.Internal_Hbond.Weighted>
0.0000

> <Gold.Chemscore.DEClash.Weighted>
0.1585

> <Gold.Chemscore.DEInternal.Weighted>
4.8875

> <Gold.Chemscore.Rot.Weighted>
3.9019

> <Gold.Chemscore.Internal.Correction.Weighted>
   9.000000E+99

> <Gold.Protein.RotatedTorsions>
[ 6907 6896 6895 6894 ] final -176.61 input  -60.11 | X-H torsion
[ 7974 7965 7964 7962 ] final  -89.71 input  175.53 | X-H torsion
[ 8008 7997 7996 7995 ] final  -82.17 input   59.86 | X-H torsion
[ 10167 10162 10161 10158 ] final -160.49 input  -65.29 | X-H torsion
[ 10718 10713 10712 10709 ] final  -58.70 input   66.30 | X-H torsion
[ 10763 10752 10751 10750 ] final -138.27 input  -60.55 | X-H torsion
[ 11005 11000 10999 10996 ] final   45.52 input  -57.11 | X-H torsion

> <Gold.Protein.ActiveResidues>
 VAL166  LYS551  ARG553  GLY616  TRP617  ASP618  TYR619  PRO620  LYS621  CYS622 
 ASP623  PHE694  ASN695  SER759  ASP760  ASP761  ALA762  ILE779  LEU786  VAL792 
 PHE793  MET794  SER795  GLU796  ALA797  LYS798  CYS799  TRP800  GLU811  SER814 

> <Gold.Protein.RotatedAtoms>
  151.6075  133.3350  159.3060 H   0  0  0  0  0  0  0  0  0  0  0  0  # atno 6907 bound_to 6896
  150.8174  134.7367  159.6754 H   0  0  0  0  0  0  0  0  0  0  0  0  # atno 6908 bound_to 6896
  152.4269  134.5856  160.0011 H   0  0  0  0  0  0  0  0  0  0  0  0  # atno 6909 bound_to 6896
  145.4362  140.9557  143.2101 H   0  0  0  0  0  0  0  0  0  0  0  0  # atno 7974 bound_to 7965
  154.6058  140.0637  156.9429 H   0  0  0  0  0  0  0  0  0  0  0  0  # atno 8008 bound_to 7997
  155.2056  140.3318  155.4318 H   0  0  0  0  0  0  0  0  0  0  0  0  # atno 8009 bound_to 7997
  156.2346  140.1857  156.7136 H   0  0  0  0  0  0  0  0  0  0  0  0  # atno 8010 bound_to 7997
  139.6535  144.0040  152.2178 H   0  0  0  0  0  0  0  0  0  0  0  0  # atno 10167 bound_to 10162
  156.1116  130.4174  150.0613 H   0  0  0  0  0  0  0  0  0  0  0  0  # atno 10718 bound_to 10713
  154.8641  135.3617  154.5357 H   0  0  0  0  0  0  0  0  0  0  0  0  # atno 10763 bound_to 10752
  153.5981  135.7013  153.5400 H   0  0  0  0  0  0  0  0  0  0  0  0  # atno 10764 bound_to 10752
  153.3315  135.4123  155.1460 H   0  0  0  0  0  0  0  0  0  0  0  0  # atno 10765 bound_to 10752
  140.1452  134.4531  155.8420 H   0  0  0  0  0  0  0  0  0  0  0  0  # atno 11005 bound_to 11000
  144.8151  139.5891  143.7012 LP  0  0  0  0  0  0  0  0  0  0  0  0  # atno 17320 bound_to 7965
  146.2581  139.6348  142.9381 LP  0  0  0  0  0  0  0  0  0  0  0  0  # atno 17321 bound_to 7965
  139.9761  144.6461  150.7944 LP  0  0  0  0  0  0  0  0  0  0  0  0  # atno 17342 bound_to 10162
  140.7549  143.3035  151.3020 LP  0  0  0  0  0  0  0  0  0  0  0  0  # atno 17343 bound_to 10162
  156.8575  130.9480  151.3620 LP  0  0  0  0  0  0  0  0  0  0  0  0  # atno 17370 bound_to 10713
  157.6297  130.8719  149.9252 LP  0  0  0  0  0  0  0  0  0  0  0  0  # atno 17371 bound_to 10713
  141.2192  133.6849  156.7321 LP  0  0  0  0  0  0  0  0  0  0  0  0  # atno 17394 bound_to 11000
  140.2672  134.8420  157.3814 LP  0  0  0  0  0  0  0  0  0  0  0  0  # atno 17395 bound_to 11000

$$$$
