AV-unprocessed.smi:1244|AV-procd|sdf|5235|dock2
  -GOLD-   22720 4343D 1   1.00000     0.00000
 Structure written by MMmdl.
 55 57  0  0  0  0  0  0  0  0  4 V2000
  145.6825  136.4605  152.2286 C   0  0  0  0  0  0  0  0  0  0  0  0
  145.4855  135.4068  153.3328 C   0  0  2  0  0  0  0  0  0  0  0  0
  146.5491  135.4767  154.4461 C   0  0  0  0  0  0  0  0  0  0  0  0
  147.8516  134.9458  153.9768 N   0  3  1  0  0  0  0  0  0  0  0  0
  148.9277  135.0727  154.9954 C   0  0  0  0  0  0  0  0  0  0  0  0
  149.3004  136.5444  155.2676 C   0  0  0  0  0  0  0  0  0  0  0  0
  150.4988  136.6093  156.1035 N   0  5  0  0  0  0  0  0  0  0  0  0
  151.1393  137.7551  156.4593 C   0  0  0  0  0  0  0  0  0  0  0  0
  152.3387  137.9000  156.7209 O   0  0  0  0  0  0  0  0  0  0  0  0
  150.2964  138.8003  156.5242 N   0  0  0  0  0  0  0  0  0  0  0  0
  150.5602  140.1510  156.8888 C   0  0  0  0  0  0  0  0  0  0  0  0
  151.6733  140.4931  157.6987 C   0  0  0  0  0  0  0  0  0  0  0  0
  151.8962  141.8357  158.0571 C   0  0  0  0  0  0  0  0  0  0  0  0
  151.0061  142.8193  157.5941 C   0  0  0  0  0  0  0  0  0  0  0  0
  149.9708  142.4658  156.8049 N   0  3  0  0  0  0  0  0  0  0  0  0
  149.7115  141.1930  156.4129 C   0  0  0  0  0  0  0  0  0  0  0  0
  148.5977  140.9797  155.5679 N   0  0  0  0  0  0  0  0  0  0  0  0
  147.2425  141.1993  156.0600 C   0  0  0  0  0  0  0  0  0  0  0  0
  146.3644  141.2110  154.8116 C   0  0  0  0  0  0  0  0  0  0  0  0
  147.2756  141.8619  153.7754 C   0  0  0  0  0  0  0  0  0  0  0  0
  148.6747  141.3730  154.1644 C   0  0  0  0  0  0  0  0  0  0  0  0
  147.6795  133.5678  153.4493 C   0  0  0  0  0  0  0  0  0  0  0  0
  146.6354  133.5540  152.3196 C   0  0  1  0  0  0  0  0  0  0  0  0
  146.3680  132.1364  151.8018 C   0  0  0  0  0  0  0  0  0  0  0  0
  145.4043  134.0819  152.8069 O   0  0  0  0  0  0  0  0  0  0  0  0
  145.6049  137.4678  152.6384 H   0  0  0  0  0  0  0  0  0  0  0  0
  144.9199  136.3604  151.4560 H   0  0  0  0  0  0  0  0  0  0  0  0
  146.6579  136.3816  151.7491 H   0  0  0  0  0  0  0  0  0  0  0  0
  144.5160  135.6087  153.7891 H   0  0  0  0  0  0  0  0  0  0  0  0
  146.6620  136.5078  154.7843 H   0  0  0  0  0  0  0  0  0  0  0  0
  146.2199  134.8951  155.3089 H   0  0  0  0  0  0  0  0  0  0  0  0
  148.5908  134.6326  155.9356 H   0  0  0  0  0  0  0  0  0  0  0  0
  149.8021  134.4955  154.6903 H   0  0  0  0  0  0  0  0  0  0  0  0
  149.4640  137.0492  154.3156 H   0  0  0  0  0  0  0  0  0  0  0  0
  148.4466  137.0521  155.7186 H   0  0  0  0  0  0  0  0  0  0  0  0
  149.3227  138.5688  156.3950 H   0  0  0  0  0  0  0  0  0  0  0  0
  152.3669  139.7432  158.0475 H   0  0  0  0  0  0  0  0  0  0  0  0
  152.7374  142.1047  158.6789 H   0  0  0  0  0  0  0  0  0  0  0  0
  151.0950  143.8720  157.8199 H   0  0  0  0  0  0  0  0  0  0  0  0
  146.9413  140.4190  156.7598 H   0  0  0  0  0  0  0  0  0  0  0  0
  147.1725  142.1630  156.5661 H   0  0  0  0  0  0  0  0  0  0  0  0
  146.1293  140.1890  154.5107 H   0  0  0  0  0  0  0  0  0  0  0  0
  145.4266  141.7481  154.9556 H   0  0  0  0  0  0  0  0  0  0  0  0
  147.0077  141.6055  152.7500 H   0  0  0  0  0  0  0  0  0  0  0  0
  147.2252  142.9471  153.8744 H   0  0  0  0  0  0  0  0  0  0  0  0
  149.4259  142.1453  153.9929 H   0  0  0  0  0  0  0  0  0  0  0  0
  148.9430  140.4989  153.5696 H   0  0  0  0  0  0  0  0  0  0  0  0
  148.6285  133.1861  153.0715 H   0  0  0  0  0  0  0  0  0  0  0  0
  147.3702  132.9041  154.2586 H   0  0  0  0  0  0  0  0  0  0  0  0
  146.9910  134.1565  151.4837 H   0  0  0  0  0  0  0  0  0  0  0  0
  147.2781  131.6844  151.4068 H   0  0  0  0  0  0  0  0  0  0  0  0
  145.6286  132.1473  151.0007 H   0  0  0  0  0  0  0  0  0  0  0  0
  145.9904  131.4903  152.5949 H   0  0  0  0  0  0  0  0  0  0  0  0
  148.1322  135.5305  153.2021 H   0  0  0  0  0  0  0  0  0  0  0  0
  149.3492  143.2038  156.4747 H   0  0  0  0  0  0  0  0  0  0  0  0
  1  2  1  0  0  0  0
  1 26  1  0  0  0  0
  1 27  1  0  0  0  0
  1 28  1  0  0  0  0
  2 25  1  0  0  0  0
  2  3  1  0  0  0  0
  2 29  1  0  0  0  0
  3  4  1  0  0  0  0
  3 30  1  0  0  0  0
  3 31  1  0  0  0  0
  4  5  1  0  0  0  0
  4 22  1  0  0  0  0
  4 54  1  0  0  0  0
  5  6  1  0  0  0  0
  5 32  1  0  0  0  0
  5 33  1  0  0  0  0
  6  7  1  0  0  0  0
  6 34  1  0  0  0  0
  6 35  1  0  0  0  0
  7  8  1  0  0  0  0
  8  9  2  0  0  0  0
  8 10  1  0  0  0  0
 10 11  1  0  0  0  0
 10 36  1  0  0  0  0
 11 16  1  0  0  0  0
 11 12  2  0  0  0  0
 12 13  1  0  0  0  0
 12 37  1  0  0  0  0
 13 14  2  0  0  0  0
 13 38  1  0  0  0  0
 14 15  1  0  0  0  0
 14 39  1  0  0  0  0
 15 16  2  0  0  0  0
 15 55  1  0  0  0  0
 16 17  1  0  0  0  0
 17 21  1  0  0  0  0
 17 18  1  0  0  0  0
 18 19  1  0  0  0  0
 18 40  1  0  0  0  0
 18 41  1  0  0  0  0
 19 20  1  0  0  0  0
 19 42  1  0  0  0  0
 19 43  1  0  0  0  0
 20 21  1  0  0  0  0
 20 44  1  0  0  0  0
 20 45  1  0  0  0  0
 21 46  1  0  0  0  0
 21 47  1  0  0  0  0
 22 23  1  0  0  0  0
 22 48  1  0  0  0  0
 22 49  1  0  0  0  0
 23 24  1  0  0  0  0
 23 25  1  0  0  0  0
 23 50  1  0  0  0  0
 24 51  1  0  0  0  0
 24 52  1  0  0  0  0
 24 53  1  0  0  0  0
M  CHG  1   4   1
M  CHG  1   7  -1
M  CHG  1  15   1
M  END
> <s_m_source_file>
AV-unprocessed.smi

> <i_m_source_file_index>
1244

> <i_lp_mmshare_version>
43012

> <i_f3d_flags>
0

> <s_epik_input>
W0NIM11bQ0BASF0xW0NIMl1OKFtDSDJdW0NASF0oTzEpW0NIM10pW0NIMl1bQ0gyXVtOSF1DKD1PKVtOSF1jMltjSF1bY0hdW2NIXW5jMk4zW0NIMl1bQ0gyXVtDSDJdW0NIMl0z

> <s_epik_cmdline>
J2VwaWtfcHl0aG9uJywgJy1waCcsICc3LjAnLCAnLXRuJywgJzgnLCAnLW1hJywgJzIwMCcsICctbWV0YWxfYmluZGluZycsICctaW1hZScsICc8aW5maWxlLm1hZT4nLCAnLW9tYWUnLCAnPG91dGZpbGUubWFlPic=

> <r_lp_tautomer_probability>
0.999994

> <r_epik_Ionization_Penalty>
8.60539

> <r_epik_Ionization_Penalty_Charging>
8.60539

> <r_epik_Ionization_Penalty_Neutral>
3.60441e-06

> <r_epik_State_Penalty>
8.59967

> <r_epik_Charging_Adjusted_Penalty>
17.2051

> <i_epik_Tot_Q>
1

> <i_epik_Tot_abs_Q>
3

> <r_epik_Metal_State_Penalty>
4.59489

> <b_epik_Metal_Only>
1

> <s_lp_Force_Field>
OPLS_2005

> <r_lp_Energy>
46.9863

> <b_lp_Chiralities_Consistent>
1

> <s_lp_Variant>
AV-unprocessed.smi:1244-15

> <Gold.Version>
5.8.1

> <Gold.Id.Protein>
6NUR|6NUR_protein|mol2

> <Gold.PLP.Fitness>
41.3009

> <Gold.PLP.PLP>
-30.0077

> <Gold.PLP.part.hbond>
-2.0000

> <Gold.PLP.part.metal>
0.0000

> <Gold.PLP.part.buried>
-4.0337

> <Gold.PLP.part.nonpolar>
-23.8574

> <Gold.PLP.part.repulsive>
0.2509

> <Gold.PLP.ligand.clash>
0.0000

> <Gold.PLP.ligand.torsion>
0.5970

> <Gold.PLP.Chemscore.Hbond>
4.0000

> <Gold.PLP.Chemscore.CHOScore>
0.0000

> <Gold.PLP.Chemscore.Metal>
0.0000

> <Gold.Chemscore.Hbonds>
donor molecule, donor type, donor heavy atom, donor atom, acceptor molecule, acceptor atom, score
      L1  H     4    54       P1  7948  2.00
      L1  H    15    55       P1  8028  2.00

> <Gold.PLP.Chemscore.Internal.Correction>
0.4873

> <Gold.Rescore>
     Score         DG    S(hbond)    S(metal)    S(lipo)     H(rot)  DE(clash)    DE(int)     intcor
     15.67     -17.74       1.98        0.00      83.34       1.60       0.11       1.96       ----

> <Gold.Chemscore.Fitness>
15.6746

> <Gold.Chemscore.DG>
-17.7411

> <Gold.Chemscore.ZeroCoef>
-5.4800

> <Gold.Chemscore.Hbond>
1.9763

> <Gold.Chemscore.Metal>
0.0000

> <Gold.Chemscore.Lipo>
83.3402

> <Gold.Chemscore.Internal_Hbond>
0.0000

> <Gold.Chemscore.DEClash>
0.1057

> <Gold.Chemscore.DEInternal>
1.9608

> <Gold.Chemscore.Rot>
1.5978

> <Gold.Chemscore.Internal.Correction>
   9.000000E+99

> <Gold.Chemscore.Hbonds>
donor molecule, donor type, donor heavy atom, donor atom, acceptor molecule, acceptor atom, score
      L1  H     4    54       P1  7948  1.00
      L1  H    15    55       P1  8028  0.99

> <Gold.Chemscore.Hbond.Weighted>
-6.6007

> <Gold.Chemscore.Metal.Weighted>
-0.0000

> <Gold.Chemscore.Lipo.Weighted>
-9.7508

> <Gold.Chemscore.Internal_Hbond.Weighted>
0.0000

> <Gold.Chemscore.DEClash.Weighted>
0.1057

> <Gold.Chemscore.DEInternal.Weighted>
1.9608

> <Gold.Chemscore.Rot.Weighted>
4.0905

> <Gold.Chemscore.Internal.Correction.Weighted>
   9.000000E+99

> <Gold.Protein.RotatedTorsions>
[ 6907 6896 6895 6894 ] final  -80.72 input  -60.11 | X-H torsion
[ 7974 7965 7964 7962 ] final -160.94 input  175.53 | X-H torsion
[ 8008 7997 7996 7995 ] final   65.01 input   59.86 | X-H torsion
[ 10167 10162 10161 10158 ] final -145.79 input  -65.29 | X-H torsion
[ 10718 10713 10712 10709 ] final -100.05 input   66.30 | X-H torsion
[ 10763 10752 10751 10750 ] final  132.50 input  -60.55 | X-H torsion
[ 11005 11000 10999 10996 ] final   92.84 input  -57.11 | X-H torsion

> <Gold.Protein.ActiveResidues>
 VAL166  LYS551  ARG553  GLY616  TRP617  ASP618  TYR619  PRO620  LYS621  CYS622 
 ASP623  PHE694  ASN695  SER759  ASP760  ASP761  ALA762  ILE779  LEU786  VAL792 
 PHE793  MET794  SER795  GLU796  ALA797  LYS798  CYS799  TRP800  GLU811  SER814 

> <Gold.Protein.RotatedAtoms>
  150.6924  134.3927  159.5083 H   0  0  0  0  0  0  0  0  0  0  0  0  # atno 6907 bound_to 6896
  152.1713  134.8829  160.0543 H   0  0  0  0  0  0  0  0  0  0  0  0  # atno 6908 bound_to 6896
  151.9854  133.3737  159.4161 H   0  0  0  0  0  0  0  0  0  0  0  0  # atno 6909 bound_to 6896
  144.7409  140.3469  143.6123 H   0  0  0  0  0  0  0  0  0  0  0  0  # atno 7974 bound_to 7965
  155.6550  140.3497  155.4762 H   0  0  0  0  0  0  0  0  0  0  0  0  # atno 8008 bound_to 7997
  155.9816  140.1175  157.0744 H   0  0  0  0  0  0  0  0  0  0  0  0  # atno 8009 bound_to 7997
  154.4193  140.1137  156.5429 H   0  0  0  0  0  0  0  0  0  0  0  0  # atno 8010 bound_to 7997
  139.7773  143.8151  152.2634 H   0  0  0  0  0  0  0  0  0  0  0  0  # atno 10167 bound_to 10162
  156.0151  130.5310  150.6760 H   0  0  0  0  0  0  0  0  0  0  0  0  # atno 10718 bound_to 10713
  153.7918  135.3154  155.3379 H   0  0  0  0  0  0  0  0  0  0  0  0  # atno 10763 bound_to 10752
  154.8123  135.4659  154.0551 H   0  0  0  0  0  0  0  0  0  0  0  0  # atno 10764 bound_to 10752
  153.1872  135.6903  153.8487 H   0  0  0  0  0  0  0  0  0  0  0  0  # atno 10765 bound_to 10752
  139.8818  134.8756  156.3630 H   0  0  0  0  0  0  0  0  0  0  0  0  # atno 11005 bound_to 11000
  145.7316  139.1738  143.2427 LP  0  0  0  0  0  0  0  0  0  0  0  0  # atno 17320 bound_to 7965
  146.1202  140.7319  142.9461 LP  0  0  0  0  0  0  0  0  0  0  0  0  # atno 17321 bound_to 7965
  139.8204  144.7298  150.9580 LP  0  0  0  0  0  0  0  0  0  0  0  0  # atno 17342 bound_to 10162
  140.7817  143.4165  151.0909 LP  0  0  0  0  0  0  0  0  0  0  0  0  # atno 17343 bound_to 10162
  157.4472  131.0868  151.0883 LP  0  0  0  0  0  0  0  0  0  0  0  0  # atno 17370 bound_to 10713
  157.1409  130.6142  149.5555 LP  0  0  0  0  0  0  0  0  0  0  0  0  # atno 17371 bound_to 10713
  140.9516  133.7447  156.0279 LP  0  0  0  0  0  0  0  0  0  0  0  0  # atno 17394 bound_to 11000
  140.8099  134.3412  157.5415 LP  0  0  0  0  0  0  0  0  0  0  0  0  # atno 17395 bound_to 11000

$$$$
