AV-unprocessed.smi:1120|AV-procd|sdf|4822|dock4
  -GOLD-   22720 3383D 1   1.00000     0.00000
 Structure written by MMmdl.
 47 48  0  0  0  0  0  0  0  0  2 V2000
  150.9454  145.1436  159.2766 C   0  0  0  0  0  0  0  0  0  0  0  0
  151.1724  143.6499  159.5470 C   0  0  2  0  0  0  0  0  0  0  0  0
  152.3832  143.4093  160.4782 C   0  0  0  0  0  0  0  0  0  0  0  0
  152.6603  141.9055  160.7269 C   0  0  0  0  0  0  0  0  0  0  0  0
  152.8697  141.0954  159.4245 C   0  0  1  0  0  0  0  0  0  0  0  0
  153.0037  139.6807  159.7468 N   0  5  0  0  0  0  0  0  0  0  0  0
  152.9736  138.5660  158.5678 S   0  0  0  0  0  0  0  0  0  0  0  0
  151.9354  137.5454  158.7885 O   0  0  0  0  0  0  0  0  0  0  0  0
  153.0525  139.1553  157.2210 O   0  0  0  0  0  0  0  0  0  0  0  0
  154.5974  137.7283  158.8548 C   0  0  0  0  0  0  0  0  0  0  0  0
  155.0034  136.8787  157.6491 C   0  0  0  0  0  0  0  0  0  0  0  0
  154.2161  136.0572  157.1795 O   0  0  0  0  0  0  0  0  0  0  0  0
  156.2222  137.1026  157.1402 N   0  0  0  0  0  0  0  0  0  0  0  0
  156.7978  136.4103  155.9949 C   0  0  0  0  0  0  0  0  0  0  0  0
  157.3041  137.4086  154.9396 C   0  0  0  0  0  0  0  0  0  0  0  0
  157.5039  136.7849  153.5684 C   0  0  0  0  0  0  0  0  0  0  0  0
  158.7999  136.6213  153.0331 C   0  0  0  0  0  0  0  0  0  0  0  0
  158.9298  136.0639  151.7469 C   0  0  0  0  0  0  0  0  0  0  0  0
  157.7650  135.6890  151.0499 C   0  0  0  0  0  0  0  0  0  0  0  0
  156.5172  135.8909  151.6730 C   0  0  0  0  0  0  0  0  0  0  0  0
  156.3811  136.4276  152.9048 N   0  0  0  0  0  0  0  0  0  0  0  0
  151.6606  141.3477  158.4874 C   0  0  0  0  0  0  0  0  0  0  0  0
  151.3806  142.8515  158.2394 C   0  0  0  0  0  0  0  0  0  0  0  0
  151.8077  145.5928  158.7831 H   0  0  0  0  0  0  0  0  0  0  0  0
  150.7721  145.6878  160.2054 H   0  0  0  0  0  0  0  0  0  0  0  0
  150.0765  145.2982  158.6363 H   0  0  0  0  0  0  0  0  0  0  0  0
  150.2814  143.2611  160.0425 H   0  0  0  0  0  0  0  0  0  0  0  0
  153.2710  143.8877  160.0589 H   0  0  0  0  0  0  0  0  0  0  0  0
  152.2069  143.9010  161.4354 H   0  0  0  0  0  0  0  0  0  0  0  0
  153.5355  141.8023  161.3693 H   0  0  0  0  0  0  0  0  0  0  0  0
  151.8224  141.4864  161.2869 H   0  0  0  0  0  0  0  0  0  0  0  0
  153.7673  141.4771  158.9367 H   0  0  0  0  0  0  0  0  0  0  0  0
  155.3489  138.4955  159.0410 H   0  0  0  0  0  0  0  0  0  0  0  0
  154.5186  137.1087  159.7477 H   0  0  0  0  0  0  0  0  0  0  0  0
  156.8023  137.7949  157.5936 H   0  0  0  0  0  0  0  0  0  0  0  0
  157.6179  135.7671  156.3172 H   0  0  0  0  0  0  0  0  0  0  0  0
  156.0345  135.7636  155.5603 H   0  0  0  0  0  0  0  0  0  0  0  0
  156.5976  138.2352  154.8519 H   0  0  0  0  0  0  0  0  0  0  0  0
  158.2445  137.8502  155.2718 H   0  0  0  0  0  0  0  0  0  0  0  0
  159.6745  136.9274  153.5890 H   0  0  0  0  0  0  0  0  0  0  0  0
  159.9047  135.9293  151.3024 H   0  0  0  0  0  0  0  0  0  0  0  0
  157.8263  135.2593  150.0612 H   0  0  0  0  0  0  0  0  0  0  0  0
  155.6034  135.6160  151.1671 H   0  0  0  0  0  0  0  0  0  0  0  0
  151.8249  140.8619  157.5257 H   0  0  0  0  0  0  0  0  0  0  0  0
  150.7666  140.8883  158.9120 H   0  0  0  0  0  0  0  0  0  0  0  0
  150.4950  142.9485  157.6104 H   0  0  0  0  0  0  0  0  0  0  0  0
  152.1992  143.2922  157.6667 H   0  0  0  0  0  0  0  0  0  0  0  0
  1  2  1  0  0  0  0
  1 24  1  0  0  0  0
  1 25  1  0  0  0  0
  1 26  1  0  0  0  0
  2 23  1  0  0  0  0
  2  3  1  0  0  0  0
  2 27  1  0  0  0  0
  3  4  1  0  0  0  0
  3 28  1  0  0  0  0
  3 29  1  0  0  0  0
  4  5  1  0  0  0  0
  4 30  1  0  0  0  0
  4 31  1  0  0  0  0
  5  6  1  0  0  0  0
  5 22  1  0  0  0  0
  5 32  1  0  0  0  0
  6  7  1  0  0  0  0
  7  8  2  0  0  0  0
  7  9  2  0  0  0  0
  7 10  1  0  0  0  0
 10 11  1  0  0  0  0
 10 33  1  0  0  0  0
 10 34  1  0  0  0  0
 11 12  2  0  0  0  0
 11 13  1  0  0  0  0
 13 14  1  0  0  0  0
 13 35  1  0  0  0  0
 14 15  1  0  0  0  0
 14 36  1  0  0  0  0
 14 37  1  0  0  0  0
 15 16  1  0  0  0  0
 15 38  1  0  0  0  0
 15 39  1  0  0  0  0
 16 21  1  0  0  0  0
 16 17  2  0  0  0  0
 17 18  1  0  0  0  0
 17 40  1  0  0  0  0
 18 19  2  0  0  0  0
 18 41  1  0  0  0  0
 19 20  1  0  0  0  0
 19 42  1  0  0  0  0
 20 21  2  0  0  0  0
 20 43  1  0  0  0  0
 22 23  1  0  0  0  0
 22 44  1  0  0  0  0
 22 45  1  0  0  0  0
 23 46  1  0  0  0  0
 23 47  1  0  0  0  0
M  CHG  1   6  -1
M  END
> <s_m_source_file>
AV-unprocessed.smi

> <i_m_source_file_index>
1120

> <i_lp_mmshare_version>
43012

> <i_f3d_flags>
0

> <s_epik_input>
W0NIM11bQ0BASF0xW0NIMl1bQ0gyXVtDQEhdKFtDSDJdW0NIMl0xKVtOSF1TKD1PKSg9TylbQ0gyXUMoPU8pW05IXVtDSDJdW0NIMl1jMltjSF1bY0hdW2NIXVtjSF1uMg==

> <s_epik_cmdline>
J2VwaWtfcHl0aG9uJywgJy1waCcsICc3LjAnLCAnLXRuJywgJzgnLCAnLW1hJywgJzIwMCcsICctbWV0YWxfYmluZGluZycsICctaW1hZScsICc8aW5maWxlLm1hZT4nLCAnLW9tYWUnLCAnPG91dGZpbGUubWFlPic=

> <r_epik_Ionization_Penalty>
5.68623

> <r_epik_Ionization_Penalty_Charging>
5.66033

> <r_epik_Ionization_Penalty_Neutral>
0.0259005

> <r_epik_State_Penalty>
5.67764

> <r_epik_Charging_Adjusted_Penalty>
11.338

> <i_epik_Tot_Q>
-1

> <i_epik_Tot_abs_Q>
1

> <r_epik_Metal_State_Penalty>
1.68319

> <b_epik_Metal_Only>
1

> <s_lp_Force_Field>
OPLS_2005

> <r_lp_Energy>
8.54043

> <b_lp_Chiralities_Consistent>
1

> <s_lp_Variant>
AV-unprocessed.smi:1120-5

> <Gold.Version>
5.8.1

> <Gold.Id.Protein>
6NUR|6NUR_protein|mol2

> <Gold.PLP.Fitness>
51.7471

> <Gold.PLP.PLP>
-43.9693

> <Gold.PLP.part.hbond>
-3.0000

> <Gold.PLP.part.metal>
0.0000

> <Gold.PLP.part.buried>
-4.5312

> <Gold.PLP.part.nonpolar>
-36.6985

> <Gold.PLP.part.repulsive>
0.1598

> <Gold.PLP.ligand.clash>
0.0000

> <Gold.PLP.ligand.torsion>
1.1810

> <Gold.PLP.Chemscore.Hbond>
3.0000

> <Gold.PLP.Chemscore.CHOScore>
0.0000

> <Gold.PLP.Chemscore.Metal>
0.0000

> <Gold.Chemscore.Hbonds>
donor molecule, donor type, donor heavy atom, donor atom, acceptor molecule, acceptor atom, score
      P1  H  7997  8010       L1     9  1.00
      P1  H 10752 10763       L1    12  1.00
      P1  H 10752 10764       L1    21  0.91

> <Gold.PLP.Chemscore.Internal.Correction>
1.1397

> <Gold.Rescore>
     Score         DG    S(hbond)    S(metal)    S(lipo)     H(rot)  DE(clash)    DE(int)     intcor
     24.40     -27.11       2.77        0.00     146.36       1.86       0.09       2.62       ----

> <Gold.Chemscore.Fitness>
24.4044

> <Gold.Chemscore.DG>
-27.1096

> <Gold.Chemscore.ZeroCoef>
-5.4800

> <Gold.Chemscore.Hbond>
2.7746

> <Gold.Chemscore.Metal>
0.0000

> <Gold.Chemscore.Lipo>
146.3649

> <Gold.Chemscore.Internal_Hbond>
0.0000

> <Gold.Chemscore.DEClash>
0.0856

> <Gold.Chemscore.DEInternal>
2.6196

> <Gold.Chemscore.Rot>
1.8602

> <Gold.Chemscore.Internal.Correction>
   9.000000E+99

> <Gold.Chemscore.Hbonds>
donor molecule, donor type, donor heavy atom, donor atom, acceptor molecule, acceptor atom, score
      P1  H  7997  8010       L1     9  0.99
      P1  H 10752 10763       L1    12  0.99
      P1  H 10752 10764       L1    21  0.58

> <Gold.Chemscore.Hbond.Weighted>
-9.2671

> <Gold.Chemscore.Metal.Weighted>
-0.0000

> <Gold.Chemscore.Lipo.Weighted>
-17.1247

> <Gold.Chemscore.Internal_Hbond.Weighted>
0.0000

> <Gold.Chemscore.DEClash.Weighted>
0.0856

> <Gold.Chemscore.DEInternal.Weighted>
2.6196

> <Gold.Chemscore.Rot.Weighted>
4.7622

> <Gold.Chemscore.Internal.Correction.Weighted>
   9.000000E+99

> <Gold.Protein.RotatedTorsions>
[ 6907 6896 6895 6894 ] final  -21.47 input  -60.11 | X-H torsion
[ 7974 7965 7964 7962 ] final   48.99 input  175.53 | X-H torsion
[ 8008 7997 7996 7995 ] final   56.26 input   59.86 | X-H torsion
[ 10167 10162 10161 10158 ] final   -3.06 input  -65.29 | X-H torsion
[ 10718 10713 10712 10709 ] final -109.14 input   66.30 | X-H torsion
[ 10763 10752 10751 10750 ] final  148.39 input  -60.55 | X-H torsion
[ 11005 11000 10999 10996 ] final   87.13 input  -57.11 | X-H torsion

> <Gold.Protein.ActiveResidues>
 VAL166  LYS551  ARG553  GLY616  TRP617  ASP618  TYR619  PRO620  LYS621  CYS622 
 ASP623  PHE694  ASN695  SER759  ASP760  ASP761  ALA762  ILE779  LEU786  VAL792 
 PHE793  MET794  SER795  GLU796  ALA797  LYS798  CYS799  TRP800  GLU811  SER814 

> <Gold.Protein.RotatedAtoms>
  151.2328  135.0561  159.8994 H   0  0  0  0  0  0  0  0  0  0  0  0  # atno 6907 bound_to 6896
  152.5403  134.0518  159.8123 H   0  0  0  0  0  0  0  0  0  0  0  0  # atno 6908 bound_to 6896
  151.0700  133.5425  159.2659 H   0  0  0  0  0  0  0  0  0  0  0  0  # atno 6909 bound_to 6896
  146.0152  139.4588  142.9931 H   0  0  0  0  0  0  0  0  0  0  0  0  # atno 7974 bound_to 7965
  155.5145  140.3478  155.4395 H   0  0  0  0  0  0  0  0  0  0  0  0  # atno 8008 bound_to 7997
  156.0827  140.1390  156.9720 H   0  0  0  0  0  0  0  0  0  0  0  0  # atno 8009 bound_to 7997
  154.4589  140.0942  156.6812 H   0  0  0  0  0  0  0  0  0  0  0  0  # atno 8010 bound_to 7997
  140.6875  143.6585  150.8288 H   0  0  0  0  0  0  0  0  0  0  0  0  # atno 10167 bound_to 10162
  156.0522  130.5749  150.8059 H   0  0  0  0  0  0  0  0  0  0  0  0  # atno 10718 bound_to 10713
  154.0540  135.2879  155.3336 H   0  0  0  0  0  0  0  0  0  0  0  0  # atno 10763 bound_to 10752
  154.6851  135.5248  153.8318 H   0  0  0  0  0  0  0  0  0  0  0  0  # atno 10764 bound_to 10752
  153.0549  135.6591  154.0734 H   0  0  0  0  0  0  0  0  0  0  0  0  # atno 10765 bound_to 10752
  139.8927  134.8402  156.2817 H   0  0  0  0  0  0  0  0  0  0  0  0  # atno 11005 bound_to 11000
  145.7280  141.0052  143.1367 LP  0  0  0  0  0  0  0  0  0  0  0  0  # atno 17320 bound_to 7965
  144.6968  139.8950  143.7455 LP  0  0  0  0  0  0  0  0  0  0  0  0  # atno 17321 bound_to 7965
  140.0293  143.5460  152.2767 LP  0  0  0  0  0  0  0  0  0  0  0  0  # atno 17342 bound_to 10162
  139.6247  144.7635  151.2664 LP  0  0  0  0  0  0  0  0  0  0  0  0  # atno 17343 bound_to 10162
  157.5458  131.0942  150.9764 LP  0  0  0  0  0  0  0  0  0  0  0  0  # atno 17370 bound_to 10713
  157.0036  130.5609  149.5314 LP  0  0  0  0  0  0  0  0  0  0  0  0  # atno 17371 bound_to 10713
  141.0034  133.7138  156.0996 LP  0  0  0  0  0  0  0  0  0  0  0  0  # atno 17394 bound_to 11000
  140.7466  134.4091  157.5547 LP  0  0  0  0  0  0  0  0  0  0  0  0  # atno 17395 bound_to 11000

$$$$
