AV-unprocessed.smi:787|AV-procd|sdf|3729|dock3
  -GOLD-   22720 1163D 1   1.00000     0.00000
 Structure written by MMmdl.
 46 48  0  0  0  0  0  0  0  0  1 V2000
  149.6980  144.7185  159.9884 C   0  0  0  0  0  0  0  0  0  0  0  0
  150.2391  143.7724  159.0254 N   0  0  0  0  0  0  0  0  0  0  0  0
  151.3315  142.9616  159.3645 C   0  0  0  0  0  0  0  0  0  0  0  0
  152.0769  143.2520  160.4563 N   0  0  0  0  0  0  0  0  0  0  0  0
  153.1180  142.4559  160.7331 C   0  0  0  0  0  0  0  0  0  0  0  0
  153.5556  141.3738  160.0704 N   0  0  0  0  0  0  0  0  0  0  0  0
  152.8199  141.0745  158.9911 C   0  0  0  0  0  0  0  0  0  0  0  0
  153.0375  140.0151  158.1268 N   0  0  0  0  0  0  0  0  0  0  0  0
  152.0455  140.1703  157.2534 C   0  0  0  0  0  0  0  0  0  0  0  0
  151.2103  141.2112  157.4399 N   0  0  0  0  0  0  0  0  0  0  0  0
  150.0718  141.5757  156.6158 C   0  0  0  0  0  0  0  0  0  0  0  0
  148.7501  141.5354  157.4048 C   0  0  2  0  0  0  0  0  0  0  0  0
  148.5753  140.2166  157.8804 O   0  0  0  0  0  0  0  0  0  0  0  0
  147.5253  141.9028  156.5377 C   0  0  0  0  0  0  0  0  0  0  0  0
  146.4590  142.6449  157.2217 N   0  0  0  0  0  0  0  0  0  0  0  0
  146.3415  142.1860  158.6004 C   0  0  0  0  0  0  0  0  0  0  0  0
  145.1524  142.5092  156.5666 C   0  0  0  0  0  0  0  0  0  0  0  0
  144.8581  143.5032  155.4582 C   0  0  0  0  0  0  0  0  0  0  0  0
  143.8828  144.5064  155.6427 C   0  0  0  0  0  0  0  0  0  0  0  0
  143.6003  145.4172  154.6061 C   0  0  0  0  0  0  0  0  0  0  0  0
  144.2810  145.3192  153.3773 C   0  0  0  0  0  0  0  0  0  0  0  0
  145.2463  144.3120  153.1864 C   0  0  0  0  0  0  0  0  0  0  0  0
  145.5392  143.4092  154.2264 C   0  0  0  0  0  0  0  0  0  0  0  0
  151.6851  141.8401  158.5881 C   0  0  0  0  0  0  0  0  0  0  0  0
  148.8665  145.2656  159.5444 H   0  0  0  0  0  0  0  0  0  0  0  0
  150.4579  145.4396  160.2910 H   0  0  0  0  0  0  0  0  0  0  0  0
  149.3309  144.2021  160.8759 H   0  0  0  0  0  0  0  0  0  0  0  0
  149.9338  143.8254  158.0641 H   0  0  0  0  0  0  0  0  0  0  0  0
  153.6882  142.7254  161.6095 H   0  0  0  0  0  0  0  0  0  0  0  0
  151.9213  139.4893  156.4239 H   0  0  0  0  0  0  0  0  0  0  0  0
  150.2403  142.5679  156.1944 H   0  0  0  0  0  0  0  0  0  0  0  0
  150.0364  140.8876  155.7704 H   0  0  0  0  0  0  0  0  0  0  0  0
  148.8443  142.1847  158.2713 H   0  0  0  0  0  0  0  0  0  0  0  0
  148.8863  140.1739  158.7716 H   0  0  0  0  0  0  0  0  0  0  0  0
  147.8428  142.4720  155.6639 H   0  0  0  0  0  0  0  0  0  0  0  0
  147.1293  140.9702  156.1320 H   0  0  0  0  0  0  0  0  0  0  0  0
  145.5767  142.7507  159.1345 H   0  0  0  0  0  0  0  0  0  0  0  0
  147.2807  142.3246  159.1372 H   0  0  0  0  0  0  0  0  0  0  0  0
  146.0774  141.1283  158.6437 H   0  0  0  0  0  0  0  0  0  0  0  0
  145.0315  141.4944  156.1843 H   0  0  0  0  0  0  0  0  0  0  0  0
  144.3632  142.6421  157.3077 H   0  0  0  0  0  0  0  0  0  0  0  0
  143.3546  144.5818  156.5821 H   0  0  0  0  0  0  0  0  0  0  0  0
  142.8588  146.1888  154.7525 H   0  0  0  0  0  0  0  0  0  0  0  0
  144.0642  146.0169  152.5819 H   0  0  0  0  0  0  0  0  0  0  0  0
  145.7692  144.2373  152.2444 H   0  0  0  0  0  0  0  0  0  0  0  0
  146.2860  142.6440  154.0731 H   0  0  0  0  0  0  0  0  0  0  0  0
  1  2  1  0  0  0  0
  1 25  1  0  0  0  0
  1 26  1  0  0  0  0
  1 27  1  0  0  0  0
  2  3  1  0  0  0  0
  2 28  1  0  0  0  0
  3 24  1  0  0  0  0
  3  4  2  0  0  0  0
  4  5  1  0  0  0  0
  5  6  2  0  0  0  0
  5 29  1  0  0  0  0
  6  7  1  0  0  0  0
  7 24  2  0  0  0  0
  7  8  1  0  0  0  0
  8  9  2  0  0  0  0
  9 10  1  0  0  0  0
  9 30  1  0  0  0  0
 10 11  1  0  0  0  0
 10 24  1  0  0  0  0
 11 12  1  0  0  0  0
 11 31  1  0  0  0  0
 11 32  1  0  0  0  0
 12 13  1  0  0  0  0
 12 14  1  0  0  0  0
 12 33  1  0  0  0  0
 13 34  1  0  0  0  0
 14 15  1  0  0  0  0
 14 35  1  0  0  0  0
 14 36  1  0  0  0  0
 15 16  1  0  0  0  0
 15 17  1  0  0  0  0
 16 37  1  0  0  0  0
 16 38  1  0  0  0  0
 16 39  1  0  0  0  0
 17 18  1  0  0  0  0
 17 40  1  0  0  0  0
 17 41  1  0  0  0  0
 18 23  1  0  0  0  0
 18 19  2  0  0  0  0
 19 20  1  0  0  0  0
 19 42  1  0  0  0  0
 20 21  2  0  0  0  0
 20 43  1  0  0  0  0
 21 22  1  0  0  0  0
 21 44  1  0  0  0  0
 22 23  2  0  0  0  0
 22 45  1  0  0  0  0
 23 46  1  0  0  0  0
M  END
> <s_m_source_file>
AV-unprocessed.smi

> <i_m_source_file_index>
787

> <i_lp_mmshare_version>
43012

> <i_f3d_flags>
0

> <s_epik_input>
bjFbY0hdbmMoW05IXVtDSDNdKWMoYzEyKW4oW2NIXW4yKVtDSDJdW0NASF0oW09IXSlbQ0gyXU4oW0NIM10pW0NIMl1jM1tjSF1bY0hdW2NIXVtjSF1bY0hdMw==

> <s_epik_cmdline>
J2VwaWtfcHl0aG9uJywgJy1waCcsICc3LjAnLCAnLXRuJywgJzgnLCAnLW1hJywgJzIwMCcsICctbWV0YWxfYmluZGluZycsICctaW1hZScsICc8aW5maWxlLm1hZT4nLCAnLW9tYWUnLCAnPG91dGZpbGUubWFlPic=

> <r_lp_tautomer_probability>
0.999987

> <r_epik_Ionization_Penalty>
1.52367

> <r_epik_Ionization_Penalty_Charging>
0

> <r_epik_Ionization_Penalty_Neutral>
1.52367

> <r_epik_State_Penalty>
1.60995

> <r_epik_Charging_Adjusted_Penalty>
1.60995

> <i_epik_Tot_Q>
0

> <i_epik_Tot_abs_Q>
0

> <r_epik_Metal_State_Penalty>
1.60969

> <b_epik_Metal_Only>
0

> <s_lp_Force_Field>
OPLS_2005

> <r_lp_Energy>
20.724

> <b_lp_Chiralities_Consistent>
1

> <s_lp_Variant>
AV-unprocessed.smi:787-5

> <Gold.Version>
5.8.1

> <Gold.Id.Protein>
6NUR|6NUR_protein|mol2

> <Gold.PLP.Fitness>
42.6102

> <Gold.PLP.PLP>
-41.9353

> <Gold.PLP.part.hbond>
-1.4593

> <Gold.PLP.part.metal>
0.0000

> <Gold.PLP.part.buried>
-6.9268

> <Gold.PLP.part.nonpolar>
-34.0991

> <Gold.PLP.part.repulsive>
0.2945

> <Gold.PLP.ligand.clash>
0.0000

> <Gold.PLP.ligand.torsion>
1.2227

> <Gold.PLP.Chemscore.Hbond>
0.9280

> <Gold.PLP.Chemscore.CHOScore>
0.0000

> <Gold.PLP.Chemscore.Metal>
0.0000

> <Gold.Chemscore.Hbonds>
donor molecule, donor type, donor heavy atom, donor atom, acceptor molecule, acceptor atom, score
      P1  H  7997  8009       L1     8  0.90

> <Gold.PLP.Chemscore.Internal.Correction>
0.3364

> <Gold.Rescore>
     Score         DG    S(hbond)    S(metal)    S(lipo)     H(rot)  DE(clash)    DE(int)     intcor
      6.25      -8.81       0.81        0.00      73.27       3.11       0.60       1.96       ----

> <Gold.Chemscore.Fitness>
6.2544

> <Gold.Chemscore.DG>
-8.8141

> <Gold.Chemscore.ZeroCoef>
-5.4800

> <Gold.Chemscore.Hbond>
0.8132

> <Gold.Chemscore.Metal>
0.0000

> <Gold.Chemscore.Lipo>
73.2749

> <Gold.Chemscore.Internal_Hbond>
0.0000

> <Gold.Chemscore.DEClash>
0.6043

> <Gold.Chemscore.DEInternal>
1.9554

> <Gold.Chemscore.Rot>
3.1075

> <Gold.Chemscore.Internal.Correction>
   9.000000E+99

> <Gold.Chemscore.Hbonds>
donor molecule, donor type, donor heavy atom, donor atom, acceptor molecule, acceptor atom, score
      P1  H  7997  8009       L1     8  0.55

> <Gold.Chemscore.Hbond.Weighted>
-2.7161

> <Gold.Chemscore.Metal.Weighted>
-0.0000

> <Gold.Chemscore.Lipo.Weighted>
-8.5732

> <Gold.Chemscore.Internal_Hbond.Weighted>
0.0000

> <Gold.Chemscore.DEClash.Weighted>
0.6043

> <Gold.Chemscore.DEInternal.Weighted>
1.9554

> <Gold.Chemscore.Rot.Weighted>
7.9551

> <Gold.Chemscore.Internal.Correction.Weighted>
   9.000000E+99

> <Gold.Protein.RotatedTorsions>
[ 6907 6896 6895 6894 ] final  -14.43 input  -60.11 | X-H torsion
[ 7974 7965 7964 7962 ] final -171.75 input  175.53 | X-H torsion
[ 8008 7997 7996 7995 ] final  142.05 input   59.86 | X-H torsion
[ 10167 10162 10161 10158 ] final  -18.48 input  -65.29 | X-H torsion
[ 10718 10713 10712 10709 ] final   68.69 input   66.30 | X-H torsion
[ 10763 10752 10751 10750 ] final   78.17 input  -60.55 | X-H torsion
[ 11005 11000 10999 10996 ] final  -65.51 input  -57.11 | X-H torsion

> <Gold.Protein.ActiveResidues>
 VAL166  LYS551  ARG553  GLY616  TRP617  ASP618  TYR619  PRO620  LYS621  CYS622 
 ASP623  PHE694  ASN695  SER759  ASP760  ASP761  ALA762  ILE779  LEU786  VAL792 
 PHE793  MET794  SER795  GLU796  ALA797  LYS798  CYS799  TRP800  GLU811  SER814 

> <Gold.Protein.RotatedAtoms>
  151.3395  135.0860  159.9365 H   0  0  0  0  0  0  0  0  0  0  0  0  # atno 6907 bound_to 6896
  152.5215  133.9462  159.7660 H   0  0  0  0  0  0  0  0  0  0  0  0  # atno 6908 bound_to 6896
  150.9816  133.6187  159.2751 H   0  0  0  0  0  0  0  0  0  0  0  0  # atno 6909 bound_to 6896
  144.7153  140.1875  143.6352 H   0  0  0  0  0  0  0  0  0  0  0  0  # atno 7974 bound_to 7965
  156.2956  140.2299  156.4665 H   0  0  0  0  0  0  0  0  0  0  0  0  # atno 8008 bound_to 7997
  154.7973  140.0450  157.1267 H   0  0  0  0  0  0  0  0  0  0  0  0  # atno 8009 bound_to 7997
  154.9575  140.3050  155.5050 H   0  0  0  0  0  0  0  0  0  0  0  0  # atno 8010 bound_to 7997
  140.7259  143.4913  150.9989 H   0  0  0  0  0  0  0  0  0  0  0  0  # atno 10167 bound_to 10162
  157.6303  130.9386  150.0411 H   0  0  0  0  0  0  0  0  0  0  0  0  # atno 10718 bound_to 10713
  153.0854  135.4887  154.8585 H   0  0  0  0  0  0  0  0  0  0  0  0  # atno 10763 bound_to 10752
  154.7203  135.3038  154.9060 H   0  0  0  0  0  0  0  0  0  0  0  0  # atno 10764 bound_to 10752
  153.9726  135.6799  153.4800 H   0  0  0  0  0  0  0  0  0  0  0  0  # atno 10765 bound_to 10752
  141.1456  133.6683  156.5998 H   0  0  0  0  0  0  0  0  0  0  0  0  # atno 11005 bound_to 11000
  145.8799  139.2317  143.1611 LP  0  0  0  0  0  0  0  0  0  0  0  0  # atno 17320 bound_to 7965
  146.0005  140.8525  143.0021 LP  0  0  0  0  0  0  0  0  0  0  0  0  # atno 17321 bound_to 7965
  139.8617  143.7306  152.3173 LP  0  0  0  0  0  0  0  0  0  0  0  0  # atno 17342 bound_to 10162
  139.7524  144.7530  151.0487 LP  0  0  0  0  0  0  0  0  0  0  0  0  # atno 17343 bound_to 10162
  156.1502  130.3642  149.9449 LP  0  0  0  0  0  0  0  0  0  0  0  0  # atno 17370 bound_to 10713
  156.7470  130.9101  151.3635 LP  0  0  0  0  0  0  0  0  0  0  0  0  # atno 17371 bound_to 10713
  140.3698  134.7616  157.4591 LP  0  0  0  0  0  0  0  0  0  0  0  0  # atno 17394 bound_to 11000
  140.0720  134.5850  155.8632 LP  0  0  0  0  0  0  0  0  0  0  0  0  # atno 17395 bound_to 11000

$$$$
