AV-unprocessed.smi:2297|AV-procd|sdf|9223|dock4
  -GOLD-   2272012443D 1   1.00000     0.00000
 Structure written by MMmdl.
 44 45  0  0  0  0  0  0  0  0  1 V2000
  151.5016  145.4803  160.1525 C   0  0  0  0  0  0  0  0  0  0  0  0
  151.9122  144.0570  159.8346 C   0  0  0  0  0  0  0  0  0  0  0  0
  152.7199  143.3318  160.7331 C   0  0  0  0  0  0  0  0  0  0  0  0
  153.0966  142.0082  160.4336 C   0  0  0  0  0  0  0  0  0  0  0  0
  153.9675  141.2356  161.4031 C   0  0  0  0  0  0  0  0  0  0  0  0
  152.6615  141.4121  159.2321 C   0  0  0  0  0  0  0  0  0  0  0  0
  151.8543  142.1244  158.3217 C   0  0  0  0  0  0  0  0  0  0  0  0
  151.4759  141.4626  157.1735 O   0  0  0  0  0  0  0  0  0  0  0  0
  150.5627  142.1057  156.2938 C   0  0  0  0  0  0  0  0  0  0  0  0
  150.0929  141.0925  155.2386 C   0  0  1  0  0  0  0  0  0  0  0  0
  151.1614  140.1930  155.0228 O   0  0  0  0  0  0  0  0  0  0  0  0
  148.8496  140.2986  155.7010 C   0  0  0  0  0  0  0  0  0  0  0  0
  147.6417  141.1393  155.7454 N   0  0  0  0  0  0  0  0  0  0  0  0
  146.9392  141.1562  156.9623 C   0  0  0  0  0  0  0  0  0  0  0  0
  145.8662  141.8603  157.1179 N   0  0  0  0  0  0  0  0  0  0  0  0
  145.3813  142.6339  156.0595 C   0  0  0  0  0  0  0  0  0  0  0  0
  144.1156  143.4212  156.3491 C   0  0  0  0  0  0  0  0  0  0  0  0
  146.0185  142.6666  154.8573 C   0  0  0  0  0  0  0  0  0  0  0  0
  145.5361  143.4898  153.6694 C   0  0  0  0  0  0  0  0  0  0  0  0
  147.2422  141.8711  154.6657 C   0  0  0  0  0  0  0  0  0  0  0  0
  147.8707  141.8588  153.6057 O   0  0  0  0  0  0  0  0  0  0  0  0
  151.4819  143.4561  158.6342 C   0  0  0  0  0  0  0  0  0  0  0  0
  151.9609  145.8309  161.0773 H   0  0  0  0  0  0  0  0  0  0  0  0
  150.4187  145.5450  160.2635 H   0  0  0  0  0  0  0  0  0  0  0  0
  151.8048  146.1504  159.3476 H   0  0  0  0  0  0  0  0  0  0  0  0
  153.0523  143.7891  161.6540 H   0  0  0  0  0  0  0  0  0  0  0  0
  154.1201  140.2081  161.0715 H   0  0  0  0  0  0  0  0  0  0  0  0
  153.5043  141.2088  162.3898 H   0  0  0  0  0  0  0  0  0  0  0  0
  154.9437  141.7125  161.4943 H   0  0  0  0  0  0  0  0  0  0  0  0
  152.9489  140.3968  159.0007 H   0  0  0  0  0  0  0  0  0  0  0  0
  149.7045  142.4650  156.8645 H   0  0  0  0  0  0  0  0  0  0  0  0
  151.0321  142.9639  155.8094 H   0  0  0  0  0  0  0  0  0  0  0  0
  149.8934  141.6230  154.3065 H   0  0  0  0  0  0  0  0  0  0  0  0
  150.8393  139.3111  155.1296 H   0  0  0  0  0  0  0  0  0  0  0  0
  148.7063  139.4110  155.0820 H   0  0  0  0  0  0  0  0  0  0  0  0
  149.0261  139.8937  156.6996 H   0  0  0  0  0  0  0  0  0  0  0  0
  147.3652  140.5422  157.7578 H   0  0  0  0  0  0  0  0  0  0  0  0
  143.3131  143.1156  155.6773 H   0  0  0  0  0  0  0  0  0  0  0  0
  144.2926  144.4891  156.2195 H   0  0  0  0  0  0  0  0  0  0  0  0
  143.7740  143.2616  157.3727 H   0  0  0  0  0  0  0  0  0  0  0  0
  146.3068  144.1987  153.3653 H   0  0  0  0  0  0  0  0  0  0  0  0
  144.6321  144.0587  153.8797 H   0  0  0  0  0  0  0  0  0  0  0  0
  145.3229  142.8374  152.8221 H   0  0  0  0  0  0  0  0  0  0  0  0
  150.8626  144.0370  157.9677 H   0  0  0  0  0  0  0  0  0  0  0  0
  1  2  1  0  0  0  0
  1 23  1  0  0  0  0
  1 24  1  0  0  0  0
  1 25  1  0  0  0  0
  2 22  1  0  0  0  0
  2  3  2  0  0  0  0
  3  4  1  0  0  0  0
  3 26  1  0  0  0  0
  4  5  1  0  0  0  0
  4  6  2  0  0  0  0
  5 27  1  0  0  0  0
  5 28  1  0  0  0  0
  5 29  1  0  0  0  0
  6  7  1  0  0  0  0
  6 30  1  0  0  0  0
  7  8  1  0  0  0  0
  7 22  2  0  0  0  0
  8  9  1  0  0  0  0
  9 10  1  0  0  0  0
  9 31  1  0  0  0  0
  9 32  1  0  0  0  0
 10 11  1  0  0  0  0
 10 12  1  0  0  0  0
 10 33  1  0  0  0  0
 11 34  1  0  0  0  0
 12 13  1  0  0  0  0
 12 35  1  0  0  0  0
 12 36  1  0  0  0  0
 13 20  1  0  0  0  0
 13 14  1  0  0  0  0
 14 15  2  0  0  0  0
 14 37  1  0  0  0  0
 15 16  1  0  0  0  0
 16 17  1  0  0  0  0
 16 18  2  0  0  0  0
 17 38  1  0  0  0  0
 17 39  1  0  0  0  0
 17 40  1  0  0  0  0
 18 19  1  0  0  0  0
 18 20  1  0  0  0  0
 19 41  1  0  0  0  0
 19 42  1  0  0  0  0
 19 43  1  0  0  0  0
 20 21  2  0  0  0  0
 22 44  1  0  0  0  0
M  END
> <s_m_source_file>
AV-unprocessed.smi

> <i_m_source_file_index>
2297

> <i_lp_mmshare_version>
43012

> <i_f3d_flags>
0

> <s_epik_input>
W0NIM11jMVtjSF1jKFtDSDNdKVtjSF1jKFtjSF0xKU9bQ0gyXVtDQEhdKFtPSF0pW0NIMl1uMltjSF1uYyhbQ0gzXSljKFtDSDNdKWMyPU8=

> <s_epik_cmdline>
J2VwaWtfcHl0aG9uJywgJy1waCcsICc3LjAnLCAnLXRuJywgJzgnLCAnLW1hJywgJzIwMCcsICctbWV0YWxfYmluZGluZycsICctaW1hZScsICc8aW5maWxlLm1hZT4nLCAnLW9tYWUnLCAnPG91dGZpbGUubWFlPic=

> <r_lp_tautomer_probability>
1

> <r_epik_Ionization_Penalty>
3.72236e-05

> <r_epik_Ionization_Penalty_Charging>
8.38864e-08

> <r_epik_Ionization_Penalty_Neutral>
3.71397e-05

> <r_epik_State_Penalty>
-0

> <r_epik_Charging_Adjusted_Penalty>
8.38864e-08

> <i_epik_Tot_Q>
0

> <i_epik_Tot_abs_Q>
0

> <r_epik_Metal_State_Penalty>
-0

> <b_epik_Metal_Only>
0

> <s_lp_Force_Field>
OPLS_2005

> <r_lp_Energy>
22.4286

> <b_lp_Chiralities_Consistent>
1

> <s_lp_Variant>
AV-unprocessed.smi:2297-2

> <Gold.Version>
5.8.1

> <Gold.Id.Protein>
6NUR|6NUR_protein|mol2

> <Gold.PLP.Fitness>
48.6059

> <Gold.PLP.PLP>
-47.4142

> <Gold.PLP.part.hbond>
-2.0000

> <Gold.PLP.part.metal>
0.0000

> <Gold.PLP.part.buried>
-3.8649

> <Gold.PLP.part.nonpolar>
-41.2733

> <Gold.PLP.part.repulsive>
0.2845

> <Gold.PLP.ligand.clash>
0.0000

> <Gold.PLP.ligand.torsion>
0.4943

> <Gold.PLP.Chemscore.Hbond>
0.7036

> <Gold.PLP.Chemscore.CHOScore>
0.0000

> <Gold.PLP.Chemscore.Metal>
0.0000

> <Gold.Chemscore.Hbonds>
donor molecule, donor type, donor heavy atom, donor atom, acceptor molecule, acceptor atom, score
      P1  H  7989  7998       L1    11  0.75
      P1  H  8011  8017       L1    21  0.08

> <Gold.PLP.Chemscore.Internal.Correction>
0.0696

> <Gold.Rescore>
     Score         DG    S(hbond)    S(metal)    S(lipo)     H(rot)  DE(clash)    DE(int)     intcor
     13.12     -14.89       0.26        0.00     123.92       2.32       0.09       1.68       ----

> <Gold.Chemscore.Fitness>
13.1195

> <Gold.Chemscore.DG>
-14.8869

> <Gold.Chemscore.ZeroCoef>
-5.4800

> <Gold.Chemscore.Hbond>
0.2564

> <Gold.Chemscore.Metal>
0.0000

> <Gold.Chemscore.Lipo>
123.9230

> <Gold.Chemscore.Internal_Hbond>
0.0000

> <Gold.Chemscore.DEClash>
0.0883

> <Gold.Chemscore.DEInternal>
1.6791

> <Gold.Chemscore.Rot>
2.3236

> <Gold.Chemscore.Internal.Correction>
   9.000000E+99

> <Gold.Chemscore.Hbonds>
donor molecule, donor type, donor heavy atom, donor atom, acceptor molecule, acceptor atom, score
      P1  H  7989  7998       L1    11  0.09
      P1  H  8011  8017       L1    21  0.09

> <Gold.Chemscore.Hbond.Weighted>
-0.8563

> <Gold.Chemscore.Metal.Weighted>
-0.0000

> <Gold.Chemscore.Lipo.Weighted>
-14.4990

> <Gold.Chemscore.Internal_Hbond.Weighted>
0.0000

> <Gold.Chemscore.DEClash.Weighted>
0.0883

> <Gold.Chemscore.DEInternal.Weighted>
1.6791

> <Gold.Chemscore.Rot.Weighted>
5.9484

> <Gold.Chemscore.Internal.Correction.Weighted>
   9.000000E+99

> <Gold.Protein.RotatedTorsions>
[ 6907 6896 6895 6894 ] final   70.47 input  -60.11 | X-H torsion
[ 7974 7965 7964 7962 ] final -168.45 input  175.53 | X-H torsion
[ 8008 7997 7996 7995 ] final  -15.31 input   59.86 | X-H torsion
[ 10167 10162 10161 10158 ] final   51.95 input  -65.29 | X-H torsion
[ 10718 10713 10712 10709 ] final -148.03 input   66.30 | X-H torsion
[ 10763 10752 10751 10750 ] final  167.04 input  -60.55 | X-H torsion
[ 11005 11000 10999 10996 ] final   44.75 input  -57.11 | X-H torsion

> <Gold.Protein.ActiveResidues>
 VAL166  LYS551  ARG553  GLY616  TRP617  ASP618  TYR619  PRO620  LYS621  CYS622 
 ASP623  PHE694  ASN695  SER759  ASP760  ASP761  ALA762  ILE779  LEU786  VAL792 
 PHE793  MET794  SER795  GLU796  ALA797  LYS798  CYS799  TRP800  GLU811  SER814 

> <Gold.Protein.RotatedAtoms>
  152.4751  134.4864  159.9681 H   0  0  0  0  0  0  0  0  0  0  0  0  # atno 6907 bound_to 6896
  151.4882  133.3525  159.2857 H   0  0  0  0  0  0  0  0  0  0  0  0  # atno 6908 bound_to 6896
  150.8784  134.8198  159.7268 H   0  0  0  0  0  0  0  0  0  0  0  0  # atno 6909 bound_to 6896
  144.7203  140.2368  143.6297 H   0  0  0  0  0  0  0  0  0  0  0  0  # atno 7974 bound_to 7965
  154.5140  140.2200  155.9101 H   0  0  0  0  0  0  0  0  0  0  0  0  # atno 8008 bound_to 7997
  156.1586  140.3147  155.8734 H   0  0  0  0  0  0  0  0  0  0  0  0  # atno 8009 bound_to 7997
  155.3796  140.0471  157.3034 H   0  0  0  0  0  0  0  0  0  0  0  0  # atno 8010 bound_to 7997
  140.2565  144.3421  150.6331 H   0  0  0  0  0  0  0  0  0  0  0  0  # atno 10167 bound_to 10162
  156.4150  130.8000  151.2220 H   0  0  0  0  0  0  0  0  0  0  0  0  # atno 10718 bound_to 10713
  154.3479  135.2753  155.2387 H   0  0  0  0  0  0  0  0  0  0  0  0  # atno 10763 bound_to 10752
  154.4629  135.5902  153.6272 H   0  0  0  0  0  0  0  0  0  0  0  0  # atno 10764 bound_to 10752
  152.9852  135.6069  154.3687 H   0  0  0  0  0  0  0  0  0  0  0  0  # atno 10765 bound_to 10752
  140.1523  134.4446  155.8373 H   0  0  0  0  0  0  0  0  0  0  0  0  # atno 11005 bound_to 11000
  145.8358  139.2107  143.1856 LP  0  0  0  0  0  0  0  0  0  0  0  0  # atno 17320 bound_to 7965
  146.0390  140.8183  142.9838 LP  0  0  0  0  0  0  0  0  0  0  0  0  # atno 17321 bound_to 7965
  140.6000  143.2167  151.7091 LP  0  0  0  0  0  0  0  0  0  0  0  0  # atno 17342 bound_to 10162
  139.5030  144.3808  152.0378 LP  0  0  0  0  0  0  0  0  0  0  0  0  # atno 17343 bound_to 10162
  157.7507  131.0246  150.3882 LP  0  0  0  0  0  0  0  0  0  0  0  0  # atno 17370 bound_to 10713
  156.4188  130.3948  149.6839 LP  0  0  0  0  0  0  0  0  0  0  0  0  # atno 17371 bound_to 10713
  141.2200  133.6878  156.7444 LP  0  0  0  0  0  0  0  0  0  0  0  0  # atno 17394 bound_to 11000
  140.2589  134.8482  157.3740 LP  0  0  0  0  0  0  0  0  0  0  0  0  # atno 17395 bound_to 11000

$$$$
