AV-unprocessed.smi:1702|AV-procd|sdf|6852|dock6
  -GOLD-   22720 8 33D 1   1.00000     0.00000
 Structure written by MMmdl.
 45 47  0  0  0  0  0  0  0  0  3 V2000
  144.4442  133.2305  151.8066 C   0  0  0  0  0  0  0  0  0  0  0  0
  145.7483  133.8214  151.2419 C   0  0  2  0  0  0  0  0  0  0  0  0
  146.9044  133.7950  152.2581 C   0  0  0  0  0  0  0  0  0  0  0  0
  146.7359  134.8562  153.3605 C   0  0  0  0  0  0  0  0  0  0  0  0
  146.5830  136.2164  152.7787 N   0  3  2  0  0  0  0  0  0  0  0  0
  146.5434  137.2932  153.8023 C   0  0  0  0  0  0  0  0  0  0  0  0
  145.8950  138.5888  153.2749 C   0  0  1  0  0  0  0  0  0  0  0  0
  145.3180  139.2868  154.3621 O   0  0  0  0  0  0  0  0  0  0  0  0
  146.9237  139.5011  152.5776 C   0  0  0  0  0  0  0  0  0  0  0  0
  147.5608  140.4534  153.4980 N   0  0  0  0  0  0  0  0  0  0  0  0
  147.1629  141.6958  153.8874 C   0  0  0  0  0  0  0  0  0  0  0  0
  148.0971  142.1737  154.7556 N   0  3  0  0  0  0  0  0  0  0  0  0
  149.1066  141.2234  154.9243 C   0  0  0  0  0  0  0  0  0  0  0  0
  150.2617  141.2473  155.6994 C   0  0  0  0  0  0  0  0  0  0  0  0
  151.0873  140.1050  155.6444 C   0  0  0  0  0  0  0  0  0  0  0  0
  152.2248  140.0762  156.3781 F   0  0  0  0  0  0  0  0  0  0  0  0
  150.7512  138.9947  154.8409 C   0  0  0  0  0  0  0  0  0  0  0  0
  151.5713  137.9177  154.8168 F   0  0  0  0  0  0  0  0  0  0  0  0
  149.5767  138.9819  154.0594 C   0  0  0  0  0  0  0  0  0  0  0  0
  148.7678  140.1156  154.1194 C   0  0  0  0  0  0  0  0  0  0  0  0
  145.4309  136.2849  151.8432 C   0  0  0  0  0  0  0  0  0  0  0  0
  145.5708  135.2543  150.7084 C   0  0  0  0  0  0  0  0  0  0  0  0
  144.0697  133.7962  152.6594 H   0  0  0  0  0  0  0  0  0  0  0  0
  144.5922  132.2011  152.1345 H   0  0  0  0  0  0  0  0  0  0  0  0
  143.6603  133.2211  151.0488 H   0  0  0  0  0  0  0  0  0  0  0  0
  146.0343  133.1893  150.4001 H   0  0  0  0  0  0  0  0  0  0  0  0
  146.9945  132.8028  152.7023 H   0  0  0  0  0  0  0  0  0  0  0  0
  147.8442  133.9768  151.7346 H   0  0  0  0  0  0  0  0  0  0  0  0
  145.8709  134.6236  153.9827 H   0  0  0  0  0  0  0  0  0  0  0  0
  147.6060  134.8203  154.0149 H   0  0  0  0  0  0  0  0  0  0  0  0
  145.9793  136.9566  154.6739 H   0  0  0  0  0  0  0  0  0  0  0  0
  147.5566  137.4878  154.1572 H   0  0  0  0  0  0  0  0  0  0  0  0
  145.1015  138.3539  152.5665 H   0  0  0  0  0  0  0  0  0  0  0  0
  144.6444  139.8617  154.0309 H   0  0  0  0  0  0  0  0  0  0  0  0
  147.7168  138.9036  152.1255 H   0  0  0  0  0  0  0  0  0  0  0  0
  146.4613  140.0632  151.7652 H   0  0  0  0  0  0  0  0  0  0  0  0
  146.2694  142.2114  153.5649 H   0  0  0  0  0  0  0  0  0  0  0  0
  150.5229  142.0947  156.3161 H   0  0  0  0  0  0  0  0  0  0  0  0
  149.3296  138.1265  153.4490 H   0  0  0  0  0  0  0  0  0  0  0  0
  144.5016  136.1289  152.3927 H   0  0  0  0  0  0  0  0  0  0  0  0
  145.3729  137.2825  151.4061 H   0  0  0  0  0  0  0  0  0  0  0  0
  146.4359  135.5174  150.0978 H   0  0  0  0  0  0  0  0  0  0  0  0
  144.7071  135.3070  150.0447 H   0  0  0  0  0  0  0  0  0  0  0  0
  147.4058  136.3917  152.2192 H   0  0  0  0  0  0  0  0  0  0  0  0
  148.0465  143.0825  155.1987 H   0  0  0  0  0  0  0  0  0  0  0  0
  1  2  1  0  0  0  0
  1 23  1  0  0  0  0
  1 24  1  0  0  0  0
  1 25  1  0  0  0  0
  2 22  1  0  0  0  0
  2  3  1  0  0  0  0
  2 26  1  0  0  0  0
  3  4  1  0  0  0  0
  3 27  1  0  0  0  0
  3 28  1  0  0  0  0
  4  5  1  0  0  0  0
  4 29  1  0  0  0  0
  4 30  1  0  0  0  0
  5  6  1  0  0  0  0
  5 21  1  0  0  0  0
  5 44  1  0  0  0  0
  6  7  1  0  0  0  0
  6 31  1  0  0  0  0
  6 32  1  0  0  0  0
  7  8  1  0  0  0  0
  7  9  1  0  0  0  0
  7 33  1  0  0  0  0
  8 34  1  0  0  0  0
  9 10  1  0  0  0  0
  9 35  1  0  0  0  0
  9 36  1  0  0  0  0
 10 20  1  0  0  0  0
 10 11  1  0  0  0  0
 11 12  2  0  0  0  0
 11 37  1  0  0  0  0
 12 13  1  0  0  0  0
 12 45  1  0  0  0  0
 13 20  2  0  0  0  0
 13 14  1  0  0  0  0
 14 15  2  0  0  0  0
 14 38  1  0  0  0  0
 15 16  1  0  0  0  0
 15 17  1  0  0  0  0
 17 18  1  0  0  0  0
 17 19  2  0  0  0  0
 19 20  1  0  0  0  0
 19 39  1  0  0  0  0
 21 22  1  0  0  0  0
 21 40  1  0  0  0  0
 21 41  1  0  0  0  0
 22 42  1  0  0  0  0
 22 43  1  0  0  0  0
M  CHG  1   5   1
M  CHG  1  12   1
M  END
> <s_m_source_file>
AV-unprocessed.smi

> <i_m_source_file_index>
1702

> <i_lp_mmshare_version>
43012

> <i_f3d_flags>
0

> <s_epik_input>
W0NIM11bQ0hdMVtDSDJdW0NIMl1OKFtDSDJdW0NIMl0xKVtDSDJdW0NASF0oW09IXSlbQ0gyXW4oW2NIXW4yKWMoYzIzKVtjSF1jKEYpYyhGKVtjSF0z

> <s_epik_cmdline>
J2VwaWtfcHl0aG9uJywgJy1waCcsICc3LjAnLCAnLXRuJywgJzgnLCAnLW1hJywgJzIwMCcsICctbWV0YWxfYmluZGluZycsICctaW1hZScsICc8aW5maWxlLm1hZT4nLCAnLW9tYWUnLCAnPG91dGZpbGUubWFlPic=

> <r_epik_Ionization_Penalty>
2.33291

> <r_epik_Ionization_Penalty_Charging>
2.33291

> <r_epik_Ionization_Penalty_Neutral>
6.90208e-07

> <r_epik_State_Penalty>
2.4838

> <r_epik_Charging_Adjusted_Penalty>
4.81672

> <i_epik_Tot_Q>
2

> <i_epik_Tot_abs_Q>
2

> <r_epik_Metal_State_Penalty>
6.56754

> <b_epik_Metal_Only>
0

> <s_lp_Force_Field>
OPLS_2005

> <r_lp_Energy>
31.9784

> <b_lp_Chiralities_Consistent>
1

> <s_lp_Variant>
AV-unprocessed.smi:1702-8

> <Gold.Version>
5.8.1

> <Gold.Id.Protein>
6NUR|6NUR_protein|mol2

> <Gold.PLP.Fitness>
53.5930

> <Gold.PLP.PLP>
-41.4539

> <Gold.PLP.part.hbond>
-3.0000

> <Gold.PLP.part.metal>
0.0000

> <Gold.PLP.part.buried>
1.6617

> <Gold.PLP.part.nonpolar>
-39.5136

> <Gold.PLP.part.repulsive>
0.1890

> <Gold.PLP.ligand.clash>
0.0000

> <Gold.PLP.ligand.torsion>
1.3368

> <Gold.PLP.Chemscore.Hbond>
4.9280

> <Gold.PLP.Chemscore.CHOScore>
0.0000

> <Gold.PLP.Chemscore.Metal>
0.0000

> <Gold.Chemscore.Hbonds>
donor molecule, donor type, donor heavy atom, donor atom, acceptor molecule, acceptor atom, score
      L1  H     5    44       P1  7948  2.00
      L1  H     8    34       P1 10175  0.94
      L1  H    12    45       P1  8028  2.00

> <Gold.PLP.Chemscore.Internal.Correction>
0.0288

> <Gold.Rescore>
     Score         DG    S(hbond)    S(metal)    S(lipo)     H(rot)  DE(clash)    DE(int)     intcor
     16.81     -19.38       2.92        0.00      86.27       2.32       1.32       1.25       ----

> <Gold.Chemscore.Fitness>
16.8081

> <Gold.Chemscore.DG>
-19.3770

> <Gold.Chemscore.ZeroCoef>
-5.4800

> <Gold.Chemscore.Hbond>
2.9177

> <Gold.Chemscore.Metal>
0.0000

> <Gold.Chemscore.Lipo>
86.2683

> <Gold.Chemscore.Internal_Hbond>
0.0000

> <Gold.Chemscore.DEClash>
1.3235

> <Gold.Chemscore.DEInternal>
1.2453

> <Gold.Chemscore.Rot>
2.3210

> <Gold.Chemscore.Internal.Correction>
   9.000000E+99

> <Gold.Chemscore.Hbonds>
donor molecule, donor type, donor heavy atom, donor atom, acceptor molecule, acceptor atom, score
      L1  H     5    44       P1  7948  0.96
      L1  H     8    34       P1 10175  0.91
      L1  H    12    45       P1  8028  0.86

> <Gold.Chemscore.Hbond.Weighted>
-9.7452

> <Gold.Chemscore.Metal.Weighted>
-0.0000

> <Gold.Chemscore.Lipo.Weighted>
-10.0934

> <Gold.Chemscore.Internal_Hbond.Weighted>
0.0000

> <Gold.Chemscore.DEClash.Weighted>
1.3235

> <Gold.Chemscore.DEInternal.Weighted>
1.2453

> <Gold.Chemscore.Rot.Weighted>
5.9416

> <Gold.Chemscore.Internal.Correction.Weighted>
   9.000000E+99

> <Gold.Protein.RotatedTorsions>
[ 6907 6896 6895 6894 ] final  -37.76 input  -60.11 | X-H torsion
[ 7974 7965 7964 7962 ] final  -90.27 input  175.53 | X-H torsion
[ 8008 7997 7996 7995 ] final  127.94 input   59.86 | X-H torsion
[ 10167 10162 10161 10158 ] final  128.39 input  -65.29 | X-H torsion
[ 10718 10713 10712 10709 ] final  -76.96 input   66.30 | X-H torsion
[ 10763 10752 10751 10750 ] final  169.73 input  -60.55 | X-H torsion
[ 11005 11000 10999 10996 ] final   22.11 input  -57.11 | X-H torsion

> <Gold.Protein.ActiveResidues>
 VAL166  LYS551  ARG553  GLY616  TRP617  ASP618  TYR619  PRO620  LYS621  CYS622 
 ASP623  PHE694  ASN695  SER759  ASP760  ASP761  ALA762  ILE779  LEU786  VAL792 
 PHE793  MET794  SER795  GLU796  ALA797  LYS798  CYS799  TRP800  GLU811  SER814 

> <Gold.Protein.RotatedAtoms>
  151.0107  134.9394  159.8005 H   0  0  0  0  0  0  0  0  0  0  0  0  # atno 6907 bound_to 6896
  152.5302  134.3032  159.9096 H   0  0  0  0  0  0  0  0  0  0  0  0  # atno 6908 bound_to 6896
  151.3038  133.4069  159.2676 H   0  0  0  0  0  0  0  0  0  0  0  0  # atno 6909 bound_to 6896
  145.4286  140.9555  143.2140 H   0  0  0  0  0  0  0  0  0  0  0  0  # atno 7974 bound_to 7965
  156.2903  140.2657  156.2355 H   0  0  0  0  0  0  0  0  0  0  0  0  # atno 8008 bound_to 7997
  155.0030  140.0387  157.2386 H   0  0  0  0  0  0  0  0  0  0  0  0  # atno 8009 bound_to 7997
  154.7585  140.2756  155.6238 H   0  0  0  0  0  0  0  0  0  0  0  0  # atno 8010 bound_to 7997
  139.5529  144.6827  151.4268 H   0  0  0  0  0  0  0  0  0  0  0  0  # atno 10167 bound_to 10162
  156.0159  130.4479  150.3273 H   0  0  0  0  0  0  0  0  0  0  0  0  # atno 10718 bound_to 10713
  154.3874  135.2754  155.2175 H   0  0  0  0  0  0  0  0  0  0  0  0  # atno 10763 bound_to 10752
  154.4256  135.5989  153.6040 H   0  0  0  0  0  0  0  0  0  0  0  0  # atno 10764 bound_to 10752
  152.9833  135.5983  154.4125 H   0  0  0  0  0  0  0  0  0  0  0  0  # atno 10765 bound_to 10752
  140.3841  134.1889  155.7663 H   0  0  0  0  0  0  0  0  0  0  0  0  # atno 11005 bound_to 11000
  144.8197  139.5813  143.6992 LP  0  0  0  0  0  0  0  0  0  0  0  0  # atno 17320 bound_to 7965
  146.2619  139.6429  142.9356 LP  0  0  0  0  0  0  0  0  0  0  0  0  # atno 17321 bound_to 7965
  140.6796  143.8112  150.7104 LP  0  0  0  0  0  0  0  0  0  0  0  0  # atno 17342 bound_to 10162
  140.1561  143.4315  152.2098 LP  0  0  0  0  0  0  0  0  0  0  0  0  # atno 17343 bound_to 10162
  157.1372  131.0287  151.2944 LP  0  0  0  0  0  0  0  0  0  0  0  0  # atno 17370 bound_to 10713
  157.4502  130.7594  149.7144 LP  0  0  0  0  0  0  0  0  0  0  0  0  # atno 17371 bound_to 10713
  141.1913  133.8197  157.0883 LP  0  0  0  0  0  0  0  0  0  0  0  0  # atno 17394 bound_to 11000
  140.0456  134.9832  157.1042 LP  0  0  0  0  0  0  0  0  0  0  0  0  # atno 17395 bound_to 11000

$$$$
