AV-unprocessed.smi:45|AV-procd|sdf|414|dock10
  -GOLD-   2262016283D 1   1.00000     0.00000
 Structure written by MMmdl.
 59 62  0  0  0  0  0  0  0  0  2 V2000
  155.9589  139.7649  161.9790 C   0  0  0  0  0  0  0  0  0  0  0  0
  154.9306  140.7439  161.9545 O   0  0  0  0  0  0  0  0  0  0  0  0
  154.0323  140.7213  160.9075 C   0  0  0  0  0  0  0  0  0  0  0  0
  154.0339  139.7359  159.8875 C   0  0  0  0  0  0  0  0  0  0  0  0
  153.0830  139.7781  158.8498 C   0  0  0  0  0  0  0  0  0  0  0  0
  152.1161  140.8022  158.8129 C   0  0  0  0  0  0  0  0  0  0  0  0
  151.0912  140.8459  157.6973 C   0  0  0  0  0  0  0  0  0  0  0  0
  149.9006  140.0600  157.9840 N   0  0  0  0  0  0  0  0  0  0  0  0
  149.4723  139.0391  157.1187 C   0  0  0  0  0  0  0  0  0  0  0  0
  149.0546  139.3972  155.8805 N   0  0  0  0  0  0  0  0  0  0  0  0
  148.6606  138.4312  155.0492 C   0  0  0  0  0  0  0  0  0  0  0  0
  148.2170  138.8466  153.8033 N   0  0  0  0  0  0  0  0  0  0  0  0
  147.6431  137.8659  152.8846 C   0  0  0  0  0  0  0  0  0  0  0  0
  146.4938  138.5607  152.1431 C   0  0  0  0  0  0  0  0  0  0  0  0
  146.7853  140.0458  152.3256 C   0  0  0  0  0  0  0  0  0  0  0  0
  147.4223  140.0671  153.7162 C   0  0  2  0  0  0  0  0  0  0  0  0
  148.1920  141.3533  154.0833 C   0  0  0  0  0  0  0  0  0  0  0  0
  149.4656  141.3957  153.4727 O   0  0  0  0  0  0  0  0  0  0  0  0
  148.6291  137.1233  155.3170 N   0  0  0  0  0  0  0  0  0  0  0  0
  149.0431  136.7438  156.5448 C   0  0  0  0  0  0  0  0  0  0  0  0
  149.4898  137.6732  157.5151 C   0  0  0  0  0  0  0  0  0  0  0  0
  149.9086  137.2174  158.8904 C   0  0  0  0  0  0  0  0  0  0  0  0
  151.0922  136.9119  159.0747 O   0  0  0  0  0  0  0  0  0  0  0  0
  148.8578  137.1884  159.7554 N   0  5  0  0  0  0  0  0  0  0  0  0
  148.5880  136.0929  160.6863 C   0  0  0  0  0  0  0  0  0  0  0  0
  147.2240  136.2443  161.3448 C   0  0  0  0  0  0  0  0  0  0  0  0
  146.4155  135.1773  161.3129 N   0  0  0  0  0  0  0  0  0  0  0  0
  145.2162  135.2981  161.9213 C   0  0  0  0  0  0  0  0  0  0  0  0
  144.8255  136.4916  162.5606 C   0  0  0  0  0  0  0  0  0  0  0  0
  145.7555  137.5500  162.5266 C   0  0  0  0  0  0  0  0  0  0  0  0
  146.9538  137.4246  161.9167 N   0  0  0  0  0  0  0  0  0  0  0  0
  152.1079  141.7844  159.8223 C   0  0  0  0  0  0  0  0  0  0  0  0
  153.0594  141.7450  160.8602 C   0  0  0  0  0  0  0  0  0  0  0  0
  153.0227  142.9669  162.0808 Cl  0  0  0  0  0  0  0  0  0  0  0  0
  146.6179  139.9576  154.4458 H   0  0  0  0  0  0  0  0  0  0  0  0
  156.5729  139.9117  162.8675 H   0  0  0  0  0  0  0  0  0  0  0  0
  156.6120  139.8496  161.1095 H   0  0  0  0  0  0  0  0  0  0  0  0
  155.5472  138.7559  162.0259 H   0  0  0  0  0  0  0  0  0  0  0  0
  154.7565  138.9342  159.8772 H   0  0  0  0  0  0  0  0  0  0  0  0
  153.0977  139.0208  158.0795 H   0  0  0  0  0  0  0  0  0  0  0  0
  150.8058  141.8854  157.5314 H   0  0  0  0  0  0  0  0  0  0  0  0
  151.5432  140.4864  156.7721 H   0  0  0  0  0  0  0  0  0  0  0  0
  149.3806  140.2438  158.8306 H   0  0  0  0  0  0  0  0  0  0  0  0
  148.4215  137.5739  152.1792 H   0  0  0  0  0  0  0  0  0  0  0  0
  147.3008  136.9600  153.3858 H   0  0  0  0  0  0  0  0  0  0  0  0
  146.4250  138.2655  151.0960 H   0  0  0  0  0  0  0  0  0  0  0  0
  145.5467  138.3131  152.6242 H   0  0  0  0  0  0  0  0  0  0  0  0
  147.4905  140.3771  151.5624 H   0  0  0  0  0  0  0  0  0  0  0  0
  145.8916  140.6666  152.2577 H   0  0  0  0  0  0  0  0  0  0  0  0
  147.6295  142.2239  153.7453 H   0  0  0  0  0  0  0  0  0  0  0  0
  148.3024  141.4558  155.1629 H   0  0  0  0  0  0  0  0  0  0  0  0
  149.5943  140.5919  152.9930 H   0  0  0  0  0  0  0  0  0  0  0  0
  149.0008  135.6845  156.7532 H   0  0  0  0  0  0  0  0  0  0  0  0
  148.6239  135.1273  160.1792 H   0  0  0  0  0  0  0  0  0  0  0  0
  149.3367  136.0230  161.4778 H   0  0  0  0  0  0  0  0  0  0  0  0
  144.5644  134.4374  161.8988 H   0  0  0  0  0  0  0  0  0  0  0  0
  143.8676  136.5899  163.0487 H   0  0  0  0  0  0  0  0  0  0  0  0
  145.5374  138.5002  162.9909 H   0  0  0  0  0  0  0  0  0  0  0  0
  151.3714  142.5745  159.8020 H   0  0  0  0  0  0  0  0  0  0  0  0
  1  2  1  0  0  0  0
  1 36  1  0  0  0  0
  1 37  1  0  0  0  0
  1 38  1  0  0  0  0
  2  3  1  0  0  0  0
  3 33  1  0  0  0  0
  3  4  2  0  0  0  0
  4  5  1  0  0  0  0
  4 39  1  0  0  0  0
  5  6  2  0  0  0  0
  5 40  1  0  0  0  0
  6  7  1  0  0  0  0
  6 32  1  0  0  0  0
  7  8  1  0  0  0  0
  7 41  1  0  0  0  0
  7 42  1  0  0  0  0
  8  9  1  0  0  0  0
  8 43  1  0  0  0  0
  9 21  1  0  0  0  0
  9 10  2  0  0  0  0
 10 11  1  0  0  0  0
 11 12  1  0  0  0  0
 11 19  2  0  0  0  0
 12 16  1  0  0  0  0
 12 13  1  0  0  0  0
 13 14  1  0  0  0  0
 13 44  1  0  0  0  0
 13 45  1  0  0  0  0
 14 15  1  0  0  0  0
 14 46  1  0  0  0  0
 14 47  1  0  0  0  0
 15 16  1  0  0  0  0
 15 48  1  0  0  0  0
 15 49  1  0  0  0  0
 16 35  1  0  0  0  0
 16 17  1  0  0  0  0
 17 18  1  0  0  0  0
 17 50  1  0  0  0  0
 17 51  1  0  0  0  0
 18 52  1  0  0  0  0
 19 20  1  0  0  0  0
 20 21  2  0  0  0  0
 20 53  1  0  0  0  0
 21 22  1  0  0  0  0
 22 23  2  0  0  0  0
 22 24  1  0  0  0  0
 24 25  1  0  0  0  0
 25 26  1  0  0  0  0
 25 54  1  0  0  0  0
 25 55  1  0  0  0  0
 26 31  1  0  0  0  0
 26 27  2  0  0  0  0
 27 28  1  0  0  0  0
 28 29  2  0  0  0  0
 28 56  1  0  0  0  0
 29 30  1  0  0  0  0
 29 57  1  0  0  0  0
 30 31  2  0  0  0  0
 30 58  1  0  0  0  0
 32 33  2  0  0  0  0
 32 59  1  0  0  0  0
 33 34  1  0  0  0  0
M  CHG  1  24  -1
M  END
> <s_m_source_file>
AV-unprocessed.smi

> <i_m_source_file_index>
45

> <i_lp_mmshare_version>
43012

> <i_f3d_flags>
0

> <s_epik_input>
W0NIM11PYzFbY0hdW2NIXWMoW2NIXWMxQ2wpW0NIMl1bTkhdYzJuYyhOM1tDSDJdW0NIMl1bQ0gyXVtDQEhdM1tDSDJdW09IXSluW2NIXWMyQyg9TylbTkhdW0NIMl1jNG5bY0hdW2NIXVtjSF1uNA==

> <s_epik_cmdline>
J2VwaWtfcHl0aG9uJywgJy1waCcsICc3LjAnLCAnLXRuJywgJzgnLCAnLW1hJywgJzIwMCcsICctbWV0YWxfYmluZGluZycsICctaW1hZScsICc8aW5maWxlLm1hZT4nLCAnLW9tYWUnLCAnPG91dGZpbGUubWFlPic=

> <r_lp_tautomer_probability>
1

> <r_epik_Ionization_Penalty>
7.35269

> <r_epik_Ionization_Penalty_Charging>
6.82087

> <r_epik_Ionization_Penalty_Neutral>
0.53182

> <r_epik_State_Penalty>
6.85781

> <r_epik_Charging_Adjusted_Penalty>
13.6787

> <i_epik_Tot_Q>
-1

> <i_epik_Tot_abs_Q>
1

> <r_epik_Metal_State_Penalty>
2.8146

> <b_epik_Metal_Only>
1

> <s_epik_Chemistry_Notes>
This compound contains an electron-poor aromatic ring that is susceptible to covalent hydrolysis at low pH, typically resulting in measured values for nitrogen ring protonation that are around two units higher than predicted values.

> <s_lp_Force_Field>
OPLS_2005

> <r_lp_Energy>
50.4559

> <b_lp_Chiralities_Consistent>
1

> <s_lp_Variant>
AV-unprocessed.smi:45-8

> <Gold.Version>
5.8.1

> <Gold.Id.Protein>
6NUR|6NUR_protein|mol2

> <Gold.PLP.Fitness>
55.7376

> <Gold.PLP.PLP>
-50.3852

> <Gold.PLP.part.hbond>
-7.8178

> <Gold.PLP.part.metal>
0.0000

> <Gold.PLP.part.buried>
1.9590

> <Gold.PLP.part.nonpolar>
-44.3996

> <Gold.PLP.part.repulsive>
0.4485

> <Gold.PLP.ligand.clash>
0.0000

> <Gold.PLP.ligand.torsion>
3.4409

> <Gold.PLP.Chemscore.Hbond>
3.7956

> <Gold.PLP.Chemscore.CHOScore>
0.0000

> <Gold.PLP.Chemscore.Metal>
0.0000

> <Gold.Chemscore.Hbonds>
donor molecule, donor type, donor heavy atom, donor atom, acceptor molecule, acceptor atom, score
      L1  H    18    52       P1  7957  0.74
      P1  H  6896  6907       L1    23  1.00
      P1  H  6931  6943       L1    31  0.34
      P1  H  6934  6947       L1    31  0.82
      P1  H  8011  8017       L1    18  0.88

> <Gold.PLP.Chemscore.Internal.Correction>
0.8474

> <Gold.Rescore>
     Score         DG    S(hbond)    S(metal)    S(lipo)     H(rot)  DE(clash)    DE(int)     intcor
     15.95     -23.31       3.10        0.00     131.88       3.11       2.28       5.08       ----

> <Gold.Chemscore.Fitness>
15.9462

> <Gold.Chemscore.DG>
-23.3055

> <Gold.Chemscore.ZeroCoef>
-5.4800

> <Gold.Chemscore.Hbond>
3.0993

> <Gold.Chemscore.Metal>
0.0000

> <Gold.Chemscore.Lipo>
131.8769

> <Gold.Chemscore.Internal_Hbond>
0.0000

> <Gold.Chemscore.DEClash>
2.2770

> <Gold.Chemscore.DEInternal>
5.0824

> <Gold.Chemscore.Rot>
3.1077

> <Gold.Chemscore.Internal.Correction>
   9.000000E+99

> <Gold.Chemscore.Hbonds>
donor molecule, donor type, donor heavy atom, donor atom, acceptor molecule, acceptor atom, score
      L1  H    18    52       P1  7957  0.74
      P1  H  6896  6907       L1    23  0.67
      P1  H  6931  6943       L1    31  0.08
      P1  H  6934  6947       L1    31  0.39
      P1  H  8011  8017       L1    18  0.18

> <Gold.Chemscore.Hbond.Weighted>
-10.3516

> <Gold.Chemscore.Metal.Weighted>
-0.0000

> <Gold.Chemscore.Lipo.Weighted>
-15.4296

> <Gold.Chemscore.Internal_Hbond.Weighted>
0.0000

> <Gold.Chemscore.DEClash.Weighted>
2.2770

> <Gold.Chemscore.DEInternal.Weighted>
5.0824

> <Gold.Chemscore.Rot.Weighted>
7.9557

> <Gold.Chemscore.Internal.Correction.Weighted>
   9.000000E+99

> <Gold.Protein.RotatedTorsions>
[ 6907 6896 6895 6894 ] final  -25.83 input  -60.11 | X-H torsion
[ 7974 7965 7964 7962 ] final -170.66 input  175.53 | X-H torsion
[ 8008 7997 7996 7995 ] final  -71.85 input   59.86 | X-H torsion
[ 10167 10162 10161 10158 ] final  112.51 input  -65.29 | X-H torsion
[ 10718 10713 10712 10709 ] final  -73.01 input   66.30 | X-H torsion
[ 10763 10752 10751 10750 ] final -105.63 input  -60.55 | X-H torsion
[ 11005 11000 10999 10996 ] final   31.37 input  -57.11 | X-H torsion

> <Gold.Protein.ActiveResidues>
 VAL166  LYS551  ARG553  GLY616  TRP617  ASP618  TYR619  PRO620  LYS621  CYS622 
 ASP623  PHE694  ASN695  SER759  ASP760  ASP761  ALA762  ILE779  LEU786  VAL792 
 PHE793  MET794  SER795  GLU796  ALA797  LYS798  CYS799  TRP800  GLU811  SER814 

> <Gold.Protein.RotatedAtoms>
  151.1696  135.0312  159.8745 H   0  0  0  0  0  0  0  0  0  0  0  0  # atno 6907 bound_to 6896
  152.5449  134.1186  159.8399 H   0  0  0  0  0  0  0  0  0  0  0  0  # atno 6908 bound_to 6896
  151.1290  133.5004  159.2632 H   0  0  0  0  0  0  0  0  0  0  0  0  # atno 6909 bound_to 6896
  144.7167  140.2038  143.6335 H   0  0  0  0  0  0  0  0  0  0  0  0  # atno 7974 bound_to 7965
  154.5120  140.0808  156.8008 H   0  0  0  0  0  0  0  0  0  0  0  0  # atno 8008 bound_to 7997
  155.3764  140.3425  155.4227 H   0  0  0  0  0  0  0  0  0  0  0  0  # atno 8009 bound_to 7997
  156.1584  140.1580  156.8641 H   0  0  0  0  0  0  0  0  0  0  0  0  # atno 8010 bound_to 7997
  139.6530  144.7128  151.2011 H   0  0  0  0  0  0  0  0  0  0  0  0  # atno 10167 bound_to 10162
  156.0297  130.4385  150.2679 H   0  0  0  0  0  0  0  0  0  0  0  0  # atno 10718 bound_to 10713
  154.7959  135.4742  154.0160 H   0  0  0  0  0  0  0  0  0  0  0  0  # atno 10763 bound_to 10752
  153.1703  135.6824  153.8625 H   0  0  0  0  0  0  0  0  0  0  0  0  # atno 10764 bound_to 10752
  153.8209  135.3204  155.3388 H   0  0  0  0  0  0  0  0  0  0  0  0  # atno 10765 bound_to 10752
  140.2846  134.2933  155.7791 H   0  0  0  0  0  0  0  0  0  0  0  0  # atno 11005 bound_to 11000
  145.8654  139.2244  143.1692 LP  0  0  0  0  0  0  0  0  0  0  0  0  # atno 17320 bound_to 7965
  146.0134  140.8414  142.9959 LP  0  0  0  0  0  0  0  0  0  0  0  0  # atno 17321 bound_to 7965
  140.7546  143.6119  150.8597 LP  0  0  0  0  0  0  0  0  0  0  0  0  # atno 17342 bound_to 10162
  139.9769  143.5995  152.2956 LP  0  0  0  0  0  0  0  0  0  0  0  0  # atno 17343 bound_to 10162
  157.0782  131.0136  151.3166 LP  0  0  0  0  0  0  0  0  0  0  0  0  # atno 17370 bound_to 10713
  157.4948  130.7844  149.7544 LP  0  0  0  0  0  0  0  0  0  0  0  0  # atno 17371 bound_to 10713
  141.2157  133.7547  156.9533 LP  0  0  0  0  0  0  0  0  0  0  0  0  # atno 17394 bound_to 11000
  140.1251  134.9392  157.2259 LP  0  0  0  0  0  0  0  0  0  0  0  0  # atno 17395 bound_to 11000

$$$$
