AV-unprocessed.smi:199|AV-procd|sdf|1568|dock5
  -GOLD-   2262019443D 1   1.00000     0.00000
 Structure written by MMmdl.
 51 55  0  0  0  0  0  0  0  0  1 V2000
  143.5094  132.8580  148.3408 C   0  0  0  0  0  0  0  0  0  0  0  0
  144.6334  132.4571  149.3091 C   0  0  2  0  0  0  0  0  0  0  0  0
  144.2172  131.2811  149.9982 O   0  0  0  0  0  0  0  0  0  0  0  0
  144.8214  131.2670  151.2793 C   0  0  0  0  0  0  0  0  0  0  0  0
  144.7104  132.7227  151.7056 C   0  0  0  0  0  0  0  0  0  0  0  0
  145.0080  133.4840  150.4159 C   0  0  1  0  0  0  0  0  0  0  0  0
  146.4095  133.6921  150.3488 O   0  0  0  0  0  0  0  0  0  0  0  0
  144.3129  134.8694  150.3386 C   0  0  0  0  0  0  0  0  0  0  0  0
  145.0994  135.9448  150.9252 N   0  0  0  0  0  0  0  0  0  0  0  0
  145.8505  136.8788  150.2495 C   0  0  0  0  0  0  0  0  0  0  0  0
  146.4764  137.7392  151.0038 N   0  0  0  0  0  0  0  0  0  0  0  0
  146.1223  137.3847  152.3005 C   0  0  0  0  0  0  0  0  0  0  0  0
  146.4421  137.8855  153.5967 C   0  0  0  0  0  0  0  0  0  0  0  0
  147.2662  138.9460  153.8218 N   0  0  0  0  0  0  0  0  0  0  0  0
  146.7562  140.1709  154.4210 C   0  0  1  0  0  0  0  0  0  0  0  0
  146.5622  139.8050  155.9052 C   0  0  0  0  0  0  0  0  0  0  0  0
  147.7355  138.8396  156.1302 C   0  0  0  0  0  0  0  0  0  0  0  0
  148.3980  138.8328  154.7323 C   0  0  2  0  0  0  0  0  0  0  0  0
  149.1417  140.1563  154.4508 C   0  0  2  0  0  0  0  0  0  0  0  0
  150.2134  140.5721  155.4755 C   0  0  0  0  0  0  0  0  0  0  0  0
  151.4848  140.1340  155.0456 O   0  0  0  0  0  0  0  0  0  0  0  0
  147.9562  141.1282  154.2995 C   0  0  0  0  0  0  0  0  0  0  0  0
  145.9091  137.2314  154.6633 N   0  0  0  0  0  0  0  0  0  0  0  0
  145.1003  136.1841  154.4840 C   0  0  0  0  0  0  0  0  0  0  0  0
  144.7065  135.6218  153.3412 N   0  0  0  0  0  0  0  0  0  0  0  0
  145.2539  136.2552  152.2651 C   0  0  0  0  0  0  0  0  0  0  0  0
  143.7704  133.7527  147.7755 H   0  0  0  0  0  0  0  0  0  0  0  0
  142.5738  133.0456  148.8681 H   0  0  0  0  0  0  0  0  0  0  0  0
  143.3227  132.0612  147.6205 H   0  0  0  0  0  0  0  0  0  0  0  0
  145.5145  132.1952  148.7199 H   0  0  0  0  0  0  0  0  0  0  0  0
  144.3093  130.5863  151.9596 H   0  0  0  0  0  0  0  0  0  0  0  0
  145.8644  130.9579  151.1955 H   0  0  0  0  0  0  0  0  0  0  0  0
  143.6846  132.9106  152.0243 H   0  0  0  0  0  0  0  0  0  0  0  0
  145.3688  132.9815  152.5362 H   0  0  0  0  0  0  0  0  0  0  0  0
  146.7833  133.0345  149.7825 H   0  0  0  0  0  0  0  0  0  0  0  0
  144.1011  135.1324  149.3014 H   0  0  0  0  0  0  0  0  0  0  0  0
  143.3518  134.8439  150.8526 H   0  0  0  0  0  0  0  0  0  0  0  0
  145.9275  136.8960  149.1721 H   0  0  0  0  0  0  0  0  0  0  0  0
  145.8610  140.5873  153.9632 H   0  0  0  0  0  0  0  0  0  0  0  0
  146.5955  140.6748  156.5623 H   0  0  0  0  0  0  0  0  0  0  0  0
  145.6098  139.2972  156.0626 H   0  0  0  0  0  0  0  0  0  0  0  0
  148.4017  139.1516  156.9329 H   0  0  0  0  0  0  0  0  0  0  0  0
  147.3630  137.8474  156.3878 H   0  0  0  0  0  0  0  0  0  0  0  0
  149.0321  137.9622  154.5607 H   0  0  0  0  0  0  0  0  0  0  0  0
  149.6275  140.0502  153.4786 H   0  0  0  0  0  0  0  0  0  0  0  0
  150.2459  141.6528  155.6115 H   0  0  0  0  0  0  0  0  0  0  0  0
  150.0022  140.1238  156.4466 H   0  0  0  0  0  0  0  0  0  0  0  0
  151.5597  139.2085  155.2217 H   0  0  0  0  0  0  0  0  0  0  0  0
  147.9794  141.6069  153.3198 H   0  0  0  0  0  0  0  0  0  0  0  0
  147.9389  141.9139  155.0557 H   0  0  0  0  0  0  0  0  0  0  0  0
  144.7156  135.7309  155.3856 H   0  0  0  0  0  0  0  0  0  0  0  0
  1  2  1  0  0  0  0
  1 27  1  0  0  0  0
  1 28  1  0  0  0  0
  1 29  1  0  0  0  0
  2  6  1  0  0  0  0
  2  3  1  0  0  0  0
  2 30  1  0  0  0  0
  3  4  1  0  0  0  0
  4  5  1  0  0  0  0
  4 31  1  0  0  0  0
  4 32  1  0  0  0  0
  5  6  1  0  0  0  0
  5 33  1  0  0  0  0
  5 34  1  0  0  0  0
  6  7  1  0  0  0  0
  6  8  1  0  0  0  0
  7 35  1  0  0  0  0
  8  9  1  0  0  0  0
  8 36  1  0  0  0  0
  8 37  1  0  0  0  0
  9 26  1  0  0  0  0
  9 10  1  0  0  0  0
 10 11  2  0  0  0  0
 10 38  1  0  0  0  0
 11 12  1  0  0  0  0
 12 26  2  0  0  0  0
 12 13  1  0  0  0  0
 13 14  1  0  0  0  0
 13 23  2  0  0  0  0
 14 18  1  0  0  0  0
 14 15  1  0  0  0  0
 15 22  1  0  0  0  0
 15 16  1  0  0  0  0
 15 39  1  0  0  0  0
 16 17  1  0  0  0  0
 16 40  1  0  0  0  0
 16 41  1  0  0  0  0
 17 18  1  0  0  0  0
 17 42  1  0  0  0  0
 17 43  1  0  0  0  0
 18 19  1  0  0  0  0
 18 44  1  0  0  0  0
 19 20  1  0  0  0  0
 19 22  1  0  0  0  0
 19 45  1  0  0  0  0
 20 21  1  0  0  0  0
 20 46  1  0  0  0  0
 20 47  1  0  0  0  0
 21 48  1  0  0  0  0
 22 49  1  0  0  0  0
 22 50  1  0  0  0  0
 23 24  1  0  0  0  0
 24 25  2  0  0  0  0
 24 51  1  0  0  0  0
 25 26  1  0  0  0  0
M  END
> <s_m_source_file>
AV-unprocessed.smi

> <i_m_source_file_index>
199

> <i_lp_mmshare_version>
43012

> <i_f3d_flags>
0

> <s_epik_input>
W0NIMl0xW0NIMl1PW0NAQEhdKFtDSDNdKVtDQEBdMShbT0hdKVtDSDJdbihbY0hdbjIpYyhjMjMpbltjSF1uYzNOKFtDQEBIXTQ1KVtDQEhdKFtDSDJdW0NIMl00KVtDQEhdKFtDSDJdNSlbQ0gyXVtPSF0=

> <s_epik_cmdline>
J2VwaWtfcHl0aG9uJywgJy1waCcsICc3LjAnLCAnLXRuJywgJzgnLCAnLW1hJywgJzIwMCcsICctbWV0YWxfYmluZGluZycsICctaW1hZScsICc8aW5maWxlLm1hZT4nLCAnLW9tYWUnLCAnPG91dGZpbGUubWFlPic=

> <r_lp_tautomer_probability>
1

> <r_epik_Ionization_Penalty>
0.00583903

> <r_epik_Ionization_Penalty_Charging>
0

> <r_epik_Ionization_Penalty_Neutral>
0.00583903

> <r_epik_State_Penalty>
-0

> <r_epik_Charging_Adjusted_Penalty>
0

> <i_epik_Tot_Q>
0

> <i_epik_Tot_abs_Q>
0

> <r_epik_Metal_State_Penalty>
-0

> <b_epik_Metal_Only>
0

> <s_lp_Force_Field>
OPLS_2005

> <r_lp_Energy>
83.953

> <b_lp_Chiralities_Consistent>
1

> <s_lp_Variant>
AV-unprocessed.smi:199-9

> <Gold.Version>
5.8.1

> <Gold.Id.Protein>
6NUR|6NUR_protein|mol2

> <Gold.PLP.Fitness>
43.3962

> <Gold.PLP.PLP>
-35.4256

> <Gold.PLP.part.hbond>
-3.9277

> <Gold.PLP.part.metal>
0.0000

> <Gold.PLP.part.buried>
1.8040

> <Gold.PLP.part.nonpolar>
-36.4379

> <Gold.PLP.part.repulsive>
2.7052

> <Gold.PLP.ligand.clash>
0.0000

> <Gold.PLP.ligand.torsion>
1.3096

> <Gold.PLP.Chemscore.Hbond>
2.5260

> <Gold.PLP.Chemscore.CHOScore>
1.0000

> <Gold.PLP.Chemscore.Metal>
0.0000

> <Gold.Chemscore.Hbonds>
donor molecule, donor type, donor heavy atom, donor atom, acceptor molecule, acceptor atom, score
      P1  H  7954  7966       L1    11  0.85
      P1  H  7989  7998       L1    21  1.00
      P1  H 10785 10796       L1     3  0.53
      L1  C    10    38       P1  7921  0.87

> <Gold.PLP.Chemscore.Internal.Correction>
0.0118

> <Gold.Rescore>
     Score         DG    S(hbond)    S(metal)    S(lipo)     H(rot)  DE(clash)    DE(int)     intcor
      4.70     -13.49       1.46        0.00      94.05       3.07       4.80       3.99       ----

> <Gold.Chemscore.Fitness>
4.7039

> <Gold.Chemscore.DG>
-13.4910

> <Gold.Chemscore.ZeroCoef>
-5.4800

> <Gold.Chemscore.Hbond>
1.4593

> <Gold.Chemscore.Metal>
0.0000

> <Gold.Chemscore.Lipo>
94.0485

> <Gold.Chemscore.Internal_Hbond>
0.0000

> <Gold.Chemscore.DEClash>
4.8002

> <Gold.Chemscore.DEInternal>
3.9870

> <Gold.Chemscore.Rot>
3.0729

> <Gold.Chemscore.Internal.Correction>
   9.000000E+99

> <Gold.Chemscore.Hbonds>
donor molecule, donor type, donor heavy atom, donor atom, acceptor molecule, acceptor atom, score
      P1  H  7954  7966       L1    11  0.14
      P1  H  7989  7998       L1    21  0.38
      P1  H 10785 10796       L1     3  0.36

> <Gold.Chemscore.Hbond.Weighted>
-4.8741

> <Gold.Chemscore.Metal.Weighted>
-0.0000

> <Gold.Chemscore.Lipo.Weighted>
-11.0037

> <Gold.Chemscore.Internal_Hbond.Weighted>
0.0000

> <Gold.Chemscore.DEClash.Weighted>
4.8002

> <Gold.Chemscore.DEInternal.Weighted>
3.9870

> <Gold.Chemscore.Rot.Weighted>
7.8667

> <Gold.Chemscore.Internal.Correction.Weighted>
   9.000000E+99

> <Gold.Protein.RotatedTorsions>
[ 6907 6896 6895 6894 ] final  -85.46 input  -60.11 | X-H torsion
[ 7974 7965 7964 7962 ] final  -63.05 input  175.53 | X-H torsion
[ 8008 7997 7996 7995 ] final -130.89 input   59.86 | X-H torsion
[ 10167 10162 10161 10158 ] final   86.03 input  -65.29 | X-H torsion
[ 10718 10713 10712 10709 ] final   56.78 input   66.30 | X-H torsion
[ 10763 10752 10751 10750 ] final  -55.39 input  -60.55 | X-H torsion
[ 11005 11000 10999 10996 ] final  162.73 input  -57.11 | X-H torsion

> <Gold.Protein.ActiveResidues>
 VAL166  LYS551  ARG553  GLY616  TRP617  ASP618  TYR619  PRO620  LYS621  CYS622 
 ASP623  PHE694  ASN695  SER759  ASP760  ASP761  ALA762  ILE779  LEU786  VAL792 
 PHE793  MET794  SER795  GLU796  ALA797  LYS798  CYS799  TRP800  GLU811  SER814 

> <Gold.Protein.RotatedAtoms>
  150.6870  134.3201  159.4782 H   0  0  0  0  0  0  0  0  0  0  0  0  # atno 6907 bound_to 6896
  152.1077  134.9294  160.0577 H   0  0  0  0  0  0  0  0  0  0  0  0  # atno 6908 bound_to 6896
  152.0548  133.4000  159.4429 H   0  0  0  0  0  0  0  0  0  0  0  0  # atno 6909 bound_to 6896
  145.7839  140.8747  143.0316 H   0  0  0  0  0  0  0  0  0  0  0  0  # atno 7974 bound_to 7965
  155.3032  140.0454  157.3030 H   0  0  0  0  0  0  0  0  0  0  0  0  # atno 8008 bound_to 7997
  154.5475  140.2307  155.8506 H   0  0  0  0  0  0  0  0  0  0  0  0  # atno 8009 bound_to 7997
  156.1937  140.3044  155.9390 H   0  0  0  0  0  0  0  0  0  0  0  0  # atno 8010 bound_to 7997
  139.8916  144.6382  150.8732 H   0  0  0  0  0  0  0  0  0  0  0  0  # atno 10167 bound_to 10162
  157.5460  130.8731  149.8892 H   0  0  0  0  0  0  0  0  0  0  0  0  # atno 10718 bound_to 10713
  154.1901  135.6429  153.5057 H   0  0  0  0  0  0  0  0  0  0  0  0  # atno 10763 bound_to 10752
  153.0037  135.5426  154.6424 H   0  0  0  0  0  0  0  0  0  0  0  0  # atno 10764 bound_to 10752
  154.5811  135.2925  155.0705 H   0  0  0  0  0  0  0  0  0  0  0  0  # atno 10765 bound_to 10752
  140.2287  134.8140  157.3295 H   0  0  0  0  0  0  0  0  0  0  0  0  # atno 11005 bound_to 11000
  144.6792  140.0027  143.7484 LP  0  0  0  0  0  0  0  0  0  0  0  0  # atno 17320 bound_to 7965
  146.0046  139.3119  143.0907 LP  0  0  0  0  0  0  0  0  0  0  0  0  # atno 17321 bound_to 7965
  140.7725  143.3505  151.2023 LP  0  0  0  0  0  0  0  0  0  0  0  0  # atno 17342 bound_to 10162
  139.7104  143.9386  152.2945 LP  0  0  0  0  0  0  0  0  0  0  0  0  # atno 17343 bound_to 10162
  156.0536  130.3713  150.1143 LP  0  0  0  0  0  0  0  0  0  0  0  0  # atno 17370 bound_to 10713
  156.9320  130.9717  151.3531 LP  0  0  0  0  0  0  0  0  0  0  0  0  # atno 17371 bound_to 10713
  140.1773  134.4534  155.7794 LP  0  0  0  0  0  0  0  0  0  0  0  0  # atno 17394 bound_to 11000
  141.2219  133.6968  156.7809 LP  0  0  0  0  0  0  0  0  0  0  0  0  # atno 17395 bound_to 11000

$$$$
