AV-unprocessed.smi:189|AV-procd|sdf|1489|dock3
  -GOLD-   2262019303D 1   1.00000     0.00000
 Structure written by MMmdl.
 53 57  0  0  0  0  0  0  0  0  1 V2000
  150.8971  138.8962  154.4389 C   0  0  0  0  0  0  0  0  0  0  0  0
  149.4102  139.2808  154.5681 C   0  0  2  0  0  0  0  0  0  0  0  0
  148.9117  140.3143  153.5509 C   0  0  0  0  0  0  0  0  0  0  0  0
  147.5942  140.8025  154.1709 C   0  0  2  0  0  0  0  0  0  0  0  0
  147.3455  142.3171  154.0625 C   0  0  0  0  0  0  0  0  0  0  0  0
  146.0636  142.7478  154.8085 C   0  0  0  0  0  0  0  0  0  0  0  0
  145.8083  141.9688  156.1198 C   0  0  0  0  0  0  0  0  0  0  0  0
  147.0855  141.3192  156.6719 C   0  0  0  0  0  0  0  0  0  0  0  0
  147.6491  140.3130  155.6363 C   0  0  2  0  0  0  0  0  0  0  0  0
  148.9958  139.7859  155.8780 N   0  0  0  0  0  0  0  0  0  0  0  0
  149.8729  140.5775  156.5457 C   0  0  0  0  0  0  0  0  0  0  0  0
  150.0233  141.8901  156.2233 N   0  0  0  0  0  0  0  0  0  0  0  0
  150.8964  142.6479  156.8933 C   0  0  0  0  0  0  0  0  0  0  0  0
  151.7067  142.3001  157.8954 N   0  0  0  0  0  0  0  0  0  0  0  0
  151.5587  140.9828  158.2178 C   0  0  0  0  0  0  0  0  0  0  0  0
  150.6659  140.0619  157.6029 C   0  0  0  0  0  0  0  0  0  0  0  0
  150.7799  138.8131  158.1991 N   0  0  0  0  0  0  0  0  0  0  0  0
  151.6957  138.9838  159.1132 C   0  0  0  0  0  0  0  0  0  0  0  0
  152.2285  140.2520  159.1836 N   0  0  0  0  0  0  0  0  0  0  0  0
  153.2707  140.7090  160.0894 C   0  0  0  0  0  0  0  0  0  0  0  0
  154.4166  139.6854  160.2693 C   0  0  2  0  0  0  0  0  0  0  0  0
  154.9549  139.3675  158.9976 O   0  0  0  0  0  0  0  0  0  0  0  0
  153.9946  138.3866  160.9515 C   0  0  0  0  0  0  0  0  0  0  0  0
  155.2471  137.9807  161.7149 C   0  0  0  0  0  0  0  0  0  0  0  0
  155.7297  139.2241  162.1937 O   0  0  0  0  0  0  0  0  0  0  0  0
  155.5596  140.1978  161.1683 C   0  0  0  0  0  0  0  0  0  0  0  0
  151.0885  138.4220  153.4763 H   0  0  0  0  0  0  0  0  0  0  0  0
  151.1878  138.1902  155.2174 H   0  0  0  0  0  0  0  0  0  0  0  0
  151.5553  139.7625  154.5087 H   0  0  0  0  0  0  0  0  0  0  0  0
  148.8374  138.3644  154.4159 H   0  0  0  0  0  0  0  0  0  0  0  0
  149.6238  141.1347  153.4574 H   0  0  0  0  0  0  0  0  0  0  0  0
  148.7727  139.8859  152.5580 H   0  0  0  0  0  0  0  0  0  0  0  0
  146.7679  140.2881  153.6779 H   0  0  0  0  0  0  0  0  0  0  0  0
  148.1966  142.8503  154.4876 H   0  0  0  0  0  0  0  0  0  0  0  0
  147.2909  142.6219  153.0171 H   0  0  0  0  0  0  0  0  0  0  0  0
  146.1276  143.8153  155.0216 H   0  0  0  0  0  0  0  0  0  0  0  0
  145.1993  142.6258  154.1548 H   0  0  0  0  0  0  0  0  0  0  0  0
  145.3644  142.6300  156.8646 H   0  0  0  0  0  0  0  0  0  0  0  0
  145.0719  141.1854  155.9352 H   0  0  0  0  0  0  0  0  0  0  0  0
  147.7923  142.1172  156.8978 H   0  0  0  0  0  0  0  0  0  0  0  0
  146.8821  140.8107  157.6145 H   0  0  0  0  0  0  0  0  0  0  0  0
  147.0008  139.4370  155.6917 H   0  0  0  0  0  0  0  0  0  0  0  0
  150.9561  143.6796  156.5799 H   0  0  0  0  0  0  0  0  0  0  0  0
  152.0162  138.1801  159.7599 H   0  0  0  0  0  0  0  0  0  0  0  0
  153.6619  141.6577  159.7198 H   0  0  0  0  0  0  0  0  0  0  0  0
  152.8070  140.9240  161.0532 H   0  0  0  0  0  0  0  0  0  0  0  0
  154.8295  138.4442  158.8404 H   0  0  0  0  0  0  0  0  0  0  0  0
  153.1962  138.5789  161.6693 H   0  0  0  0  0  0  0  0  0  0  0  0
  153.6425  137.6191  160.2607 H   0  0  0  0  0  0  0  0  0  0  0  0
  155.0393  137.2866  162.5295 H   0  0  0  0  0  0  0  0  0  0  0  0
  155.9848  137.5279  161.0502 H   0  0  0  0  0  0  0  0  0  0  0  0
  156.4946  140.3138  160.6177 H   0  0  0  0  0  0  0  0  0  0  0  0
  155.3300  141.1610  161.6252 H   0  0  0  0  0  0  0  0  0  0  0  0
  1  2  1  0  0  0  0
  1 27  1  0  0  0  0
  1 28  1  0  0  0  0
  1 29  1  0  0  0  0
  2 10  1  0  0  0  0
  2  3  1  0  0  0  0
  2 30  1  0  0  0  0
  3  4  1  0  0  0  0
  3 31  1  0  0  0  0
  3 32  1  0  0  0  0
  4  9  1  0  0  0  0
  4  5  1  0  0  0  0
  4 33  1  0  0  0  0
  5  6  1  0  0  0  0
  5 34  1  0  0  0  0
  5 35  1  0  0  0  0
  6  7  1  0  0  0  0
  6 36  1  0  0  0  0
  6 37  1  0  0  0  0
  7  8  1  0  0  0  0
  7 38  1  0  0  0  0
  7 39  1  0  0  0  0
  8  9  1  0  0  0  0
  8 40  1  0  0  0  0
  8 41  1  0  0  0  0
  9 10  1  0  0  0  0
  9 42  1  0  0  0  0
 10 11  1  0  0  0  0
 11 16  1  0  0  0  0
 11 12  2  0  0  0  0
 12 13  1  0  0  0  0
 13 14  2  0  0  0  0
 13 43  1  0  0  0  0
 14 15  1  0  0  0  0
 15 19  1  0  0  0  0
 15 16  2  0  0  0  0
 16 17  1  0  0  0  0
 17 18  2  0  0  0  0
 18 19  1  0  0  0  0
 18 44  1  0  0  0  0
 19 20  1  0  0  0  0
 20 21  1  0  0  0  0
 20 45  1  0  0  0  0
 20 46  1  0  0  0  0
 21 26  1  0  0  0  0
 21 22  1  0  0  0  0
 21 23  1  0  0  0  0
 22 47  1  0  0  0  0
 23 24  1  0  0  0  0
 23 48  1  0  0  0  0
 23 49  1  0  0  0  0
 24 25  1  0  0  0  0
 24 50  1  0  0  0  0
 24 51  1  0  0  0  0
 25 26  1  0  0  0  0
 26 52  1  0  0  0  0
 26 53  1  0  0  0  0
M  END
> <s_m_source_file>
AV-unprocessed.smi

> <i_m_source_file_index>
189

> <i_lp_mmshare_version>
43012

> <i_f3d_flags>
0

> <s_epik_input>
W0NIMl0xW0NIMl1bQ0gyXVtDSDJdW0NASF0oW0NASF0xMilOKFtDQEhdKFtDSDNdKVtDSDJdMiljKG5bY0hdbjMpYyhjMzQpbltjSF1uNFtDSDJdW0NAQF01KFtPSF0pW0NIMl1bQ0gyXU9bQ0gyXTU=

> <s_epik_cmdline>
J2VwaWtfcHl0aG9uJywgJy1waCcsICc3LjAnLCAnLXRuJywgJzgnLCAnLW1hJywgJzIwMCcsICctbWV0YWxfYmluZGluZycsICctaW1hZScsICc8aW5maWxlLm1hZT4nLCAnLW9tYWUnLCAnPG91dGZpbGUubWFlPic=

> <r_lp_tautomer_probability>
1

> <r_epik_Ionization_Penalty>
0.00594261

> <r_epik_Ionization_Penalty_Charging>
0

> <r_epik_Ionization_Penalty_Neutral>
0.00594261

> <r_epik_State_Penalty>
0.00429776

> <r_epik_Charging_Adjusted_Penalty>
0.00429776

> <i_epik_Tot_Q>
0

> <i_epik_Tot_abs_Q>
0

> <r_epik_Metal_State_Penalty>
-0

> <b_epik_Metal_Only>
0

> <s_lp_Force_Field>
OPLS_2005

> <r_lp_Energy>
67.2452

> <b_lp_Chiralities_Consistent>
1

> <s_lp_Variant>
AV-unprocessed.smi:189-15

> <Gold.Version>
5.8.1

> <Gold.Id.Protein>
6NUR|6NUR_protein|mol2

> <Gold.PLP.Fitness>
39.2768

> <Gold.PLP.PLP>
-35.3987

> <Gold.PLP.part.hbond>
-1.0000

> <Gold.PLP.part.metal>
0.0000

> <Gold.PLP.part.buried>
-0.4215

> <Gold.PLP.part.nonpolar>
-33.4861

> <Gold.PLP.part.repulsive>
0.1499

> <Gold.PLP.ligand.clash>
0.0000

> <Gold.PLP.ligand.torsion>
0.7041

> <Gold.PLP.Chemscore.Hbond>
1.0000

> <Gold.PLP.Chemscore.CHOScore>
0.7504

> <Gold.PLP.Chemscore.Metal>
0.0000

> <Gold.Chemscore.Hbonds>
donor molecule, donor type, donor heavy atom, donor atom, acceptor molecule, acceptor atom, score
      P1  H  7997  8008       L1    22  1.00
      L1  C    13    43       P1  8028  0.77

> <Gold.PLP.Chemscore.Internal.Correction>
0.0351

> <Gold.Rescore>
     Score         DG    S(hbond)    S(metal)    S(lipo)     H(rot)  DE(clash)    DE(int)     intcor
     11.34     -11.92       0.99        0.00      71.23       2.03       0.03       0.54       ----

> <Gold.Chemscore.Fitness>
11.3447

> <Gold.Chemscore.DG>
-11.9210

> <Gold.Chemscore.ZeroCoef>
-5.4800

> <Gold.Chemscore.Hbond>
0.9891

> <Gold.Chemscore.Metal>
0.0000

> <Gold.Chemscore.Lipo>
71.2264

> <Gold.Chemscore.Internal_Hbond>
0.0000

> <Gold.Chemscore.DEClash>
0.0329

> <Gold.Chemscore.DEInternal>
0.5433

> <Gold.Chemscore.Rot>
2.0297

> <Gold.Chemscore.Internal.Correction>
   9.000000E+99

> <Gold.Chemscore.Hbonds>
donor molecule, donor type, donor heavy atom, donor atom, acceptor molecule, acceptor atom, score
      P1  H  7997  8008       L1    22  0.35

> <Gold.Chemscore.Hbond.Weighted>
-3.3035

> <Gold.Chemscore.Metal.Weighted>
-0.0000

> <Gold.Chemscore.Lipo.Weighted>
-8.3335

> <Gold.Chemscore.Internal_Hbond.Weighted>
0.0000

> <Gold.Chemscore.DEClash.Weighted>
0.0329

> <Gold.Chemscore.DEInternal.Weighted>
0.5433

> <Gold.Chemscore.Rot.Weighted>
5.1960

> <Gold.Chemscore.Internal.Correction.Weighted>
   9.000000E+99

> <Gold.Protein.RotatedTorsions>
[ 6907 6896 6895 6894 ] final -179.71 input  -60.11 | X-H torsion
[ 7974 7965 7964 7962 ] final  142.80 input  175.53 | X-H torsion
[ 8008 7997 7996 7995 ] final -121.06 input   59.86 | X-H torsion
[ 10167 10162 10161 10158 ] final   28.20 input  -65.29 | X-H torsion
[ 10718 10713 10712 10709 ] final  -20.56 input   66.30 | X-H torsion
[ 10763 10752 10751 10750 ] final   36.81 input  -60.55 | X-H torsion
[ 11005 11000 10999 10996 ] final  137.97 input  -57.11 | X-H torsion

> <Gold.Protein.ActiveResidues>
 VAL166  LYS551  ARG553  GLY616  TRP617  ASP618  TYR619  PRO620  LYS621  CYS622 
 ASP623  PHE694  ASN695  SER759  ASP760  ASP761  ALA762  ILE779  LEU786  VAL792 
 PHE793  MET794  SER795  GLU796  ALA797  LYS798  CYS799  TRP800  GLU811  SER814 

> <Gold.Protein.RotatedAtoms>
  151.6578  133.3318  159.3166 H   0  0  0  0  0  0  0  0  0  0  0  0  # atno 6907 bound_to 6896
  150.7928  134.6969  159.6537 H   0  0  0  0  0  0  0  0  0  0  0  0  # atno 6908 bound_to 6896
  152.4011  134.6289  160.0122 H   0  0  0  0  0  0  0  0  0  0  0  0  # atno 6909 bound_to 6896
  144.8976  139.5469  143.5769 H   0  0  0  0  0  0  0  0  0  0  0  0  # atno 7974 bound_to 7965
  155.1418  140.0402  157.2800 H   0  0  0  0  0  0  0  0  0  0  0  0  # atno 8008 bound_to 7997
  154.6467  140.2559  155.7233 H   0  0  0  0  0  0  0  0  0  0  0  0  # atno 8009 bound_to 7997
  156.2558  140.2844  156.0884 H   0  0  0  0  0  0  0  0  0  0  0  0  # atno 8010 bound_to 7997
  140.4873  144.0522  150.6285 H   0  0  0  0  0  0  0  0  0  0  0  0  # atno 10167 bound_to 10162
  156.5301  130.4653  149.6551 H   0  0  0  0  0  0  0  0  0  0  0  0  # atno 10718 bound_to 10713
  153.0062  135.6295  154.2044 H   0  0  0  0  0  0  0  0  0  0  0  0  # atno 10763 bound_to 10752
  154.1788  135.2814  155.3060 H   0  0  0  0  0  0  0  0  0  0  0  0  # atno 10764 bound_to 10752
  154.5851  135.5635  153.7283 H   0  0  0  0  0  0  0  0  0  0  0  0  # atno 10765 bound_to 10752
  140.0151  134.9422  157.0359 H   0  0  0  0  0  0  0  0  0  0  0  0  # atno 11005 bound_to 11000
  146.3090  139.7679  142.9034 LP  0  0  0  0  0  0  0  0  0  0  0  0  # atno 17320 bound_to 7965
  145.3673  141.0336  143.3251 LP  0  0  0  0  0  0  0  0  0  0  0  0  # atno 17321 bound_to 7965
  140.3781  143.2817  152.0201 LP  0  0  0  0  0  0  0  0  0  0  0  0  # atno 17342 bound_to 10162
  139.4844  144.6176  151.7316 LP  0  0  0  0  0  0  0  0  0  0  0  0  # atno 17343 bound_to 10162
  156.3068  130.7207  151.2091 LP  0  0  0  0  0  0  0  0  0  0  0  0  # atno 17370 bound_to 10713
  157.7423  131.0492  150.5034 LP  0  0  0  0  0  0  0  0  0  0  0  0  # atno 17371 bound_to 10713
  140.4485  134.1607  155.7179 LP  0  0  0  0  0  0  0  0  0  0  0  0  # atno 17394 bound_to 11000
  141.1737  133.8557  157.1489 LP  0  0  0  0  0  0  0  0  0  0  0  0  # atno 17395 bound_to 11000

$$$$
