#       Name:                AV-unprocessed.smi:3031
#       Creating user name   scv26
#       Creation time:       Fri Mar 27 16:50:51 2020


#       File generated by GOLD software.
#

@<TRIPOS>MOLECULE
AV-unprocessed.smi:3031
    53    54     1
SMALL
NO_CHARGES


@<TRIPOS>ATOM
      1 ****        -7.2875   0.9583  -1.5184 C.3            1 S1                 0.0000
      2 ****        -6.1259   0.1184  -1.0712 C.2            1 S1                 0.0000
      3 ****        -6.1493  -1.2210  -0.5880 C.2            1 S1                 0.0000
      4 ****        -4.9466  -1.6764  -0.2772 N.2            1 S1                 0.0000
      5 ****        -4.1160  -0.6474  -0.5479 N.pl3          1 S1                 0.0000
      6 ****        -2.6887  -0.7924  -0.3250 C.3            1 S1                 0.0000
      7 ****        -2.2089  -0.1286   0.9874 C.3            1 S1                 0.0000
      8 ****        -2.9946  -0.6062   2.2207 C.3            1 S1                 0.0000
      9 ****        -0.7660  -0.3743   1.2086 N.4            1 S1                 1.0000
     10 ****         0.1541   0.4077   0.3529 C.3            1 S1                 0.0000
     11 ****         1.6247   0.1016   0.6890 C.3            1 S1                 0.0000
     12 ****         1.9071   0.6127   1.9777 O.3            1 S1                 0.0000
     13 ****         2.5955   0.7547  -0.3173 C.3            1 S1                 0.0000
     14 ****         4.0047   0.3286  -0.1149 N.4            1 S1                 1.0000
     15 ****         4.3002  -1.0229  -0.6538 C.3            1 S1                 0.0000
     16 ****         5.7637  -1.4065  -0.3750 C.3            1 S1                 0.0000
     17 ****         6.6283  -0.4273  -0.9363 O.3            1 S1                 0.0000
     18 ****         6.4188   0.8574  -0.3642 C.3            1 S1                 0.0000
     19 ****         4.9769   1.3168  -0.6411 C.3            1 S1                 0.0000
     20 ****        -4.8007   0.4477  -1.0307 C.2            1 S1                 0.0000
     21 ****        -8.2422   0.4765  -1.3061 H              1 S1                 0.0000
     22 ****        -7.2560   1.1484  -2.5914 H              1 S1                 0.0000
     23 ****        -7.2996   1.9272  -1.0192 H              1 S1                 0.0000
     24 ****        -7.0006  -1.8725  -0.4558 H              1 S1                 0.0000
     25 ****        -2.4421  -1.8557  -0.3211 H              1 S1                 0.0000
     26 ****        -2.1791  -0.3613  -1.1866 H              1 S1                 0.0000
     27 ****        -2.3579   0.9496   0.9099 H              1 S1                 0.0000
     28 ****        -4.0499  -0.3413   2.1531 H              1 S1                 0.0000
     29 ****        -2.6093  -0.1494   3.1329 H              1 S1                 0.0000
     30 ****        -2.9299  -1.6885   2.3376 H              1 S1                 0.0000
     31 ****        -0.5589  -0.1299   2.1669 H              1 S1                 0.0000
     32 ****        -0.0327   0.1532  -0.6901 H              1 S1                 0.0000
     33 ****        -0.0504   1.4741   0.4619 H              1 S1                 0.0000
     34 ****         1.7629  -0.9793   0.7021 H              1 S1                 0.0000
     35 ****         1.7839   1.5504   1.9698 H              1 S1                 0.0000
     36 ****         2.2999   0.5232  -1.3420 H              1 S1                 0.0000
     37 ****         2.5190   1.8393  -0.2207 H              1 S1                 0.0000
     38 ****         3.6430  -1.7677  -0.2067 H              1 S1                 0.0000
     39 ****         4.1139  -1.0379  -1.7290 H              1 S1                 0.0000
     40 ****         5.9454  -1.5008   0.6969 H              1 S1                 0.0000
     41 ****         5.9897  -2.3745  -0.8226 H              1 S1                 0.0000
     42 ****         6.6207   0.8294   0.7078 H              1 S1                 0.0000
     43 ****         7.1276   1.5594  -0.8035 H              1 S1                 0.0000
     44 ****         4.8248   1.4445  -1.7141 H              1 S1                 0.0000
     45 ****         4.8079   2.2881  -0.1746 H              1 S1                 0.0000
     46 ****        -4.2947   1.3623  -1.3024 H              1 S1                 0.0000
     47 ****        -0.5818  -1.3599   1.0872 H              1 S1                 0.0000
     48 ****         4.1551   0.2910   0.8836 H              1 S1                 0.0000
     49 ****        -4.7068  -2.5798   0.0783 LP             1 S1                 0.0000
     50 ****         2.8531   0.4007   2.2229 LP             1 S1                 0.0000
     51 ****         1.2888   0.1987   2.6458 LP             1 S1                 0.0000
     52 ****         6.4601  -0.3739  -1.9206 LP             1 S1                 0.0000
     53 ****         7.5761  -0.7023  -0.7745 LP             1 S1                 0.0000
@<TRIPOS>BOND
    1    1    2 1     
    2    1   21 1     
    3    1   22 1     
    4    1   23 1     
    5    2   20 2     
    6    2    3 1     
    7    3    4 2     
    8    3   24 1     
    9    4    5 1     
   10    5    6 1     
   11    5   20 1     
   12    6    7 1     
   13    6   25 1     
   14    6   26 1     
   15    7    8 1     
   16    7    9 1     
   17    7   27 1     
   18    8   28 1     
   19    8   29 1     
   20    8   30 1     
   21    9   10 1     
   22    9   31 1     
   23    9   47 1     
   24   10   11 1     
   25   10   32 1     
   26   10   33 1     
   27   11   12 1     
   28   11   13 1     
   29   11   34 1     
   30   12   35 1     
   31   13   14 1     
   32   13   36 1     
   33   13   37 1     
   34   14   19 1     
   35   14   15 1     
   36   14   48 1     
   37   15   16 1     
   38   15   38 1     
   39   15   39 1     
   40   16   17 1     
   41   16   40 1     
   42   16   41 1     
   43   17   18 1     
   44   18   19 1     
   45   18   42 1     
   46   18   43 1     
   47   19   44 1     
   48   19   45 1     
   49   20   46 1     
   50    4   49 1     
   51   12   50 1     
   52   12   51 1     
   53   17   52 1     
   54   17   53 1     
@<TRIPOS>SUBSTRUCTURE
      1 S1             1
@<TRIPOS>SET
LONE_PAIRS      STATIC     ATOMS    <user>   **** ""
5 49 50 51 52 53
DONOR_HYDROGENS      STATIC     ATOMS    <user>   **** ""
4 31 47 35 48
ATOM$BLUE        STATIC     ATOMS    COLORGROUP SYSTEM
5 49 50 51 52 53
ATOM$RED        STATIC     ATOMS    COLORGROUP SYSTEM
4 31 47 35 48
