AV-unprocessed.smi:2329|AV-procd|sdf|9309|dock5
  -GOLD-   2272012523D 1   1.00000     0.00000
 Structure written by MMmdl.
 45 48  0  0  0  0  0  0  0  0  1 V2000
  153.6840  141.3542  160.7412 C   0  0  0  0  0  0  0  0  0  0  0  0
  152.7923  142.4888  160.2820 C   0  0  0  0  0  0  0  0  0  0  0  0
  152.6504  143.6582  161.0546 C   0  0  0  0  0  0  0  0  0  0  0  0
  151.8063  144.6738  160.5712 C   0  0  0  0  0  0  0  0  0  0  0  0
  151.1436  144.4798  159.3442 C   0  0  0  0  0  0  0  0  0  0  0  0
  151.3415  143.2766  158.6305 C   0  0  0  0  0  0  0  0  0  0  0  0
  150.6222  143.1776  157.4116 N   0  0  0  0  0  0  0  0  0  0  0  0
  150.4653  142.1025  156.6151 C   0  0  0  0  0  0  0  0  0  0  0  0
  151.0357  141.0242  156.7700 O   0  0  0  0  0  0  0  0  0  0  0  0
  149.6156  142.3017  155.5923 N   0  0  0  0  0  0  0  0  0  0  0  0
  149.2277  141.3461  154.5534 C   0  0  1  0  0  0  0  0  0  0  0  0
  149.1677  139.9136  155.0858 C   0  0  2  0  0  0  0  0  0  0  0  0
  149.9711  138.6835  154.8542 C   0  0  0  0  0  0  0  0  0  0  0  0
  148.7947  137.6938  154.6424 C   0  0  0  0  0  0  0  0  0  0  0  0
  147.6038  138.5104  154.5334 O   0  0  0  0  0  0  0  0  0  0  0  0
  148.0847  139.7446  154.0414 C   0  0  1  0  0  0  0  0  0  0  0  0
  147.6688  141.1967  154.3497 C   0  0  0  0  0  0  0  0  0  0  0  0
  146.7069  141.4542  155.5231 C   0  0  0  0  0  0  0  0  0  0  0  0
  146.0541  142.8097  155.2712 C   0  0  0  0  0  0  0  0  0  0  0  0
  145.9454  142.9045  153.7534 C   0  0  0  0  0  0  0  0  0  0  0  0
  147.0351  141.9817  153.1938 C   0  0  0  0  0  0  0  0  0  0  0  0
  152.1576  142.3027  159.1046 N   0  0  0  0  0  0  0  0  0  0  0  0
  154.0810  141.5419  161.7392 H   0  0  0  0  0  0  0  0  0  0  0  0
  154.5239  141.2327  160.0566 H   0  0  0  0  0  0  0  0  0  0  0  0
  153.1250  140.4184  160.7689 H   0  0  0  0  0  0  0  0  0  0  0  0
  153.1727  143.7765  161.9926 H   0  0  0  0  0  0  0  0  0  0  0  0
  151.6682  145.5867  161.1315 H   0  0  0  0  0  0  0  0  0  0  0  0
  150.4907  145.2497  158.9590 H   0  0  0  0  0  0  0  0  0  0  0  0
  150.1190  144.0082  157.1373 H   0  0  0  0  0  0  0  0  0  0  0  0
  149.2102  143.2235  155.5158 H   0  0  0  0  0  0  0  0  0  0  0  0
  149.8015  141.4332  153.6259 H   0  0  0  0  0  0  0  0  0  0  0  0
  148.7701  139.9017  156.1054 H   0  0  0  0  0  0  0  0  0  0  0  0
  150.5993  138.7685  153.9664 H   0  0  0  0  0  0  0  0  0  0  0  0
  150.5943  138.4171  155.7082 H   0  0  0  0  0  0  0  0  0  0  0  0
  148.9389  137.1082  153.7335 H   0  0  0  0  0  0  0  0  0  0  0  0
  148.6880  137.0016  155.4779 H   0  0  0  0  0  0  0  0  0  0  0  0
  148.4644  139.6324  153.0192 H   0  0  0  0  0  0  0  0  0  0  0  0
  145.9366  140.6821  155.5442 H   0  0  0  0  0  0  0  0  0  0  0  0
  147.1912  141.4393  156.4995 H   0  0  0  0  0  0  0  0  0  0  0  0
  145.0894  142.9109  155.7695 H   0  0  0  0  0  0  0  0  0  0  0  0
  146.7018  143.6045  155.6420 H   0  0  0  0  0  0  0  0  0  0  0  0
  144.9657  142.5492  153.4319 H   0  0  0  0  0  0  0  0  0  0  0  0
  146.0535  143.9315  153.4024 H   0  0  0  0  0  0  0  0  0  0  0  0
  147.7844  142.5658  152.6600 H   0  0  0  0  0  0  0  0  0  0  0  0
  146.5986  141.3064  152.4570 H   0  0  0  0  0  0  0  0  0  0  0  0
  1  2  1  0  0  0  0
  1 23  1  0  0  0  0
  1 24  1  0  0  0  0
  1 25  1  0  0  0  0
  2 22  1  0  0  0  0
  2  3  2  0  0  0  0
  3  4  1  0  0  0  0
  3 26  1  0  0  0  0
  4  5  2  0  0  0  0
  4 27  1  0  0  0  0
  5  6  1  0  0  0  0
  5 28  1  0  0  0  0
  6  7  1  0  0  0  0
  6 22  2  0  0  0  0
  7  8  1  0  0  0  0
  7 29  1  0  0  0  0
  8  9  2  0  0  0  0
  8 10  1  0  0  0  0
 10 11  1  0  0  0  0
 10 30  1  0  0  0  0
 11 17  1  0  0  0  0
 11 12  1  0  0  0  0
 11 31  1  0  0  0  0
 12 16  1  0  0  0  0
 12 13  1  0  0  0  0
 12 32  1  0  0  0  0
 13 14  1  0  0  0  0
 13 33  1  0  0  0  0
 13 34  1  0  0  0  0
 14 15  1  0  0  0  0
 14 35  1  0  0  0  0
 14 36  1  0  0  0  0
 15 16  1  0  0  0  0
 16 17  1  0  0  0  0
 16 37  1  0  0  0  0
 17 21  1  0  0  0  0
 17 18  1  0  0  0  0
 18 19  1  0  0  0  0
 18 38  1  0  0  0  0
 18 39  1  0  0  0  0
 19 20  1  0  0  0  0
 19 40  1  0  0  0  0
 19 41  1  0  0  0  0
 20 21  1  0  0  0  0
 20 42  1  0  0  0  0
 20 43  1  0  0  0  0
 21 44  1  0  0  0  0
 21 45  1  0  0  0  0
M  END
> <s_m_source_file>
AV-unprocessed.smi

> <i_m_source_file_index>
2329

> <i_lp_mmshare_version>
43012

> <i_f3d_flags>
0

> <s_epik_input>
W0NIM11jMVtjSF1bY0hdW2NIXWMobjEpW05IXUMoPU8pW05IXVtDQEBIXTJbQ0BASF0oW0NIMl1bQ0gyXU8zKVtDQEhdM0MyNFtDSDJdW0NIMl1bQ0gyXVtDSDJdNA==

> <s_epik_cmdline>
J2VwaWtfcHl0aG9uJywgJy1waCcsICc3LjAnLCAnLXRuJywgJzgnLCAnLW1hJywgJzIwMCcsICctbWV0YWxfYmluZGluZycsICctaW1hZScsICc8aW5maWxlLm1hZT4nLCAnLW9tYWUnLCAnPG91dGZpbGUubWFlPic=

> <r_lp_tautomer_probability>
1

> <r_epik_Ionization_Penalty>
8.97002e-05

> <r_epik_Ionization_Penalty_Charging>
0

> <r_epik_Ionization_Penalty_Neutral>
8.97002e-05

> <r_epik_State_Penalty>
-0

> <r_epik_Charging_Adjusted_Penalty>
0

> <i_epik_Tot_Q>
0

> <i_epik_Tot_abs_Q>
0

> <r_epik_Metal_State_Penalty>
-0

> <b_epik_Metal_Only>
0

> <s_lp_Force_Field>
OPLS_2005

> <r_lp_Energy>
86.4026

> <b_lp_Chiralities_Consistent>
1

> <s_lp_Variant>
AV-unprocessed.smi:2329-8

> <Gold.Version>
5.8.1

> <Gold.Id.Protein>
6NUR|6NUR_protein|mol2

> <Gold.PLP.Fitness>
49.3859

> <Gold.PLP.PLP>
-44.0150

> <Gold.PLP.part.hbond>
-1.9747

> <Gold.PLP.part.metal>
0.0000

> <Gold.PLP.part.buried>
-6.9630

> <Gold.PLP.part.nonpolar>
-35.9027

> <Gold.PLP.part.repulsive>
0.3147

> <Gold.PLP.ligand.clash>
0.0215

> <Gold.PLP.ligand.torsion>
0.2391

> <Gold.PLP.Chemscore.Hbond>
1.8640

> <Gold.PLP.Chemscore.CHOScore>
0.0000

> <Gold.PLP.Chemscore.Metal>
0.0000

> <Gold.Chemscore.Hbonds>
donor molecule, donor type, donor heavy atom, donor atom, acceptor molecule, acceptor atom, score
      L1  H     7    29       P1  8028  0.84
      L1  H    10    30       P1  8028  1.00

> <Gold.PLP.Chemscore.Internal.Correction>
0.2787

> <Gold.Rescore>
     Score         DG    S(hbond)    S(metal)    S(lipo)     H(rot)  DE(clash)    DE(int)     intcor
     17.92     -20.94       1.67        0.00     106.25       1.00       0.01       3.01       ----

> <Gold.Chemscore.Fitness>
17.9185

> <Gold.Chemscore.DG>
-20.9372

> <Gold.Chemscore.ZeroCoef>
-5.4800

> <Gold.Chemscore.Hbond>
1.6723

> <Gold.Chemscore.Metal>
0.0000

> <Gold.Chemscore.Lipo>
106.2549

> <Gold.Chemscore.Internal_Hbond>
0.0000

> <Gold.Chemscore.DEClash>
0.0121

> <Gold.Chemscore.DEInternal>
3.0066

> <Gold.Chemscore.Rot>
1.0000

> <Gold.Chemscore.Internal.Correction>
   9.000000E+99

> <Gold.Chemscore.Hbonds>
donor molecule, donor type, donor heavy atom, donor atom, acceptor molecule, acceptor atom, score
      L1  H     7    29       P1  8028  0.72
      L1  H    10    30       P1  8028  0.93

> <Gold.Chemscore.Hbond.Weighted>
-5.5854

> <Gold.Chemscore.Metal.Weighted>
-0.0000

> <Gold.Chemscore.Lipo.Weighted>
-12.4318

> <Gold.Chemscore.Internal_Hbond.Weighted>
0.0000

> <Gold.Chemscore.DEClash.Weighted>
0.0121

> <Gold.Chemscore.DEInternal.Weighted>
3.0066

> <Gold.Chemscore.Rot.Weighted>
2.5600

> <Gold.Chemscore.Internal.Correction.Weighted>
   9.000000E+99

> <Gold.Protein.RotatedTorsions>
[ 6907 6896 6895 6894 ] final  160.41 input  -60.11 | X-H torsion
[ 7974 7965 7964 7962 ] final  -15.31 input  175.53 | X-H torsion
[ 8008 7997 7996 7995 ] final   49.38 input   59.86 | X-H torsion
[ 10167 10162 10161 10158 ] final  132.89 input  -65.29 | X-H torsion
[ 10718 10713 10712 10709 ] final   72.68 input   66.30 | X-H torsion
[ 10763 10752 10751 10750 ] final  102.57 input  -60.55 | X-H torsion
[ 11005 11000 10999 10996 ] final   27.27 input  -57.11 | X-H torsion

> <Gold.Protein.ActiveResidues>
 VAL166  LYS551  ARG553  GLY616  TRP617  ASP618  TYR619  PRO620  LYS621  CYS622 
 ASP623  PHE694  ASN695  SER759  ASP760  ASP761  ALA762  ILE779  LEU786  VAL792 
 PHE793  MET794  SER795  GLU796  ALA797  LYS798  CYS799  TRP800  GLU811  SER814 

> <Gold.Protein.RotatedAtoms>
  151.9711  133.3726  159.4071 H   0  0  0  0  0  0  0  0  0  0  0  0  # atno 6907 bound_to 6896
  150.6949  134.4139  159.5183 H   0  0  0  0  0  0  0  0  0  0  0  0  # atno 6908 bound_to 6896
  152.1843  134.8727  160.0574 H   0  0  0  0  0  0  0  0  0  0  0  0  # atno 6909 bound_to 6896
  146.2037  140.3474  142.8414 H   0  0  0  0  0  0  0  0  0  0  0  0  # atno 7974 bound_to 7965
  155.4013  140.3438  155.4257 H   0  0  0  0  0  0  0  0  0  0  0  0  # atno 8008 bound_to 7997
  156.1502  140.1568  156.8814 H   0  0  0  0  0  0  0  0  0  0  0  0  # atno 8009 bound_to 7997
  154.5046  140.0806  156.7848 H   0  0  0  0  0  0  0  0  0  0  0  0  # atno 8010 bound_to 7997
  139.5320  144.6641  151.4917 H   0  0  0  0  0  0  0  0  0  0  0  0  # atno 10167 bound_to 10162
  157.6512  130.9591  150.0963 H   0  0  0  0  0  0  0  0  0  0  0  0  # atno 10718 bound_to 10713
  153.3413  135.4006  155.1574 H   0  0  0  0  0  0  0  0  0  0  0  0  # atno 10763 bound_to 10752
  154.8644  135.3634  154.5342 H   0  0  0  0  0  0  0  0  0  0  0  0  # atno 10764 bound_to 10752
  153.5787  135.7077  153.5532 H   0  0  0  0  0  0  0  0  0  0  0  0  # atno 10765 bound_to 10752
  140.3281  134.2468  155.7706 H   0  0  0  0  0  0  0  0  0  0  0  0  # atno 11005 bound_to 11000
  144.8743  140.7315  143.6027 LP  0  0  0  0  0  0  0  0  0  0  0  0  # atno 17320 bound_to 7965
  145.3393  139.1737  143.4494 LP  0  0  0  0  0  0  0  0  0  0  0  0  # atno 17321 bound_to 7965
  140.6504  143.8708  150.6780 LP  0  0  0  0  0  0  0  0  0  0  0  0  # atno 17342 bound_to 10162
  140.2071  143.3913  152.1747 LP  0  0  0  0  0  0  0  0  0  0  0  0  # atno 17343 bound_to 10162
  156.1898  130.3654  149.8925 LP  0  0  0  0  0  0  0  0  0  0  0  0  # atno 17370 bound_to 10713
  156.6856  130.8875  151.3581 LP  0  0  0  0  0  0  0  0  0  0  0  0  # atno 17371 bound_to 10713
  141.2070  133.7817  157.0143 LP  0  0  0  0  0  0  0  0  0  0  0  0  # atno 17394 bound_to 11000
  140.0884  134.9607  157.1737 LP  0  0  0  0  0  0  0  0  0  0  0  0  # atno 17395 bound_to 11000

$$$$
