AV-unprocessed.smi:3244|AV-procd|sdf|12398|dock5
  -GOLD-   2272018273D 1   1.00000     0.00000
 Structure written by MMmdl.
 41 42  0  0  0  0  0  0  0  0  2 V2000
  152.7235  142.4904  161.0046 C   0  0  0  0  0  0  0  0  0  0  0  0
  152.9748  142.5045  159.4878 C   0  0  0  0  0  0  0  0  0  0  0  0
  151.7229  142.5986  158.7217 N   0  0  0  0  0  0  0  0  0  0  0  0
  151.1910  141.5576  158.0317 C   0  0  0  0  0  0  0  0  0  0  0  0
  151.6076  140.4044  158.1558 O   0  0  0  0  0  0  0  0  0  0  0  0
  150.0429  141.8225  157.0428 C   0  0  0  0  0  0  0  0  0  0  0  0
  150.4849  142.6062  155.8687 N   0  3  0  0  0  0  0  0  0  0  0  0
  150.4694  141.8844  154.5757 C   0  0  2  0  0  0  0  0  0  0  0  0
  149.0944  141.9987  153.8970 C   0  0  0  0  0  0  0  0  0  0  0  0
  150.8557  140.4073  154.7872 C   0  0  0  0  0  0  0  0  0  0  0  0
  152.2201  140.1286  154.3738 N   0  0  0  0  0  0  0  0  0  0  0  0
  153.3932  140.6362  154.8910 C   0  0  0  0  0  0  0  0  0  0  0  0
  154.4219  140.0787  154.1871 C   0  0  0  0  0  0  0  0  0  0  0  0
  153.7702  139.2318  153.2476 C   0  0  0  0  0  0  0  0  0  0  0  0
  152.4523  139.2627  153.3632 N   0  0  0  0  0  0  0  0  0  0  0  0
  151.2379  143.9492  158.6009 C   0  0  0  0  0  0  0  0  0  0  0  0
  151.9848  145.0627  159.3047 C   0  0  0  0  0  0  0  0  0  0  0  0
  150.6111  144.6693  159.7828 C   0  0  0  0  0  0  0  0  0  0  0  0
  153.6650  142.4168  161.5491 H   0  0  0  0  0  0  0  0  0  0  0  0
  152.1112  141.6353  161.2921 H   0  0  0  0  0  0  0  0  0  0  0  0
  152.2151  143.3901  161.3483 H   0  0  0  0  0  0  0  0  0  0  0  0
  153.6593  143.3120  159.2283 H   0  0  0  0  0  0  0  0  0  0  0  0
  153.5089  141.5935  159.2149 H   0  0  0  0  0  0  0  0  0  0  0  0
  149.6187  140.8808  156.6997 H   0  0  0  0  0  0  0  0  0  0  0  0
  149.2591  142.3755  157.5617 H   0  0  0  0  0  0  0  0  0  0  0  0
  149.8517  143.3895  155.7827 H   0  0  0  0  0  0  0  0  0  0  0  0
  151.2173  142.3336  153.9202 H   0  0  0  0  0  0  0  0  0  0  0  0
  149.0787  141.4529  152.9532 H   0  0  0  0  0  0  0  0  0  0  0  0
  148.8388  143.0338  153.6713 H   0  0  0  0  0  0  0  0  0  0  0  0
  148.3050  141.5895  154.5283 H   0  0  0  0  0  0  0  0  0  0  0  0
  150.7353  140.1199  155.8331 H   0  0  0  0  0  0  0  0  0  0  0  0
  150.1935  139.7602  154.2101 H   0  0  0  0  0  0  0  0  0  0  0  0
  153.3991  141.3429  155.7079 H   0  0  0  0  0  0  0  0  0  0  0  0
  155.4797  140.2506  154.3216 H   0  0  0  0  0  0  0  0  0  0  0  0
  154.2123  138.5997  152.4913 H   0  0  0  0  0  0  0  0  0  0  0  0
  150.8189  144.2016  157.6287 H   0  0  0  0  0  0  0  0  0  0  0  0
  152.8280  144.7921  159.9376 H   0  0  0  0  0  0  0  0  0  0  0  0
  152.0826  146.0107  158.7797 H   0  0  0  0  0  0  0  0  0  0  0  0
  149.7919  145.3547  159.5745 H   0  0  0  0  0  0  0  0  0  0  0  0
  150.5581  144.1633  160.7447 H   0  0  0  0  0  0  0  0  0  0  0  0
  151.4113  142.9706  156.0387 H   0  0  0  0  0  0  0  0  0  0  0  0
  1  2  1  0  0  0  0
  1 19  1  0  0  0  0
  1 20  1  0  0  0  0
  1 21  1  0  0  0  0
  2  3  1  0  0  0  0
  2 22  1  0  0  0  0
  2 23  1  0  0  0  0
  3  4  1  0  0  0  0
  3 16  1  0  0  0  0
  4  5  2  0  0  0  0
  4  6  1  0  0  0  0
  6  7  1  0  0  0  0
  6 24  1  0  0  0  0
  6 25  1  0  0  0  0
  7  8  1  0  0  0  0
  7 26  1  0  0  0  0
  7 41  1  0  0  0  0
  8  9  1  0  0  0  0
  8 10  1  0  0  0  0
  8 27  1  0  0  0  0
  9 28  1  0  0  0  0
  9 29  1  0  0  0  0
  9 30  1  0  0  0  0
 10 11  1  0  0  0  0
 10 31  1  0  0  0  0
 10 32  1  0  0  0  0
 11 15  1  0  0  0  0
 11 12  1  0  0  0  0
 12 13  2  0  0  0  0
 12 33  1  0  0  0  0
 13 14  1  0  0  0  0
 13 34  1  0  0  0  0
 14 15  2  0  0  0  0
 14 35  1  0  0  0  0
 16 18  1  0  0  0  0
 16 17  1  0  0  0  0
 16 36  1  0  0  0  0
 17 18  1  0  0  0  0
 17 37  1  0  0  0  0
 17 38  1  0  0  0  0
 18 39  1  0  0  0  0
 18 40  1  0  0  0  0
M  CHG  1   7   1
M  END
> <s_m_source_file>
AV-unprocessed.smi

> <i_m_source_file_index>
3244

> <i_lp_mmshare_version>
43012

> <i_f3d_flags>
0

> <s_epik_input>
W0NIMl0xW0NIMl1bQ0hdMU4oW0NIMl1bQ0gzXSlDKD1PKVtDSDJdW05IXVtDQEhdKFtDSDNdKVtDSDJdbjJbY0hdW2NIXVtjSF1uMg==

> <s_epik_cmdline>
J2VwaWtfcHl0aG9uJywgJy1waCcsICc3LjAnLCAnLXRuJywgJzgnLCAnLW1hJywgJzIwMCcsICctbWV0YWxfYmluZGluZycsICctaW1hZScsICc8aW5maWxlLm1hZT4nLCAnLW9tYWUnLCAnPG91dGZpbGUubWFlPic=

> <r_lp_tautomer_probability>
1

> <r_epik_Ionization_Penalty>
0.115625

> <r_epik_Ionization_Penalty_Charging>
0.115622

> <r_epik_Ionization_Penalty_Neutral>
3.43793e-06

> <r_epik_State_Penalty>
0.105255

> <r_epik_Charging_Adjusted_Penalty>
0.220877

> <i_epik_Tot_Q>
1

> <i_epik_Tot_abs_Q>
1

> <r_epik_Metal_State_Penalty>
0.105264

> <b_epik_Metal_Only>
0

> <s_lp_Force_Field>
OPLS_2005

> <r_lp_Energy>
33.3923

> <b_lp_Chiralities_Consistent>
1

> <s_lp_Variant>
AV-unprocessed.smi:3244-1

> <Gold.Version>
5.8.1

> <Gold.Id.Protein>
6NUR|6NUR_protein|mol2

> <Gold.PLP.Fitness>
51.1627

> <Gold.PLP.PLP>
-45.3879

> <Gold.PLP.part.hbond>
-1.0000

> <Gold.PLP.part.metal>
0.0000

> <Gold.PLP.part.buried>
-5.0296

> <Gold.PLP.part.nonpolar>
-39.6098

> <Gold.PLP.part.repulsive>
0.3153

> <Gold.PLP.ligand.clash>
0.0289

> <Gold.PLP.ligand.torsion>
1.7573

> <Gold.PLP.Chemscore.Hbond>
2.0000

> <Gold.PLP.Chemscore.CHOScore>
1.0000

> <Gold.PLP.Chemscore.Metal>
0.0000

> <Gold.Chemscore.Hbonds>
donor molecule, donor type, donor heavy atom, donor atom, acceptor molecule, acceptor atom, score
      L1  H     7    26       P1  8028  2.00

> <Gold.PLP.Chemscore.Internal.Correction>
0.3183

> <Gold.Rescore>
     Score         DG    S(hbond)    S(metal)    S(lipo)     H(rot)  DE(clash)    DE(int)     intcor
     15.13     -17.03       0.99        0.00     115.09       2.04       0.03       1.86       ----

> <Gold.Chemscore.Fitness>
15.1347

> <Gold.Chemscore.DG>
-17.0317

> <Gold.Chemscore.ZeroCoef>
-5.4800

> <Gold.Chemscore.Hbond>
0.9937

> <Gold.Chemscore.Metal>
0.0000

> <Gold.Chemscore.Lipo>
115.0869

> <Gold.Chemscore.Internal_Hbond>
0.0000

> <Gold.Chemscore.DEClash>
0.0343

> <Gold.Chemscore.DEInternal>
1.8628

> <Gold.Chemscore.Rot>
2.0440

> <Gold.Chemscore.Internal.Correction>
   9.000000E+99

> <Gold.Chemscore.Hbonds>
donor molecule, donor type, donor heavy atom, donor atom, acceptor molecule, acceptor atom, score
      L1  H     7    26       P1  8028  1.00

> <Gold.Chemscore.Hbond.Weighted>
-3.3191

> <Gold.Chemscore.Metal.Weighted>
-0.0000

> <Gold.Chemscore.Lipo.Weighted>
-13.4652

> <Gold.Chemscore.Internal_Hbond.Weighted>
0.0000

> <Gold.Chemscore.DEClash.Weighted>
0.0343

> <Gold.Chemscore.DEInternal.Weighted>
1.8628

> <Gold.Chemscore.Rot.Weighted>
5.2325

> <Gold.Chemscore.Internal.Correction.Weighted>
   9.000000E+99

> <Gold.Protein.RotatedTorsions>
[ 6907 6896 6895 6894 ] final  -20.61 input  -60.11 | X-H torsion
[ 7974 7965 7964 7962 ] final  -85.74 input  175.53 | X-H torsion
[ 8008 7997 7996 7995 ] final  -28.39 input   59.86 | X-H torsion
[ 10167 10162 10161 10158 ] final -131.03 input  -65.29 | X-H torsion
[ 10718 10713 10712 10709 ] final  105.00 input   66.30 | X-H torsion
[ 10763 10752 10751 10750 ] final -166.99 input  -60.55 | X-H torsion
[ 11005 11000 10999 10996 ] final  154.79 input  -57.11 | X-H torsion

> <Gold.Protein.ActiveResidues>
 VAL166  LYS551  ARG553  GLY616  TRP617  ASP618  TYR619  PRO620  LYS621  CYS622 
 ASP623  PHE694  ASN695  SER759  ASP760  ASP761  ALA762  ILE779  LEU786  VAL792 
 PHE793  MET794  SER795  GLU796  ALA797  LYS798  CYS799  TRP800  GLU811  SER814 

> <Gold.Protein.RotatedAtoms>
  151.2455  135.0604  159.9041 H   0  0  0  0  0  0  0  0  0  0  0  0  # atno 6907 bound_to 6896
  152.5387  134.0388  159.8068 H   0  0  0  0  0  0  0  0  0  0  0  0  # atno 6908 bound_to 6896
  151.0588  133.5512  159.2667 H   0  0  0  0  0  0  0  0  0  0  0  0  # atno 6909 bound_to 6896
  145.4891  140.9553  143.1822 H   0  0  0  0  0  0  0  0  0  0  0  0  # atno 7974 bound_to 7965
  154.4334  140.1846  156.1082 H   0  0  0  0  0  0  0  0  0  0  0  0  # atno 8008 bound_to 7997
  156.0238  140.3338  155.7041 H   0  0  0  0  0  0  0  0  0  0  0  0  # atno 8009 bound_to 7997
  155.5938  140.0633  157.2742 H   0  0  0  0  0  0  0  0  0  0  0  0  # atno 8010 bound_to 7997
  139.9231  143.6359  152.2548 H   0  0  0  0  0  0  0  0  0  0  0  0  # atno 10167 bound_to 10162
  157.6721  131.0817  150.5791 H   0  0  0  0  0  0  0  0  0  0  0  0  # atno 10718 bound_to 10713
  154.6777  135.2949  154.9655 H   0  0  0  0  0  0  0  0  0  0  0  0  # atno 10763 bound_to 10752
  154.0661  135.6624  153.4822 H   0  0  0  0  0  0  0  0  0  0  0  0  # atno 10764 bound_to 10752
  153.0527  135.5164  154.7805 H   0  0  0  0  0  0  0  0  0  0  0  0  # atno 10765 bound_to 10752
  140.1522  134.8667  157.2468 H   0  0  0  0  0  0  0  0  0  0  0  0  # atno 11005 bound_to 11000
  144.7844  139.6458  143.7140 LP  0  0  0  0  0  0  0  0  0  0  0  0  # atno 17320 bound_to 7965
  146.2295  139.5786  142.9565 LP  0  0  0  0  0  0  0  0  0  0  0  0  # atno 17321 bound_to 7965
  139.6844  144.7653  151.1549 LP  0  0  0  0  0  0  0  0  0  0  0  0  # atno 17342 bound_to 10162
  140.7657  143.5678  150.9029 LP  0  0  0  0  0  0  0  0  0  0  0  0  # atno 17343 bound_to 10162
  156.6092  130.4375  149.5866 LP  0  0  0  0  0  0  0  0  0  0  0  0  # atno 17370 bound_to 10713
  156.2444  130.6870  151.1586 LP  0  0  0  0  0  0  0  0  0  0  0  0  # atno 17371 bound_to 10713
  140.2591  134.3592  155.7413 LP  0  0  0  0  0  0  0  0  0  0  0  0  # atno 17394 bound_to 11000
  141.2200  133.7359  156.9053 LP  0  0  0  0  0  0  0  0  0  0  0  0  # atno 17395 bound_to 11000

$$$$
