#       Name:                AV-unprocessed.smi:155
#       Creating user name   scv26
#       Creation time:       Thu Mar 26 18:54:36 2020


#       File generated by GOLD software.
#

@<TRIPOS>MOLECULE
AV-unprocessed.smi:155
    71    74     1
SMALL
NO_CHARGES


@<TRIPOS>ATOM
      1 ****        -6.3163   3.3859  -0.9966 C.3            1 S1                 0.0000
      2 ****        -5.8501   3.5904   0.3949 N.4            1 S1                 1.0000
      3 ****        -6.6838   4.5876   1.1023 C.3            1 S1                 0.0000
      4 ****        -4.4018   3.9033   0.4867 C.3            1 S1                 0.0000
      5 ****        -3.5209   2.6450   0.3362 C.3            1 S1                 0.0000
      6 ****        -2.1409   2.9829  -0.0143 N.3            1 S1                 0.0000
      7 ****        -1.3966   3.5617   1.1145 C.3            1 S1                 0.0000
      8 ****        -0.7132   2.5346   2.0417 C.3            1 S1                 0.0000
      9 ****         0.7118   2.1753   1.5783 C.3            1 S1                 0.0000
     10 ****         0.7386   1.4210   0.3240 N.pl3          1 S1                 0.0000
     11 ****         1.8589   0.7115   0.0331 C.ar           1 S1                 0.0000
     12 ****         3.0565   1.1016   0.5458 N.ar           1 S1                 0.0000
     13 ****         4.1694   0.4221   0.2541 C.ar           1 S1                 0.0000
     14 ****         4.3093  -0.6607  -0.5128 N.ar           1 S1                 0.0000
     15 ****         3.1100  -1.0661  -1.0197 C.ar           1 S1                 0.0000
     16 ****         1.8485  -0.4440  -0.7990 C.ar           1 S1                 0.0000
     17 ****         0.8526  -1.1442  -1.4702 N.2            1 S1                 0.0000
     18 ****         1.4904  -2.1158  -2.0637 C.2            1 S1                 0.0000
     19 ****         2.8475  -2.1537  -1.8350 N.pl3          1 S1                 0.0000
     20 ****         3.7926  -3.1149  -2.3780 C.3            1 S1                 0.0000
     21 ****         3.5143  -4.5740  -1.9503 C.3            1 S1                 0.0000
     22 ****         4.3152  -5.3799  -2.7903 O.3            1 S1                 0.0000
     23 ****         3.8993  -4.9211  -0.4944 C.3            1 S1                 0.0000
     24 ****         3.2070  -4.1031   0.5996 C.3            1 S1                 0.0000
     25 ****         3.2060  -5.0255   1.8083 C.3            1 S1                 0.0000
     26 ****         3.5369  -6.3985   1.2229 C.3            1 S1                 0.0000
     27 ****         3.4311  -6.2256  -0.1822 O.3            1 S1                 0.0000
     28 ****         0.0122   1.9637  -0.8233 C.3            1 S1                 0.0000
     29 ****        -1.5043   1.8110  -0.6234 C.3            1 S1                 0.0000
     30 ****        -6.2032   4.2978  -1.5844 H              1 S1                 0.0000
     31 ****        -7.3700   3.1049  -1.0089 H              1 S1                 0.0000
     32 ****        -5.7638   2.5906  -1.4954 H              1 S1                 0.0000
     33 ****        -6.5735   5.5767   0.6554 H              1 S1                 0.0000
     34 ****        -6.4026   4.6532   2.1540 H              1 S1                 0.0000
     35 ****        -7.7376   4.3095   1.0617 H              1 S1                 0.0000
     36 ****        -4.1504   4.6488  -0.2699 H              1 S1                 0.0000
     37 ****        -4.1963   4.3641   1.4532 H              1 S1                 0.0000
     38 ****        -3.5546   2.0316   1.2377 H              1 S1                 0.0000
     39 ****        -3.9251   2.0290  -0.4667 H              1 S1                 0.0000
     40 ****        -0.6388   4.2362   0.7149 H              1 S1                 0.0000
     41 ****        -2.0498   4.2021   1.7046 H              1 S1                 0.0000
     42 ****        -0.6272   2.9856   3.0307 H              1 S1                 0.0000
     43 ****        -1.3239   1.6419   2.1812 H              1 S1                 0.0000
     44 ****         1.3093   3.0812   1.4670 H              1 S1                 0.0000
     45 ****         1.1858   1.5805   2.3605 H              1 S1                 0.0000
     46 ****         5.0781   0.8012   0.6979 H              1 S1                 0.0000
     47 ****         0.9831  -2.8395  -2.6851 H              1 S1                 0.0000
     48 ****         3.7378  -3.0298  -3.4644 H              1 S1                 0.0000
     49 ****         4.8060  -2.8240  -2.0987 H              1 S1                 0.0000
     50 ****         2.4693  -4.8262  -2.1340 H              1 S1                 0.0000
     51 ****         4.1681  -6.2851  -2.5608 H              1 S1                 0.0000
     52 ****         4.9819  -4.8768  -0.3568 H              1 S1                 0.0000
     53 ****         3.7125  -3.1595   0.8029 H              1 S1                 0.0000
     54 ****         2.1776  -3.8832   0.3142 H              1 S1                 0.0000
     55 ****         3.9564  -4.7280   2.5418 H              1 S1                 0.0000
     56 ****         2.2325  -5.0199   2.3001 H              1 S1                 0.0000
     57 ****         4.5586  -6.6877   1.4739 H              1 S1                 0.0000
     58 ****         2.8636  -7.1800   1.5762 H              1 S1                 0.0000
     59 ****         0.2913   3.0047  -0.9905 H              1 S1                 0.0000
     60 ****         0.2943   1.4413  -1.7370 H              1 S1                 0.0000
     61 ****        -1.7149   0.9064  -0.0498 H              1 S1                 0.0000
     62 ****        -1.9703   1.6636  -1.5984 H              1 S1                 0.0000
     63 ****        -5.9865   2.7167   0.8832 H              1 S1                 0.0000
     64 ****        -2.1377   3.7155  -0.6950 LP             1 S1                 0.0000
     65 ****         3.1046   1.9013   1.1443 LP             1 S1                 0.0000
     66 ****         5.1812  -1.1162  -0.6927 LP             1 S1                 0.0000
     67 ****        -0.1277  -0.9482  -1.4930 LP             1 S1                 0.0000
     68 ****         5.2797  -5.1503  -2.6599 LP             1 S1                 0.0000
     69 ****         4.0627  -5.2279  -3.7459 LP             1 S1                 0.0000
     70 ****         3.9894  -6.9092  -0.6523 LP             1 S1                 0.0000
     71 ****         2.4771  -6.3219  -0.4661 LP             1 S1                 0.0000
@<TRIPOS>BOND
    1    1    2 1     
    2    1   30 1     
    3    1   31 1     
    4    1   32 1     
    5    2    3 1     
    6    2    4 1     
    7    2   63 1     
    8    3   33 1     
    9    3   34 1     
   10    3   35 1     
   11    4    5 1     
   12    4   36 1     
   13    4   37 1     
   14    5    6 1     
   15    5   38 1     
   16    5   39 1     
   17    6   29 1     
   18    6    7 1     
   19    7    8 1     
   20    7   40 1     
   21    7   41 1     
   22    8    9 1     
   23    8   42 1     
   24    8   43 1     
   25    9   10 1     
   26    9   44 1     
   27    9   45 1     
   28   10   11 1     
   29   10   28 1     
   30   11   16 ar    
   31   11   12 ar    
   32   12   13 ar    
   33   13   14 ar    
   34   13   46 1     
   35   14   15 ar    
   36   15   19 1     
   37   15   16 ar    
   38   16   17 1     
   39   17   18 2     
   40   18   19 1     
   41   18   47 1     
   42   19   20 1     
   43   20   21 1     
   44   20   48 1     
   45   20   49 1     
   46   21   22 1     
   47   21   23 1     
   48   21   50 1     
   49   22   51 1     
   50   23   27 1     
   51   23   24 1     
   52   23   52 1     
   53   24   25 1     
   54   24   53 1     
   55   24   54 1     
   56   25   26 1     
   57   25   55 1     
   58   25   56 1     
   59   26   27 1     
   60   26   57 1     
   61   26   58 1     
   62   28   29 1     
   63   28   59 1     
   64   28   60 1     
   65   29   61 1     
   66   29   62 1     
   67    6   64 1     
   68   12   65 1     
   69   14   66 1     
   70   17   67 1     
   71   22   68 1     
   72   22   69 1     
   73   27   70 1     
   74   27   71 1     
@<TRIPOS>SUBSTRUCTURE
      1 S1             1
@<TRIPOS>SET
LONE_PAIRS      STATIC     ATOMS    <user>   **** ""
8 64 65 66 67 68 69 70 71
DONOR_HYDROGENS      STATIC     ATOMS    <user>   **** ""
2 63 51
ATOM$BLUE        STATIC     ATOMS    COLORGROUP SYSTEM
8 64 65 66 67 68 69 70 71
ATOM$RED        STATIC     ATOMS    COLORGROUP SYSTEM
2 63 51
