AV-unprocessed.smi:2833|AV-procd|sdf|10914|dock6
  -GOLD-   2272015363D 1   1.00000     0.00000
 Structure written by MMmdl.
 28 29  0  0  0  0  0  0  0  0  1 V2000
  148.5652  138.7444  153.0203 O   0  0  0  0  0  0  0  0  0  0  0  0
  148.5667  139.8271  153.9265 C   0  0  0  0  0  0  0  0  0  0  0  0
  149.6365  139.6130  155.0083 C   0  0  2  0  0  0  0  0  0  0  0  0
  149.9215  140.9123  155.7885 C   0  0  0  0  0  0  0  0  0  0  0  0
  151.0044  140.6995  156.7407 N   0  0  0  0  0  0  0  0  0  0  0  0
  151.2368  141.7937  157.5867 C   0  0  0  0  0  0  0  0  0  0  0  0
  150.7313  142.9995  157.2285 N   0  0  0  0  0  0  0  0  0  0  0  0
  150.9569  144.0552  158.0399 C   0  0  0  0  0  0  0  0  0  0  0  0
  151.6907  143.9638  159.2390 C   0  0  0  0  0  0  0  0  0  0  0  0
  151.9409  145.3544  160.2290 Cl  0  0  0  0  0  0  0  0  0  0  0  0
  152.2153  142.7114  159.6106 C   0  0  0  0  0  0  0  0  0  0  0  0
  151.9856  141.6054  158.7697 C   0  0  0  0  0  0  0  0  0  0  0  0
  152.4770  140.3854  159.0962 F   0  0  0  0  0  0  0  0  0  0  0  0
  152.2128  140.1898  156.1062 C   0  0  0  0  0  0  0  0  0  0  0  0
  151.8854  138.9226  155.2995 C   0  0  0  0  0  0  0  0  0  0  0  0
  150.8464  139.2093  154.3678 O   0  0  0  0  0  0  0  0  0  0  0  0
  149.0745  138.9861  152.2619 H   0  0  0  0  0  0  0  0  0  0  0  0
  148.7199  140.7679  153.3967 H   0  0  0  0  0  0  0  0  0  0  0  0
  147.5758  139.8696  154.3797 H   0  0  0  0  0  0  0  0  0  0  0  0
  149.3040  138.8420  155.7066 H   0  0  0  0  0  0  0  0  0  0  0  0
  150.1897  141.7116  155.0959 H   0  0  0  0  0  0  0  0  0  0  0  0
  149.0260  141.2336  156.3221 H   0  0  0  0  0  0  0  0  0  0  0  0
  150.5403  144.9996  157.7219 H   0  0  0  0  0  0  0  0  0  0  0  0
  152.7836  142.5994  160.5223 H   0  0  0  0  0  0  0  0  0  0  0  0
  152.6324  140.9501  155.4457 H   0  0  0  0  0  0  0  0  0  0  0  0
  152.9648  139.9682  156.8646 H   0  0  0  0  0  0  0  0  0  0  0  0
  152.7674  138.5839  154.7562 H   0  0  0  0  0  0  0  0  0  0  0  0
  151.5838  138.1072  155.9590 H   0  0  0  0  0  0  0  0  0  0  0  0
  1  2  1  0  0  0  0
  1 17  1  0  0  0  0
  2  3  1  0  0  0  0
  2 18  1  0  0  0  0
  2 19  1  0  0  0  0
  3 16  1  0  0  0  0
  3  4  1  0  0  0  0
  3 20  1  0  0  0  0
  4  5  1  0  0  0  0
  4 21  1  0  0  0  0
  4 22  1  0  0  0  0
  5  6  1  0  0  0  0
  5 14  1  0  0  0  0
  6 12  1  0  0  0  0
  6  7  2  0  0  0  0
  7  8  1  0  0  0  0
  8  9  2  0  0  0  0
  8 23  1  0  0  0  0
  9 10  1  0  0  0  0
  9 11  1  0  0  0  0
 11 12  2  0  0  0  0
 11 24  1  0  0  0  0
 12 13  1  0  0  0  0
 14 15  1  0  0  0  0
 14 25  1  0  0  0  0
 14 26  1  0  0  0  0
 15 16  1  0  0  0  0
 15 27  1  0  0  0  0
 15 28  1  0  0  0  0
M  END
> <s_m_source_file>
AV-unprocessed.smi

> <i_m_source_file_index>
2833

> <i_lp_mmshare_version>
43012

> <i_f3d_flags>
0

> <s_epik_input>
W09IXVtDSDJdW0NAQEhdMVtDSDJdTihbQ0gyXVtDSDJdTzEpYzJuW2NIXWMoQ2wpW2NIXWMyRg==

> <s_epik_cmdline>
J2VwaWtfcHl0aG9uJywgJy1waCcsICc3LjAnLCAnLXRuJywgJzgnLCAnLW1hJywgJzIwMCcsICctbWV0YWxfYmluZGluZycsICctaW1hZScsICc8aW5maWxlLm1hZT4nLCAnLW9tYWUnLCAnPG91dGZpbGUubWFlPic=

> <r_lp_tautomer_probability>
1

> <r_epik_Ionization_Penalty>
1.06846e-07

> <r_epik_Ionization_Penalty_Charging>
0

> <r_epik_Ionization_Penalty_Neutral>
1.06846e-07

> <r_epik_State_Penalty>
-0

> <r_epik_Charging_Adjusted_Penalty>
0

> <i_epik_Tot_Q>
0

> <i_epik_Tot_abs_Q>
0

> <r_epik_Metal_State_Penalty>
-0

> <b_epik_Metal_Only>
0

> <s_lp_Force_Field>
OPLS_2005

> <r_lp_Energy>
22.731

> <b_lp_Chiralities_Consistent>
1

> <s_lp_Variant>
AV-unprocessed.smi:2833-1

> <Gold.Version>
5.8.1

> <Gold.Id.Protein>
6NUR|6NUR_protein|mol2

> <Gold.PLP.Fitness>
38.9836

> <Gold.PLP.PLP>
-32.0488

> <Gold.PLP.part.hbond>
-2.8422

> <Gold.PLP.part.metal>
0.0000

> <Gold.PLP.part.buried>
-2.2185

> <Gold.PLP.part.nonpolar>
-28.5013

> <Gold.PLP.part.repulsive>
1.3636

> <Gold.PLP.ligand.clash>
0.0000

> <Gold.PLP.ligand.torsion>
0.3723

> <Gold.PLP.Chemscore.Hbond>
2.0000

> <Gold.PLP.Chemscore.CHOScore>
0.5238

> <Gold.PLP.Chemscore.Metal>
0.0000

> <Gold.Chemscore.Hbonds>
donor molecule, donor type, donor heavy atom, donor atom, acceptor molecule, acceptor atom, score
      L1  H     1    17       P1  7957  1.00
      P1  H  7989  7998       L1    16  1.00
      L1  C     8    23       P1  8028  0.43
      L1  C     8    23       P1  8029  0.09

> <Gold.PLP.Chemscore.Internal.Correction>
0.1080

> <Gold.Rescore>
     Score         DG    S(hbond)    S(metal)    S(lipo)     H(rot)  DE(clash)    DE(int)     intcor
     13.86     -14.88       1.22        0.00      84.30       1.78       0.43       0.59       ----

> <Gold.Chemscore.Fitness>
13.8591

> <Gold.Chemscore.DG>
-14.8784

> <Gold.Chemscore.ZeroCoef>
-5.4800

> <Gold.Chemscore.Hbond>
1.2232

> <Gold.Chemscore.Metal>
0.0000

> <Gold.Chemscore.Lipo>
84.2973

> <Gold.Chemscore.Internal_Hbond>
0.0000

> <Gold.Chemscore.DEClash>
0.4259

> <Gold.Chemscore.DEInternal>
0.5934

> <Gold.Chemscore.Rot>
1.7773

> <Gold.Chemscore.Internal.Correction>
   9.000000E+99

> <Gold.Chemscore.Hbonds>
donor molecule, donor type, donor heavy atom, donor atom, acceptor molecule, acceptor atom, score
      L1  H     1    17       P1  7957  0.91
      P1  H  7989  7998       L1    16  0.14

> <Gold.Chemscore.Hbond.Weighted>
-4.0855

> <Gold.Chemscore.Metal.Weighted>
-0.0000

> <Gold.Chemscore.Lipo.Weighted>
-9.8628

> <Gold.Chemscore.Internal_Hbond.Weighted>
0.0000

> <Gold.Chemscore.DEClash.Weighted>
0.4259

> <Gold.Chemscore.DEInternal.Weighted>
0.5934

> <Gold.Chemscore.Rot.Weighted>
4.5499

> <Gold.Chemscore.Internal.Correction.Weighted>
   9.000000E+99

> <Gold.Protein.RotatedTorsions>
[ 6907 6896 6895 6894 ] final   83.85 input  -60.11 | X-H torsion
[ 7974 7965 7964 7962 ] final -129.22 input  175.53 | X-H torsion
[ 8008 7997 7996 7995 ] final  126.24 input   59.86 | X-H torsion
[ 10167 10162 10161 10158 ] final -138.47 input  -65.29 | X-H torsion
[ 10718 10713 10712 10709 ] final  179.03 input   66.30 | X-H torsion
[ 10763 10752 10751 10750 ] final  -97.91 input  -60.55 | X-H torsion
[ 11005 11000 10999 10996 ] final  -23.86 input  -57.11 | X-H torsion

> <Gold.Protein.ActiveResidues>
 VAL166  LYS551  ARG553  GLY616  TRP617  ASP618  TYR619  PRO620  LYS621  CYS622 
 ASP623  PHE694  ASN695  SER759  ASP760  ASP761  ALA762  ILE779  LEU786  VAL792 
 PHE793  MET794  SER795  GLU796  ALA797  LYS798  CYS799  TRP800  GLU811  SER814 

> <Gold.Protein.RotatedAtoms>
  152.5338  134.2831  159.9014 H   0  0  0  0  0  0  0  0  0  0  0  0  # atno 6907 bound_to 6896
  151.2785  133.4214  159.2633 H   0  0  0  0  0  0  0  0  0  0  0  0  # atno 6908 bound_to 6896
  151.0305  134.9551  159.8165 H   0  0  0  0  0  0  0  0  0  0  0  0  # atno 6909 bound_to 6896
  144.9593  140.7429  143.4739 H   0  0  0  0  0  0  0  0  0  0  0  0  # atno 7974 bound_to 7965
  156.2858  140.2697  156.2078 H   0  0  0  0  0  0  0  0  0  0  0  0  # atno 8008 bound_to 7997
  155.0295  140.0386  157.2486 H   0  0  0  0  0  0  0  0  0  0  0  0  # atno 8009 bound_to 7997
  154.7367  140.2717  155.6414 H   0  0  0  0  0  0  0  0  0  0  0  0  # atno 8010 bound_to 7997
  139.8475  143.7242  152.2660 H   0  0  0  0  0  0  0  0  0  0  0  0  # atno 10167 bound_to 10162
  156.8819  130.9818  151.3061 H   0  0  0  0  0  0  0  0  0  0  0  0  # atno 10718 bound_to 10713
  154.7369  135.5029  153.9056 H   0  0  0  0  0  0  0  0  0  0  0  0  # atno 10763 bound_to 10752
  153.1004  135.6683  153.9692 H   0  0  0  0  0  0  0  0  0  0  0  0  # atno 10764 bound_to 10752
  153.9480  135.3061  155.3419 H   0  0  0  0  0  0  0  0  0  0  0  0  # atno 10765 bound_to 10752
  140.8791  133.7666  156.0280 H   0  0  0  0  0  0  0  0  0  0  0  0  # atno 11005 bound_to 11000
  145.2724  139.1949  143.4834 LP  0  0  0  0  0  0  0  0  0  0  0  0  # atno 17320 bound_to 7965
  146.3348  140.2673  142.8604 LP  0  0  0  0  0  0  0  0  0  0  0  0  # atno 17321 bound_to 7965
  139.7498  144.7537  151.0523 LP  0  0  0  0  0  0  0  0  0  0  0  0  # atno 17342 bound_to 10162
  140.7791  143.4873  150.9939 LP  0  0  0  0  0  0  0  0  0  0  0  0  # atno 17343 bound_to 10162
  157.6135  130.8601  149.8991 LP  0  0  0  0  0  0  0  0  0  0  0  0  # atno 17370 bound_to 10713
  156.0673  130.3690  150.0851 LP  0  0  0  0  0  0  0  0  0  0  0  0  # atno 17371 bound_to 10713
  140.8483  134.2985  157.5286 LP  0  0  0  0  0  0  0  0  0  0  0  0  # atno 17394 bound_to 11000
  139.8718  134.9454  156.3907 LP  0  0  0  0  0  0  0  0  0  0  0  0  # atno 17395 bound_to 11000

$$$$
