AV-unprocessed.smi:1240|AV-procd|sdf|5207|dock5
  -GOLD-   22720 4293D 1   1.00000     0.00000
 Structure written by MMmdl.
 49 51  0  0  0  0  0  0  0  0  3 V2000
  147.1901  133.2966  153.6288 O   0  0  0  0  0  0  0  0  0  0  0  0
  147.7534  132.7007  152.7116 C   0  0  0  0  0  0  0  0  0  0  0  0
  148.9895  132.1937  152.8101 N   0  0  0  0  0  0  0  0  0  0  0  0
  149.8184  132.2334  154.0093 C   0  0  0  0  0  0  0  0  0  0  0  0
  150.1778  130.8151  154.5288 C   0  0  2  0  0  0  0  0  0  0  0  0
  148.9666  129.8395  154.5723 C   0  0  2  0  0  0  0  0  0  0  0  0
  148.6411  129.1907  153.2362 C   0  0  0  0  0  0  0  0  0  0  0  0
  147.2230  128.6840  153.4625 C   0  0  0  0  0  0  0  0  0  0  0  0
  146.6095  129.6690  154.2819 O   0  0  0  0  0  0  0  0  0  0  0  0
  147.6069  130.4687  154.9099 C   0  0  0  0  0  0  0  0  0  0  0  0
  150.8370  130.8636  155.8692 N   0  3  0  0  0  0  0  0  0  0  0  0
  152.2361  131.3560  155.8403 C   0  0  0  0  0  0  0  0  0  0  0  0
  152.8859  131.1830  157.2240 C   0  0  0  0  0  0  0  0  0  0  0  0
  152.1094  131.8556  158.2085 O   0  0  0  0  0  0  0  0  0  0  0  0
  150.7886  131.3343  158.2978 C   0  0  0  0  0  0  0  0  0  0  0  0
  150.0691  131.5286  156.9529 C   0  0  0  0  0  0  0  0  0  0  0  0
  147.2357  132.4813  151.4904 N   0  0  0  0  0  0  0  0  0  0  0  0
  145.9422  132.8086  150.9990 C   0  0  0  0  0  0  0  0  0  0  0  0
  145.0457  133.4347  151.8934 C   0  0  0  0  0  0  0  0  0  0  0  0
  143.7581  133.7975  151.4486 C   0  0  0  0  0  0  0  0  0  0  0  0
  143.3942  133.5530  150.1717 N   0  3  0  0  0  0  0  0  0  0  0  0
  144.2194  132.9690  149.2768 C   0  0  0  0  0  0  0  0  0  0  0  0
  145.5193  132.5838  149.6636 C   0  0  0  0  0  0  0  0  0  0  0  0
  149.3802  131.7317  152.0018 H   0  0  0  0  0  0  0  0  0  0  0  0
  150.7183  132.7964  153.7621 H   0  0  0  0  0  0  0  0  0  0  0  0
  149.3014  132.7924  154.7909 H   0  0  0  0  0  0  0  0  0  0  0  0
  150.9050  130.3822  153.8396 H   0  0  0  0  0  0  0  0  0  0  0  0
  149.1573  129.0473  155.2977 H   0  0  0  0  0  0  0  0  0  0  0  0
  148.6498  129.9333  152.4368 H   0  0  0  0  0  0  0  0  0  0  0  0
  149.3294  128.3891  152.9666 H   0  0  0  0  0  0  0  0  0  0  0  0
  146.6741  128.5368  152.5322 H   0  0  0  0  0  0  0  0  0  0  0  0
  147.2378  127.7371  154.0037 H   0  0  0  0  0  0  0  0  0  0  0  0
  147.4311  130.5194  155.9845 H   0  0  0  0  0  0  0  0  0  0  0  0
  147.5307  131.4789  154.5062 H   0  0  0  0  0  0  0  0  0  0  0  0
  152.8127  130.8045  155.0969 H   0  0  0  0  0  0  0  0  0  0  0  0
  152.2603  132.4071  155.5516 H   0  0  0  0  0  0  0  0  0  0  0  0
  152.9818  130.1265  157.4799 H   0  0  0  0  0  0  0  0  0  0  0  0
  153.8923  131.6023  157.2210 H   0  0  0  0  0  0  0  0  0  0  0  0
  150.8175  130.2796  158.5762 H   0  0  0  0  0  0  0  0  0  0  0  0
  150.2542  131.8588  159.0900 H   0  0  0  0  0  0  0  0  0  0  0  0
  149.9719  132.5957  156.7499 H   0  0  0  0  0  0  0  0  0  0  0  0
  149.0619  131.1181  157.0178 H   0  0  0  0  0  0  0  0  0  0  0  0
  147.8560  132.0541  150.8181 H   0  0  0  0  0  0  0  0  0  0  0  0
  145.3369  133.6343  152.9146 H   0  0  0  0  0  0  0  0  0  0  0  0
  143.0155  134.2751  152.0710 H   0  0  0  0  0  0  0  0  0  0  0  0
  143.8206  132.8340  148.2820 H   0  0  0  0  0  0  0  0  0  0  0  0
  146.1667  132.1376  148.9245 H   0  0  0  0  0  0  0  0  0  0  0  0
  150.9126  129.8960  156.1490 H   0  0  0  0  0  0  0  0  0  0  0  0
  142.4584  133.8251  149.8691 H   0  0  0  0  0  0  0  0  0  0  0  0
  1  2  2  0  0  0  0
  2  3  1  0  0  0  0
  2 17  1  0  0  0  0
  3  4  1  0  0  0  0
  3 24  1  0  0  0  0
  4  5  1  0  0  0  0
  4 25  1  0  0  0  0
  4 26  1  0  0  0  0
  5  6  1  0  0  0  0
  5 11  1  0  0  0  0
  5 27  1  0  0  0  0
  6 10  1  0  0  0  0
  6  7  1  0  0  0  0
  6 28  1  0  0  0  0
  7  8  1  0  0  0  0
  7 29  1  0  0  0  0
  7 30  1  0  0  0  0
  8  9  1  0  0  0  0
  8 31  1  0  0  0  0
  8 32  1  0  0  0  0
  9 10  1  0  0  0  0
 10 33  1  0  0  0  0
 10 34  1  0  0  0  0
 11 16  1  0  0  0  0
 11 12  1  0  0  0  0
 11 48  1  0  0  0  0
 12 13  1  0  0  0  0
 12 35  1  0  0  0  0
 12 36  1  0  0  0  0
 13 14  1  0  0  0  0
 13 37  1  0  0  0  0
 13 38  1  0  0  0  0
 14 15  1  0  0  0  0
 15 16  1  0  0  0  0
 15 39  1  0  0  0  0
 15 40  1  0  0  0  0
 16 41  1  0  0  0  0
 16 42  1  0  0  0  0
 17 18  1  0  0  0  0
 17 43  1  0  0  0  0
 18 23  1  0  0  0  0
 18 19  2  0  0  0  0
 19 20  1  0  0  0  0
 19 44  1  0  0  0  0
 20 21  2  0  0  0  0
 20 45  1  0  0  0  0
 21 22  1  0  0  0  0
 21 49  1  0  0  0  0
 22 23  2  0  0  0  0
 22 46  1  0  0  0  0
 23 47  1  0  0  0  0
M  CHG  1  11   1
M  CHG  1  21   1
M  END
> <s_m_source_file>
AV-unprocessed.smi

> <i_m_source_file_index>
1240

> <i_lp_mmshare_version>
43012

> <i_f3d_flags>
0

> <s_epik_input>
W2NIXTFbY0hdbltjSF1bY0hdYzFbTkhdQyg9TylbTkhdW0NIMl1bQ0BIXShbQ0BASF0yW0NIMl1bQ0gyXU9bQ0gyXTIpTjNbQ0gyXVtDSDJdT1tDSDJdW0NIMl0z

> <s_epik_cmdline>
J2VwaWtfcHl0aG9uJywgJy1waCcsICc3LjAnLCAnLXRuJywgJzgnLCAnLW1hJywgJzIwMCcsICctbWV0YWxfYmluZGluZycsICctaW1hZScsICc8aW5maWxlLm1hZT4nLCAnLW9tYWUnLCAnPG91dGZpbGUubWFlPic=

> <r_epik_Ionization_Penalty>
2.08105

> <r_epik_Ionization_Penalty_Charging>
2.08103

> <r_epik_Ionization_Penalty_Neutral>
2.04144e-05

> <r_epik_State_Penalty>
2.15598

> <r_epik_Charging_Adjusted_Penalty>
4.23701

> <i_epik_Tot_Q>
2

> <i_epik_Tot_abs_Q>
2

> <r_epik_Metal_State_Penalty>
2.25158

> <b_epik_Metal_Only>
0

> <s_lp_Force_Field>
OPLS_2005

> <r_lp_Energy>
50.7828

> <b_lp_Chiralities_Consistent>
1

> <s_lp_Variant>
AV-unprocessed.smi:1240-13

> <Gold.Version>
5.8.1

> <Gold.Id.Protein>
6NUR|6NUR_protein|mol2

> <Gold.PLP.Fitness>
48.9105

> <Gold.PLP.PLP>
-35.6069

> <Gold.PLP.part.hbond>
-4.0000

> <Gold.PLP.part.metal>
0.0000

> <Gold.PLP.part.buried>
-5.5349

> <Gold.PLP.part.nonpolar>
-25.0874

> <Gold.PLP.part.repulsive>
0.2720

> <Gold.PLP.ligand.clash>
0.0000

> <Gold.PLP.ligand.torsion>
0.8744

> <Gold.PLP.Chemscore.Hbond>
4.9280

> <Gold.PLP.Chemscore.CHOScore>
0.0000

> <Gold.PLP.Chemscore.Metal>
0.0000

> <Gold.Chemscore.Hbonds>
donor molecule, donor type, donor heavy atom, donor atom, acceptor molecule, acceptor atom, score
      L1  H     3    24       P1 10747  0.94
      L1  H    17    43       P1 10747  1.00
      L1  H    21    49       P1 10186  2.00
      P1  H  6896  6907       L1    14  0.75

> <Gold.PLP.Chemscore.Internal.Correction>
0.2684

> <Gold.Rescore>
     Score         DG    S(hbond)    S(metal)    S(lipo)     H(rot)  DE(clash)    DE(int)     intcor
     19.53     -23.12       3.53        0.00      88.15       1.74       0.01       3.58       ----

> <Gold.Chemscore.Fitness>
19.5253

> <Gold.Chemscore.DG>
-23.1154

> <Gold.Chemscore.ZeroCoef>
-5.4800

> <Gold.Chemscore.Hbond>
3.5273

> <Gold.Chemscore.Metal>
0.0000

> <Gold.Chemscore.Lipo>
88.1542

> <Gold.Chemscore.Internal_Hbond>
0.0000

> <Gold.Chemscore.DEClash>
0.0106

> <Gold.Chemscore.DEInternal>
3.5796

> <Gold.Chemscore.Rot>
1.7421

> <Gold.Chemscore.Internal.Correction>
   9.000000E+99

> <Gold.Chemscore.Hbonds>
donor molecule, donor type, donor heavy atom, donor atom, acceptor molecule, acceptor atom, score
      L1  H     3    24       P1 10747  0.27
      L1  H    17    43       P1 10747  0.98
      L1  H    21    49       P1 10186  0.99
      P1  H  6896  6907       L1    14  0.09

> <Gold.Chemscore.Hbond.Weighted>
-11.7811

> <Gold.Chemscore.Metal.Weighted>
-0.0000

> <Gold.Chemscore.Lipo.Weighted>
-10.3140

> <Gold.Chemscore.Internal_Hbond.Weighted>
0.0000

> <Gold.Chemscore.DEClash.Weighted>
0.0106

> <Gold.Chemscore.DEInternal.Weighted>
3.5796

> <Gold.Chemscore.Rot.Weighted>
4.4597

> <Gold.Chemscore.Internal.Correction.Weighted>
   9.000000E+99

> <Gold.Protein.RotatedTorsions>
[ 6907 6896 6895 6894 ] final  172.38 input  -60.11 | X-H torsion
[ 7974 7965 7964 7962 ] final   41.72 input  175.53 | X-H torsion
[ 8008 7997 7996 7995 ] final  -19.22 input   59.86 | X-H torsion
[ 10167 10162 10161 10158 ] final   53.44 input  -65.29 | X-H torsion
[ 10718 10713 10712 10709 ] final  -48.08 input   66.30 | X-H torsion
[ 10763 10752 10751 10750 ] final  175.33 input  -60.55 | X-H torsion
[ 11005 11000 10999 10996 ] final -129.35 input  -57.11 | X-H torsion

> <Gold.Protein.ActiveResidues>
 VAL166  LYS551  ARG553  GLY616  TRP617  ASP618  TYR619  PRO620  LYS621  CYS622 
 ASP623  PHE694  ASN695  SER759  ASP760  ASP761  ALA762  ILE779  LEU786  VAL792 
 PHE793  MET794  SER795  GLU796  ALA797  LYS798  CYS799  TRP800  GLU811  SER814 

> <Gold.Protein.RotatedAtoms>
  151.7851  133.3353  159.3482 H   0  0  0  0  0  0  0  0  0  0  0  0  # atno 6907 bound_to 6896
  150.7412  134.5894  159.5989 H   0  0  0  0  0  0  0  0  0  0  0  0  # atno 6908 bound_to 6896
  152.3249  134.7335  160.0356 H   0  0  0  0  0  0  0  0  0  0  0  0  # atno 6909 bound_to 6896
  146.0800  139.5382  142.9543 H   0  0  0  0  0  0  0  0  0  0  0  0  # atno 7974 bound_to 7965
  154.4851  140.2094  155.9673 H   0  0  0  0  0  0  0  0  0  0  0  0  # atno 8008 bound_to 7997
  156.1224  140.3211  155.8197 H   0  0  0  0  0  0  0  0  0  0  0  0  # atno 8009 bound_to 7997
  155.4443  140.0512  157.2998 H   0  0  0  0  0  0  0  0  0  0  0  0  # atno 8010 bound_to 7997
  140.2408  144.3586  150.6381 H   0  0  0  0  0  0  0  0  0  0  0  0  # atno 10167 bound_to 10162
  156.2022  130.4157  149.9225 H   0  0  0  0  0  0  0  0  0  0  0  0  # atno 10718 bound_to 10713
  154.4661  135.2769  155.1677 H   0  0  0  0  0  0  0  0  0  0  0  0  # atno 10763 bound_to 10752
  154.3445  135.6163  153.5616 H   0  0  0  0  0  0  0  0  0  0  0  0  # atno 10764 bound_to 10752
  152.9859  135.5796  154.5033 H   0  0  0  0  0  0  0  0  0  0  0  0  # atno 10765 bound_to 10752
  140.9439  134.1156  157.4125 H   0  0  0  0  0  0  0  0  0  0  0  0  # atno 11005 bound_to 11000
  145.6236  141.0318  143.1901 LP  0  0  0  0  0  0  0  0  0  0  0  0  # atno 17320 bound_to 7965
  144.7287  139.7795  143.7355 LP  0  0  0  0  0  0  0  0  0  0  0  0  # atno 17321 bound_to 7965
  140.6115  143.2170  151.6876 LP  0  0  0  0  0  0  0  0  0  0  0  0  # atno 17342 bound_to 10162
  139.5078  144.3633  152.0541 LP  0  0  0  0  0  0  0  0  0  0  0  0  # atno 17343 bound_to 10162
  156.6931  130.8903  151.3590 LP  0  0  0  0  0  0  0  0  0  0  0  0  # atno 17370 bound_to 10713
  157.6992  130.9315  150.0735 LP  0  0  0  0  0  0  0  0  0  0  0  0  # atno 17371 bound_to 10713
  139.8828  135.0045  156.6254 LP  0  0  0  0  0  0  0  0  0  0  0  0  # atno 17394 bound_to 11000
  140.7696  133.8749  155.8481 LP  0  0  0  0  0  0  0  0  0  0  0  0  # atno 17395 bound_to 11000

$$$$
