AV-unprocessed.smi:79|AV-procd|sdf|781|dock6
  -GOLD-   2262017143D 1   1.00000     0.00000
 Structure written by MMmdl.
 56 59  0  0  0  0  0  0  0  0  2 V2000
  145.3179  132.1035  149.8516 C   0  0  0  0  0  0  0  0  0  0  0  0
  144.0920  131.8937  150.7502 C   0  0  2  0  0  0  0  0  0  0  0  0
  142.9761  131.6640  149.9133 O   0  0  0  0  0  0  0  0  0  0  0  0
  143.8218  133.1233  151.6415 C   0  0  0  0  0  0  0  0  0  0  0  0
  144.6056  133.1120  152.9038 N   0  3  2  0  0  0  0  0  0  0  0  0
  144.7298  134.4650  153.4990 C   0  0  0  0  0  0  0  0  0  0  0  0
  145.4590  134.4060  154.8491 C   0  0  0  0  0  0  0  0  0  0  0  0
  146.7477  133.7315  154.7232 N   0  0  0  0  0  0  0  0  0  0  0  0
  147.4632  133.8110  155.8678 C   0  0  0  0  0  0  0  0  0  0  0  0
  148.8146  133.9456  155.8170 N   0  0  0  0  0  0  0  0  0  0  0  0
  149.5159  134.0416  156.9510 C   0  0  0  0  0  0  0  0  0  0  0  0
  149.0729  134.0283  158.2105 N   0  0  0  0  0  0  0  0  0  0  0  0
  147.7163  133.8918  158.2594 C   0  0  0  0  0  0  0  0  0  0  0  0
  146.8430  133.7751  157.1433 C   0  0  0  0  0  0  0  0  0  0  0  0
  145.5283  133.6563  157.5732 N   0  0  0  0  0  0  0  0  0  0  0  0
  145.6183  133.7018  158.8752 C   0  0  0  0  0  0  0  0  0  0  0  0
  146.8959  133.8356  159.3729 N   0  0  0  0  0  0  0  0  0  0  0  0
  147.2840  133.9202  160.7728 C   0  0  0  0  0  0  0  0  0  0  0  0
  146.7678  135.1820  161.4887 C   0  0  0  0  0  0  0  0  0  0  0  0
  145.4064  134.8585  162.1369 C   0  0  0  0  0  0  0  0  0  0  0  0
  145.4963  133.8255  163.0980 O   0  0  0  0  0  0  0  0  0  0  0  0
  147.7993  135.8822  162.3849 C   0  0  0  0  0  0  0  0  0  0  0  0
  147.5927  137.1536  161.7304 O   0  0  0  0  0  0  0  0  0  0  0  0
  146.8384  136.4920  160.6908 C   0  0  0  0  0  0  0  0  0  0  0  0
  146.6803  132.3956  154.1192 C   0  0  2  0  0  0  0  0  0  0  0  0
  148.0706  131.7578  153.9201 C   0  0  0  0  0  0  0  0  0  0  0  0
  145.9341  132.4594  152.7696 C   0  0  0  0  0  0  0  0  0  0  0  0
  146.2165  132.2641  150.4482 H   0  0  0  0  0  0  0  0  0  0  0  0
  145.1925  132.9694  149.2005 H   0  0  0  0  0  0  0  0  0  0  0  0
  145.4962  131.2335  149.2184 H   0  0  0  0  0  0  0  0  0  0  0  0
  144.2610  131.0014  151.3515 H   0  0  0  0  0  0  0  0  0  0  0  0
  142.2298  131.4406  150.4480 H   0  0  0  0  0  0  0  0  0  0  0  0
  144.0395  134.0436  151.0970 H   0  0  0  0  0  0  0  0  0  0  0  0
  142.7550  133.1542  151.8703 H   0  0  0  0  0  0  0  0  0  0  0  0
  145.2695  135.1170  152.8101 H   0  0  0  0  0  0  0  0  0  0  0  0
  143.7406  134.9012  153.6431 H   0  0  0  0  0  0  0  0  0  0  0  0
  145.6061  135.4171  155.2318 H   0  0  0  0  0  0  0  0  0  0  0  0
  144.8397  133.8773  155.5754 H   0  0  0  0  0  0  0  0  0  0  0  0
  150.5845  134.1469  156.8329 H   0  0  0  0  0  0  0  0  0  0  0  0
  144.7470  133.6412  159.5109 H   0  0  0  0  0  0  0  0  0  0  0  0
  146.9352  133.0218  161.2834 H   0  0  0  0  0  0  0  0  0  0  0  0
  148.3731  133.8765  160.8145 H   0  0  0  0  0  0  0  0  0  0  0  0
  144.9944  135.7314  162.6431 H   0  0  0  0  0  0  0  0  0  0  0  0
  144.6792  134.5563  161.3828 H   0  0  0  0  0  0  0  0  0  0  0  0
  145.0794  133.0525  162.7490 H   0  0  0  0  0  0  0  0  0  0  0  0
  147.5370  135.9053  163.4431 H   0  0  0  0  0  0  0  0  0  0  0  0
  148.8205  135.5225  162.2506 H   0  0  0  0  0  0  0  0  0  0  0  0
  147.4117  136.4218  159.7658 H   0  0  0  0  0  0  0  0  0  0  0  0
  145.8696  136.9596  160.5116 H   0  0  0  0  0  0  0  0  0  0  0  0
  146.1061  131.7547  154.7905 H   0  0  0  0  0  0  0  0  0  0  0  0
  147.9878  130.7889  153.4267 H   0  0  0  0  0  0  0  0  0  0  0  0
  148.5820  131.5874  154.8678 H   0  0  0  0  0  0  0  0  0  0  0  0
  148.7114  132.3894  153.3038 H   0  0  0  0  0  0  0  0  0  0  0  0
  145.8211  131.4493  152.3781 H   0  0  0  0  0  0  0  0  0  0  0  0
  146.5305  133.0135  152.0426 H   0  0  0  0  0  0  0  0  0  0  0  0
  144.0738  132.5660  153.5663 H   0  0  0  0  0  0  0  0  0  0  0  0
  1  2  1  0  0  0  0
  1 28  1  0  0  0  0
  1 29  1  0  0  0  0
  1 30  1  0  0  0  0
  2  3  1  0  0  0  0
  2  4  1  0  0  0  0
  2 31  1  0  0  0  0
  3 32  1  0  0  0  0
  4  5  1  0  0  0  0
  4 33  1  0  0  0  0
  4 34  1  0  0  0  0
  5 27  1  0  0  0  0
  5  6  1  0  0  0  0
  5 56  1  0  0  0  0
  6  7  1  0  0  0  0
  6 35  1  0  0  0  0
  6 36  1  0  0  0  0
  7  8  1  0  0  0  0
  7 37  1  0  0  0  0
  7 38  1  0  0  0  0
  8  9  1  0  0  0  0
  8 25  1  0  0  0  0
  9 14  1  0  0  0  0
  9 10  2  0  0  0  0
 10 11  1  0  0  0  0
 11 12  2  0  0  0  0
 11 39  1  0  0  0  0
 12 13  1  0  0  0  0
 13 17  1  0  0  0  0
 13 14  2  0  0  0  0
 14 15  1  0  0  0  0
 15 16  2  0  0  0  0
 16 17  1  0  0  0  0
 16 40  1  0  0  0  0
 17 18  1  0  0  0  0
 18 19  1  0  0  0  0
 18 41  1  0  0  0  0
 18 42  1  0  0  0  0
 19 24  1  0  0  0  0
 19 20  1  0  0  0  0
 19 22  1  0  0  0  0
 20 21  1  0  0  0  0
 20 43  1  0  0  0  0
 20 44  1  0  0  0  0
 21 45  1  0  0  0  0
 22 23  1  0  0  0  0
 22 46  1  0  0  0  0
 22 47  1  0  0  0  0
 23 24  1  0  0  0  0
 24 48  1  0  0  0  0
 24 49  1  0  0  0  0
 25 26  1  0  0  0  0
 25 27  1  0  0  0  0
 25 50  1  0  0  0  0
 26 51  1  0  0  0  0
 26 52  1  0  0  0  0
 26 53  1  0  0  0  0
 27 54  1  0  0  0  0
 27 55  1  0  0  0  0
M  CHG  1   5   1
M  END
> <s_m_source_file>
AV-unprocessed.smi

> <i_m_source_file_index>
79

> <i_lp_mmshare_version>
43012

> <i_f3d_flags>
0

> <s_epik_input>
W0NIM11bQ0BIXShbT0hdKVtDSDJdTjFbQ0gyXVtDSDJdTihbQ0BASF0oW0NIM10pW0NIMl0xKWMobltjSF1uMiljKGMyMyluW2NIXW4zW0NIMl1DNChbQ0gyXVtPSF0pW0NIMl1PW0NIMl00

> <s_epik_cmdline>
J2VwaWtfcHl0aG9uJywgJy1waCcsICc3LjAnLCAnLXRuJywgJzgnLCAnLW1hJywgJzIwMCcsICctbWV0YWxfYmluZGluZycsICctaW1hZScsICc8aW5maWxlLm1hZT4nLCAnLW9tYWUnLCAnPG91dGZpbGUubWFlPic=

> <r_lp_tautomer_probability>
1

> <r_epik_Ionization_Penalty>
0.00515943

> <r_epik_Ionization_Penalty_Charging>
0.00509693

> <r_epik_Ionization_Penalty_Neutral>
6.25007e-05

> <r_epik_State_Penalty>
-0

> <r_epik_Charging_Adjusted_Penalty>
0.00509693

> <i_epik_Tot_Q>
1

> <i_epik_Tot_abs_Q>
1

> <r_epik_Metal_State_Penalty>
-0

> <b_epik_Metal_Only>
0

> <s_lp_Force_Field>
OPLS_2005

> <r_lp_Energy>
51.6894

> <b_lp_Chiralities_Consistent>
1

> <s_lp_Variant>
AV-unprocessed.smi:79-5

> <Gold.Version>
5.8.1

> <Gold.Id.Protein>
6NUR|6NUR_protein|mol2

> <Gold.PLP.Fitness>
49.8316

> <Gold.PLP.PLP>
-35.2796

> <Gold.PLP.part.hbond>
-7.0000

> <Gold.PLP.part.metal>
0.0000

> <Gold.PLP.part.buried>
-7.1453

> <Gold.PLP.part.nonpolar>
-22.3147

> <Gold.PLP.part.repulsive>
0.1108

> <Gold.PLP.ligand.clash>
0.0000

> <Gold.PLP.ligand.torsion>
1.9213

> <Gold.PLP.Chemscore.Hbond>
5.8945

> <Gold.PLP.Chemscore.CHOScore>
0.0000

> <Gold.PLP.Chemscore.Metal>
0.0000

> <Gold.Chemscore.Hbonds>
donor molecule, donor type, donor heavy atom, donor atom, acceptor molecule, acceptor atom, score
      L1  H     3    32       P1 10952  0.34
      L1  H     5    56       P1 10957  2.00
      P1  H  6896  6909       L1    12  1.00
      P1  H  6931  6943       L1    23  1.00
      P1  H  6934  6947       L1    23  0.44
      P1  H 10785 10796       L1     3  1.00

> <Gold.PLP.Chemscore.Internal.Correction>
0.7111

> <Gold.Rescore>
     Score         DG    S(hbond)    S(metal)    S(lipo)     H(rot)  DE(clash)    DE(int)     intcor
     11.96     -15.27       3.10        0.00      76.58       3.72       0.22       3.08       ----

> <Gold.Chemscore.Fitness>
11.9601

> <Gold.Chemscore.DG>
-15.2659

> <Gold.Chemscore.ZeroCoef>
-5.4800

> <Gold.Chemscore.Hbond>
3.1007

> <Gold.Chemscore.Metal>
0.0000

> <Gold.Chemscore.Lipo>
76.5754

> <Gold.Chemscore.Internal_Hbond>
0.0000

> <Gold.Chemscore.DEClash>
0.2247

> <Gold.Chemscore.DEInternal>
3.0812

> <Gold.Chemscore.Rot>
3.7226

> <Gold.Chemscore.Internal.Correction>
   9.000000E+99

> <Gold.Chemscore.Hbonds>
donor molecule, donor type, donor heavy atom, donor atom, acceptor molecule, acceptor atom, score
      L1  H     3    32       P1 10952  0.13
      L1  H     5    56       P1 10957  0.38
      P1  H  6896  6909       L1    12  0.55
      P1  H  6931  6943       L1    23  0.78
      P1  H  6934  6947       L1    23  0.04
      P1  H 10785 10796       L1     3  0.38

> <Gold.Chemscore.Hbond.Weighted>
-10.3564

> <Gold.Chemscore.Metal.Weighted>
-0.0000

> <Gold.Chemscore.Lipo.Weighted>
-8.9593

> <Gold.Chemscore.Internal_Hbond.Weighted>
0.0000

> <Gold.Chemscore.DEClash.Weighted>
0.2247

> <Gold.Chemscore.DEInternal.Weighted>
3.0812

> <Gold.Chemscore.Rot.Weighted>
9.5298

> <Gold.Chemscore.Internal.Correction.Weighted>
   9.000000E+99

> <Gold.Protein.RotatedTorsions>
[ 6907 6896 6895 6894 ] final   18.09 input  -60.11 | X-H torsion
[ 7974 7965 7964 7962 ] final  -81.55 input  175.53 | X-H torsion
[ 8008 7997 7996 7995 ] final   14.50 input   59.86 | X-H torsion
[ 10167 10162 10161 10158 ] final  -29.65 input  -65.29 | X-H torsion
[ 10718 10713 10712 10709 ] final -144.40 input   66.30 | X-H torsion
[ 10763 10752 10751 10750 ] final -115.14 input  -60.55 | X-H torsion
[ 11005 11000 10999 10996 ] final  178.57 input  -57.11 | X-H torsion

> <Gold.Protein.ActiveResidues>
 VAL166  LYS551  ARG553  GLY616  TRP617  ASP618  TYR619  PRO620  LYS621  CYS622 
 ASP623  PHE694  ASN695  SER759  ASP760  ASP761  ALA762  ILE779  LEU786  VAL792 
 PHE793  MET794  SER795  GLU796  ALA797  LYS798  CYS799  TRP800  GLU811  SER814 

> <Gold.Protein.RotatedAtoms>
  151.8598  135.0528  160.0467 H   0  0  0  0  0  0  0  0  0  0  0  0  # atno 6907 bound_to 6896
  152.2671  133.5345  159.5425 H   0  0  0  0  0  0  0  0  0  0  0  0  # atno 6908 bound_to 6896
  150.7138  134.0665  159.3892 H   0  0  0  0  0  0  0  0  0  0  0  0  # atno 6909 bound_to 6896
  145.5452  140.9504  143.1529 H   0  0  0  0  0  0  0  0  0  0  0  0  # atno 7974 bound_to 7965
  154.8494  140.2927  155.5608 H   0  0  0  0  0  0  0  0  0  0  0  0  # atno 8008 bound_to 7997
  156.3016  140.2499  156.3382 H   0  0  0  0  0  0  0  0  0  0  0  0  # atno 8009 bound_to 7997
  154.9038  140.0390  157.1897 H   0  0  0  0  0  0  0  0  0  0  0  0  # atno 8010 bound_to 7997
  140.7258  143.3912  151.1427 H   0  0  0  0  0  0  0  0  0  0  0  0  # atno 10167 bound_to 10162
  156.3697  130.7781  151.1960 H   0  0  0  0  0  0  0  0  0  0  0  0  # atno 10718 bound_to 10713
  154.8469  135.4392  154.1616 H   0  0  0  0  0  0  0  0  0  0  0  0  # atno 10763 bound_to 10752
  153.2751  135.6948  153.7447 H   0  0  0  0  0  0  0  0  0  0  0  0  # atno 10764 bound_to 10752
  153.6673  135.3425  155.3118 H   0  0  0  0  0  0  0  0  0  0  0  0  # atno 10765 bound_to 10752
  140.3966  134.6815  157.4538 H   0  0  0  0  0  0  0  0  0  0  0  0  # atno 11005 bound_to 11000
  144.7557  139.7081  143.7255 LP  0  0  0  0  0  0  0  0  0  0  0  0  # atno 17320 bound_to 7965
  146.1954  139.5218  142.9778 LP  0  0  0  0  0  0  0  0  0  0  0  0  # atno 17321 bound_to 7965
  139.7517  143.8768  152.3078 LP  0  0  0  0  0  0  0  0  0  0  0  0  # atno 17342 bound_to 10162
  139.8624  144.7110  150.9083 LP  0  0  0  0  0  0  0  0  0  0  0  0  # atno 17343 bound_to 10162
  157.7482  131.0376  150.4462 LP  0  0  0  0  0  0  0  0  0  0  0  0  # atno 17370 bound_to 10713
  156.4687  130.4048  149.6531 LP  0  0  0  0  0  0  0  0  0  0  0  0  # atno 17371 bound_to 10713
  140.0367  134.6326  155.9034 LP  0  0  0  0  0  0  0  0  0  0  0  0  # atno 17394 bound_to 11000
  141.1872  133.6559  156.5271 LP  0  0  0  0  0  0  0  0  0  0  0  0  # atno 17395 bound_to 11000

$$$$
