AV-unprocessed.smi:3308|AV-procd|sdf|12714|dock3
  -GOLD-   2272019 53D 1   1.00000     0.00000
 Structure written by MMmdl.
 40 41  0  0  0  0  0  0  0  0  1 V2000
  152.4284  140.2773  158.9351 C   0  0  0  0  0  0  0  0  0  0  0  0
  151.7084  141.5821  158.5291 C   0  0  2  0  0  0  0  0  0  0  0  0
  151.4879  141.5712  157.0856 N   0  0  0  0  0  0  0  0  0  0  0  0
  150.0738  141.7127  156.7155 C   0  0  0  0  0  0  0  0  0  0  0  0
  149.7930  141.0941  155.3421 C   0  0  0  0  0  0  0  0  0  0  0  0
  150.6960  140.4781  154.7754 O   0  0  0  0  0  0  0  0  0  0  0  0
  148.5667  141.2409  154.7964 N   0  0  0  0  0  0  0  0  0  0  0  0
  147.4773  141.9634  155.4506 C   0  0  0  0  0  0  0  0  0  0  0  0
  146.2288  141.6766  154.6163 C   0  0  0  0  0  0  0  0  0  0  0  0
  146.7727  141.3627  153.2297 C   0  0  0  0  0  0  0  0  0  0  0  0
  148.1343  140.7214  153.4985 C   0  0  0  0  0  0  0  0  0  0  0  0
  152.5149  142.8603  158.8841 C   0  0  1  0  0  0  0  0  0  0  0  0
  151.9313  144.1298  158.2347 C   0  0  0  0  0  0  0  0  0  0  0  0
  152.6198  143.0535  160.3254 N   0  0  0  0  0  0  0  0  0  0  0  0
  152.1489  144.1011  161.0921 C   0  0  0  0  0  0  0  0  0  0  0  0
  152.4796  143.8387  162.3904 C   0  0  0  0  0  0  0  0  0  0  0  0
  153.1604  142.5914  162.3197 C   0  0  0  0  0  0  0  0  0  0  0  0
  153.2424  142.1244  161.0846 N   0  0  0  0  0  0  0  0  0  0  0  0
  152.5784  140.2197  160.0130 H   0  0  0  0  0  0  0  0  0  0  0  0
  153.4085  140.2041  158.4624 H   0  0  0  0  0  0  0  0  0  0  0  0
  151.8605  139.3904  158.6568 H   0  0  0  0  0  0  0  0  0  0  0  0
  150.7491  141.6320  159.0474 H   0  0  0  0  0  0  0  0  0  0  0  0
  151.9019  140.7399  156.6889 H   0  0  0  0  0  0  0  0  0  0  0  0
  149.4264  141.2623  157.4669 H   0  0  0  0  0  0  0  0  0  0  0  0
  149.8134  142.7717  156.6759 H   0  0  0  0  0  0  0  0  0  0  0  0
  147.3408  141.6521  156.4875 H   0  0  0  0  0  0  0  0  0  0  0  0
  147.7057  143.0304  155.4443 H   0  0  0  0  0  0  0  0  0  0  0  0
  145.7169  140.7993  155.0143 H   0  0  0  0  0  0  0  0  0  0  0  0
  145.5203  142.5055  154.6165 H   0  0  0  0  0  0  0  0  0  0  0  0
  146.1094  140.7205  152.6494 H   0  0  0  0  0  0  0  0  0  0  0  0
  146.9094  142.2911  152.6733 H   0  0  0  0  0  0  0  0  0  0  0  0
  148.8388  140.9526  152.6988 H   0  0  0  0  0  0  0  0  0  0  0  0
  148.0364  139.6368  153.5639 H   0  0  0  0  0  0  0  0  0  0  0  0
  153.5304  142.7354  158.5016 H   0  0  0  0  0  0  0  0  0  0  0  0
  151.9373  144.0624  157.1467 H   0  0  0  0  0  0  0  0  0  0  0  0
  152.5138  145.0106  158.5065 H   0  0  0  0  0  0  0  0  0  0  0  0
  150.9013  144.3021  158.5486 H   0  0  0  0  0  0  0  0  0  0  0  0
  151.6223  144.9362  160.6539 H   0  0  0  0  0  0  0  0  0  0  0  0
  152.2679  144.4452  163.2586 H   0  0  0  0  0  0  0  0  0  0  0  0
  153.5944  142.0150  163.1235 H   0  0  0  0  0  0  0  0  0  0  0  0
  1  2  1  0  0  0  0
  1 19  1  0  0  0  0
  1 20  1  0  0  0  0
  1 21  1  0  0  0  0
  2  3  1  0  0  0  0
  2 12  1  0  0  0  0
  2 22  1  0  0  0  0
  3  4  1  0  0  0  0
  3 23  1  0  0  0  0
  4  5  1  0  0  0  0
  4 24  1  0  0  0  0
  4 25  1  0  0  0  0
  5  6  2  0  0  0  0
  5  7  1  0  0  0  0
  7 11  1  0  0  0  0
  7  8  1  0  0  0  0
  8  9  1  0  0  0  0
  8 26  1  0  0  0  0
  8 27  1  0  0  0  0
  9 10  1  0  0  0  0
  9 28  1  0  0  0  0
  9 29  1  0  0  0  0
 10 11  1  0  0  0  0
 10 30  1  0  0  0  0
 10 31  1  0  0  0  0
 11 32  1  0  0  0  0
 11 33  1  0  0  0  0
 12 13  1  0  0  0  0
 12 14  1  0  0  0  0
 12 34  1  0  0  0  0
 13 35  1  0  0  0  0
 13 36  1  0  0  0  0
 13 37  1  0  0  0  0
 14 18  1  0  0  0  0
 14 15  1  0  0  0  0
 15 16  2  0  0  0  0
 15 38  1  0  0  0  0
 16 17  1  0  0  0  0
 16 39  1  0  0  0  0
 17 18  2  0  0  0  0
 17 40  1  0  0  0  0
M  END
> <s_m_source_file>
AV-unprocessed.smi

> <i_m_source_file_index>
3308

> <i_lp_mmshare_version>
43012

> <i_f3d_flags>
0

> <s_epik_input>
bjFbY0hdW2NIXVtjSF1uMVtDQEBIXShbQ0gzXSlbQ0BIXShbQ0gzXSlbTkhdW0NIMl1DKD1PKU4yW0NIMl1bQ0gyXVtDSDJdW0NIMl0y

> <s_epik_cmdline>
J2VwaWtfcHl0aG9uJywgJy1waCcsICc3LjAnLCAnLXRuJywgJzgnLCAnLW1hJywgJzIwMCcsICctbWV0YWxfYmluZGluZycsICctaW1hZScsICc8aW5maWxlLm1hZT4nLCAnLW9tYWUnLCAnPG91dGZpbGUubWFlPic=

> <r_lp_tautomer_probability>
1

> <r_epik_Ionization_Penalty>
0.918676

> <r_epik_Ionization_Penalty_Charging>
0

> <r_epik_Ionization_Penalty_Neutral>
0.918676

> <r_epik_State_Penalty>
0.958258

> <r_epik_Charging_Adjusted_Penalty>
0.958258

> <i_epik_Tot_Q>
0

> <i_epik_Tot_abs_Q>
0

> <r_epik_Metal_State_Penalty>
0.956879

> <b_epik_Metal_Only>
0

> <s_lp_Force_Field>
OPLS_2005

> <r_lp_Energy>
36.0541

> <b_lp_Chiralities_Consistent>
1

> <s_lp_Variant>
AV-unprocessed.smi:3308-7

> <Gold.Version>
5.8.1

> <Gold.Id.Protein>
6NUR|6NUR_protein|mol2

> <Gold.PLP.Fitness>
44.1665

> <Gold.PLP.PLP>
-43.2362

> <Gold.PLP.part.hbond>
-1.0000

> <Gold.PLP.part.metal>
0.0000

> <Gold.PLP.part.buried>
-0.3316

> <Gold.PLP.part.nonpolar>
-41.2003

> <Gold.PLP.part.repulsive>
0.0961

> <Gold.PLP.ligand.clash>
0.0000

> <Gold.PLP.ligand.torsion>
1.0685

> <Gold.PLP.Chemscore.Hbond>
1.0000

> <Gold.PLP.Chemscore.CHOScore>
0.0000

> <Gold.PLP.Chemscore.Metal>
0.0000

> <Gold.Chemscore.Hbonds>
donor molecule, donor type, donor heavy atom, donor atom, acceptor molecule, acceptor atom, score
      P1  H  7989  7998       L1     6  1.00

> <Gold.PLP.Chemscore.Internal.Correction>
0.0673

> <Gold.Rescore>
     Score         DG    S(hbond)    S(metal)    S(lipo)     H(rot)  DE(clash)    DE(int)     intcor
     13.44     -17.12       0.99        0.00     108.96       1.72       1.40       2.28       ----

> <Gold.Chemscore.Fitness>
13.4360

> <Gold.Chemscore.DG>
-17.1198

> <Gold.Chemscore.ZeroCoef>
-5.4800

> <Gold.Chemscore.Hbond>
0.9865

> <Gold.Chemscore.Metal>
0.0000

> <Gold.Chemscore.Lipo>
108.9560

> <Gold.Chemscore.Internal_Hbond>
0.0000

> <Gold.Chemscore.DEClash>
1.4027

> <Gold.Chemscore.DEInternal>
2.2810

> <Gold.Chemscore.Rot>
1.7200

> <Gold.Chemscore.Internal.Correction>
   9.000000E+99

> <Gold.Chemscore.Hbonds>
donor molecule, donor type, donor heavy atom, donor atom, acceptor molecule, acceptor atom, score
      P1  H  7989  7998       L1     6  0.96

> <Gold.Chemscore.Hbond.Weighted>
-3.2950

> <Gold.Chemscore.Metal.Weighted>
-0.0000

> <Gold.Chemscore.Lipo.Weighted>
-12.7479

> <Gold.Chemscore.Internal_Hbond.Weighted>
0.0000

> <Gold.Chemscore.DEClash.Weighted>
1.4027

> <Gold.Chemscore.DEInternal.Weighted>
2.2810

> <Gold.Chemscore.Rot.Weighted>
4.4031

> <Gold.Chemscore.Internal.Correction.Weighted>
   9.000000E+99

> <Gold.Protein.RotatedTorsions>
[ 6907 6896 6895 6894 ] final  164.41 input  -60.11 | X-H torsion
[ 7974 7965 7964 7962 ] final -130.10 input  175.53 | X-H torsion
[ 8008 7997 7996 7995 ] final  -46.11 input   59.86 | X-H torsion
[ 10167 10162 10161 10158 ] final   58.41 input  -65.29 | X-H torsion
[ 10718 10713 10712 10709 ] final  128.69 input   66.30 | X-H torsion
[ 10763 10752 10751 10750 ] final -168.17 input  -60.55 | X-H torsion
[ 11005 11000 10999 10996 ] final -107.40 input  -57.11 | X-H torsion

> <Gold.Protein.ActiveResidues>
 VAL166  LYS551  ARG553  GLY616  TRP617  ASP618  TYR619  PRO620  LYS621  CYS622 
 ASP623  PHE694  ASN695  SER759  ASP760  ASP761  ALA762  ILE779  LEU786  VAL792 
 PHE793  MET794  SER795  GLU796  ALA797  LYS798  CYS799  TRP800  GLU811  SER814 

> <Gold.Protein.RotatedAtoms>
  151.9103  133.3559  159.3860 H   0  0  0  0  0  0  0  0  0  0  0  0  # atno 6907 bound_to 6896
  150.7059  134.4739  159.5447 H   0  0  0  0  0  0  0  0  0  0  0  0  # atno 6908 bound_to 6896
  152.2344  134.8291  160.0520 H   0  0  0  0  0  0  0  0  0  0  0  0  # atno 6909 bound_to 6896
  144.9508  140.7342  143.4789 H   0  0  0  0  0  0  0  0  0  0  0  0  # atno 7974 bound_to 7965
  154.4005  140.1379  156.3958 H   0  0  0  0  0  0  0  0  0  0  0  0  # atno 8008 bound_to 7997
  155.7871  140.3480  155.5308 H   0  0  0  0  0  0  0  0  0  0  0  0  # atno 8009 bound_to 7997
  155.8616  140.0957  157.1600 H   0  0  0  0  0  0  0  0  0  0  0  0  # atno 8010 bound_to 7997
  140.1875  144.4120  150.6586 H   0  0  0  0  0  0  0  0  0  0  0  0  # atno 10167 bound_to 10162
  157.5222  131.1098  150.9137 H   0  0  0  0  0  0  0  0  0  0  0  0  # atno 10718 bound_to 10713
  154.6656  135.2931  154.9809 H   0  0  0  0  0  0  0  0  0  0  0  0  # atno 10763 bound_to 10752
  154.0854  135.6598  153.4848 H   0  0  0  0  0  0  0  0  0  0  0  0  # atno 10764 bound_to 10752
  153.0456  135.5207  154.7628 H   0  0  0  0  0  0  0  0  0  0  0  0  # atno 10765 bound_to 10752
  141.0955  133.8978  157.1972 H   0  0  0  0  0  0  0  0  0  0  0  0  # atno 11005 bound_to 11000
  145.2847  139.1905  143.4772 LP  0  0  0  0  0  0  0  0  0  0  0  0  # atno 17320 bound_to 7965
  146.3320  140.2815  142.8610 LP  0  0  0  0  0  0  0  0  0  0  0  0  # atno 17321 bound_to 7965
  140.6478  143.2217  151.6145 LP  0  0  0  0  0  0  0  0  0  0  0  0  # atno 17342 bound_to 10162
  139.5270  144.3029  152.1058 LP  0  0  0  0  0  0  0  0  0  0  0  0  # atno 17343 bound_to 10162
  156.9744  130.5503  149.5292 LP  0  0  0  0  0  0  0  0  0  0  0  0  # atno 17370 bound_to 10713
  156.0361  130.5448  150.8657 LP  0  0  0  0  0  0  0  0  0  0  0  0  # atno 17371 bound_to 10713
  139.9791  135.0104  156.9706 LP  0  0  0  0  0  0  0  0  0  0  0  0  # atno 17394 bound_to 11000
  140.5149  134.0965  155.7278 LP  0  0  0  0  0  0  0  0  0  0  0  0  # atno 17395 bound_to 11000

$$$$
