AV-unprocessed.smi:2775|AV-procd|sdf|10697|dock2
  -GOLD-   2272015133D 1   1.00000     0.00000
 Structure written by MMmdl.
 43 46  0  0  0  0  0  0  0  0  2 V2000
  150.4083  141.1797  155.6004 C   0  0  0  0  0  0  0  0  0  0  0  0
  149.1635  140.9618  154.7617 C   0  0  0  0  0  0  0  0  0  0  0  0
  148.3051  141.9967  154.6296 N   0  3  0  0  0  0  0  0  0  0  0  0
  147.1708  141.9227  153.9032 C   0  0  0  0  0  0  0  0  0  0  0  0
  146.8344  140.7240  153.2444 C   0  0  0  0  0  0  0  0  0  0  0  0
  147.6920  139.6006  153.3611 C   0  0  0  0  0  0  0  0  0  0  0  0
  147.4464  138.3533  152.7227 N   0  0  0  0  0  0  0  0  0  0  0  0
  146.2779  137.7754  152.3837 C   0  0  0  0  0  0  0  0  0  0  0  0
  145.1670  138.2522  152.6033 O   0  0  0  0  0  0  0  0  0  0  0  0
  146.4190  136.5834  151.7789 N   0  0  0  0  0  0  0  0  0  0  0  0
  145.3559  135.7051  151.2901 C   0  0  1  0  0  0  0  0  0  0  0  0
  145.7607  134.2299  151.3062 C   0  0  2  0  0  0  0  0  0  0  0  0
  146.0691  133.2311  150.2499 C   0  0  0  0  0  0  0  0  0  0  0  0
  145.2619  132.0472  150.8407 C   0  0  0  0  0  0  0  0  0  0  0  0
  144.4888  132.6025  151.9324 O   0  0  0  0  0  0  0  0  0  0  0  0
  144.2879  133.9544  151.5673 C   0  0  1  0  0  0  0  0  0  0  0  0
  144.3358  135.2495  152.3887 C   0  0  0  0  0  0  0  0  0  0  0  0
  143.0645  136.0521  152.6893 C   0  0  0  0  0  0  0  0  0  0  0  0
  143.6735  136.4321  154.0435 C   0  0  0  0  0  0  0  0  0  0  0  0
  144.6396  135.2517  153.8985 C   0  0  0  0  0  0  0  0  0  0  0  0
  148.8797  139.7315  154.1232 C   0  0  0  0  0  0  0  0  0  0  0  0
  149.9763  138.3995  154.2783 Cl  0  0  0  0  0  0  0  0  0  0  0  0
  150.4353  140.4732  156.4304 H   0  0  0  0  0  0  0  0  0  0  0  0
  150.4397  142.1885  156.0137 H   0  0  0  0  0  0  0  0  0  0  0  0
  151.3032  141.0345  154.9951 H   0  0  0  0  0  0  0  0  0  0  0  0
  146.5718  142.8208  153.8664 H   0  0  0  0  0  0  0  0  0  0  0  0
  145.9314  140.6991  152.6548 H   0  0  0  0  0  0  0  0  0  0  0  0
  148.2710  137.8011  152.5360 H   0  0  0  0  0  0  0  0  0  0  0  0
  147.3629  136.2483  151.6484 H   0  0  0  0  0  0  0  0  0  0  0  0
  144.8980  136.0135  150.3461 H   0  0  0  0  0  0  0  0  0  0  0  0
  146.3777  134.0274  152.1897 H   0  0  0  0  0  0  0  0  0  0  0  0
  145.6896  133.5384  149.2745 H   0  0  0  0  0  0  0  0  0  0  0  0
  147.1346  133.0143  150.1686 H   0  0  0  0  0  0  0  0  0  0  0  0
  144.6013  131.6148  150.0883 H   0  0  0  0  0  0  0  0  0  0  0  0
  145.9113  131.2562  151.2168 H   0  0  0  0  0  0  0  0  0  0  0  0
  143.6540  134.0450  150.6788 H   0  0  0  0  0  0  0  0  0  0  0  0
  142.8822  136.8929  152.0202 H   0  0  0  0  0  0  0  0  0  0  0  0
  142.1822  135.4183  152.7889 H   0  0  0  0  0  0  0  0  0  0  0  0
  144.1808  137.3975  154.0236 H   0  0  0  0  0  0  0  0  0  0  0  0
  142.9868  136.3556  154.8871 H   0  0  0  0  0  0  0  0  0  0  0  0
  144.2785  134.3513  154.3977 H   0  0  0  0  0  0  0  0  0  0  0  0
  145.6713  135.4734  154.1721 H   0  0  0  0  0  0  0  0  0  0  0  0
  148.5273  142.8764  155.0966 H   0  0  0  0  0  0  0  0  0  0  0  0
  1  2  1  0  0  0  0
  1 23  1  0  0  0  0
  1 24  1  0  0  0  0
  1 25  1  0  0  0  0
  2 21  1  0  0  0  0
  2  3  2  0  0  0  0
  3  4  1  0  0  0  0
  3 43  1  0  0  0  0
  4  5  2  0  0  0  0
  4 26  1  0  0  0  0
  5  6  1  0  0  0  0
  5 27  1  0  0  0  0
  6  7  1  0  0  0  0
  6 21  2  0  0  0  0
  7  8  1  0  0  0  0
  7 28  1  0  0  0  0
  8  9  2  0  0  0  0
  8 10  1  0  0  0  0
 10 11  1  0  0  0  0
 10 29  1  0  0  0  0
 11 17  1  0  0  0  0
 11 12  1  0  0  0  0
 11 30  1  0  0  0  0
 12 16  1  0  0  0  0
 12 13  1  0  0  0  0
 12 31  1  0  0  0  0
 13 14  1  0  0  0  0
 13 32  1  0  0  0  0
 13 33  1  0  0  0  0
 14 15  1  0  0  0  0
 14 34  1  0  0  0  0
 14 35  1  0  0  0  0
 15 16  1  0  0  0  0
 16 17  1  0  0  0  0
 16 36  1  0  0  0  0
 17 20  1  0  0  0  0
 17 18  1  0  0  0  0
 18 19  1  0  0  0  0
 18 37  1  0  0  0  0
 18 38  1  0  0  0  0
 19 20  1  0  0  0  0
 19 39  1  0  0  0  0
 19 40  1  0  0  0  0
 20 41  1  0  0  0  0
 20 42  1  0  0  0  0
 21 22  1  0  0  0  0
M  CHG  1   3   1
M  END
> <s_m_source_file>
AV-unprocessed.smi

> <i_m_source_file_index>
2775

> <i_lp_mmshare_version>
43012

> <i_f3d_flags>
0

> <s_epik_input>
W0NIM11jMW5bY0hdW2NIXWMoYzFDbClbTkhdQyg9TylbTkhdW0NAQEhdMltDQEhdKFtDSDJdW0NIMl1PMylbQ0BASF0zQzI0W0NIMl1bQ0gyXVtDSDJdNA==

> <s_epik_cmdline>
J2VwaWtfcHl0aG9uJywgJy1waCcsICc3LjAnLCAnLXRuJywgJzgnLCAnLW1hJywgJzIwMCcsICctbWV0YWxfYmluZGluZycsICctaW1hZScsICc8aW5maWxlLm1hZT4nLCAnLW9tYWUnLCAnPG91dGZpbGUubWFlPic=

> <r_epik_Ionization_Penalty>
2.4104

> <r_epik_Ionization_Penalty_Charging>
2.41038

> <r_epik_Ionization_Penalty_Neutral>
1.9872e-05

> <r_epik_State_Penalty>
2.56896

> <r_epik_Charging_Adjusted_Penalty>
4.97934

> <i_epik_Tot_Q>
1

> <i_epik_Tot_abs_Q>
1

> <r_epik_Metal_State_Penalty>
2.57906

> <b_epik_Metal_Only>
0

> <s_lp_Force_Field>
OPLS_2005

> <r_lp_Energy>
84.4101

> <b_lp_Chiralities_Consistent>
1

> <s_lp_Variant>
AV-unprocessed.smi:2775-10

> <Gold.Version>
5.8.1

> <Gold.Id.Protein>
6NUR|6NUR_protein|mol2

> <Gold.PLP.Fitness>
46.9819

> <Gold.PLP.PLP>
-35.4970

> <Gold.PLP.part.hbond>
-3.6457

> <Gold.PLP.part.metal>
0.0000

> <Gold.PLP.part.buried>
-2.3718

> <Gold.PLP.part.nonpolar>
-33.1260

> <Gold.PLP.part.repulsive>
3.8781

> <Gold.PLP.ligand.clash>
0.0000

> <Gold.PLP.ligand.torsion>
0.3567

> <Gold.PLP.Chemscore.Hbond>
3.9600

> <Gold.PLP.Chemscore.CHOScore>
0.0000

> <Gold.PLP.Chemscore.Metal>
0.0000

> <Gold.Chemscore.Hbonds>
donor molecule, donor type, donor heavy atom, donor atom, acceptor molecule, acceptor atom, score
      L1  H     3    43       P1  8028  2.00
      L1  H     7    28       P1  7948  0.94
      L1  H    10    29       P1  7948  1.00

> <Gold.PLP.Chemscore.Internal.Correction>
0.3183

> <Gold.Rescore>
     Score         DG    S(hbond)    S(metal)    S(lipo)     H(rot)  DE(clash)    DE(int)     intcor
     18.70     -23.36       2.92        0.00      91.29       1.00       1.43       3.22       ----

> <Gold.Chemscore.Fitness>
18.7048

> <Gold.Chemscore.DG>
-23.3630

> <Gold.Chemscore.ZeroCoef>
-5.4800

> <Gold.Chemscore.Hbond>
2.9226

> <Gold.Chemscore.Metal>
0.0000

> <Gold.Chemscore.Lipo>
91.2940

> <Gold.Chemscore.Internal_Hbond>
0.0000

> <Gold.Chemscore.DEClash>
1.4338

> <Gold.Chemscore.DEInternal>
3.2244

> <Gold.Chemscore.Rot>
1.0000

> <Gold.Chemscore.Internal.Correction>
   9.000000E+99

> <Gold.Chemscore.Hbonds>
donor molecule, donor type, donor heavy atom, donor atom, acceptor molecule, acceptor atom, score
      L1  H     3    43       P1  8028  0.99
      L1  H     7    28       P1  7948  0.92
      L1  H    10    29       P1  7948  0.96

> <Gold.Chemscore.Hbond.Weighted>
-9.7616

> <Gold.Chemscore.Metal.Weighted>
-0.0000

> <Gold.Chemscore.Lipo.Weighted>
-10.6814

> <Gold.Chemscore.Internal_Hbond.Weighted>
0.0000

> <Gold.Chemscore.DEClash.Weighted>
1.4338

> <Gold.Chemscore.DEInternal.Weighted>
3.2244

> <Gold.Chemscore.Rot.Weighted>
2.5600

> <Gold.Chemscore.Internal.Correction.Weighted>
   9.000000E+99

> <Gold.Protein.RotatedTorsions>
[ 6907 6896 6895 6894 ] final -105.65 input  -60.11 | X-H torsion
[ 7974 7965 7964 7962 ] final  128.51 input  175.53 | X-H torsion
[ 8008 7997 7996 7995 ] final   79.19 input   59.86 | X-H torsion
[ 10167 10162 10161 10158 ] final   23.93 input  -65.29 | X-H torsion
[ 10718 10713 10712 10709 ] final   60.31 input   66.30 | X-H torsion
[ 10763 10752 10751 10750 ] final   34.85 input  -60.55 | X-H torsion
[ 11005 11000 10999 10996 ] final  111.47 input  -57.11 | X-H torsion

> <Gold.Protein.ActiveResidues>
 VAL166  LYS551  ARG553  GLY616  TRP617  ASP618  TYR619  PRO620  LYS621  CYS622 
 ASP623  PHE694  ASN695  SER759  ASP760  ASP761  ALA762  ILE779  LEU786  VAL792 
 PHE793  MET794  SER795  GLU796  ALA797  LYS798  CYS799  TRP800  GLU811  SER814 

> <Gold.Protein.RotatedAtoms>
  150.7347  134.0095  159.3664 H   0  0  0  0  0  0  0  0  0  0  0  0  # atno 6907 bound_to 6896
  151.8054  135.0694  160.0415 H   0  0  0  0  0  0  0  0  0  0  0  0  # atno 6908 bound_to 6896
  152.3111  133.5717  159.5717 H   0  0  0  0  0  0  0  0  0  0  0  0  # atno 6909 bound_to 6896
  145.0388  139.3981  143.5112 H   0  0  0  0  0  0  0  0  0  0  0  0  # atno 7974 bound_to 7965
  155.8663  140.3451  155.5790 H   0  0  0  0  0  0  0  0  0  0  0  0  # atno 8008 bound_to 7997
  155.7877  140.0867  157.2045 H   0  0  0  0  0  0  0  0  0  0  0  0  # atno 8009 bound_to 7997
  154.4014  140.1489  156.3114 H   0  0  0  0  0  0  0  0  0  0  0  0  # atno 8010 bound_to 7997
  140.5229  143.9972  150.6426 H   0  0  0  0  0  0  0  0  0  0  0  0  # atno 10167 bound_to 10162
  157.5743  130.8931  149.9319 H   0  0  0  0  0  0  0  0  0  0  0  0  # atno 10718 bound_to 10713
  153.0145  135.6349  154.1733 H   0  0  0  0  0  0  0  0  0  0  0  0  # atno 10763 bound_to 10752
  154.1473  135.2831  155.3146 H   0  0  0  0  0  0  0  0  0  0  0  0  # atno 10764 bound_to 10752
  154.6079  135.5566  153.7504 H   0  0  0  0  0  0  0  0  0  0  0  0  # atno 10765 bound_to 10752
  139.8904  134.9508  156.6437 H   0  0  0  0  0  0  0  0  0  0  0  0  # atno 11005 bound_to 11000
  146.3507  139.9978  142.8679 LP  0  0  0  0  0  0  0  0  0  0  0  0  # atno 17320 bound_to 7965
  145.1675  140.9704  143.4341 LP  0  0  0  0  0  0  0  0  0  0  0  0  # atno 17321 bound_to 7965
  140.3326  143.3068  152.0671 LP  0  0  0  0  0  0  0  0  0  0  0  0  # atno 17342 bound_to 10162
  139.4929  144.6498  151.6699 LP  0  0  0  0  0  0  0  0  0  0  0  0  # atno 17343 bound_to 10162
  156.0787  130.3675  150.0624 LP  0  0  0  0  0  0  0  0  0  0  0  0  # atno 17370 bound_to 10713
  156.8772  130.9544  151.3603 LP  0  0  0  0  0  0  0  0  0  0  0  0  # atno 17371 bound_to 10713
  140.7574  133.8846  155.8392 LP  0  0  0  0  0  0  0  0  0  0  0  0  # atno 17394 bound_to 11000
  140.9950  134.1227  157.4372 LP  0  0  0  0  0  0  0  0  0  0  0  0  # atno 17395 bound_to 11000

$$$$
