AV-unprocessed.smi:1509|AV-procd|sdf|6093|dock2
  -GOLD-   22720 6223D 1   1.00000     0.00000
 Structure written by MMmdl.
 42 43  0  0  0  0  0  0  0  0  2 V2000
  145.9072  132.1212  149.4505 C   0  0  0  0  0  0  0  0  0  0  0  0
  146.2474  133.3235  150.3423 C   0  0  1  0  0  0  0  0  0  0  0  0
  145.0201  134.2234  150.5634 C   0  0  0  0  0  0  0  0  0  0  0  0
  145.3799  135.3981  151.4817 C   0  0  0  0  0  0  0  0  0  0  0  0
  145.9827  134.8981  152.8042 C   0  0  0  0  0  0  0  0  0  0  0  0
  147.1693  134.0387  152.5586 N   0  3  1  0  0  0  0  0  0  0  0  0
  147.8557  133.6520  153.8173 C   0  0  0  0  0  0  0  0  0  0  0  0
  149.3122  133.2193  153.5786 C   0  0  0  0  0  0  0  0  0  0  0  0
  150.3111  134.0674  154.3831 C   0  0  0  0  0  0  0  0  0  0  0  0
  149.9173  135.4708  154.4203 N   0  0  0  0  0  0  0  0  0  0  0  0
  150.1966  136.3222  155.4207 C   0  0  0  0  0  0  0  0  0  0  0  0
  150.8035  135.9907  156.4387 O   0  0  0  0  0  0  0  0  0  0  0  0
  149.7075  137.7637  155.2600 C   0  0  0  0  0  0  0  0  0  0  0  0
  150.8132  138.6951  155.1293 N   0  0  0  0  0  0  0  0  0  0  0  0
  152.1240  138.4853  154.9914 C   0  0  0  0  0  0  0  0  0  0  0  0
  152.7960  139.6236  154.9142 N   0  0  0  0  0  0  0  0  0  0  0  0
  151.8017  140.5832  155.0115 N   0  0  0  0  0  0  0  0  0  0  0  0
  150.6228  140.0382  155.1387 N   0  0  0  0  0  0  0  0  0  0  0  0
  146.8309  132.8738  151.6972 C   0  0  0  0  0  0  0  0  0  0  0  0
  145.1494  131.4866  149.9114 H   0  0  0  0  0  0  0  0  0  0  0  0
  146.7884  131.5061  149.2661 H   0  0  0  0  0  0  0  0  0  0  0  0
  145.5247  132.4460  148.4825 H   0  0  0  0  0  0  0  0  0  0  0  0
  147.0085  133.9103  149.8257 H   0  0  0  0  0  0  0  0  0  0  0  0
  144.6484  134.5985  149.6092 H   0  0  0  0  0  0  0  0  0  0  0  0
  144.2091  133.6454  151.0087 H   0  0  0  0  0  0  0  0  0  0  0  0
  146.0926  136.0527  150.9781 H   0  0  0  0  0  0  0  0  0  0  0  0
  144.4931  136.0009  151.6804 H   0  0  0  0  0  0  0  0  0  0  0  0
  146.2679  135.7581  153.4116 H   0  0  0  0  0  0  0  0  0  0  0  0
  145.2374  134.3399  153.3732 H   0  0  0  0  0  0  0  0  0  0  0  0
  147.8693  134.5056  154.4967 H   0  0  0  0  0  0  0  0  0  0  0  0
  147.2925  132.8663  154.3232 H   0  0  0  0  0  0  0  0  0  0  0  0
  149.4471  132.1710  153.8438 H   0  0  0  0  0  0  0  0  0  0  0  0
  149.5378  133.2998  152.5142 H   0  0  0  0  0  0  0  0  0  0  0  0
  150.4125  133.6819  155.3993 H   0  0  0  0  0  0  0  0  0  0  0  0
  151.3004  134.0060  153.9292 H   0  0  0  0  0  0  0  0  0  0  0  0
  149.4127  135.8250  153.6204 H   0  0  0  0  0  0  0  0  0  0  0  0
  149.0735  137.8395  154.3758 H   0  0  0  0  0  0  0  0  0  0  0  0
  149.0996  138.0537  156.1186 H   0  0  0  0  0  0  0  0  0  0  0  0
  152.5820  137.5078  154.9528 H   0  0  0  0  0  0  0  0  0  0  0  0
  146.1193  132.2318  152.2194 H   0  0  0  0  0  0  0  0  0  0  0  0
  147.7213  132.2720  151.5174 H   0  0  0  0  0  0  0  0  0  0  0  0
  147.8229  134.6092  152.0408 H   0  0  0  0  0  0  0  0  0  0  0  0
  1  2  1  0  0  0  0
  1 20  1  0  0  0  0
  1 21  1  0  0  0  0
  1 22  1  0  0  0  0
  2 19  1  0  0  0  0
  2  3  1  0  0  0  0
  2 23  1  0  0  0  0
  3  4  1  0  0  0  0
  3 24  1  0  0  0  0
  3 25  1  0  0  0  0
  4  5  1  0  0  0  0
  4 26  1  0  0  0  0
  4 27  1  0  0  0  0
  5  6  1  0  0  0  0
  5 28  1  0  0  0  0
  5 29  1  0  0  0  0
  6  7  1  0  0  0  0
  6 19  1  0  0  0  0
  6 42  1  0  0  0  0
  7  8  1  0  0  0  0
  7 30  1  0  0  0  0
  7 31  1  0  0  0  0
  8  9  1  0  0  0  0
  8 32  1  0  0  0  0
  8 33  1  0  0  0  0
  9 10  1  0  0  0  0
  9 34  1  0  0  0  0
  9 35  1  0  0  0  0
 10 11  1  0  0  0  0
 10 36  1  0  0  0  0
 11 12  2  0  0  0  0
 11 13  1  0  0  0  0
 13 14  1  0  0  0  0
 13 37  1  0  0  0  0
 13 38  1  0  0  0  0
 14 18  1  0  0  0  0
 14 15  1  0  0  0  0
 15 16  2  0  0  0  0
 15 39  1  0  0  0  0
 16 17  1  0  0  0  0
 17 18  2  0  0  0  0
 19 40  1  0  0  0  0
 19 41  1  0  0  0  0
M  CHG  1   6   1
M  END
> <s_m_source_file>
AV-unprocessed.smi

> <i_m_source_file_index>
1509

> <i_lp_mmshare_version>
43012

> <i_f3d_flags>
0

> <s_epik_input>
W0NIM11bQ0BASF0xW0NIMl1bQ0gyXVtDSDJdTihbQ0gyXTEpW0NIMl1bQ0gyXVtDSDJdW05IXUMoPU8pW0NIMl1uMltjSF1ubm4y

> <s_epik_cmdline>
J2VwaWtfcHl0aG9uJywgJy1waCcsICc3LjAnLCAnLXRuJywgJzgnLCAnLW1hJywgJzIwMCcsICctbWV0YWxfYmluZGluZycsICctaW1hZScsICc8aW5maWxlLm1hZT4nLCAnLW9tYWUnLCAnPG91dGZpbGUubWFlPic=

> <r_lp_tautomer_probability>
1

> <r_epik_Ionization_Penalty>
0.00044216

> <r_epik_Ionization_Penalty_Charging>
0.000440775

> <r_epik_Ionization_Penalty_Neutral>
1.38512e-06

> <r_epik_State_Penalty>
0.000271914

> <r_epik_Charging_Adjusted_Penalty>
0.000712689

> <i_epik_Tot_Q>
1

> <i_epik_Tot_abs_Q>
1

> <r_epik_Metal_State_Penalty>
-0

> <b_epik_Metal_Only>
0

> <s_lp_Force_Field>
OPLS_2005

> <r_lp_Energy>
20.7135

> <b_lp_Chiralities_Consistent>
1

> <s_lp_Variant>
AV-unprocessed.smi:1509-4

> <Gold.Version>
5.8.1

> <Gold.Id.Protein>
6NUR|6NUR_protein|mol2

> <Gold.PLP.Fitness>
44.8984

> <Gold.PLP.PLP>
-32.7506

> <Gold.PLP.part.hbond>
-5.2628

> <Gold.PLP.part.metal>
0.0000

> <Gold.PLP.part.buried>
-3.1373

> <Gold.PLP.part.nonpolar>
-24.2658

> <Gold.PLP.part.repulsive>
0.1576

> <Gold.PLP.ligand.clash>
0.0000

> <Gold.PLP.ligand.torsion>
0.9141

> <Gold.PLP.Chemscore.Hbond>
4.6441

> <Gold.PLP.Chemscore.CHOScore>
0.0000

> <Gold.PLP.Chemscore.Metal>
0.0000

> <Gold.Chemscore.Hbonds>
donor molecule, donor type, donor heavy atom, donor atom, acceptor molecule, acceptor atom, score
      L1  H     6    42       P1  7948  2.00
      L1  H    10    36       P1  7948  1.00
      P1  H  7989  7998       L1    17  0.51
      P1  H  7997  8009       L1    16  1.00

> <Gold.PLP.Chemscore.Internal.Correction>
0.0438

> <Gold.Rescore>
     Score         DG    S(hbond)    S(metal)    S(lipo)     H(rot)  DE(clash)    DE(int)     intcor
     11.58     -12.44       2.27        0.00      59.73       2.97       0.05       0.81       ----

> <Gold.Chemscore.Fitness>
11.5840

> <Gold.Chemscore.DG>
-12.4447

> <Gold.Chemscore.ZeroCoef>
-5.4800

> <Gold.Chemscore.Hbond>
2.2678

> <Gold.Chemscore.Metal>
0.0000

> <Gold.Chemscore.Lipo>
59.7273

> <Gold.Chemscore.Internal_Hbond>
0.0000

> <Gold.Chemscore.DEClash>
0.0545

> <Gold.Chemscore.DEInternal>
0.8062

> <Gold.Chemscore.Rot>
2.9680

> <Gold.Chemscore.Internal.Correction>
   9.000000E+99

> <Gold.Chemscore.Hbonds>
donor molecule, donor type, donor heavy atom, donor atom, acceptor molecule, acceptor atom, score
      L1  H     6    42       P1  7948  0.38
      L1  H    10    36       P1  7948  0.45
      P1  H  7989  7998       L1    17  0.01
      P1  H  7997  8009       L1    16  0.75

> <Gold.Chemscore.Hbond.Weighted>
-7.5746

> <Gold.Chemscore.Metal.Weighted>
-0.0000

> <Gold.Chemscore.Lipo.Weighted>
-6.9881

> <Gold.Chemscore.Internal_Hbond.Weighted>
0.0000

> <Gold.Chemscore.DEClash.Weighted>
0.0545

> <Gold.Chemscore.DEInternal.Weighted>
0.8062

> <Gold.Chemscore.Rot.Weighted>
7.5980

> <Gold.Chemscore.Internal.Correction.Weighted>
   9.000000E+99

> <Gold.Protein.RotatedTorsions>
[ 6907 6896 6895 6894 ] final  120.05 input  -60.11 | X-H torsion
[ 7974 7965 7964 7962 ] final -108.83 input  175.53 | X-H torsion
[ 8008 7997 7996 7995 ] final -137.19 input   59.86 | X-H torsion
[ 10167 10162 10161 10158 ] final  -56.41 input  -65.29 | X-H torsion
[ 10718 10713 10712 10709 ] final  -30.58 input   66.30 | X-H torsion
[ 10763 10752 10751 10750 ] final -153.88 input  -60.55 | X-H torsion
[ 11005 11000 10999 10996 ] final   41.65 input  -57.11 | X-H torsion

> <Gold.Protein.ActiveResidues>
 VAL166  LYS551  ARG553  GLY616  TRP617  ASP618  TYR619  PRO620  LYS621  CYS622 
 ASP623  PHE694  ASN695  SER759  ASP760  ASP761  ALA762  ILE779  LEU786  VAL792 
 PHE793  MET794  SER795  GLU796  ALA797  LYS798  CYS799  TRP800  GLU811  SER814 

> <Gold.Protein.RotatedAtoms>
  152.4426  133.7477  159.6676 H   0  0  0  0  0  0  0  0  0  0  0  0  # atno 6907 bound_to 6896
  150.8320  133.8065  159.3101 H   0  0  0  0  0  0  0  0  0  0  0  0  # atno 6908 bound_to 6896
  151.5716  135.1064  160.0048 H   0  0  0  0  0  0  0  0  0  0  0  0  # atno 6909 bound_to 6896
  145.1880  140.9001  143.3441 H   0  0  0  0  0  0  0  0  0  0  0  0  # atno 7974 bound_to 7965
  155.4077  140.0510  157.3033 H   0  0  0  0  0  0  0  0  0  0  0  0  # atno 8008 bound_to 7997
  154.4961  140.2139  155.9405 H   0  0  0  0  0  0  0  0  0  0  0  0  # atno 8009 bound_to 7997
  156.1407  140.3155  155.8495 H   0  0  0  0  0  0  0  0  0  0  0  0  # atno 8010 bound_to 7997
  140.6318  143.2463  151.5220 H   0  0  0  0  0  0  0  0  0  0  0  0  # atno 10167 bound_to 10162
  156.3981  130.4385  149.7343 H   0  0  0  0  0  0  0  0  0  0  0  0  # atno 10718 bound_to 10713
  154.7897  135.3202  154.7805 H   0  0  0  0  0  0  0  0  0  0  0  0  # atno 10763 bound_to 10752
  153.8497  135.6863  153.4798 H   0  0  0  0  0  0  0  0  0  0  0  0  # atno 10764 bound_to 10752
  153.1562  135.4679  154.9648 H   0  0  0  0  0  0  0  0  0  0  0  0  # atno 10765 bound_to 10752
  140.1814  134.4099  155.8198 H   0  0  0  0  0  0  0  0  0  0  0  0  # atno 11005 bound_to 11000
  145.0070  139.3545  143.6139 LP  0  0  0  0  0  0  0  0  0  0  0  0  # atno 17320 bound_to 7965
  146.3441  139.9317  142.8753 LP  0  0  0  0  0  0  0  0  0  0  0  0  # atno 17321 bound_to 7965
  139.5532  144.2342  152.1567 LP  0  0  0  0  0  0  0  0  0  0  0  0  # atno 17342 bound_to 10162
  140.1588  144.5045  150.6644 LP  0  0  0  0  0  0  0  0  0  0  0  0  # atno 17343 bound_to 10162
  156.4371  130.7843  151.2864 LP  0  0  0  0  0  0  0  0  0  0  0  0  # atno 17370 bound_to 10713
  157.7502  131.0136  150.3432 LP  0  0  0  0  0  0  0  0  0  0  0  0  # atno 17371 bound_to 10713
  141.2223  133.7002  156.7937 LP  0  0  0  0  0  0  0  0  0  0  0  0  # atno 17394 bound_to 11000
  140.2263  134.8719  157.3430 LP  0  0  0  0  0  0  0  0  0  0  0  0  # atno 17395 bound_to 11000

$$$$
