#       Name:                AV-unprocessed.smi:1063
#       Creating user name   scv26
#       Creation time:       Fri Mar 27 03:17:31 2020


#       File generated by GOLD software.
#

@<TRIPOS>MOLECULE
AV-unprocessed.smi:1063
    43    44     1
SMALL
NO_CHARGES


@<TRIPOS>ATOM
      1 ****        -7.3205   1.3378  -0.8499 C.3            1 S1                 0.0000
      2 ****        -5.8441   0.9484  -0.7419 C.3            1 S1                 0.0000
      3 ****        -5.1773   0.4122  -2.3439 S.3            1 S1                 0.0000
      4 ****        -3.4766  -0.0012  -2.0950 C.ar           1 S1                 0.0000
      5 ****        -2.6944  -0.4701  -3.1676 C.ar           1 S1                 0.0000
      6 ****        -1.3441  -0.7811  -2.9187 C.ar           1 S1                 0.0000
      7 ****        -0.8303  -0.6220  -1.6148 C.ar           1 S1                 0.0000
      8 ****         0.5420  -0.9193  -1.3972 N.am           1 S1                 0.0000
      9 ****         1.1624  -1.1946  -0.2374 C.2            1 S1                 0.0000
     10 ****         0.6076  -1.3129   0.8546 O.2            1 S1                 0.0000
     11 ****         2.4820  -1.3452  -0.4185 N.am           1 S1                 0.0000
     12 ****         3.4523  -1.6394   0.6313 C.3            1 S1                 0.0000
     13 ****         4.0874  -0.3579   1.1988 C.3            1 S1                 0.0000
     14 ****         3.1466   0.5355   2.0074 C.3            1 S1                 0.0000
     15 ****         4.0860   1.3009   2.9257 C.3            1 S1                 0.0000
     16 ****         5.3965   0.5100   2.8647 C.3            1 S1                 0.0000
     17 ****         5.0857  -0.6804   2.1528 O.3            1 S1                 0.0000
     18 ****        -1.7059  -0.1322  -0.6134 C.ar           1 S1                 0.0000
     19 ****        -3.0016   0.1701  -0.8432 N.ar           1 S1                 0.0000
     20 ****        -7.7100   1.6520   0.1185 H              1 S1                 0.0000
     21 ****        -7.9247   0.4988  -1.1954 H              1 S1                 0.0000
     22 ****        -7.4589   2.1634  -1.5483 H              1 S1                 0.0000
     23 ****        -5.2623   1.7964  -0.3798 H              1 S1                 0.0000
     24 ****        -5.7241   0.1408  -0.0195 H              1 S1                 0.0000
     25 ****        -3.1160  -0.5867  -4.1551 H              1 S1                 0.0000
     26 ****        -0.7141  -1.1393  -3.7198 H              1 S1                 0.0000
     27 ****         1.1149  -0.9551  -2.2276 H              1 S1                 0.0000
     28 ****         2.8475  -1.2370  -1.3533 H              1 S1                 0.0000
     29 ****         3.0008  -2.2323   1.4288 H              1 S1                 0.0000
     30 ****         4.2311  -2.2638   0.1930 H              1 S1                 0.0000
     31 ****         4.5510   0.2190   0.3960 H              1 S1                 0.0000
     32 ****         2.5402   1.1888   1.3792 H              1 S1                 0.0000
     33 ****         2.4715  -0.0756   2.6080 H              1 S1                 0.0000
     34 ****         4.2387   2.3229   2.5770 H              1 S1                 0.0000
     35 ****         3.6870   1.3482   3.9394 H              1 S1                 0.0000
     36 ****         6.1551   1.0688   2.3149 H              1 S1                 0.0000
     37 ****         5.7939   0.2811   3.8538 H              1 S1                 0.0000
     38 ****        -1.3745   0.0513   0.3966 H              1 S1                 0.0000
     39 ****        -0.3837  -1.2026   0.9264 LP             1 S1                 0.0000
     40 ****         1.1480  -1.5194   1.6702 LP             1 S1                 0.0000
     41 ****         5.9024  -1.0243   1.6894 LP             1 S1                 0.0000
     42 ****         4.7428  -1.3761   2.7840 LP             1 S1                 0.0000
     43 ****        -3.5903   0.5099  -0.1097 LP             1 S1                 0.0000
@<TRIPOS>BOND
    1    1    2 1     
    2    1   20 1     
    3    1   21 1     
    4    1   22 1     
    5    2    3 1     
    6    2   23 1     
    7    2   24 1     
    8    3    4 1     
    9    4   19 ar    
   10    4    5 ar    
   11    5    6 ar    
   12    5   25 1     
   13    6    7 ar    
   14    6   26 1     
   15    7    8 1     
   16    7   18 ar    
   17    8    9 am    
   18    8   27 1     
   19    9   10 2     
   20    9   11 am    
   21   11   12 1     
   22   11   28 1     
   23   12   13 1     
   24   12   29 1     
   25   12   30 1     
   26   13   17 1     
   27   13   14 1     
   28   13   31 1     
   29   14   15 1     
   30   14   32 1     
   31   14   33 1     
   32   15   16 1     
   33   15   34 1     
   34   15   35 1     
   35   16   17 1     
   36   16   36 1     
   37   16   37 1     
   38   18   19 ar    
   39   18   38 1     
   40   10   39 1     
   41   10   40 1     
   42   17   41 1     
   43   17   42 1     
   44   19   43 1     
@<TRIPOS>SUBSTRUCTURE
      1 S1             1
@<TRIPOS>SET
LONE_PAIRS      STATIC     ATOMS    <user>   **** ""
5 39 40 41 42 43
DONOR_HYDROGENS      STATIC     ATOMS    <user>   **** ""
2 27 28
ATOM$BLUE        STATIC     ATOMS    COLORGROUP SYSTEM
5 39 40 41 42 43
ATOM$RED        STATIC     ATOMS    COLORGROUP SYSTEM
2 27 28
