AV-unprocessed.smi:1346|AV-procd|sdf|5515|dock7
  -GOLD-   22720 5103D 1   1.00000     0.00000
 Structure written by MMmdl.
 47 48  0  0  0  0  0  0  0  0  1 V2000
  147.7251  136.9337  163.7217 C   0  0  0  0  0  0  0  0  0  0  0  0
  147.7028  135.7194  162.8378 C   0  0  0  0  0  0  0  0  0  0  0  0
  147.6937  134.5189  163.3922 N   0  0  0  0  0  0  0  0  0  0  0  0
  147.6869  133.6068  162.3328 O   0  0  0  0  0  0  0  0  0  0  0  0
  147.6959  134.3025  161.1676 C   0  0  0  0  0  0  0  0  0  0  0  0
  147.6982  133.5022  159.9094 C   0  0  0  0  0  0  0  0  0  0  0  0
  147.7031  135.6478  161.4136 C   0  0  0  0  0  0  0  0  0  0  0  0
  147.7164  136.7794  160.4173 C   0  0  0  0  0  0  0  0  0  0  0  0
  148.9806  136.6934  159.5627 C   0  0  0  0  0  0  0  0  0  0  0  0
  149.4552  135.5968  159.2680 O   0  0  0  0  0  0  0  0  0  0  0  0
  149.5233  137.8600  159.1889 N   0  0  0  0  0  0  0  0  0  0  0  0
  150.7734  138.0029  158.4574 C   0  0  0  0  0  0  0  0  0  0  0  0
  150.9222  139.4408  157.9497 C   0  0  0  0  0  0  0  0  0  0  0  0
  151.1612  140.2897  159.0631 O   0  0  0  0  0  0  0  0  0  0  0  0
  151.8293  141.5064  158.7555 C   0  0  1  0  0  0  0  0  0  0  0  0
  150.8174  142.5213  158.1797 C   0  0  0  0  0  0  0  0  0  0  0  0
  151.4573  143.9011  157.9681 C   0  0  0  0  0  0  0  0  0  0  0  0
  152.0737  144.4272  159.2713 C   0  0  0  0  0  0  0  0  0  0  0  0
  153.0908  143.4274  159.8413 C   0  0  0  0  0  0  0  0  0  0  0  0
  152.4632  142.0363  160.0623 C   0  0  2  0  0  0  0  0  0  0  0  0
  153.5037  141.0569  160.6296 C   0  0  0  0  0  0  0  0  0  0  0  0
  147.3252  137.8075  163.2080 H   0  0  0  0  0  0  0  0  0  0  0  0
  148.7437  137.1678  164.0306 H   0  0  0  0  0  0  0  0  0  0  0  0
  147.1309  136.7828  164.6232 H   0  0  0  0  0  0  0  0  0  0  0  0
  148.3630  133.9478  159.1691 H   0  0  0  0  0  0  0  0  0  0  0  0
  146.6972  133.4560  159.4811 H   0  0  0  0  0  0  0  0  0  0  0  0
  148.0363  132.4822  160.0936 H   0  0  0  0  0  0  0  0  0  0  0  0
  146.8464  136.7424  159.7609 H   0  0  0  0  0  0  0  0  0  0  0  0
  147.6752  137.7492  160.9150 H   0  0  0  0  0  0  0  0  0  0  0  0
  149.0654  138.7121  159.4781 H   0  0  0  0  0  0  0  0  0  0  0  0
  151.6164  137.7459  159.1009 H   0  0  0  0  0  0  0  0  0  0  0  0
  150.7804  137.3059  157.6186 H   0  0  0  0  0  0  0  0  0  0  0  0
  151.7592  139.5033  157.2529 H   0  0  0  0  0  0  0  0  0  0  0  0
  150.0237  139.7379  157.4088 H   0  0  0  0  0  0  0  0  0  0  0  0
  152.6250  141.3258  158.0300 H   0  0  0  0  0  0  0  0  0  0  0  0
  150.4128  142.1684  157.2318 H   0  0  0  0  0  0  0  0  0  0  0  0
  149.9694  142.6175  158.8587 H   0  0  0  0  0  0  0  0  0  0  0  0
  152.2271  143.8337  157.1983 H   0  0  0  0  0  0  0  0  0  0  0  0
  150.7105  144.6049  157.5995 H   0  0  0  0  0  0  0  0  0  0  0  0
  152.5563  145.3886  159.0931 H   0  0  0  0  0  0  0  0  0  0  0  0
  151.2857  144.6067  160.0039 H   0  0  0  0  0  0  0  0  0  0  0  0
  153.9387  143.3455  159.1598 H   0  0  0  0  0  0  0  0  0  0  0  0
  153.4881  143.8106  160.7818 H   0  0  0  0  0  0  0  0  0  0  0  0
  151.6708  142.1433  160.8048 H   0  0  0  0  0  0  0  0  0  0  0  0
  154.3203  140.8947  159.9255 H   0  0  0  0  0  0  0  0  0  0  0  0
  153.0579  140.0868  160.8508 H   0  0  0  0  0  0  0  0  0  0  0  0
  153.9339  141.4357  161.5569 H   0  0  0  0  0  0  0  0  0  0  0  0
  1  2  1  0  0  0  0
  1 22  1  0  0  0  0
  1 23  1  0  0  0  0
  1 24  1  0  0  0  0
  2  7  1  0  0  0  0
  2  3  2  0  0  0  0
  3  4  1  0  0  0  0
  4  5  1  0  0  0  0
  5  6  1  0  0  0  0
  5  7  2  0  0  0  0
  6 25  1  0  0  0  0
  6 26  1  0  0  0  0
  6 27  1  0  0  0  0
  7  8  1  0  0  0  0
  8  9  1  0  0  0  0
  8 28  1  0  0  0  0
  8 29  1  0  0  0  0
  9 10  2  0  0  0  0
  9 11  1  0  0  0  0
 11 12  1  0  0  0  0
 11 30  1  0  0  0  0
 12 13  1  0  0  0  0
 12 31  1  0  0  0  0
 12 32  1  0  0  0  0
 13 14  1  0  0  0  0
 13 33  1  0  0  0  0
 13 34  1  0  0  0  0
 14 15  1  0  0  0  0
 15 20  1  0  0  0  0
 15 16  1  0  0  0  0
 15 35  1  0  0  0  0
 16 17  1  0  0  0  0
 16 36  1  0  0  0  0
 16 37  1  0  0  0  0
 17 18  1  0  0  0  0
 17 38  1  0  0  0  0
 17 39  1  0  0  0  0
 18 19  1  0  0  0  0
 18 40  1  0  0  0  0
 18 41  1  0  0  0  0
 19 20  1  0  0  0  0
 19 42  1  0  0  0  0
 19 43  1  0  0  0  0
 20 21  1  0  0  0  0
 20 44  1  0  0  0  0
 21 45  1  0  0  0  0
 21 46  1  0  0  0  0
 21 47  1  0  0  0  0
M  END
> <s_m_source_file>
AV-unprocessed.smi

> <i_m_source_file_index>
1346

> <i_lp_mmshare_version>
43012

> <i_f3d_flags>
0

> <s_epik_input>
W0NIM11jMW5vYyhbQ0gzXSljMVtDSDJdQyg9TylbTkhdW0NIMl1bQ0gyXU9bQ0BASF0yW0NIMl1bQ0gyXVtDSDJdW0NIMl1bQ0BIXTJbQ0gzXQ==

> <s_epik_cmdline>
J2VwaWtfcHl0aG9uJywgJy1waCcsICc3LjAnLCAnLXRuJywgJzgnLCAnLW1hJywgJzIwMCcsICctbWV0YWxfYmluZGluZycsICctaW1hZScsICc8aW5maWxlLm1hZT4nLCAnLW9tYWUnLCAnPG91dGZpbGUubWFlPic=

> <r_lp_tautomer_probability>
1

> <r_epik_Ionization_Penalty>
3.26154e-08

> <r_epik_Ionization_Penalty_Charging>
0

> <r_epik_Ionization_Penalty_Neutral>
3.26154e-08

> <r_epik_State_Penalty>
-0

> <r_epik_Charging_Adjusted_Penalty>
0

> <i_epik_Tot_Q>
0

> <i_epik_Tot_abs_Q>
0

> <r_epik_Metal_State_Penalty>
-0

> <b_epik_Metal_Only>
0

> <s_lp_Force_Field>
OPLS_2005

> <r_lp_Energy>
4.3429

> <b_lp_Chiralities_Consistent>
1

> <s_lp_Variant>
AV-unprocessed.smi:1346-4

> <Gold.Version>
5.8.1

> <Gold.Id.Protein>
6NUR|6NUR_protein|mol2

> <Gold.PLP.Fitness>
47.5182

> <Gold.PLP.PLP>
-45.9705

> <Gold.PLP.part.hbond>
-1.2578

> <Gold.PLP.part.metal>
0.0000

> <Gold.PLP.part.buried>
-5.8335

> <Gold.PLP.part.nonpolar>
-39.1756

> <Gold.PLP.part.repulsive>
0.2313

> <Gold.PLP.ligand.clash>
0.0000

> <Gold.PLP.ligand.torsion>
0.7665

> <Gold.PLP.Chemscore.Hbond>
1.0000

> <Gold.PLP.Chemscore.CHOScore>
0.0000

> <Gold.PLP.Chemscore.Metal>
0.0000

> <Gold.Chemscore.Hbonds>
donor molecule, donor type, donor heavy atom, donor atom, acceptor molecule, acceptor atom, score
      P1  H  6896  6909       L1    10  1.00

> <Gold.PLP.Chemscore.Internal.Correction>
0.0807

> <Gold.Rescore>
     Score         DG    S(hbond)    S(metal)    S(lipo)     H(rot)  DE(clash)    DE(int)     intcor
     16.88     -18.89       1.00        0.00     124.12       1.74       0.15       1.86       ----

> <Gold.Chemscore.Fitness>
16.8788

> <Gold.Chemscore.DG>
-18.8915

> <Gold.Chemscore.ZeroCoef>
-5.4800

> <Gold.Chemscore.Hbond>
0.9975

> <Gold.Chemscore.Metal>
0.0000

> <Gold.Chemscore.Lipo>
124.1177

> <Gold.Chemscore.Internal_Hbond>
0.0000

> <Gold.Chemscore.DEClash>
0.1542

> <Gold.Chemscore.DEInternal>
1.8584

> <Gold.Chemscore.Rot>
1.7352

> <Gold.Chemscore.Internal.Correction>
   9.000000E+99

> <Gold.Chemscore.Hbonds>
donor molecule, donor type, donor heavy atom, donor atom, acceptor molecule, acceptor atom, score
      P1  H  6896  6909       L1    10  0.99

> <Gold.Chemscore.Hbond.Weighted>
-3.3317

> <Gold.Chemscore.Metal.Weighted>
-0.0000

> <Gold.Chemscore.Lipo.Weighted>
-14.5218

> <Gold.Chemscore.Internal_Hbond.Weighted>
0.0000

> <Gold.Chemscore.DEClash.Weighted>
0.1542

> <Gold.Chemscore.DEInternal.Weighted>
1.8584

> <Gold.Chemscore.Rot.Weighted>
4.4420

> <Gold.Chemscore.Internal.Correction.Weighted>
   9.000000E+99

> <Gold.Protein.RotatedTorsions>
[ 6907 6896 6895 6894 ] final   68.03 input  -60.11 | X-H torsion
[ 7974 7965 7964 7962 ] final  152.77 input  175.53 | X-H torsion
[ 8008 7997 7996 7995 ] final  -80.90 input   59.86 | X-H torsion
[ 10167 10162 10161 10158 ] final -166.57 input  -65.29 | X-H torsion
[ 10718 10713 10712 10709 ] final   71.12 input   66.30 | X-H torsion
[ 10763 10752 10751 10750 ] final   14.89 input  -60.55 | X-H torsion
[ 11005 11000 10999 10996 ] final    7.79 input  -57.11 | X-H torsion

> <Gold.Protein.ActiveResidues>
 VAL166  LYS551  ARG553  GLY616  TRP617  ASP618  TYR619  PRO620  LYS621  CYS622 
 ASP623  PHE694  ASN695  SER759  ASP760  ASP761  ALA762  ILE779  LEU786  VAL792 
 PHE793  MET794  SER795  GLU796  ALA797  LYS798  CYS799  TRP800  GLU811  SER814 

> <Gold.Protein.RotatedAtoms>
  152.4592  134.5222  159.9785 H   0  0  0  0  0  0  0  0  0  0  0  0  # atno 6907 bound_to 6896
  151.5275  133.3449  159.2920 H   0  0  0  0  0  0  0  0  0  0  0  0  # atno 6908 bound_to 6896
  150.8548  134.7914  159.7100 H   0  0  0  0  0  0  0  0  0  0  0  0  # atno 6909 bound_to 6896
  144.8200  139.6712  143.6105 H   0  0  0  0  0  0  0  0  0  0  0  0  # atno 7974 bound_to 7965
  154.5929  140.0656  156.9264 H   0  0  0  0  0  0  0  0  0  0  0  0  # atno 8008 bound_to 7997
  155.2263  140.3334  155.4290 H   0  0  0  0  0  0  0  0  0  0  0  0  # atno 8009 bound_to 7997
  156.2268  140.1823  156.7327 H   0  0  0  0  0  0  0  0  0  0  0  0  # atno 8010 bound_to 7997
  139.6106  144.0823  152.1838 H   0  0  0  0  0  0  0  0  0  0  0  0  # atno 10167 bound_to 10162
  157.6435  130.9512  150.0745 H   0  0  0  0  0  0  0  0  0  0  0  0  # atno 10718 bound_to 10713
  153.1577  135.6790  153.8787 H   0  0  0  0  0  0  0  0  0  0  0  0  # atno 10763 bound_to 10752
  153.8193  135.3132  155.3410 H   0  0  0  0  0  0  0  0  0  0  0  0  # atno 10764 bound_to 10752
  154.7910  135.4835  154.0140 H   0  0  0  0  0  0  0  0  0  0  0  0  # atno 10765 bound_to 10752
  140.5443  134.0344  155.7915 H   0  0  0  0  0  0  0  0  0  0  0  0  # atno 11005 bound_to 11000
  146.2505  139.6189  142.9430 LP  0  0  0  0  0  0  0  0  0  0  0  0  # atno 17320 bound_to 7965
  145.5127  141.0435  143.2479 LP  0  0  0  0  0  0  0  0  0  0  0  0  # atno 17321 bound_to 7965
  140.0440  144.5985  150.7388 LP  0  0  0  0  0  0  0  0  0  0  0  0  # atno 17342 bound_to 10162
  140.7316  143.2696  151.3931 LP  0  0  0  0  0  0  0  0  0  0  0  0  # atno 17343 bound_to 10162
  156.1739  130.3647  149.9127 LP  0  0  0  0  0  0  0  0  0  0  0  0  # atno 17370 bound_to 10713
  156.7096  130.8965  151.3608 LP  0  0  0  0  0  0  0  0  0  0  0  0  # atno 17371 bound_to 10713
  141.1209  133.9463  157.2732 LP  0  0  0  0  0  0  0  0  0  0  0  0  # atno 17394 bound_to 11000
  139.9488  135.0179  156.8931 LP  0  0  0  0  0  0  0  0  0  0  0  0  # atno 17395 bound_to 11000

$$$$
