AV-unprocessed.smi:2076|AV-procd|sdf|8459|dock6
  -GOLD-   2272011153D 1   1.00000     0.00000
 Structure written by MMmdl.
 45 46  0  0  0  0  0  0  0  0  2 V2000
  151.5642  144.5462  158.9496 C   0  0  0  0  0  0  0  0  0  0  0  0
  152.1428  143.2547  159.4471 C   0  0  0  0  0  0  0  0  0  0  0  0
  152.9450  143.0353  160.6017 C   0  0  0  0  0  0  0  0  0  0  0  0
  153.1911  141.6914  160.5914 C   0  0  0  0  0  0  0  0  0  0  0  0
  153.9693  140.8478  161.5472 C   0  0  0  0  0  0  0  0  0  0  0  0
  152.5567  141.1754  159.4753 N   0  0  0  0  0  0  0  0  0  0  0  0
  152.4883  139.7972  159.0131 C   0  0  0  0  0  0  0  0  0  0  0  0
  152.4860  139.7328  157.4850 C   0  0  0  0  0  0  0  0  0  0  0  0
  153.2840  139.0063  156.8937 O   0  0  0  0  0  0  0  0  0  0  0  0
  151.5730  140.4898  156.8605 N   0  0  0  0  0  0  0  0  0  0  0  0
  151.3453  140.5004  155.4219 C   0  0  0  0  0  0  0  0  0  0  0  0
  150.3814  139.3676  154.9805 C   0  0  2  0  0  0  0  0  0  0  0  0
  151.1633  138.2465  154.2556 C   0  0  0  0  0  0  0  0  0  0  0  0
  149.2479  139.8443  154.1214 N   0  3  0  0  0  0  0  0  0  0  0  0
  148.1604  138.8355  153.9975 C   0  0  0  0  0  0  0  0  0  0  0  0
  147.0657  139.3166  153.0318 C   0  0  0  0  0  0  0  0  0  0  0  0
  146.5399  140.5525  153.4920 O   0  0  0  0  0  0  0  0  0  0  0  0
  147.5372  141.5625  153.5231 C   0  0  0  0  0  0  0  0  0  0  0  0
  148.6614  141.1617  154.4942 C   0  0  0  0  0  0  0  0  0  0  0  0
  151.9135  142.1374  158.7768 N   0  0  0  0  0  0  0  0  0  0  0  0
  151.9052  145.3882  159.5523 H   0  0  0  0  0  0  0  0  0  0  0  0
  150.4748  144.5288  158.9905 H   0  0  0  0  0  0  0  0  0  0  0  0
  151.8575  144.7378  157.9171 H   0  0  0  0  0  0  0  0  0  0  0  0
  153.2856  143.7559  161.3304 H   0  0  0  0  0  0  0  0  0  0  0  0
  154.3822  141.4539  162.3536 H   0  0  0  0  0  0  0  0  0  0  0  0
  154.7990  140.3522  161.0429 H   0  0  0  0  0  0  0  0  0  0  0  0
  153.3359  140.0818  161.9946 H   0  0  0  0  0  0  0  0  0  0  0  0
  153.3385  139.2381  159.4073 H   0  0  0  0  0  0  0  0  0  0  0  0
  151.5884  139.3289  159.4129 H   0  0  0  0  0  0  0  0  0  0  0  0
  150.9606  141.0572  157.4293 H   0  0  0  0  0  0  0  0  0  0  0  0
  150.9363  141.4816  155.1781 H   0  0  0  0  0  0  0  0  0  0  0  0
  152.3005  140.4023  154.9029 H   0  0  0  0  0  0  0  0  0  0  0  0
  149.9505  138.9485  155.8915 H   0  0  0  0  0  0  0  0  0  0  0  0
  151.9657  137.8419  154.8728 H   0  0  0  0  0  0  0  0  0  0  0  0
  151.6152  138.6169  153.3350 H   0  0  0  0  0  0  0  0  0  0  0  0
  150.5350  137.3967  153.9952 H   0  0  0  0  0  0  0  0  0  0  0  0
  148.5441  137.8837  153.6354 H   0  0  0  0  0  0  0  0  0  0  0  0
  147.7255  138.6467  154.9803 H   0  0  0  0  0  0  0  0  0  0  0  0
  147.4560  139.4230  152.0181 H   0  0  0  0  0  0  0  0  0  0  0  0
  146.2580  138.5857  152.9867 H   0  0  0  0  0  0  0  0  0  0  0  0
  147.9319  141.7313  152.5198 H   0  0  0  0  0  0  0  0  0  0  0  0
  147.0801  142.4982  153.8454 H   0  0  0  0  0  0  0  0  0  0  0  0
  148.2781  141.1187  155.5151 H   0  0  0  0  0  0  0  0  0  0  0  0
  149.4147  141.9483  154.4584 H   0  0  0  0  0  0  0  0  0  0  0  0
  149.6348  139.9723  153.1970 H   0  0  0  0  0  0  0  0  0  0  0  0
  1  2  1  0  0  0  0
  1 21  1  0  0  0  0
  1 22  1  0  0  0  0
  1 23  1  0  0  0  0
  2 20  2  0  0  0  0
  2  3  1  0  0  0  0
  3  4  2  0  0  0  0
  3 24  1  0  0  0  0
  4  5  1  0  0  0  0
  4  6  1  0  0  0  0
  5 25  1  0  0  0  0
  5 26  1  0  0  0  0
  5 27  1  0  0  0  0
  6  7  1  0  0  0  0
  6 20  1  0  0  0  0
  7  8  1  0  0  0  0
  7 28  1  0  0  0  0
  7 29  1  0  0  0  0
  8  9  2  0  0  0  0
  8 10  1  0  0  0  0
 10 11  1  0  0  0  0
 10 30  1  0  0  0  0
 11 12  1  0  0  0  0
 11 31  1  0  0  0  0
 11 32  1  0  0  0  0
 12 13  1  0  0  0  0
 12 14  1  0  0  0  0
 12 33  1  0  0  0  0
 13 34  1  0  0  0  0
 13 35  1  0  0  0  0
 13 36  1  0  0  0  0
 14 19  1  0  0  0  0
 14 15  1  0  0  0  0
 14 45  1  0  0  0  0
 15 16  1  0  0  0  0
 15 37  1  0  0  0  0
 15 38  1  0  0  0  0
 16 17  1  0  0  0  0
 16 39  1  0  0  0  0
 16 40  1  0  0  0  0
 17 18  1  0  0  0  0
 18 19  1  0  0  0  0
 18 41  1  0  0  0  0
 18 42  1  0  0  0  0
 19 43  1  0  0  0  0
 19 44  1  0  0  0  0
M  CHG  1  14   1
M  END
> <s_m_source_file>
AV-unprocessed.smi

> <i_m_source_file_index>
2076

> <i_lp_mmshare_version>
43012

> <i_f3d_flags>
0

> <s_epik_input>
W0NIM11jMVtjSF1jKFtDSDNdKW4objEpW0NIMl1DKD1PKVtOSF1bQ0gyXVtDQEhdKFtDSDNdKU4yW0NIMl1bQ0gyXU9bQ0gyXVtDSDJdMg==

> <s_epik_cmdline>
J2VwaWtfcHl0aG9uJywgJy1waCcsICc3LjAnLCAnLXRuJywgJzgnLCAnLW1hJywgJzIwMCcsICctbWV0YWxfYmluZGluZycsICctaW1hZScsICc8aW5maWxlLm1hZT4nLCAnLW9tYWUnLCAnPG91dGZpbGUubWFlPic=

> <r_lp_tautomer_probability>
1

> <r_epik_Ionization_Penalty>
0.748594

> <r_epik_Ionization_Penalty_Charging>
0.748396

> <r_epik_Ionization_Penalty_Neutral>
0.000197403

> <r_epik_State_Penalty>
0.775162

> <r_epik_Charging_Adjusted_Penalty>
1.52356

> <i_epik_Tot_Q>
1

> <i_epik_Tot_abs_Q>
1

> <r_epik_Metal_State_Penalty>
0.77529

> <b_epik_Metal_Only>
0

> <s_lp_Force_Field>
OPLS_2005

> <r_lp_Energy>
18.1598

> <b_lp_Chiralities_Consistent>
1

> <s_lp_Variant>
AV-unprocessed.smi:2076-3

> <Gold.Version>
5.8.1

> <Gold.Id.Protein>
6NUR|6NUR_protein|mol2

> <Gold.PLP.Fitness>
44.4248

> <Gold.PLP.PLP>
-42.2508

> <Gold.PLP.part.hbond>
-2.0000

> <Gold.PLP.part.metal>
0.0000

> <Gold.PLP.part.buried>
-1.9206

> <Gold.PLP.part.nonpolar>
-37.9938

> <Gold.PLP.part.repulsive>
0.4837

> <Gold.PLP.ligand.clash>
0.0000

> <Gold.PLP.ligand.torsion>
1.5251

> <Gold.PLP.Chemscore.Hbond>
1.7263

> <Gold.PLP.Chemscore.CHOScore>
0.0000

> <Gold.PLP.Chemscore.Metal>
0.0000

> <Gold.Chemscore.Hbonds>
donor molecule, donor type, donor heavy atom, donor atom, acceptor molecule, acceptor atom, score
      L1  H    14    45       P1  7957  0.99
      P1  H  7997  8008       L1     9  1.00

> <Gold.PLP.Chemscore.Internal.Correction>
0.0454

> <Gold.Rescore>
     Score         DG    S(hbond)    S(metal)    S(lipo)     H(rot)  DE(clash)    DE(int)     intcor
     12.82     -17.67       0.93        0.00     116.44       1.78       1.79       3.06       ----

> <Gold.Chemscore.Fitness>
12.8235

> <Gold.Chemscore.DG>
-17.6719

> <Gold.Chemscore.ZeroCoef>
-5.4800

> <Gold.Chemscore.Hbond>
0.9328

> <Gold.Chemscore.Metal>
0.0000

> <Gold.Chemscore.Lipo>
116.4350

> <Gold.Chemscore.Internal_Hbond>
0.0000

> <Gold.Chemscore.DEClash>
1.7897

> <Gold.Chemscore.DEInternal>
3.0587

> <Gold.Chemscore.Rot>
1.7760

> <Gold.Chemscore.Internal.Correction>
   9.000000E+99

> <Gold.Chemscore.Hbonds>
donor molecule, donor type, donor heavy atom, donor atom, acceptor molecule, acceptor atom, score
      L1  H    14    45       P1  7957  0.91
      P1  H  7997  8008       L1     9  0.24

> <Gold.Chemscore.Hbond.Weighted>
-3.1155

> <Gold.Chemscore.Metal.Weighted>
-0.0000

> <Gold.Chemscore.Lipo.Weighted>
-13.6229

> <Gold.Chemscore.Internal_Hbond.Weighted>
0.0000

> <Gold.Chemscore.DEClash.Weighted>
1.7897

> <Gold.Chemscore.DEInternal.Weighted>
3.0587

> <Gold.Chemscore.Rot.Weighted>
4.5464

> <Gold.Chemscore.Internal.Correction.Weighted>
   9.000000E+99

> <Gold.Protein.RotatedTorsions>
[ 6907 6896 6895 6894 ] final -105.97 input  -60.11 | X-H torsion
[ 7974 7965 7964 7962 ] final   82.18 input  175.53 | X-H torsion
[ 8008 7997 7996 7995 ] final  -49.32 input   59.86 | X-H torsion
[ 10167 10162 10161 10158 ] final  -37.88 input  -65.29 | X-H torsion
[ 10718 10713 10712 10709 ] final  -80.59 input   66.30 | X-H torsion
[ 10763 10752 10751 10750 ] final -176.55 input  -60.55 | X-H torsion
[ 11005 11000 10999 10996 ] final -155.31 input  -57.11 | X-H torsion

> <Gold.Protein.ActiveResidues>
 VAL166  LYS551  ARG553  GLY616  TRP617  ASP618  TYR619  PRO620  LYS621  CYS622 
 ASP623  PHE694  ASN695  SER759  ASP760  ASP761  ALA762  ILE779  LEU786  VAL792 
 PHE793  MET794  SER795  GLU796  ALA797  LYS798  CYS799  TRP800  GLU811  SER814 

> <Gold.Protein.RotatedAtoms>
  150.7364  134.0047  159.3649 H   0  0  0  0  0  0  0  0  0  0  0  0  # atno 6907 bound_to 6896
  151.8003  135.0709  160.0408 H   0  0  0  0  0  0  0  0  0  0  0  0  # atno 6908 bound_to 6896
  152.3146  133.5752  159.5739 H   0  0  0  0  0  0  0  0  0  0  0  0  # atno 6909 bound_to 6896
  145.6284  139.2400  143.2098 H   0  0  0  0  0  0  0  0  0  0  0  0  # atno 7974 bound_to 7965
  154.4042  140.1300  156.4483 H   0  0  0  0  0  0  0  0  0  0  0  0  # atno 8008 bound_to 7997
  155.7391  140.3490  155.5076 H   0  0  0  0  0  0  0  0  0  0  0  0  # atno 8009 bound_to 7997
  155.9056  140.1027  157.1308 H   0  0  0  0  0  0  0  0  0  0  0  0  # atno 8010 bound_to 7997
  140.7107  143.3313  151.2563 H   0  0  0  0  0  0  0  0  0  0  0  0  # atno 10167 bound_to 10162
  156.0067  130.4579  150.3824 H   0  0  0  0  0  0  0  0  0  0  0  0  # atno 10718 bound_to 10713
  154.5710  135.2828  155.0827 H   0  0  0  0  0  0  0  0  0  0  0  0  # atno 10763 bound_to 10752
  154.2199  135.6393  153.5145 H   0  0  0  0  0  0  0  0  0  0  0  0  # atno 10764 bound_to 10752
  153.0057  135.5512  154.6334 H   0  0  0  0  0  0  0  0  0  0  0  0  # atno 10765 bound_to 10752
  140.6879  134.4073  157.5221 H   0  0  0  0  0  0  0  0  0  0  0  0  # atno 11005 bound_to 11000
  146.1376  140.7102  142.9382 LP  0  0  0  0  0  0  0  0  0  0  0  0  # atno 17320 bound_to 7965
  144.7203  140.4351  143.7013 LP  0  0  0  0  0  0  0  0  0  0  0  0  # atno 17321 bound_to 7965
  139.6796  143.9878  152.2801 LP  0  0  0  0  0  0  0  0  0  0  0  0  # atno 17342 bound_to 10162
  139.9503  144.6624  150.8178 LP  0  0  0  0  0  0  0  0  0  0  0  0  # atno 17343 bound_to 10162
  157.1903  131.0413  151.2704 LP  0  0  0  0  0  0  0  0  0  0  0  0  # atno 17370 bound_to 10713
  157.4067  130.7363  149.6808 LP  0  0  0  0  0  0  0  0  0  0  0  0  # atno 17371 bound_to 10713
  139.8932  134.8736  156.2234 LP  0  0  0  0  0  0  0  0  0  0  0  0  # atno 17394 bound_to 11000
  141.0265  133.7012  156.1356 LP  0  0  0  0  0  0  0  0  0  0  0  0  # atno 17395 bound_to 11000

$$$$
