AV-unprocessed.smi:800|AV-procd|sdf|3788|dock1
  -GOLD-   22720 1223D 1   1.00000     0.00000
 Structure written by MMmdl.
 35 36  0  0  0  0  0  0  0  0  2 V2000
  147.7881  136.1918  163.0148 C   0  0  0  0  0  0  0  0  0  0  0  0
  147.1313  136.3208  161.6317 C   0  0  0  0  0  0  0  0  0  0  0  0
  146.8706  134.9449  161.0032 C   0  0  0  0  0  0  0  0  0  0  0  0
  148.0058  137.0891  160.7467 N   0  5  0  0  0  0  0  0  0  0  0  0
  148.5481  136.6062  159.5927 C   0  0  0  0  0  0  0  0  0  0  0  0
  148.9898  135.4814  159.3327 O   0  0  0  0  0  0  0  0  0  0  0  0
  148.6541  137.6653  158.5325 C   0  0  0  0  0  0  0  0  0  0  0  0
  149.5036  138.6876  158.7876 N   0  0  0  0  0  0  0  0  0  0  0  0
  149.6296  139.6583  157.8755 C   0  0  0  0  0  0  0  0  0  0  0  0
  150.5042  140.7127  158.1694 N   0  0  0  0  0  0  0  0  0  0  0  0
  151.6337  140.5598  159.0894 C   0  0  0  0  0  0  0  0  0  0  0  0
  152.8149  141.4433  158.6532 C   0  0  0  0  0  0  0  0  0  0  0  0
  152.3894  142.7954  158.5354 O   0  0  0  0  0  0  0  0  0  0  0  0
  151.3765  142.9399  157.5472 C   0  0  0  0  0  0  0  0  0  0  0  0
  150.1409  142.1140  157.9426 C   0  0  0  0  0  0  0  0  0  0  0  0
  148.9814  139.6970  156.7047 N   0  0  0  0  0  0  0  0  0  0  0  0
  148.1423  138.6796  156.4193 C   0  0  0  0  0  0  0  0  0  0  0  0
  147.9368  137.6085  157.3087 C   0  0  0  0  0  0  0  0  0  0  0  0
  146.8862  136.3065  156.8628 Cl  0  0  0  0  0  0  0  0  0  0  0  0
  147.1586  135.6159  163.6934 H   0  0  0  0  0  0  0  0  0  0  0  0
  147.9489  137.1702  163.4693 H   0  0  0  0  0  0  0  0  0  0  0  0
  148.7549  135.6906  162.9527 H   0  0  0  0  0  0  0  0  0  0  0  0
  146.1631  136.8062  161.7639 H   0  0  0  0  0  0  0  0  0  0  0  0
  146.2158  134.3452  161.6358 H   0  0  0  0  0  0  0  0  0  0  0  0
  147.7971  134.3871  160.8626 H   0  0  0  0  0  0  0  0  0  0  0  0
  146.3877  135.0410  160.0300 H   0  0  0  0  0  0  0  0  0  0  0  0
  151.3064  140.8392  160.0914 H   0  0  0  0  0  0  0  0  0  0  0  0
  151.9820  139.5290  159.1468 H   0  0  0  0  0  0  0  0  0  0  0  0
  153.6165  141.3872  159.3896 H   0  0  0  0  0  0  0  0  0  0  0  0
  153.2298  141.0973  157.7050 H   0  0  0  0  0  0  0  0  0  0  0  0
  151.1113  143.9939  157.4643 H   0  0  0  0  0  0  0  0  0  0  0  0
  151.7552  142.6298  156.5717 H   0  0  0  0  0  0  0  0  0  0  0  0
  149.3895  142.2271  157.1617 H   0  0  0  0  0  0  0  0  0  0  0  0
  149.7039  142.5114  158.8591 H   0  0  0  0  0  0  0  0  0  0  0  0
  147.6392  138.7167  155.4644 H   0  0  0  0  0  0  0  0  0  0  0  0
  1  2  1  0  0  0  0
  1 20  1  0  0  0  0
  1 21  1  0  0  0  0
  1 22  1  0  0  0  0
  2  3  1  0  0  0  0
  2  4  1  0  0  0  0
  2 23  1  0  0  0  0
  3 24  1  0  0  0  0
  3 25  1  0  0  0  0
  3 26  1  0  0  0  0
  4  5  1  0  0  0  0
  5  6  2  0  0  0  0
  5  7  1  0  0  0  0
  7 18  1  0  0  0  0
  7  8  2  0  0  0  0
  8  9  1  0  0  0  0
  9 10  1  0  0  0  0
  9 16  2  0  0  0  0
 10 15  1  0  0  0  0
 10 11  1  0  0  0  0
 11 12  1  0  0  0  0
 11 27  1  0  0  0  0
 11 28  1  0  0  0  0
 12 13  1  0  0  0  0
 12 29  1  0  0  0  0
 12 30  1  0  0  0  0
 13 14  1  0  0  0  0
 14 15  1  0  0  0  0
 14 31  1  0  0  0  0
 14 32  1  0  0  0  0
 15 33  1  0  0  0  0
 15 34  1  0  0  0  0
 16 17  1  0  0  0  0
 17 18  2  0  0  0  0
 17 35  1  0  0  0  0
 18 19  1  0  0  0  0
M  CHG  1   4  -1
M  END
> <s_m_source_file>
AV-unprocessed.smi

> <i_m_source_file_index>
800

> <i_lp_mmshare_version>
43012

> <i_f3d_flags>
0

> <s_epik_input>
W0NIM11bQ0hdKFtDSDNdKVtOSF1DKD1PKWMxbmMobltjSF1jMUNsKU4yW0NIMl1bQ0gyXU9bQ0gyXVtDSDJdMg==

> <s_epik_cmdline>
J2VwaWtfcHl0aG9uJywgJy1waCcsICc3LjAnLCAnLXRuJywgJzgnLCAnLW1hJywgJzIwMCcsICctbWV0YWxfYmluZGluZycsICctaW1hZScsICc8aW5maWxlLm1hZT4nLCAnLW9tYWUnLCAnPG91dGZpbGUubWFlPic=

> <r_lp_tautomer_probability>
1

> <r_epik_Ionization_Penalty>
6.38192

> <r_epik_Ionization_Penalty_Charging>
6.38189

> <r_epik_Ionization_Penalty_Neutral>
2.33077e-05

> <r_epik_State_Penalty>
6.38188

> <r_epik_Charging_Adjusted_Penalty>
12.7638

> <i_epik_Tot_Q>
-1

> <i_epik_Tot_abs_Q>
1

> <r_epik_Metal_State_Penalty>
2.31349

> <b_epik_Metal_Only>
1

> <s_lp_Force_Field>
OPLS_2005

> <r_lp_Energy>
18.4653

> <b_lp_Chiralities_Consistent>
1

> <s_lp_Variant>
AV-unprocessed.smi:800-2

> <Gold.Version>
5.8.1

> <Gold.Id.Protein>
6NUR|6NUR_protein|mol2

> <Gold.PLP.Fitness>
36.3177

> <Gold.PLP.PLP>
-27.3330

> <Gold.PLP.part.hbond>
-4.3185

> <Gold.PLP.part.metal>
0.0000

> <Gold.PLP.part.buried>
-3.8979

> <Gold.PLP.part.nonpolar>
-19.4612

> <Gold.PLP.part.repulsive>
0.0037

> <Gold.PLP.ligand.clash>
0.0000

> <Gold.PLP.ligand.torsion>
2.0351

> <Gold.PLP.Chemscore.Hbond>
4.2960

> <Gold.PLP.Chemscore.CHOScore>
0.0000

> <Gold.PLP.Chemscore.Metal>
0.0000

> <Gold.Chemscore.Hbonds>
donor molecule, donor type, donor heavy atom, donor atom, acceptor molecule, acceptor atom, score
      P1  H  6896  6909       L1     6  1.00
      P1  H  6931  6943       L1     4  1.79
      P1  H  6934  6947       L1     4  1.25

> <Gold.PLP.Chemscore.Internal.Correction>
0.1668

> <Gold.Rescore>
     Score         DG    S(hbond)    S(metal)    S(lipo)     H(rot)  DE(clash)    DE(int)     intcor
     13.04     -16.70       1.94        0.00      62.25       1.00       0.25       3.41       ----

> <Gold.Chemscore.Fitness>
13.0406

> <Gold.Chemscore.DG>
-16.6988

> <Gold.Chemscore.ZeroCoef>
-5.4800

> <Gold.Chemscore.Hbond>
1.9448

> <Gold.Chemscore.Metal>
0.0000

> <Gold.Chemscore.Lipo>
62.2488

> <Gold.Chemscore.Internal_Hbond>
0.0000

> <Gold.Chemscore.DEClash>
0.2475

> <Gold.Chemscore.DEInternal>
3.4108

> <Gold.Chemscore.Rot>
1.0000

> <Gold.Chemscore.Internal.Correction>
   9.000000E+99

> <Gold.Chemscore.Hbonds>
donor molecule, donor type, donor heavy atom, donor atom, acceptor molecule, acceptor atom, score
      P1  H  6896  6909       L1     6  1.00
      P1  H  6931  6943       L1     4  0.47
      P1  H  6934  6947       L1     4  0.22

> <Gold.Chemscore.Hbond.Weighted>
-6.4957

> <Gold.Chemscore.Metal.Weighted>
-0.0000

> <Gold.Chemscore.Lipo.Weighted>
-7.2831

> <Gold.Chemscore.Internal_Hbond.Weighted>
0.0000

> <Gold.Chemscore.DEClash.Weighted>
0.2475

> <Gold.Chemscore.DEInternal.Weighted>
3.4108

> <Gold.Chemscore.Rot.Weighted>
2.5600

> <Gold.Chemscore.Internal.Correction.Weighted>
   9.000000E+99

> <Gold.Protein.RotatedTorsions>
[ 6907 6896 6895 6894 ] final   53.38 input  -60.11 | X-H torsion
[ 7974 7965 7964 7962 ] final   70.08 input  175.53 | X-H torsion
[ 8008 7997 7996 7995 ] final  -35.89 input   59.86 | X-H torsion
[ 10167 10162 10161 10158 ] final  -98.45 input  -65.29 | X-H torsion
[ 10718 10713 10712 10709 ] final  -95.20 input   66.30 | X-H torsion
[ 10763 10752 10751 10750 ] final  -14.05 input  -60.55 | X-H torsion
[ 11005 11000 10999 10996 ] final   44.20 input  -57.11 | X-H torsion

> <Gold.Protein.ActiveResidues>
 VAL166  LYS551  ARG553  GLY616  TRP617  ASP618  TYR619  PRO620  LYS621  CYS622 
 ASP623  PHE694  ASN695  SER759  ASP760  ASP761  ALA762  ILE779  LEU786  VAL792 
 PHE793  MET794  SER795  GLU796  ALA797  LYS798  CYS799  TRP800  GLU811  SER814 

> <Gold.Protein.RotatedAtoms>
  152.3330  134.7234  160.0284 H   0  0  0  0  0  0  0  0  0  0  0  0  # atno 6907 bound_to 6896
  151.7644  133.3331  159.3435 H   0  0  0  0  0  0  0  0  0  0  0  0  # atno 6908 bound_to 6896
  150.7434  134.6008  159.6080 H   0  0  0  0  0  0  0  0  0  0  0  0  # atno 6909 bound_to 6896
  145.7825  139.2895  143.1257 H   0  0  0  0  0  0  0  0  0  0  0  0  # atno 7974 bound_to 7965
  154.4085  140.1645  156.2285 H   0  0  0  0  0  0  0  0  0  0  0  0  # atno 8008 bound_to 7997
  155.9303  140.3415  155.6220 H   0  0  0  0  0  0  0  0  0  0  0  0  # atno 8009 bound_to 7997
  155.7115  140.0757  157.2360 H   0  0  0  0  0  0  0  0  0  0  0  0  # atno 8010 bound_to 7997
  140.2728  143.3333  152.0518 H   0  0  0  0  0  0  0  0  0  0  0  0  # atno 10167 bound_to 10162
  156.0039  130.5099  150.6041 H   0  0  0  0  0  0  0  0  0  0  0  0  # atno 10718 bound_to 10713
  153.5225  135.7015  153.5724 H   0  0  0  0  0  0  0  0  0  0  0  0  # atno 10763 bound_to 10752
  153.3767  135.3931  155.1827 H   0  0  0  0  0  0  0  0  0  0  0  0  # atno 10764 bound_to 10752
  154.8693  135.3825  154.4715 H   0  0  0  0  0  0  0  0  0  0  0  0  # atno 10765 bound_to 10752
  140.1573  134.4385  155.8341 H   0  0  0  0  0  0  0  0  0  0  0  0  # atno 11005 bound_to 11000
  146.0059  140.8479  142.9995 LP  0  0  0  0  0  0  0  0  0  0  0  0  # atno 17320 bound_to 7965
  144.6794  140.2419  143.7342 LP  0  0  0  0  0  0  0  0  0  0  0  0  # atno 17321 bound_to 7965
  139.4984  144.6645  151.6388 LP  0  0  0  0  0  0  0  0  0  0  0  0  # atno 17342 bound_to 10162
  140.5876  143.9837  150.6305 LP  0  0  0  0  0  0  0  0  0  0  0  0  # atno 17343 bound_to 10162
  157.3885  131.0792  151.1415 LP  0  0  0  0  0  0  0  0  0  0  0  0  # atno 17370 bound_to 10713
  157.2115  130.6440  149.5776 LP  0  0  0  0  0  0  0  0  0  0  0  0  # atno 17371 bound_to 10713
  141.2206  133.6898  156.7531 LP  0  0  0  0  0  0  0  0  0  0  0  0  # atno 17394 bound_to 11000
  140.2532  134.8525  157.3687 LP  0  0  0  0  0  0  0  0  0  0  0  0  # atno 17395 bound_to 11000

$$$$
