AV-unprocessed.smi:250|AV-procd|sdf|1931|dock5
  -GOLD-   2262021 53D 1   1.00000     0.00000
 Structure written by MMmdl.
 56 60  0  0  0  0  0  0  0  0  1 V2000
  151.1740  145.1677  159.6638 C   0  0  0  0  0  0  0  0  0  0  0  0
  151.5825  143.7698  159.7060 N   0  0  0  0  0  0  0  0  0  0  0  0
  152.1285  143.1121  160.7505 C   0  0  0  0  0  0  0  0  0  0  0  0
  152.4035  143.5899  161.8493 O   0  0  0  0  0  0  0  0  0  0  0  0
  152.3243  141.8323  160.3891 N   0  0  0  0  0  0  0  0  0  0  0  0
  152.1366  141.6894  158.9644 C   0  0  1  0  0  0  0  0  0  0  0  0
  151.5840  140.4023  158.3583 C   0  0  0  0  0  0  0  0  0  0  0  0
  151.4448  140.6295  156.9107 N   0  0  0  0  0  0  0  0  0  0  0  0
  151.3011  139.5050  156.1662 C   0  0  0  0  0  0  0  0  0  0  0  0
  150.8834  139.5990  154.8754 N   0  0  0  0  0  0  0  0  0  0  0  0
  150.7255  138.4976  154.1357 C   0  0  0  0  0  0  0  0  0  0  0  0
  150.9258  137.2248  154.4815 N   0  0  0  0  0  0  0  0  0  0  0  0
  151.3516  137.1228  155.7730 C   0  0  0  0  0  0  0  0  0  0  0  0
  151.5714  138.2028  156.6743 C   0  0  0  0  0  0  0  0  0  0  0  0
  152.0361  137.7161  157.8902 N   0  0  0  0  0  0  0  0  0  0  0  0
  152.0780  136.4234  157.7208 C   0  0  0  0  0  0  0  0  0  0  0  0
  151.6620  135.9771  156.4866 N   0  0  0  0  0  0  0  0  0  0  0  0
  151.6104  134.5941  156.0354 C   0  0  0  0  0  0  0  0  0  0  0  0
  150.1844  134.0185  155.7778 C   0  0  0  0  0  0  0  0  0  0  0  0
  149.4538  133.7177  157.1215 C   0  0  0  0  0  0  0  0  0  0  0  0
  150.0794  132.7190  157.9018 O   0  0  0  0  0  0  0  0  0  0  0  0
  149.3562  134.9649  154.8709 C   0  0  0  0  0  0  0  0  0  0  0  0
  148.0788  134.2996  154.3313 C   0  0  0  0  0  0  0  0  0  0  0  0
  148.4199  133.1292  153.6002 O   0  0  0  0  0  0  0  0  0  0  0  0
  149.0543  132.1426  154.4028 C   0  0  0  0  0  0  0  0  0  0  0  0
  150.3681  132.6961  154.9897 C   0  0  0  0  0  0  0  0  0  0  0  0
  150.7275  141.8431  156.4670 C   0  0  0  0  0  0  0  0  0  0  0  0
  151.1938  143.1274  157.2062 C   0  0  0  0  0  0  0  0  0  0  0  0
  151.1605  142.8115  158.7026 C   0  0  2  0  0  0  0  0  0  0  0  0
  153.1059  141.9017  158.5054 H   0  0  0  0  0  0  0  0  0  0  0  0
  150.1450  142.5103  158.9734 H   0  0  0  0  0  0  0  0  0  0  0  0
  151.6606  145.7543  160.4442 H   0  0  0  0  0  0  0  0  0  0  0  0
  150.0952  145.2490  159.7971 H   0  0  0  0  0  0  0  0  0  0  0  0
  151.4356  145.6115  158.7032 H   0  0  0  0  0  0  0  0  0  0  0  0
  152.7427  141.1225  160.9726 H   0  0  0  0  0  0  0  0  0  0  0  0
  152.2549  139.5735  158.5793 H   0  0  0  0  0  0  0  0  0  0  0  0
  150.6117  140.1533  158.7856 H   0  0  0  0  0  0  0  0  0  0  0  0
  150.3883  138.6591  153.1223 H   0  0  0  0  0  0  0  0  0  0  0  0
  152.4037  135.7521  158.5021 H   0  0  0  0  0  0  0  0  0  0  0  0
  152.2105  134.5285  155.1268 H   0  0  0  0  0  0  0  0  0  0  0  0
  152.1297  133.9817  156.7739 H   0  0  0  0  0  0  0  0  0  0  0  0
  149.3963  134.6030  157.7516 H   0  0  0  0  0  0  0  0  0  0  0  0
  148.4233  133.4158  156.9326 H   0  0  0  0  0  0  0  0  0  0  0  0
  149.9067  131.8775  157.5076 H   0  0  0  0  0  0  0  0  0  0  0  0
  149.0978  135.8869  155.3915 H   0  0  0  0  0  0  0  0  0  0  0  0
  149.9635  135.2660  154.0164 H   0  0  0  0  0  0  0  0  0  0  0  0
  147.3836  134.0571  155.1359 H   0  0  0  0  0  0  0  0  0  0  0  0
  147.5581  134.9862  153.6638 H   0  0  0  0  0  0  0  0  0  0  0  0
  148.3740  131.7971  155.1809 H   0  0  0  0  0  0  0  0  0  0  0  0
  149.2682  131.2754  153.7778 H   0  0  0  0  0  0  0  0  0  0  0  0
  151.0548  132.8604  154.1580 H   0  0  0  0  0  0  0  0  0  0  0  0
  150.8380  131.9401  155.6201 H   0  0  0  0  0  0  0  0  0  0  0  0
  150.8605  141.9773  155.3926 H   0  0  0  0  0  0  0  0  0  0  0  0
  149.6599  141.6978  156.6378 H   0  0  0  0  0  0  0  0  0  0  0  0
  152.1992  143.4097  156.8911 H   0  0  0  0  0  0  0  0  0  0  0  0
  150.5347  143.9620  156.9670 H   0  0  0  0  0  0  0  0  0  0  0  0
  1  2  1  0  0  0  0
  1 32  1  0  0  0  0
  1 33  1  0  0  0  0
  1 34  1  0  0  0  0
  2 29  1  0  0  0  0
  2  3  1  0  0  0  0
  3  4  2  0  0  0  0
  3  5  1  0  0  0  0
  5  6  1  0  0  0  0
  5 35  1  0  0  0  0
  6 30  1  0  0  0  0
  6 29  1  0  0  0  0
  6  7  1  0  0  0  0
  7  8  1  0  0  0  0
  7 36  1  0  0  0  0
  7 37  1  0  0  0  0
  8  9  1  0  0  0  0
  8 27  1  0  0  0  0
  9 14  1  0  0  0  0
  9 10  2  0  0  0  0
 10 11  1  0  0  0  0
 11 12  2  0  0  0  0
 11 38  1  0  0  0  0
 12 13  1  0  0  0  0
 13 17  1  0  0  0  0
 13 14  2  0  0  0  0
 14 15  1  0  0  0  0
 15 16  2  0  0  0  0
 16 17  1  0  0  0  0
 16 39  1  0  0  0  0
 17 18  1  0  0  0  0
 18 19  1  0  0  0  0
 18 40  1  0  0  0  0
 18 41  1  0  0  0  0
 19 26  1  0  0  0  0
 19 20  1  0  0  0  0
 19 22  1  0  0  0  0
 20 21  1  0  0  0  0
 20 42  1  0  0  0  0
 20 43  1  0  0  0  0
 21 44  1  0  0  0  0
 22 23  1  0  0  0  0
 22 45  1  0  0  0  0
 22 46  1  0  0  0  0
 23 24  1  0  0  0  0
 23 47  1  0  0  0  0
 23 48  1  0  0  0  0
 24 25  1  0  0  0  0
 25 26  1  0  0  0  0
 25 49  1  0  0  0  0
 25 50  1  0  0  0  0
 26 51  1  0  0  0  0
 26 52  1  0  0  0  0
 27 28  1  0  0  0  0
 27 53  1  0  0  0  0
 27 54  1  0  0  0  0
 28 29  1  0  0  0  0
 28 55  1  0  0  0  0
 28 56  1  0  0  0  0
 29 31  1  0  0  0  0
M  END
> <s_m_source_file>
AV-unprocessed.smi

> <i_m_source_file_index>
250

> <i_lp_mmshare_version>
43012

> <i_f3d_flags>
0

> <s_epik_input>
Tz1DKFtOSF0xKU4oW0NIM10pW0NASF0oW0NASF0xMilbQ0gyXVtDSDJdTihbQ0gyXTIpYyhuW2NIXW4zKWMoYzM0KW5bY0hdbjRbQ0gyXUM1KFtDSDJdW09IXSlbQ0gyXVtDSDJdT1tDSDJdW0NIMl01

> <s_epik_cmdline>
J2VwaWtfcHl0aG9uJywgJy1waCcsICc3LjAnLCAnLXRuJywgJzgnLCAnLW1hJywgJzIwMCcsICctbWV0YWxfYmluZGluZycsICctaW1hZScsICc8aW5maWxlLm1hZT4nLCAnLW9tYWUnLCAnPG91dGZpbGUubWFlPic=

> <r_lp_tautomer_probability>
1

> <r_epik_Ionization_Penalty>
0.00229024

> <r_epik_Ionization_Penalty_Charging>
0

> <r_epik_Ionization_Penalty_Neutral>
0.00229024

> <r_epik_State_Penalty>
0.0013961

> <r_epik_Charging_Adjusted_Penalty>
0.0013961

> <i_epik_Tot_Q>
0

> <i_epik_Tot_abs_Q>
0

> <r_epik_Metal_State_Penalty>
-0

> <b_epik_Metal_Only>
0

> <s_lp_Force_Field>
OPLS_2005

> <r_lp_Energy>
73.7244

> <b_lp_Chiralities_Consistent>
1

> <s_lp_Variant>
AV-unprocessed.smi:250-2

> <Gold.Version>
5.8.1

> <Gold.Id.Protein>
6NUR|6NUR_protein|mol2

> <Gold.PLP.Fitness>
52.2862

> <Gold.PLP.PLP>
-43.6921

> <Gold.PLP.part.hbond>
-2.0000

> <Gold.PLP.part.metal>
0.0000

> <Gold.PLP.part.buried>
-5.5273

> <Gold.PLP.part.nonpolar>
-36.5513

> <Gold.PLP.part.repulsive>
0.6535

> <Gold.PLP.ligand.clash>
0.0000

> <Gold.PLP.ligand.torsion>
0.3475

> <Gold.PLP.Chemscore.Hbond>
2.0000

> <Gold.PLP.Chemscore.CHOScore>
1.0000

> <Gold.PLP.Chemscore.Metal>
0.0000

> <Gold.Chemscore.Hbonds>
donor molecule, donor type, donor heavy atom, donor atom, acceptor molecule, acceptor atom, score
      P1  H  6896  6909       L1    21  1.00
      P1  H  7989  7998       L1    10  1.00
      L1  C    11    38       P1  7957  1.00

> <Gold.PLP.Chemscore.Internal.Correction>
0.2891

> <Gold.Rescore>
     Score         DG    S(hbond)    S(metal)    S(lipo)     H(rot)  DE(clash)    DE(int)     intcor
     11.92     -15.63       1.53        0.00      91.60       2.22       0.67       3.04       ----

> <Gold.Chemscore.Fitness>
11.9173

> <Gold.Chemscore.DG>
-15.6274

> <Gold.Chemscore.ZeroCoef>
-5.4800

> <Gold.Chemscore.Hbond>
1.5287

> <Gold.Chemscore.Metal>
0.0000

> <Gold.Chemscore.Lipo>
91.6008

> <Gold.Chemscore.Internal_Hbond>
0.0000

> <Gold.Chemscore.DEClash>
0.6718

> <Gold.Chemscore.DEInternal>
3.0384

> <Gold.Chemscore.Rot>
2.2170

> <Gold.Chemscore.Internal.Correction>
   9.000000E+99

> <Gold.Chemscore.Hbonds>
donor molecule, donor type, donor heavy atom, donor atom, acceptor molecule, acceptor atom, score
      P1  H  6896  6909       L1    21  0.60
      P1  H  7989  7998       L1    10  0.24

> <Gold.Chemscore.Hbond.Weighted>
-5.1058

> <Gold.Chemscore.Metal.Weighted>
-0.0000

> <Gold.Chemscore.Lipo.Weighted>
-10.7173

> <Gold.Chemscore.Internal_Hbond.Weighted>
0.0000

> <Gold.Chemscore.DEClash.Weighted>
0.6718

> <Gold.Chemscore.DEInternal.Weighted>
3.0384

> <Gold.Chemscore.Rot.Weighted>
5.6756

> <Gold.Chemscore.Internal.Correction.Weighted>
   9.000000E+99

> <Gold.Protein.RotatedTorsions>
[ 6907 6896 6895 6894 ] final  -16.08 input  -60.11 | X-H torsion
[ 7974 7965 7964 7962 ] final  -87.06 input  175.53 | X-H torsion
[ 8008 7997 7996 7995 ] final  -12.04 input   59.86 | X-H torsion
[ 10167 10162 10161 10158 ] final   49.00 input  -65.29 | X-H torsion
[ 10718 10713 10712 10709 ] final  150.38 input   66.30 | X-H torsion
[ 10763 10752 10751 10750 ] final  -44.21 input  -60.55 | X-H torsion
[ 11005 11000 10999 10996 ] final  175.75 input  -57.11 | X-H torsion

> <Gold.Protein.ActiveResidues>
 VAL166  LYS551  ARG553  GLY616  TRP617  ASP618  TYR619  PRO620  LYS621  CYS622 
 ASP623  PHE694  ASN695  SER759  ASP760  ASP761  ALA762  ILE779  LEU786  VAL792 
 PHE793  MET794  SER795  GLU796  ALA797  LYS798  CYS799  TRP800  GLU811  SER814 

> <Gold.Protein.RotatedAtoms>
  151.3141  135.0802  159.9282 H   0  0  0  0  0  0  0  0  0  0  0  0  # atno 6907 bound_to 6896
  152.5271  133.9706  159.7770 H   0  0  0  0  0  0  0  0  0  0  0  0  # atno 6908 bound_to 6896
  151.0015  133.6000  159.2724 H   0  0  0  0  0  0  0  0  0  0  0  0  # atno 6909 bound_to 6896
  145.4716  140.9559  143.1914 H   0  0  0  0  0  0  0  0  0  0  0  0  # atno 7974 bound_to 7965
  154.5411  140.2286  155.8639 H   0  0  0  0  0  0  0  0  0  0  0  0  # atno 8008 bound_to 7997
  156.1859  140.3089  155.9200 H   0  0  0  0  0  0  0  0  0  0  0  0  # atno 8009 bound_to 7997
  155.3255  140.0442  157.3031 H   0  0  0  0  0  0  0  0  0  0  0  0  # atno 8010 bound_to 7997
  140.2874  144.3086  150.6249 H   0  0  0  0  0  0  0  0  0  0  0  0  # atno 10167 bound_to 10162
  157.2842  131.0841  151.1510 H   0  0  0  0  0  0  0  0  0  0  0  0  # atno 10718 bound_to 10713
  154.0084  135.6684  153.4763 H   0  0  0  0  0  0  0  0  0  0  0  0  # atno 10763 bound_to 10752
  153.0631  135.5016  154.8136 H   0  0  0  0  0  0  0  0  0  0  0  0  # atno 10764 bound_to 10752
  154.7010  135.3079  154.9304 H   0  0  0  0  0  0  0  0  0  0  0  0  # atno 10765 bound_to 10752
  140.3656  134.7075  157.4359 H   0  0  0  0  0  0  0  0  0  0  0  0  # atno 11005 bound_to 11000
  144.7942  139.6268  143.7100 LP  0  0  0  0  0  0  0  0  0  0  0  0  # atno 17320 bound_to 7965
  146.2393  139.5969  142.9502 LP  0  0  0  0  0  0  0  0  0  0  0  0  # atno 17321 bound_to 7965
  140.5761  143.2176  151.7513 LP  0  0  0  0  0  0  0  0  0  0  0  0  # atno 17342 bound_to 10162
  139.4947  144.4148  152.0042 LP  0  0  0  0  0  0  0  0  0  0  0  0  # atno 17343 bound_to 10162
  157.2932  130.6806  149.6125 LP  0  0  0  0  0  0  0  0  0  0  0  0  # atno 17370 bound_to 10713
  155.9665  130.4414  150.5341 LP  0  0  0  0  0  0  0  0  0  0  0  0  # atno 17371 bound_to 10713
  140.0592  134.6020  155.8769 LP  0  0  0  0  0  0  0  0  0  0  0  0  # atno 17394 bound_to 11000
  141.1970  133.6594  156.5722 LP  0  0  0  0  0  0  0  0  0  0  0  0  # atno 17395 bound_to 11000

$$$$
