AV-unprocessed.smi:2896|AV-procd|sdf|11139|dock5
  -GOLD-   2272016 13D 1   1.00000     0.00000
 Structure written by MMmdl.
 49 50  0  0  0  0  0  0  0  0  1 V2000
  151.8866  140.1210  155.9516 C   0  0  0  0  0  0  0  0  0  0  0  0
  150.9661  139.6373  157.0899 C   0  0  1  0  0  0  0  0  0  0  0  0
  150.9832  138.1046  157.2935 C   0  0  0  0  0  0  0  0  0  0  0  0
  149.6536  137.5612  157.5482 N   0  0  0  0  0  0  0  0  0  0  0  0
  149.2955  136.8568  158.6353 C   0  0  0  0  0  0  0  0  0  0  0  0
  150.0990  136.5806  159.5279 O   0  0  0  0  0  0  0  0  0  0  0  0
  147.8250  136.3739  158.7256 C   0  0  0  0  0  0  0  0  0  0  0  0
  146.8750  137.5798  158.4994 C   0  0  0  0  0  0  0  0  0  0  0  0
  147.5006  135.3596  157.5975 C   0  0  0  0  0  0  0  0  0  0  0  0
  147.6361  135.7250  160.1124 C   0  0  0  0  0  0  0  0  0  0  0  0
  147.4504  134.3303  160.2815 C   0  0  0  0  0  0  0  0  0  0  0  0
  147.2757  133.8050  161.5760 C   0  0  0  0  0  0  0  0  0  0  0  0
  147.2874  134.6917  162.6679 C   0  0  0  0  0  0  0  0  0  0  0  0
  147.4555  136.0223  162.5336 N   0  0  0  0  0  0  0  0  0  0  0  0
  147.6229  136.5160  161.2886 C   0  0  0  0  0  0  0  0  0  0  0  0
  151.1508  140.4299  158.4078 C   0  0  0  0  0  0  0  0  0  0  0  0
  151.7404  141.7700  158.3211 N   0  0  0  0  0  0  0  0  0  0  0  0
  152.1788  142.2232  159.6378 C   0  0  0  0  0  0  0  0  0  0  0  0
  152.8128  143.6234  159.5883 C   0  0  0  0  0  0  0  0  0  0  0  0
  151.8820  144.5441  159.0308 O   0  0  0  0  0  0  0  0  0  0  0  0
  151.4635  144.1704  157.7229 C   0  0  0  0  0  0  0  0  0  0  0  0
  150.8335  142.7664  157.7567 C   0  0  0  0  0  0  0  0  0  0  0  0
  152.9219  139.8174  156.0913 H   0  0  0  0  0  0  0  0  0  0  0  0
  151.8668  141.2076  155.8664 H   0  0  0  0  0  0  0  0  0  0  0  0
  151.5635  139.7209  154.9902 H   0  0  0  0  0  0  0  0  0  0  0  0
  149.9599  139.8941  156.7556 H   0  0  0  0  0  0  0  0  0  0  0  0
  151.3729  137.6081  156.4052 H   0  0  0  0  0  0  0  0  0  0  0  0
  151.6548  137.8378  158.1113 H   0  0  0  0  0  0  0  0  0  0  0  0
  148.9469  137.7430  156.8504 H   0  0  0  0  0  0  0  0  0  0  0  0
  147.0467  138.3948  159.2035 H   0  0  0  0  0  0  0  0  0  0  0  0
  145.8298  137.2825  158.5917 H   0  0  0  0  0  0  0  0  0  0  0  0
  147.0007  137.9994  157.5002 H   0  0  0  0  0  0  0  0  0  0  0  0
  148.1248  134.4668  157.6203 H   0  0  0  0  0  0  0  0  0  0  0  0
  147.6294  135.8094  156.6119 H   0  0  0  0  0  0  0  0  0  0  0  0
  146.4657  135.0225  157.6650 H   0  0  0  0  0  0  0  0  0  0  0  0
  147.4365  133.6476  159.4468 H   0  0  0  0  0  0  0  0  0  0  0  0
  147.1338  132.7453  161.7276 H   0  0  0  0  0  0  0  0  0  0  0  0
  147.1556  134.3230  163.6744 H   0  0  0  0  0  0  0  0  0  0  0  0
  147.7393  137.5878  161.2398 H   0  0  0  0  0  0  0  0  0  0  0  0
  150.2059  140.4728  158.9515 H   0  0  0  0  0  0  0  0  0  0  0  0
  151.8083  139.8235  159.0328 H   0  0  0  0  0  0  0  0  0  0  0  0
  151.3312  142.2372  160.3251 H   0  0  0  0  0  0  0  0  0  0  0  0
  152.9017  141.5186  160.0503 H   0  0  0  0  0  0  0  0  0  0  0  0
  153.0839  143.9533  160.5913 H   0  0  0  0  0  0  0  0  0  0  0  0
  153.7284  143.6137  158.9948 H   0  0  0  0  0  0  0  0  0  0  0  0
  150.7419  144.9009  157.3573 H   0  0  0  0  0  0  0  0  0  0  0  0
  152.3154  144.1937  157.0418 H   0  0  0  0  0  0  0  0  0  0  0  0
  150.5674  142.4977  156.7376 H   0  0  0  0  0  0  0  0  0  0  0  0
  149.9073  142.7956  158.3325 H   0  0  0  0  0  0  0  0  0  0  0  0
  1  2  1  0  0  0  0
  1 23  1  0  0  0  0
  1 24  1  0  0  0  0
  1 25  1  0  0  0  0
  2  3  1  0  0  0  0
  2 16  1  0  0  0  0
  2 26  1  0  0  0  0
  3  4  1  0  0  0  0
  3 27  1  0  0  0  0
  3 28  1  0  0  0  0
  4  5  1  0  0  0  0
  4 29  1  0  0  0  0
  5  6  2  0  0  0  0
  5  7  1  0  0  0  0
  7  8  1  0  0  0  0
  7  9  1  0  0  0  0
  7 10  1  0  0  0  0
  8 30  1  0  0  0  0
  8 31  1  0  0  0  0
  8 32  1  0  0  0  0
  9 33  1  0  0  0  0
  9 34  1  0  0  0  0
  9 35  1  0  0  0  0
 10 15  1  0  0  0  0
 10 11  2  0  0  0  0
 11 12  1  0  0  0  0
 11 36  1  0  0  0  0
 12 13  2  0  0  0  0
 12 37  1  0  0  0  0
 13 14  1  0  0  0  0
 13 38  1  0  0  0  0
 14 15  2  0  0  0  0
 15 39  1  0  0  0  0
 16 17  1  0  0  0  0
 16 40  1  0  0  0  0
 16 41  1  0  0  0  0
 17 22  1  0  0  0  0
 17 18  1  0  0  0  0
 18 19  1  0  0  0  0
 18 42  1  0  0  0  0
 18 43  1  0  0  0  0
 19 20  1  0  0  0  0
 19 44  1  0  0  0  0
 19 45  1  0  0  0  0
 20 21  1  0  0  0  0
 21 22  1  0  0  0  0
 21 46  1  0  0  0  0
 21 47  1  0  0  0  0
 22 48  1  0  0  0  0
 22 49  1  0  0  0  0
M  END
> <s_m_source_file>
AV-unprocessed.smi

> <i_m_source_file_index>
2896

> <i_lp_mmshare_version>
43012

> <i_f3d_flags>
0

> <s_epik_input>
W0NIMl0xW0NIMl1PW0NIMl1bQ0gyXU4xW0NIMl1bQ0BIXShbQ0gzXSlbQ0gyXVtOSF1DKD1PKUMoW0NIM10pKFtDSDNdKWMyW2NIXVtjSF1bY0hdbltjSF0y

> <s_epik_cmdline>
J2VwaWtfcHl0aG9uJywgJy1waCcsICc3LjAnLCAnLXRuJywgJzgnLCAnLW1hJywgJzIwMCcsICctbWV0YWxfYmluZGluZycsICctaW1hZScsICc8aW5maWxlLm1hZT4nLCAnLW9tYWUnLCAnPG91dGZpbGUubWFlPic=

> <r_epik_Ionization_Penalty>
0.458454

> <r_epik_Ionization_Penalty_Charging>
0

> <r_epik_Ionization_Penalty_Neutral>
0.458454

> <r_epik_State_Penalty>
0.453234

> <r_epik_Charging_Adjusted_Penalty>
0.453234

> <i_epik_Tot_Q>
0

> <i_epik_Tot_abs_Q>
0

> <r_epik_Metal_State_Penalty>
0.448418

> <b_epik_Metal_Only>
0

> <s_lp_Force_Field>
OPLS_2005

> <r_lp_Energy>
37.0423

> <b_lp_Chiralities_Consistent>
1

> <s_lp_Variant>
AV-unprocessed.smi:2896-4

> <Gold.Version>
5.8.1

> <Gold.Id.Protein>
6NUR|6NUR_protein|mol2

> <Gold.PLP.Fitness>
40.0523

> <Gold.PLP.PLP>
-39.6107

> <Gold.PLP.part.hbond>
-1.0000

> <Gold.PLP.part.metal>
0.0000

> <Gold.PLP.part.buried>
-5.9288

> <Gold.PLP.part.nonpolar>
-32.7621

> <Gold.PLP.part.repulsive>
0.0665

> <Gold.PLP.ligand.clash>
0.0000

> <Gold.PLP.ligand.torsion>
1.4488

> <Gold.PLP.Chemscore.Hbond>
1.0000

> <Gold.PLP.Chemscore.CHOScore>
0.0000

> <Gold.PLP.Chemscore.Metal>
0.0000

> <Gold.Chemscore.Hbonds>
donor molecule, donor type, donor heavy atom, donor atom, acceptor molecule, acceptor atom, score
      P1  H  6896  6909       L1     6  1.00

> <Gold.PLP.Chemscore.Internal.Correction>
0.3392

> <Gold.Rescore>
     Score         DG    S(hbond)    S(metal)    S(lipo)     H(rot)  DE(clash)    DE(int)     intcor
     15.07     -16.64       1.00        0.00     103.70       1.68       0.02       1.56       ----

> <Gold.Chemscore.Fitness>
15.0694

> <Gold.Chemscore.DG>
-16.6438

> <Gold.Chemscore.ZeroCoef>
-5.4800

> <Gold.Chemscore.Hbond>
0.9998

> <Gold.Chemscore.Metal>
0.0000

> <Gold.Chemscore.Lipo>
103.7031

> <Gold.Chemscore.Internal_Hbond>
0.0000

> <Gold.Chemscore.DEClash>
0.0180

> <Gold.Chemscore.DEInternal>
1.5564

> <Gold.Chemscore.Rot>
1.6832

> <Gold.Chemscore.Internal.Correction>
   9.000000E+99

> <Gold.Chemscore.Hbonds>
donor molecule, donor type, donor heavy atom, donor atom, acceptor molecule, acceptor atom, score
      P1  H  6896  6909       L1     6  1.00

> <Gold.Chemscore.Hbond.Weighted>
-3.3395

> <Gold.Chemscore.Metal.Weighted>
-0.0000

> <Gold.Chemscore.Lipo.Weighted>
-12.1333

> <Gold.Chemscore.Internal_Hbond.Weighted>
0.0000

> <Gold.Chemscore.DEClash.Weighted>
0.0180

> <Gold.Chemscore.DEInternal.Weighted>
1.5564

> <Gold.Chemscore.Rot.Weighted>
4.3090

> <Gold.Chemscore.Internal.Correction.Weighted>
   9.000000E+99

> <Gold.Protein.RotatedTorsions>
[ 6907 6896 6895 6894 ] final   92.99 input  -60.11 | X-H torsion
[ 7974 7965 7964 7962 ] final -104.47 input  175.53 | X-H torsion
[ 8008 7997 7996 7995 ] final  116.39 input   59.86 | X-H torsion
[ 10167 10162 10161 10158 ] final -166.58 input  -65.29 | X-H torsion
[ 10718 10713 10712 10709 ] final   85.84 input   66.30 | X-H torsion
[ 10763 10752 10751 10750 ] final  115.80 input  -60.55 | X-H torsion
[ 11005 11000 10999 10996 ] final   70.34 input  -57.11 | X-H torsion

> <Gold.Protein.ActiveResidues>
 VAL166  LYS551  ARG553  GLY616  TRP617  ASP618  TYR619  PRO620  LYS621  CYS622 
 ASP623  PHE694  ASN695  SER759  ASP760  ASP761  ALA762  ILE779  LEU786  VAL792 
 PHE793  MET794  SER795  GLU796  ALA797  LYS798  CYS799  TRP800  GLU811  SER814 

> <Gold.Protein.RotatedAtoms>
  152.5453  134.1416  159.8481 H   0  0  0  0  0  0  0  0  0  0  0  0  # atno 6907 bound_to 6896
  151.1452  133.4937  159.2603 H   0  0  0  0  0  0  0  0  0  0  0  0  # atno 6908 bound_to 6896
  151.1531  135.0247  159.8732 H   0  0  0  0  0  0  0  0  0  0  0  0  # atno 6909 bound_to 6896
  145.2427  140.9211  143.3140 H   0  0  0  0  0  0  0  0  0  0  0  0  # atno 7974 bound_to 7965
  156.2436  140.2918  156.0516 H   0  0  0  0  0  0  0  0  0  0  0  0  # atno 8008 bound_to 7997
  155.1875  140.0406  157.2911 H   0  0  0  0  0  0  0  0  0  0  0  0  # atno 8009 bound_to 7997
  154.6217  140.2477  155.7548 H   0  0  0  0  0  0  0  0  0  0  0  0  # atno 8010 bound_to 7997
  139.6106  144.0823  152.1838 H   0  0  0  0  0  0  0  0  0  0  0  0  # atno 10167 bound_to 10162
  157.6920  131.0191  150.2883 H   0  0  0  0  0  0  0  0  0  0  0  0  # atno 10718 bound_to 10713
  153.5277  135.3585  155.2661 H   0  0  0  0  0  0  0  0  0  0  0  0  # atno 10763 bound_to 10752
  154.8729  135.4060  154.3187 H   0  0  0  0  0  0  0  0  0  0  0  0  # atno 10764 bound_to 10752
  153.3870  135.7070  153.6590 H   0  0  0  0  0  0  0  0  0  0  0  0  # atno 10765 bound_to 10752
  139.9603  134.7072  156.0660 H   0  0  0  0  0  0  0  0  0  0  0  0  # atno 11005 bound_to 11000
  144.9574  139.4017  143.6372 LP  0  0  0  0  0  0  0  0  0  0  0  0  # atno 17320 bound_to 7965
  146.3324  139.8611  142.8856 LP  0  0  0  0  0  0  0  0  0  0  0  0  # atno 17321 bound_to 7965
  140.0441  144.5984  150.7388 LP  0  0  0  0  0  0  0  0  0  0  0  0  # atno 17342 bound_to 10162
  140.7316  143.2696  151.3931 LP  0  0  0  0  0  0  0  0  0  0  0  0  # atno 17343 bound_to 10162
  156.3418  130.3816  149.7402 LP  0  0  0  0  0  0  0  0  0  0  0  0  # atno 17370 bound_to 10713
  156.4909  130.8084  151.3094 LP  0  0  0  0  0  0  0  0  0  0  0  0  # atno 17371 bound_to 10713
  141.1280  133.6594  156.3387 LP  0  0  0  0  0  0  0  0  0  0  0  0  # atno 17394 bound_to 11000
  140.5515  134.6023  157.5409 LP  0  0  0  0  0  0  0  0  0  0  0  0  # atno 17395 bound_to 11000

$$$$
