AV-unprocessed.smi:2094|AV-procd|sdf|8553|dock8
  -GOLD-   2272011273D 1   1.00000     0.00000
 Structure written by MMmdl.
 35 36  0  0  0  0  0  0  0  0  3 V2000
  151.6015  140.4593  155.2534 O   0  0  0  0  0  0  0  0  0  0  0  0
  151.2847  139.8182  156.2583 C   0  0  0  0  0  0  0  0  0  0  0  0
  150.6324  138.6558  156.1277 N   0  0  0  0  0  0  0  0  0  0  0  0
  150.2417  138.0556  154.8601 C   0  0  0  0  0  0  0  0  0  0  0  0
  149.2238  138.9493  154.1350 C   0  0  0  0  0  0  0  0  0  0  0  0
  148.1213  138.1647  153.5247 N   0  3  0  0  0  0  0  0  0  0  0  0
  147.2540  138.9981  152.6514 C   0  0  0  0  0  0  0  0  0  0  0  0
  146.2081  138.1388  151.9206 C   0  0  0  0  0  0  0  0  0  0  0  0
  145.3636  137.3338  152.9170 C   0  0  0  0  0  0  0  0  0  0  0  0
  146.2786  136.5081  153.8302 C   0  0  0  0  0  0  0  0  0  0  0  0
  147.3215  137.4028  154.5215 C   0  0  0  0  0  0  0  0  0  0  0  0
  151.5280  140.1634  157.5423 N   0  5  0  0  0  0  0  0  0  0  0  0
  151.7371  141.4509  157.8627 C   0  0  0  0  0  0  0  0  0  0  0  0
  151.1210  142.4653  157.2453 N   0  0  0  0  0  0  0  0  0  0  0  0
  151.4836  143.7192  157.7405 C   0  0  0  0  0  0  0  0  0  0  0  0
  152.3904  143.6575  158.7651 C   0  0  0  0  0  0  0  0  0  0  0  0
  152.8187  142.0128  159.1405 S   0  0  0  0  0  0  0  0  0  0  0  0
  150.3894  138.1598  156.9727 H   0  0  0  0  0  0  0  0  0  0  0  0
  151.1274  137.9167  154.2380 H   0  0  0  0  0  0  0  0  0  0  0  0
  149.8268  137.0676  155.0593 H   0  0  0  0  0  0  0  0  0  0  0  0
  148.8146  139.7021  154.8108 H   0  0  0  0  0  0  0  0  0  0  0  0
  149.7541  139.4939  153.3519 H   0  0  0  0  0  0  0  0  0  0  0  0
  146.7607  139.7645  153.2514 H   0  0  0  0  0  0  0  0  0  0  0  0
  147.8649  139.5181  151.9123 H   0  0  0  0  0  0  0  0  0  0  0  0
  145.5622  138.7734  151.3128 H   0  0  0  0  0  0  0  0  0  0  0  0
  146.7102  137.4581  151.2317 H   0  0  0  0  0  0  0  0  0  0  0  0
  144.7556  138.0111  153.5183 H   0  0  0  0  0  0  0  0  0  0  0  0
  144.6714  136.6806  152.3847 H   0  0  0  0  0  0  0  0  0  0  0  0
  145.6830  135.9834  154.5778 H   0  0  0  0  0  0  0  0  0  0  0  0
  146.7857  135.7400  153.2447 H   0  0  0  0  0  0  0  0  0  0  0  0
  147.9705  136.7764  155.1321 H   0  0  0  0  0  0  0  0  0  0  0  0
  146.8263  138.0990  155.2006 H   0  0  0  0  0  0  0  0  0  0  0  0
  151.0453  144.6041  157.3039 H   0  0  0  0  0  0  0  0  0  0  0  0
  152.8298  144.4729  159.3190 H   0  0  0  0  0  0  0  0  0  0  0  0
  148.5603  137.4864  152.9185 H   0  0  0  0  0  0  0  0  0  0  0  0
  1  2  2  0  0  0  0
  2  3  1  0  0  0  0
  2 12  1  0  0  0  0
  3  4  1  0  0  0  0
  3 18  1  0  0  0  0
  4  5  1  0  0  0  0
  4 19  1  0  0  0  0
  4 20  1  0  0  0  0
  5  6  1  0  0  0  0
  5 21  1  0  0  0  0
  5 22  1  0  0  0  0
  6 11  1  0  0  0  0
  6  7  1  0  0  0  0
  6 35  1  0  0  0  0
  7  8  1  0  0  0  0
  7 23  1  0  0  0  0
  7 24  1  0  0  0  0
  8  9  1  0  0  0  0
  8 25  1  0  0  0  0
  8 26  1  0  0  0  0
  9 10  1  0  0  0  0
  9 27  1  0  0  0  0
  9 28  1  0  0  0  0
 10 11  1  0  0  0  0
 10 29  1  0  0  0  0
 10 30  1  0  0  0  0
 11 31  1  0  0  0  0
 11 32  1  0  0  0  0
 12 13  1  0  0  0  0
 13 17  1  0  0  0  0
 13 14  2  0  0  0  0
 14 15  1  0  0  0  0
 15 16  2  0  0  0  0
 15 33  1  0  0  0  0
 16 17  1  0  0  0  0
 16 34  1  0  0  0  0
M  CHG  1   6   1
M  CHG  1  12  -1
M  END
> <s_m_source_file>
AV-unprocessed.smi

> <i_m_source_file_index>
2094

> <i_lp_mmshare_version>
43012

> <i_f3d_flags>
0

> <s_epik_input>
czFbY0hdW2NIXW5jMVtOSF1DKD1PKVtOSF1bQ0gyXVtDSDJdTjJbQ0gyXVtDSDJdW0NIMl1bQ0gyXVtDSDJdMg==

> <s_epik_cmdline>
J2VwaWtfcHl0aG9uJywgJy1waCcsICc3LjAnLCAnLXRuJywgJzgnLCAnLW1hJywgJzIwMCcsICctbWV0YWxfYmluZGluZycsICctaW1hZScsICc8aW5maWxlLm1hZT4nLCAnLW9tYWUnLCAnPG91dGZpbGUubWFlPic=

> <r_lp_tautomer_probability>
0.999

> <r_epik_Ionization_Penalty>
6.21931

> <r_epik_Ionization_Penalty_Charging>
5.38824

> <r_epik_Ionization_Penalty_Neutral>
0.831074

> <r_epik_State_Penalty>
5.38819

> <r_epik_Charging_Adjusted_Penalty>
10.7764

> <i_epik_Tot_Q>
0

> <i_epik_Tot_abs_Q>
2

> <r_epik_Metal_State_Penalty>
1.41404

> <b_epik_Metal_Only>
1

> <s_lp_Force_Field>
OPLS_2005

> <r_lp_Energy>
7.37815

> <b_lp_Chiralities_Consistent>
1

> <s_lp_Variant>
AV-unprocessed.smi:2094-2

> <Gold.Version>
5.8.1

> <Gold.Id.Protein>
6NUR|6NUR_protein|mol2

> <Gold.PLP.Fitness>
38.0181

> <Gold.PLP.PLP>
-27.8998

> <Gold.PLP.part.hbond>
-2.0000

> <Gold.PLP.part.metal>
0.0000

> <Gold.PLP.part.buried>
0.0683

> <Gold.PLP.part.nonpolar>
-26.5724

> <Gold.PLP.part.repulsive>
0.1762

> <Gold.PLP.ligand.clash>
0.0000

> <Gold.PLP.ligand.torsion>
0.6731

> <Gold.PLP.Chemscore.Hbond>
2.8480

> <Gold.PLP.Chemscore.CHOScore>
0.9561

> <Gold.PLP.Chemscore.Metal>
0.0000

> <Gold.Chemscore.Hbonds>
donor molecule, donor type, donor heavy atom, donor atom, acceptor molecule, acceptor atom, score
      L1  H     6    35       P1  7948  2.00
      P1  H  7989  7998       L1     1  0.83
      L1  C    15    33       P1  8028  0.61

> <Gold.PLP.Chemscore.Internal.Correction>
0.0521

> <Gold.Rescore>
     Score         DG    S(hbond)    S(metal)    S(lipo)     H(rot)  DE(clash)    DE(int)     intcor
     13.91     -16.04       1.89        0.00      70.87       1.58       0.11       2.02       ----

> <Gold.Chemscore.Fitness>
13.9145

> <Gold.Chemscore.DG>
-16.0434

> <Gold.Chemscore.ZeroCoef>
-5.4800

> <Gold.Chemscore.Hbond>
1.8920

> <Gold.Chemscore.Metal>
0.0000

> <Gold.Chemscore.Lipo>
70.8699

> <Gold.Chemscore.Internal_Hbond>
0.0000

> <Gold.Chemscore.DEClash>
0.1126

> <Gold.Chemscore.DEInternal>
2.0163

> <Gold.Chemscore.Rot>
1.5812

> <Gold.Chemscore.Internal.Correction>
   9.000000E+99

> <Gold.Chemscore.Hbonds>
donor molecule, donor type, donor heavy atom, donor atom, acceptor molecule, acceptor atom, score
      L1  H     6    35       P1  7948  1.00
      P1  H  7989  7998       L1     1  0.83

> <Gold.Chemscore.Hbond.Weighted>
-6.3194

> <Gold.Chemscore.Metal.Weighted>
-0.0000

> <Gold.Chemscore.Lipo.Weighted>
-8.2918

> <Gold.Chemscore.Internal_Hbond.Weighted>
0.0000

> <Gold.Chemscore.DEClash.Weighted>
0.1126

> <Gold.Chemscore.DEInternal.Weighted>
2.0163

> <Gold.Chemscore.Rot.Weighted>
4.0478

> <Gold.Chemscore.Internal.Correction.Weighted>
   9.000000E+99

> <Gold.Protein.RotatedTorsions>
[ 6907 6896 6895 6894 ] final  142.76 input  -60.11 | X-H torsion
[ 7974 7965 7964 7962 ] final  126.01 input  175.53 | X-H torsion
[ 8008 7997 7996 7995 ] final  -87.29 input   59.86 | X-H torsion
[ 10167 10162 10161 10158 ] final   68.71 input  -65.29 | X-H torsion
[ 10718 10713 10712 10709 ] final   57.88 input   66.30 | X-H torsion
[ 10763 10752 10751 10750 ] final  -58.49 input  -60.55 | X-H torsion
[ 11005 11000 10999 10996 ] final  112.38 input  -57.11 | X-H torsion

> <Gold.Protein.ActiveResidues>
 VAL166  LYS551  ARG553  GLY616  TRP617  ASP618  TYR619  PRO620  LYS621  CYS622 
 ASP623  PHE694  ASN695  SER759  ASP760  ASP761  ALA762  ILE779  LEU786  VAL792 
 PHE793  MET794  SER795  GLU796  ALA797  LYS798  CYS799  TRP800  GLU811  SER814 

> <Gold.Protein.RotatedAtoms>
  152.2147  133.4937  159.5128 H   0  0  0  0  0  0  0  0  0  0  0  0  # atno 6907 bound_to 6896
  150.6998  134.1421  159.4118 H   0  0  0  0  0  0  0  0  0  0  0  0  # atno 6908 bound_to 6896
  151.9341  135.0243  160.0582 H   0  0  0  0  0  0  0  0  0  0  0  0  # atno 6909 bound_to 6896
  145.0666  139.3763  143.4979 H   0  0  0  0  0  0  0  0  0  0  0  0  # atno 7974 bound_to 7965
  154.6616  140.0567  157.0068 H   0  0  0  0  0  0  0  0  0  0  0  0  # atno 8008 bound_to 7997
  155.1221  140.3248  155.4476 H   0  0  0  0  0  0  0  0  0  0  0  0  # atno 8009 bound_to 7997
  156.2620  140.1996  156.6342 H   0  0  0  0  0  0  0  0  0  0  0  0  # atno 8010 bound_to 7997
  140.0757  144.5114  150.7196 H   0  0  0  0  0  0  0  0  0  0  0  0  # atno 10167 bound_to 10162
  157.5551  130.8794  149.9022 H   0  0  0  0  0  0  0  0  0  0  0  0  # atno 10718 bound_to 10713
  154.2389  135.6347  153.5200 H   0  0  0  0  0  0  0  0  0  0  0  0  # atno 10763 bound_to 10752
  152.9934  135.5537  154.5931 H   0  0  0  0  0  0  0  0  0  0  0  0  # atno 10764 bound_to 10752
  154.5432  135.2896  155.1051 H   0  0  0  0  0  0  0  0  0  0  0  0  # atno 10765 bound_to 10752
  139.8926  134.9528  156.6577 H   0  0  0  0  0  0  0  0  0  0  0  0  # atno 11005 bound_to 11000
  146.3527  140.0390  142.8644 LP  0  0  0  0  0  0  0  0  0  0  0  0  # atno 17320 bound_to 7965
  145.1344  140.9536  143.4525 LP  0  0  0  0  0  0  0  0  0  0  0  0  # atno 17321 bound_to 7965
  140.7103  143.2500  151.4602 LP  0  0  0  0  0  0  0  0  0  0  0  0  # atno 17342 bound_to 10162
  139.5809  144.1712  152.1967 LP  0  0  0  0  0  0  0  0  0  0  0  0  # atno 17343 bound_to 10162
  156.0611  130.3700  150.0981 LP  0  0  0  0  0  0  0  0  0  0  0  0  # atno 17370 bound_to 10713
  156.9150  130.9664  151.3557 LP  0  0  0  0  0  0  0  0  0  0  0  0  # atno 17371 bound_to 10713
  140.7471  133.8929  155.8320 LP  0  0  0  0  0  0  0  0  0  0  0  0  # atno 17394 bound_to 11000
  141.0031  134.1123  157.4297 LP  0  0  0  0  0  0  0  0  0  0  0  0  # atno 17395 bound_to 11000

$$$$
