AV-unprocessed.smi:1107|AV-procd|sdf|4781|dock3
  -GOLD-   22720 3323D 1   1.00000     0.00000
 Structure written by MMmdl.
 49 50  0  0  0  0  0  0  0  0  2 V2000
  151.2819  143.2557  157.3770 C   0  0  0  0  0  0  0  0  0  0  0  0
  151.0861  141.9419  156.6507 C   0  0  0  0  0  0  0  0  0  0  0  0
  151.7611  140.8695  156.9054 N   0  0  0  0  0  0  0  0  0  0  0  0
  151.4878  139.7087  156.1682 C   0  0  0  0  0  0  0  0  0  0  0  0
  152.3196  138.4913  156.5338 C   0  0  0  0  0  0  0  0  0  0  0  0
  150.5290  139.6891  155.1961 C   0  0  0  0  0  0  0  0  0  0  0  0
  150.1964  138.4490  154.3695 C   0  0  0  0  0  0  0  0  0  0  0  0
  149.8974  137.1826  155.1743 C   0  0  0  0  0  0  0  0  0  0  0  0
  149.8836  137.2177  156.4043 O   0  0  0  0  0  0  0  0  0  0  0  0
  149.6554  136.0684  154.4656 N   0  0  0  0  0  0  0  0  0  0  0  0
  149.3806  134.7408  155.0162 C   0  0  2  0  0  0  0  0  0  0  0  0
  150.5501  134.3213  155.9169 C   0  0  0  0  0  0  0  0  0  0  0  0
  149.1369  133.7060  153.8938 C   0  0  0  0  0  0  0  0  0  0  0  0
  147.9381  134.0096  153.0703 N   0  3  0  0  0  0  0  0  0  0  0  0
  147.6231  132.9358  152.0934 C   0  0  0  0  0  0  0  0  0  0  0  0
  146.4819  133.3630  151.1545 C   0  0  0  0  0  0  0  0  0  0  0  0
  145.2332  133.7641  151.9511 C   0  0  0  0  0  0  0  0  0  0  0  0
  145.5920  134.8434  152.9812 C   0  0  0  0  0  0  0  0  0  0  0  0
  146.7482  134.3789  153.8819 C   0  0  0  0  0  0  0  0  0  0  0  0
  149.7710  140.9215  154.9073 C   0  0  0  0  0  0  0  0  0  0  0  0
  148.9008  141.0149  154.0429 O   0  0  0  0  0  0  0  0  0  0  0  0
  150.0986  141.9896  155.6681 N   0  0  0  0  0  0  0  0  0  0  0  0
  149.6067  142.8570  155.5098 H   0  0  0  0  0  0  0  0  0  0  0  0
  151.1205  143.1203  158.4467 H   0  0  0  0  0  0  0  0  0  0  0  0
  150.5891  144.0200  157.0221 H   0  0  0  0  0  0  0  0  0  0  0  0
  152.2984  143.6198  157.2269 H   0  0  0  0  0  0  0  0  0  0  0  0
  152.8241  138.0872  155.6567 H   0  0  0  0  0  0  0  0  0  0  0  0
  151.6875  137.7129  156.9615 H   0  0  0  0  0  0  0  0  0  0  0  0
  153.0844  138.7415  157.2697 H   0  0  0  0  0  0  0  0  0  0  0  0
  149.3275  138.6487  153.7431 H   0  0  0  0  0  0  0  0  0  0  0  0
  151.0050  138.2569  153.6621 H   0  0  0  0  0  0  0  0  0  0  0  0
  149.6971  136.1386  153.4587 H   0  0  0  0  0  0  0  0  0  0  0  0
  148.4977  134.7931  155.6546 H   0  0  0  0  0  0  0  0  0  0  0  0
  150.3628  133.3501  156.3757 H   0  0  0  0  0  0  0  0  0  0  0  0
  150.7033  135.0403  156.7226 H   0  0  0  0  0  0  0  0  0  0  0  0
  151.4815  134.2491  155.3541 H   0  0  0  0  0  0  0  0  0  0  0  0
  150.0192  133.6954  153.2518 H   0  0  0  0  0  0  0  0  0  0  0  0
  149.0527  132.6996  154.3064 H   0  0  0  0  0  0  0  0  0  0  0  0
  148.5071  132.7083  151.4964 H   0  0  0  0  0  0  0  0  0  0  0  0
  147.3547  132.0227  152.6271 H   0  0  0  0  0  0  0  0  0  0  0  0
  146.8093  134.2036  150.5409 H   0  0  0  0  0  0  0  0  0  0  0  0
  146.2410  132.5525  150.4661 H   0  0  0  0  0  0  0  0  0  0  0  0
  144.4562  134.1279  151.2783 H   0  0  0  0  0  0  0  0  0  0  0  0
  144.8234  132.8903  152.4595 H   0  0  0  0  0  0  0  0  0  0  0  0
  145.8754  135.7631  152.4670 H   0  0  0  0  0  0  0  0  0  0  0  0
  144.7190  135.0845  153.5883 H   0  0  0  0  0  0  0  0  0  0  0  0
  146.4356  133.5239  154.4834 H   0  0  0  0  0  0  0  0  0  0  0  0
  146.9986  135.1783  154.5787 H   0  0  0  0  0  0  0  0  0  0  0  0
  148.1778  134.8232  152.5212 H   0  0  0  0  0  0  0  0  0  0  0  0
  1  2  1  0  0  0  0
  1 24  1  0  0  0  0
  1 25  1  0  0  0  0
  1 26  1  0  0  0  0
  2 22  1  0  0  0  0
  2  3  2  0  0  0  0
  3  4  1  0  0  0  0
  4  5  1  0  0  0  0
  4  6  2  0  0  0  0
  5 27  1  0  0  0  0
  5 28  1  0  0  0  0
  5 29  1  0  0  0  0
  6  7  1  0  0  0  0
  6 20  1  0  0  0  0
  7  8  1  0  0  0  0
  7 30  1  0  0  0  0
  7 31  1  0  0  0  0
  8  9  2  0  0  0  0
  8 10  1  0  0  0  0
 10 11  1  0  0  0  0
 10 32  1  0  0  0  0
 11 12  1  0  0  0  0
 11 13  1  0  0  0  0
 11 33  1  0  0  0  0
 12 34  1  0  0  0  0
 12 35  1  0  0  0  0
 12 36  1  0  0  0  0
 13 14  1  0  0  0  0
 13 37  1  0  0  0  0
 13 38  1  0  0  0  0
 14 19  1  0  0  0  0
 14 15  1  0  0  0  0
 14 49  1  0  0  0  0
 15 16  1  0  0  0  0
 15 39  1  0  0  0  0
 15 40  1  0  0  0  0
 16 17  1  0  0  0  0
 16 41  1  0  0  0  0
 16 42  1  0  0  0  0
 17 18  1  0  0  0  0
 17 43  1  0  0  0  0
 17 44  1  0  0  0  0
 18 19  1  0  0  0  0
 18 45  1  0  0  0  0
 18 46  1  0  0  0  0
 19 47  1  0  0  0  0
 19 48  1  0  0  0  0
 20 21  2  0  0  0  0
 20 22  1  0  0  0  0
 22 23  1  0  0  0  0
M  CHG  1  14   1
M  END
> <s_m_source_file>
AV-unprocessed.smi

> <i_m_source_file_index>
1107

> <i_lp_mmshare_version>
43012

> <i_f3d_flags>
0

> <s_epik_input>
W0NIM11jMW5jKFtDSDNdKWMoYyg9TylbbkhdMSlbQ0gyXUMoPU8pW05IXVtDQEhdKFtDSDNdKVtDSDJdTjJbQ0gyXVtDSDJdW0NIMl1bQ0gyXVtDSDJdMg==

> <s_epik_cmdline>
J2VwaWtfcHl0aG9uJywgJy1waCcsICc3LjAnLCAnLXRuJywgJzgnLCAnLW1hJywgJzIwMCcsICctbWV0YWxfYmluZGluZycsICctaW1hZScsICc8aW5maWxlLm1hZT4nLCAnLW9tYWUnLCAnPG91dGZpbGUubWFlPic=

> <r_lp_tautomer_probability>
0.839158

> <r_epik_Ionization_Penalty>
0.00280224

> <r_epik_Ionization_Penalty_Charging>
0.00277925

> <r_epik_Ionization_Penalty_Neutral>
2.29856e-05

> <r_epik_State_Penalty>
0.09125

> <r_epik_Charging_Adjusted_Penalty>
0.0940293

> <i_epik_Tot_Q>
1

> <i_epik_Tot_abs_Q>
1

> <r_epik_Metal_State_Penalty>
0.283823

> <b_epik_Metal_Only>
0

> <s_lp_Force_Field>
OPLS_2005

> <r_lp_Energy>
24.1286

> <b_lp_Chiralities_Consistent>
1

> <s_lp_Variant>
AV-unprocessed.smi:1107-1

> <Gold.Version>
5.8.1

> <Gold.Id.Protein>
6NUR|6NUR_protein|mol2

> <Gold.PLP.Fitness>
46.9064

> <Gold.PLP.PLP>
-34.1297

> <Gold.PLP.part.hbond>
-3.7078

> <Gold.PLP.part.metal>
0.0000

> <Gold.PLP.part.buried>
-0.0660

> <Gold.PLP.part.nonpolar>
-29.4692

> <Gold.PLP.part.repulsive>
0.7449

> <Gold.PLP.ligand.clash>
0.0000

> <Gold.PLP.ligand.torsion>
0.1430

> <Gold.PLP.Chemscore.Hbond>
4.3289

> <Gold.PLP.Chemscore.CHOScore>
0.0000

> <Gold.PLP.Chemscore.Metal>
0.0000

> <Gold.Chemscore.Hbonds>
donor molecule, donor type, donor heavy atom, donor atom, acceptor molecule, acceptor atom, score
      L1  H    10    32       P1  7948  0.95
      L1  H    14    49       P1  7948  2.00
      L1  H    22    23       P1  8028  1.00
      P1  H  8011  8017       L1    21  0.10

> <Gold.PLP.Chemscore.Internal.Correction>
0.0758

> <Gold.Rescore>
     Score         DG    S(hbond)    S(metal)    S(lipo)     H(rot)  DE(clash)    DE(int)     intcor
     16.50     -17.60       2.68        0.00      70.53       1.98       0.04       1.06       ----

> <Gold.Chemscore.Fitness>
16.5033

> <Gold.Chemscore.DG>
-17.6016

> <Gold.Chemscore.ZeroCoef>
-5.4800

> <Gold.Chemscore.Hbond>
2.6789

> <Gold.Chemscore.Metal>
0.0000

> <Gold.Chemscore.Lipo>
70.5340

> <Gold.Chemscore.Internal_Hbond>
0.0000

> <Gold.Chemscore.DEClash>
0.0430

> <Gold.Chemscore.DEInternal>
1.0553

> <Gold.Chemscore.Rot>
1.9837

> <Gold.Chemscore.Internal.Correction>
   9.000000E+99

> <Gold.Chemscore.Hbonds>
donor molecule, donor type, donor heavy atom, donor atom, acceptor molecule, acceptor atom, score
      L1  H    10    32       P1  7948  0.21
      L1  H    14    49       P1  7948  0.55
      L1  H    22    23       P1  8028  0.96
      P1  H  8011  8017       L1    21  0.07

> <Gold.Chemscore.Hbond.Weighted>
-8.9474

> <Gold.Chemscore.Metal.Weighted>
-0.0000

> <Gold.Chemscore.Lipo.Weighted>
-8.2525

> <Gold.Chemscore.Internal_Hbond.Weighted>
0.0000

> <Gold.Chemscore.DEClash.Weighted>
0.0430

> <Gold.Chemscore.DEInternal.Weighted>
1.0553

> <Gold.Chemscore.Rot.Weighted>
5.0783

> <Gold.Chemscore.Internal.Correction.Weighted>
   9.000000E+99

> <Gold.Protein.RotatedTorsions>
[ 6907 6896 6895 6894 ] final  127.71 input  -60.11 | X-H torsion
[ 7974 7965 7964 7962 ] final -108.32 input  175.53 | X-H torsion
[ 8008 7997 7996 7995 ] final   76.48 input   59.86 | X-H torsion
[ 10167 10162 10161 10158 ] final -140.89 input  -65.29 | X-H torsion
[ 10718 10713 10712 10709 ] final -173.32 input   66.30 | X-H torsion
[ 10763 10752 10751 10750 ] final   15.35 input  -60.55 | X-H torsion
[ 11005 11000 10999 10996 ] final -112.40 input  -57.11 | X-H torsion

> <Gold.Protein.ActiveResidues>
 VAL166  LYS551  ARG553  GLY616  TRP617  ASP618  TYR619  PRO620  LYS621  CYS622 
 ASP623  PHE694  ASN695  SER759  ASP760  ASP761  ALA762  ILE779  LEU786  VAL792 
 PHE793  MET794  SER795  GLU796  ALA797  LYS798  CYS799  TRP800  GLU811  SER814 

> <Gold.Protein.RotatedAtoms>
  152.3787  133.6517  159.6143 H   0  0  0  0  0  0  0  0  0  0  0  0  # atno 6907 bound_to 6896
  150.7724  133.9149  159.3389 H   0  0  0  0  0  0  0  0  0  0  0  0  # atno 6908 bound_to 6896
  151.6959  135.0940  160.0293 H   0  0  0  0  0  0  0  0  0  0  0  0  # atno 6909 bound_to 6896
  145.1943  140.9028  143.3406 H   0  0  0  0  0  0  0  0  0  0  0  0  # atno 7974 bound_to 7965
  155.8280  140.3467  155.5554 H   0  0  0  0  0  0  0  0  0  0  0  0  # atno 8008 bound_to 7997
  155.8272  140.0921  157.1834 H   0  0  0  0  0  0  0  0  0  0  0  0  # atno 8009 bound_to 7997
  154.4004  140.1419  156.3558 H   0  0  0  0  0  0  0  0  0  0  0  0  # atno 8010 bound_to 7997
  139.8238  143.7539  152.2666 H   0  0  0  0  0  0  0  0  0  0  0  0  # atno 10167 bound_to 10162
  156.7686  130.9440  151.3119 H   0  0  0  0  0  0  0  0  0  0  0  0  # atno 10718 bound_to 10713
  153.1534  135.6782  153.8848 H   0  0  0  0  0  0  0  0  0  0  0  0  # atno 10763 bound_to 10752
  153.8267  135.3123  155.3416 H   0  0  0  0  0  0  0  0  0  0  0  0  # atno 10764 bound_to 10752
  154.7879  135.4851  154.0074 H   0  0  0  0  0  0  0  0  0  0  0  0  # atno 10765 bound_to 10752
  141.0677  133.9431  157.2545 H   0  0  0  0  0  0  0  0  0  0  0  0  # atno 11005 bound_to 11000
  145.0010  139.3598  143.6167 LP  0  0  0  0  0  0  0  0  0  0  0  0  # atno 17320 bound_to 7965
  146.3430  139.9233  142.8763 LP  0  0  0  0  0  0  0  0  0  0  0  0  # atno 17321 bound_to 7965
  139.7725  144.7472  151.0204 LP  0  0  0  0  0  0  0  0  0  0  0  0  # atno 17342 bound_to 10162
  140.7811  143.4630  151.0252 LP  0  0  0  0  0  0  0  0  0  0  0  0  # atno 17343 bound_to 10162
  157.6701  130.9044  150.0022 LP  0  0  0  0  0  0  0  0  0  0  0  0  # atno 17370 bound_to 10713
  156.1293  130.3644  149.9758 LP  0  0  0  0  0  0  0  0  0  0  0  0  # atno 17371 bound_to 10713
  139.9493  135.0178  156.8946 LP  0  0  0  0  0  0  0  0  0  0  0  0  # atno 17394 bound_to 11000
  140.5738  134.0418  155.7439 LP  0  0  0  0  0  0  0  0  0  0  0  0  # atno 17395 bound_to 11000

$$$$
