AV-unprocessed.smi:2451|AV-procd|sdf|9675|dock7
  -GOLD-   2272013313D 1   1.00000     0.00000
 Structure written by MMmdl.
 38 39  0  0  0  0  0  0  0  0  1 V2000
  152.0443  145.6991  160.3827 C   0  0  0  0  0  0  0  0  0  0  0  0
  151.7382  144.2778  159.8825 C   0  0  2  0  0  0  0  0  0  0  0  0
  152.7832  143.2571  160.3821 C   0  0  0  0  0  0  0  0  0  0  0  0
  152.4216  141.8213  159.9650 C   0  0  0  0  0  0  0  0  0  0  0  0
  152.1984  141.7077  158.4489 C   0  0  0  0  0  0  0  0  0  0  0  0
  151.1559  142.7347  157.9726 C   0  0  2  0  0  0  0  0  0  0  0  0
  150.9197  142.5972  156.5328 N   0  0  0  0  0  0  0  0  0  0  0  0
  150.2570  141.1205  155.9399 S   0  0  0  0  0  0  0  0  0  0  0  0
  151.3491  140.3752  155.2955 O   0  0  0  0  0  0  0  0  0  0  0  0
  149.4951  140.5037  157.0370 O   0  0  0  0  0  0  0  0  0  0  0  0
  149.0734  141.7002  154.6533 C   0  0  0  0  0  0  0  0  0  0  0  0
  148.2812  140.5338  154.1355 C   0  0  0  0  0  0  0  0  0  0  0  0
  148.6593  139.1637  154.0754 C   0  0  0  0  0  0  0  0  0  0  0  0
  147.5696  138.5562  153.5214 C   0  0  0  0  0  0  0  0  0  0  0  0
  146.5974  139.4673  153.2644 O   0  0  0  0  0  0  0  0  0  0  0  0
  147.0605  140.7267  153.6613 N   0  0  0  0  0  0  0  0  0  0  0  0
  151.5430  144.1879  158.3450 C   0  0  2  0  0  0  0  0  0  0  0  0
  152.7556  144.7176  157.5440 C   0  0  0  0  0  0  0  0  0  0  0  0
  153.0308  146.0382  160.0664 H   0  0  0  0  0  0  0  0  0  0  0  0
  152.0228  145.7385  161.4722 H   0  0  0  0  0  0  0  0  0  0  0  0
  151.3075  146.4136  160.0150 H   0  0  0  0  0  0  0  0  0  0  0  0
  150.7848  144.0014  160.3358 H   0  0  0  0  0  0  0  0  0  0  0  0
  153.7721  143.5124  160.0002 H   0  0  0  0  0  0  0  0  0  0  0  0
  152.8581  143.3062  161.4688 H   0  0  0  0  0  0  0  0  0  0  0  0
  153.2075  141.1338  160.2782 H   0  0  0  0  0  0  0  0  0  0  0  0
  151.5153  141.5113  160.4867 H   0  0  0  0  0  0  0  0  0  0  0  0
  153.1432  141.8537  157.9247 H   0  0  0  0  0  0  0  0  0  0  0  0
  151.8659  140.6980  158.2049 H   0  0  0  0  0  0  0  0  0  0  0  0
  150.2206  142.5027  158.4848 H   0  0  0  0  0  0  0  0  0  0  0  0
  151.7389  142.8793  155.9950 H   0  0  0  0  0  0  0  0  0  0  0  0
  148.4218  142.4522  155.0977 H   0  0  0  0  0  0  0  0  0  0  0  0
  149.6416  142.1806  153.8564 H   0  0  0  0  0  0  0  0  0  0  0  0
  149.5853  138.7022  154.3845 H   0  0  0  0  0  0  0  0  0  0  0  0
  147.3426  137.5333  153.2599 H   0  0  0  0  0  0  0  0  0  0  0  0
  150.6953  144.8243  158.0859 H   0  0  0  0  0  0  0  0  0  0  0  0
  153.6655  144.1555  157.7509 H   0  0  0  0  0  0  0  0  0  0  0  0
  152.9565  145.7643  157.7701 H   0  0  0  0  0  0  0  0  0  0  0  0
  152.5776  144.6664  156.4698 H   0  0  0  0  0  0  0  0  0  0  0  0
  1  2  1  0  0  0  0
  1 19  1  0  0  0  0
  1 20  1  0  0  0  0
  1 21  1  0  0  0  0
  2 17  1  0  0  0  0
  2  3  1  0  0  0  0
  2 22  1  0  0  0  0
  3  4  1  0  0  0  0
  3 23  1  0  0  0  0
  3 24  1  0  0  0  0
  4  5  1  0  0  0  0
  4 25  1  0  0  0  0
  4 26  1  0  0  0  0
  5  6  1  0  0  0  0
  5 27  1  0  0  0  0
  5 28  1  0  0  0  0
  6  7  1  0  0  0  0
  6 17  1  0  0  0  0
  6 29  1  0  0  0  0
  7  8  1  0  0  0  0
  7 30  1  0  0  0  0
  8  9  2  0  0  0  0
  8 10  2  0  0  0  0
  8 11  1  0  0  0  0
 11 12  1  0  0  0  0
 11 31  1  0  0  0  0
 11 32  1  0  0  0  0
 12 16  2  0  0  0  0
 12 13  1  0  0  0  0
 13 14  2  0  0  0  0
 13 33  1  0  0  0  0
 14 15  1  0  0  0  0
 14 34  1  0  0  0  0
 15 16  1  0  0  0  0
 17 18  1  0  0  0  0
 17 35  1  0  0  0  0
 18 36  1  0  0  0  0
 18 37  1  0  0  0  0
 18 38  1  0  0  0  0
M  END
> <s_m_source_file>
AV-unprocessed.smi

> <i_m_source_file_index>
2451

> <i_lp_mmshare_version>
43012

> <i_f3d_flags>
0

> <s_epik_input>
W0NIM11bQ0BASF0xW0NIMl1bQ0gyXVtDSDJdW0NASF0oW0NASF0xW0NIM10pW05IXVMoPU8pKD1PKVtDSDJdYzJbY0hdW2NIXW9uMg==

> <s_epik_cmdline>
J2VwaWtfcHl0aG9uJywgJy1waCcsICc3LjAnLCAnLXRuJywgJzgnLCAnLW1hJywgJzIwMCcsICctbWV0YWxfYmluZGluZycsICctaW1hZScsICc8aW5maWxlLm1hZT4nLCAnLW9tYWUnLCAnPG91dGZpbGUubWFlPic=

> <r_lp_tautomer_probability>
1

> <r_epik_Ionization_Penalty>
8.73668e-05

> <r_epik_Ionization_Penalty_Charging>
0

> <r_epik_Ionization_Penalty_Neutral>
8.73668e-05

> <r_epik_State_Penalty>
-0

> <r_epik_Charging_Adjusted_Penalty>
0

> <i_epik_Tot_Q>
0

> <i_epik_Tot_abs_Q>
0

> <r_epik_Metal_State_Penalty>
0.0716439

> <b_epik_Metal_Only>
0

> <s_lp_Force_Field>
OPLS_2005

> <r_lp_Energy>
8.89421

> <b_lp_Chiralities_Consistent>
1

> <s_lp_Variant>
AV-unprocessed.smi:2451-7

> <Gold.Version>
5.8.1

> <Gold.Id.Protein>
6NUR|6NUR_protein|mol2

> <Gold.PLP.Fitness>
41.3049

> <Gold.PLP.PLP>
-37.7190

> <Gold.PLP.part.hbond>
-1.8962

> <Gold.PLP.part.metal>
0.0000

> <Gold.PLP.part.buried>
-3.3302

> <Gold.PLP.part.nonpolar>
-33.2097

> <Gold.PLP.part.repulsive>
0.4353

> <Gold.PLP.ligand.clash>
0.0000

> <Gold.PLP.ligand.torsion>
0.8966

> <Gold.PLP.Chemscore.Hbond>
0.9600

> <Gold.PLP.Chemscore.CHOScore>
0.7844

> <Gold.PLP.Chemscore.Metal>
0.0000

> <Gold.Chemscore.Hbonds>
donor molecule, donor type, donor heavy atom, donor atom, acceptor molecule, acceptor atom, score
      P1  H  7989  7998       L1     9  0.96
      L1  C    14    34       P1  7948  0.78

> <Gold.PLP.Chemscore.Internal.Correction>
0.1458

> <Gold.Rescore>
     Score         DG    S(hbond)    S(metal)    S(lipo)     H(rot)  DE(clash)    DE(int)     intcor
     16.38     -17.65       0.93        0.00     113.68       1.66       0.43       0.84       ----

> <Gold.Chemscore.Fitness>
16.3843

> <Gold.Chemscore.DG>
-17.6477

> <Gold.Chemscore.ZeroCoef>
-5.4800

> <Gold.Chemscore.Hbond>
0.9322

> <Gold.Chemscore.Metal>
0.0000

> <Gold.Chemscore.Lipo>
113.6817

> <Gold.Chemscore.Internal_Hbond>
0.0000

> <Gold.Chemscore.DEClash>
0.4270

> <Gold.Chemscore.DEInternal>
0.8364

> <Gold.Chemscore.Rot>
1.6588

> <Gold.Chemscore.Internal.Correction>
   9.000000E+99

> <Gold.Chemscore.Hbonds>
donor molecule, donor type, donor heavy atom, donor atom, acceptor molecule, acceptor atom, score
      P1  H  7989  7998       L1     9  0.79

> <Gold.Chemscore.Hbond.Weighted>
-3.1135

> <Gold.Chemscore.Metal.Weighted>
-0.0000

> <Gold.Chemscore.Lipo.Weighted>
-13.3008

> <Gold.Chemscore.Internal_Hbond.Weighted>
0.0000

> <Gold.Chemscore.DEClash.Weighted>
0.4270

> <Gold.Chemscore.DEInternal.Weighted>
0.8364

> <Gold.Chemscore.Rot.Weighted>
4.2466

> <Gold.Chemscore.Internal.Correction.Weighted>
   9.000000E+99

> <Gold.Protein.RotatedTorsions>
[ 6907 6896 6895 6894 ] final   86.26 input  -60.11 | X-H torsion
[ 7974 7965 7964 7962 ] final  105.99 input  175.53 | X-H torsion
[ 8008 7997 7996 7995 ] final  159.28 input   59.86 | X-H torsion
[ 10167 10162 10161 10158 ] final  179.67 input  -65.29 | X-H torsion
[ 10718 10713 10712 10709 ] final  113.99 input   66.30 | X-H torsion
[ 10763 10752 10751 10750 ] final  167.18 input  -60.55 | X-H torsion
[ 11005 11000 10999 10996 ] final   30.75 input  -57.11 | X-H torsion

> <Gold.Protein.ActiveResidues>
 VAL166  LYS551  ARG553  GLY616  TRP617  ASP618  TYR619  PRO620  LYS621  CYS622 
 ASP623  PHE694  ASN695  SER759  ASP760  ASP761  ALA762  ILE779  LEU786  VAL792 
 PHE793  MET794  SER795  GLU796  ALA797  LYS798  CYS799  TRP800  GLU811  SER814 

> <Gold.Protein.RotatedAtoms>
  152.5391  134.2459  159.8879 H   0  0  0  0  0  0  0  0  0  0  0  0  # atno 6907 bound_to 6896
  151.2424  133.4386  159.2615 H   0  0  0  0  0  0  0  0  0  0  0  0  # atno 6908 bound_to 6896
  151.0614  134.9753  159.8319 H   0  0  0  0  0  0  0  0  0  0  0  0  # atno 6909 bound_to 6896
  145.3125  139.2536  143.3755 H   0  0  0  0  0  0  0  0  0  0  0  0  # atno 7974 bound_to 7965
  156.2249  140.1835  156.7387 H   0  0  0  0  0  0  0  0  0  0  0  0  # atno 8008 bound_to 7997
  154.5925  140.0648  156.9286 H   0  0  0  0  0  0  0  0  0  0  0  0  # atno 8009 bound_to 7997
  155.2312  140.3315  155.4306 H   0  0  0  0  0  0  0  0  0  0  0  0  # atno 8010 bound_to 7997
  139.5346  144.2533  152.0767 H   0  0  0  0  0  0  0  0  0  0  0  0  # atno 10167 bound_to 10162
  157.6307  131.0992  150.7120 H   0  0  0  0  0  0  0  0  0  0  0  0  # atno 10718 bound_to 10713
  154.3500  135.2753  155.2377 H   0  0  0  0  0  0  0  0  0  0  0  0  # atno 10763 bound_to 10752
  154.4611  135.5907  153.6259 H   0  0  0  0  0  0  0  0  0  0  0  0  # atno 10764 bound_to 10752
  152.9850  135.6065  154.3709 H   0  0  0  0  0  0  0  0  0  0  0  0  # atno 10765 bound_to 10752
  140.2911  134.2863  155.7776 H   0  0  0  0  0  0  0  0  0  0  0  0  # atno 11005 bound_to 11000
  146.3112  140.3664  142.8670 LP  0  0  0  0  0  0  0  0  0  0  0  0  # atno 17320 bound_to 7965
  144.9004  140.7636  143.5870 LP  0  0  0  0  0  0  0  0  0  0  0  0  # atno 17321 bound_to 7965
  140.2002  144.4666  150.6435 LP  0  0  0  0  0  0  0  0  0  0  0  0  # atno 17342 bound_to 10162
  140.6546  143.2234  151.5999 LP  0  0  0  0  0  0  0  0  0  0  0  0  # atno 17343 bound_to 10162
  156.7460  130.4754  149.5467 LP  0  0  0  0  0  0  0  0  0  0  0  0  # atno 17370 bound_to 10713
  156.1509  130.6309  151.0594 LP  0  0  0  0  0  0  0  0  0  0  0  0  # atno 17371 bound_to 10713
  141.2146  133.7586  156.9626 LP  0  0  0  0  0  0  0  0  0  0  0  0  # atno 17394 bound_to 11000
  140.1195  134.9426  157.2182 LP  0  0  0  0  0  0  0  0  0  0  0  0  # atno 17395 bound_to 11000

$$$$
