AV-unprocessed.smi:798|AV-procd|sdf|3782|dock8
  -GOLD-   22720 1213D 1   1.00000     0.00000
 Structure written by MMmdl.
 33 35  0  0  0  0  0  0  0  0  2 V2000
  152.3505  140.5294  157.6647 O   0  0  0  0  0  0  0  0  0  0  0  0
  151.4793  141.0904  156.9964 C   0  0  0  0  0  0  0  0  0  0  0  0
  151.0882  140.7557  155.7456 N   0  5  0  0  0  0  0  0  0  0  0  0
  151.2475  139.4973  155.3038 C   0  0  0  0  0  0  0  0  0  0  0  0
  152.3493  138.7772  155.5694 N   0  0  0  0  0  0  0  0  0  0  0  0
  152.3190  137.5065  155.0108 N   0  0  0  0  0  0  0  0  0  0  0  0
  151.1924  137.3024  154.3285 C   0  0  0  0  0  0  0  0  0  0  0  0
  150.0675  138.6437  154.3049 S   0  0  0  0  0  0  0  0  0  0  0  0
  150.8158  142.1380  157.5050 N   0  0  0  0  0  0  0  0  0  0  0  0
  151.0094  142.7151  158.8339 C   0  0  1  0  0  0  0  0  0  0  0  0
  152.5159  142.8436  159.1498 C   0  0  2  0  0  0  0  0  0  0  0  0
  152.6893  143.0722  160.6624 C   0  0  0  0  0  0  0  0  0  0  0  0
  152.2027  144.5228  160.8379 C   0  0  0  0  0  0  0  0  0  0  0  0
  151.7933  144.9264  159.4049 C   0  0  1  0  0  0  0  0  0  0  0  0
  152.8662  144.2183  158.5876 C   0  0  0  0  0  0  0  0  0  0  0  0
  150.5191  144.1834  158.9300 C   0  0  2  0  0  0  0  0  0  0  0  0
  149.2604  144.3702  159.7997 C   0  0  0  0  0  0  0  0  0  0  0  0
  148.6819  145.6375  159.5690 O   0  0  0  0  0  0  0  0  0  0  0  0
  151.0245  136.3579  153.8333 H   0  0  0  0  0  0  0  0  0  0  0  0
  150.1121  142.5662  156.9217 H   0  0  0  0  0  0  0  0  0  0  0  0
  150.5263  142.0743  159.5740 H   0  0  0  0  0  0  0  0  0  0  0  0
  153.1211  142.0199  158.7690 H   0  0  0  0  0  0  0  0  0  0  0  0
  152.1155  142.3636  161.2608 H   0  0  0  0  0  0  0  0  0  0  0  0
  153.7369  142.9822  160.9522 H   0  0  0  0  0  0  0  0  0  0  0  0
  151.3953  144.6148  161.5629 H   0  0  0  0  0  0  0  0  0  0  0  0
  153.0210  145.1529  161.1886 H   0  0  0  0  0  0  0  0  0  0  0  0
  151.7489  146.0052  159.2523 H   0  0  0  0  0  0  0  0  0  0  0  0
  153.8807  144.5396  158.8296 H   0  0  0  0  0  0  0  0  0  0  0  0
  152.7155  144.2980  157.5096 H   0  0  0  0  0  0  0  0  0  0  0  0
  150.2818  144.5487  157.9284 H   0  0  0  0  0  0  0  0  0  0  0  0
  148.5216  143.6084  159.5509 H   0  0  0  0  0  0  0  0  0  0  0  0
  149.4771  144.2554  160.8611 H   0  0  0  0  0  0  0  0  0  0  0  0
  148.6782  145.7996  158.6381 H   0  0  0  0  0  0  0  0  0  0  0  0
  1  2  2  0  0  0  0
  2  3  1  0  0  0  0
  2  9  1  0  0  0  0
  3  4  1  0  0  0  0
  4  8  1  0  0  0  0
  4  5  2  0  0  0  0
  5  6  1  0  0  0  0
  6  7  2  0  0  0  0
  7  8  1  0  0  0  0
  7 19  1  0  0  0  0
  9 10  1  0  0  0  0
  9 20  1  0  0  0  0
 10 16  1  0  0  0  0
 10 11  1  0  0  0  0
 10 21  1  0  0  0  0
 11 15  1  0  0  0  0
 11 12  1  0  0  0  0
 11 22  1  0  0  0  0
 12 13  1  0  0  0  0
 12 23  1  0  0  0  0
 12 24  1  0  0  0  0
 13 14  1  0  0  0  0
 13 25  1  0  0  0  0
 13 26  1  0  0  0  0
 14 15  1  0  0  0  0
 14 16  1  0  0  0  0
 14 27  1  0  0  0  0
 15 28  1  0  0  0  0
 15 29  1  0  0  0  0
 16 17  1  0  0  0  0
 16 30  1  0  0  0  0
 17 18  1  0  0  0  0
 17 31  1  0  0  0  0
 17 32  1  0  0  0  0
 18 33  1  0  0  0  0
M  CHG  1   3  -1
M  END
> <s_m_source_file>
AV-unprocessed.smi

> <i_m_source_file_index>
798

> <i_lp_mmshare_version>
43012

> <i_f3d_flags>
0

> <s_epik_input>
W0NIMl0xW0NIMl1bQ0BASF0oW0NIMl0yKVtDQEBIXShbQ0gyXVtPSF0pW0NAQEhdKFtDQEhdMTIpW05IXUMoPU8pW05IXWMzbm5bY0hdczM=

> <s_epik_cmdline>
J2VwaWtfcHl0aG9uJywgJy1waCcsICc3LjAnLCAnLXRuJywgJzgnLCAnLW1hJywgJzIwMCcsICctbWV0YWxfYmluZGluZycsICctaW1hZScsICc8aW5maWxlLm1hZT4nLCAnLW9tYWUnLCAnPG91dGZpbGUubWFlPic=

> <r_lp_tautomer_probability>
1

> <r_epik_Ionization_Penalty>
4.53732

> <r_epik_Ionization_Penalty_Charging>
4.48632

> <r_epik_Ionization_Penalty_Neutral>
0.0510007

> <r_epik_State_Penalty>
4.48602

> <r_epik_Charging_Adjusted_Penalty>
8.97234

> <i_epik_Tot_Q>
-1

> <i_epik_Tot_abs_Q>
1

> <r_epik_Metal_State_Penalty>
0.812492

> <b_epik_Metal_Only>
1

> <s_lp_Force_Field>
OPLS_2005

> <r_lp_Energy>
47.3152

> <b_lp_Chiralities_Consistent>
1

> <s_lp_Variant>
AV-unprocessed.smi:798-14

> <Gold.Version>
5.8.1

> <Gold.Id.Protein>
6NUR|6NUR_protein|mol2

> <Gold.PLP.Fitness>
47.1398

> <Gold.PLP.PLP>
-40.7760

> <Gold.PLP.part.hbond>
-3.8710

> <Gold.PLP.part.metal>
0.0000

> <Gold.PLP.part.buried>
-5.4413

> <Gold.PLP.part.nonpolar>
-32.5515

> <Gold.PLP.part.repulsive>
0.1188

> <Gold.PLP.ligand.clash>
0.0000

> <Gold.PLP.ligand.torsion>
0.8238

> <Gold.PLP.Chemscore.Hbond>
1.7381

> <Gold.PLP.Chemscore.CHOScore>
0.9244

> <Gold.PLP.Chemscore.Metal>
0.0000

> <Gold.Chemscore.Hbonds>
donor molecule, donor type, donor heavy atom, donor atom, acceptor molecule, acceptor atom, score
      L1  H    18    33       P1  8029  1.00
      P1  H  7997  8009       L1     1  0.29
      P1  H 10752 10765       L1     6  0.43
      L1  C     7    19       P1  7948  0.01
      L1  C     7    19       P1  7949  0.92

> <Gold.PLP.Chemscore.Internal.Correction>
0.0238

> <Gold.Rescore>
     Score         DG    S(hbond)    S(metal)    S(lipo)     H(rot)  DE(clash)    DE(int)     intcor
     15.97     -20.46       2.51        0.00      98.29       1.92       0.60       3.89       ----

> <Gold.Chemscore.Fitness>
15.9724

> <Gold.Chemscore.DG>
-20.4579

> <Gold.Chemscore.ZeroCoef>
-5.4800

> <Gold.Chemscore.Hbond>
2.5134

> <Gold.Chemscore.Metal>
0.0000

> <Gold.Chemscore.Lipo>
98.2903

> <Gold.Chemscore.Internal_Hbond>
0.0000

> <Gold.Chemscore.DEClash>
0.5966

> <Gold.Chemscore.DEInternal>
3.8888

> <Gold.Chemscore.Rot>
1.9207

> <Gold.Chemscore.Internal.Correction>
   9.000000E+99

> <Gold.Chemscore.Hbonds>
donor molecule, donor type, donor heavy atom, donor atom, acceptor molecule, acceptor atom, score
      L1  H    18    33       P1  8029  0.92
      P1  H  7997  8009       L1     1  0.30
      P1  H 10752 10765       L1     6  0.04

> <Gold.Chemscore.Hbond.Weighted>
-8.3948

> <Gold.Chemscore.Metal.Weighted>
-0.0000

> <Gold.Chemscore.Lipo.Weighted>
-11.5000

> <Gold.Chemscore.Internal_Hbond.Weighted>
0.0000

> <Gold.Chemscore.DEClash.Weighted>
0.5966

> <Gold.Chemscore.DEInternal.Weighted>
3.8888

> <Gold.Chemscore.Rot.Weighted>
4.9169

> <Gold.Chemscore.Internal.Correction.Weighted>
   9.000000E+99

> <Gold.Protein.RotatedTorsions>
[ 6907 6896 6895 6894 ] final -156.27 input  -60.11 | X-H torsion
[ 7974 7965 7964 7962 ] final   -9.92 input  175.53 | X-H torsion
[ 8008 7997 7996 7995 ] final  173.29 input   59.86 | X-H torsion
[ 10167 10162 10161 10158 ] final   12.62 input  -65.29 | X-H torsion
[ 10718 10713 10712 10709 ] final  122.04 input   66.30 | X-H torsion
[ 10763 10752 10751 10750 ] final -175.97 input  -60.55 | X-H torsion
[ 11005 11000 10999 10996 ] final -147.06 input  -57.11 | X-H torsion

> <Gold.Protein.ActiveResidues>
 VAL166  LYS551  ARG553  GLY616  TRP617  ASP618  TYR619  PRO620  LYS621  CYS622 
 ASP623  PHE694  ASN695  SER759  ASP760  ASP761  ALA762  ILE779  LEU786  VAL792 
 PHE793  MET794  SER795  GLU796  ALA797  LYS798  CYS799  TRP800  GLU811  SER814 

> <Gold.Protein.RotatedAtoms>
  151.2851  133.4191  159.2629 H   0  0  0  0  0  0  0  0  0  0  0  0  # atno 6907 bound_to 6896
  151.0326  134.9551  159.8129 H   0  0  0  0  0  0  0  0  0  0  0  0  # atno 6908 bound_to 6896
  152.5349  134.2812  159.9060 H   0  0  0  0  0  0  0  0  0  0  0  0  # atno 6909 bound_to 6896
  146.2237  140.2688  142.8355 H   0  0  0  0  0  0  0  0  0  0  0  0  # atno 7974 bound_to 7965
  156.1090  140.1464  156.9365 H   0  0  0  0  0  0  0  0  0  0  0  0  # atno 8008 bound_to 7997
  154.4753  140.0896  156.7291 H   0  0  0  0  0  0  0  0  0  0  0  0  # atno 8009 bound_to 7997
  155.4630  140.3439  155.4317 H   0  0  0  0  0  0  0  0  0  0  0  0  # atno 8010 bound_to 7997
  140.6056  143.8515  150.7010 H   0  0  0  0  0  0  0  0  0  0  0  0  # atno 10167 bound_to 10162
  157.5772  131.1078  150.8256 H   0  0  0  0  0  0  0  0  0  0  0  0  # atno 10718 bound_to 10713
  154.5780  135.2833  155.0761 H   0  0  0  0  0  0  0  0  0  0  0  0  # atno 10763 bound_to 10752
  154.2108  135.6408  153.5118 H   0  0  0  0  0  0  0  0  0  0  0  0  # atno 10764 bound_to 10752
  153.0079  135.5491  154.6425 H   0  0  0  0  0  0  0  0  0  0  0  0  # atno 10765 bound_to 10752
  140.7756  134.3139  157.5062 H   0  0  0  0  0  0  0  0  0  0  0  0  # atno 11005 bound_to 11000
  144.9283  140.7947  143.5705 LP  0  0  0  0  0  0  0  0  0  0  0  0  # atno 17320 bound_to 7965
  145.2630  139.1985  143.4882 LP  0  0  0  0  0  0  0  0  0  0  0  0  # atno 17321 bound_to 7965
  140.2072  143.3912  152.1746 LP  0  0  0  0  0  0  0  0  0  0  0  0  # atno 17342 bound_to 10162
  139.5322  144.7172  151.5016 LP  0  0  0  0  0  0  0  0  0  0  0  0  # atno 17343 bound_to 10162
  156.8711  130.5146  149.5296 LP  0  0  0  0  0  0  0  0  0  0  0  0  # atno 17370 bound_to 10713
  156.0817  130.5826  150.9575 LP  0  0  0  0  0  0  0  0  0  0  0  0  # atno 17371 bound_to 10713
  139.8749  134.9287  156.3458 LP  0  0  0  0  0  0  0  0  0  0  0  0  # atno 17394 bound_to 11000
  140.9532  133.7437  156.0300 LP  0  0  0  0  0  0  0  0  0  0  0  0  # atno 17395 bound_to 11000

$$$$
