AV-unprocessed.smi:1433|AV-procd|sdf|5839|dock1
  -GOLD-   22720 5503D 1   1.00000     0.00000
 Structure written by MMmdl.
 44 45  0  0  0  0  0  0  0  0  1 V2000
  153.3049  142.8826  162.6179 C   0  0  0  0  0  0  0  0  0  0  0  0
  152.9272  143.0798  161.1461 C   0  0  1  0  0  0  0  0  0  0  0  0
  152.5960  141.7467  160.4494 C   0  0  0  0  0  0  0  0  0  0  0  0
  152.1507  141.9370  159.0684 N   0  0  0  0  0  0  0  0  0  0  0  0
  151.8822  140.6673  158.3593 C   0  0  2  0  0  0  0  0  0  0  0  0
  153.0406  139.6473  158.4495 C   0  0  0  0  0  0  0  0  0  0  0  0
  151.5264  140.8548  156.8608 C   0  0  0  0  0  0  0  0  0  0  0  0
  151.5607  139.5875  156.1329 N   0  0  0  0  0  0  0  0  0  0  0  0
  150.9556  139.3359  154.9613 C   0  0  0  0  0  0  0  0  0  0  0  0
  150.2377  140.1446  154.3741 O   0  0  0  0  0  0  0  0  0  0  0  0
  151.2099  137.9593  154.3466 C   0  0  0  0  0  0  0  0  0  0  0  0
  150.5895  136.9072  155.1318 N   0  0  0  0  0  0  0  0  0  0  0  0
  150.5075  135.5599  154.8467 C   0  0  0  0  0  0  0  0  0  0  0  0
  149.8346  134.9665  155.8761 C   0  0  0  0  0  0  0  0  0  0  0  0
  149.5435  136.0461  156.7563 C   0  0  0  0  0  0  0  0  0  0  0  0
  149.9956  137.2063  156.3082 N   0  0  0  0  0  0  0  0  0  0  0  0
  150.9853  142.8252  159.0919 C   0  0  0  0  0  0  0  0  0  0  0  0
  151.2683  144.1697  159.7876 C   0  0  2  0  0  0  0  0  0  0  0  0
  152.1638  145.1039  158.9549 C   0  0  0  0  0  0  0  0  0  0  0  0
  151.7963  143.9452  161.0938 O   0  0  0  0  0  0  0  0  0  0  0  0
  154.1725  142.2298  162.7165 H   0  0  0  0  0  0  0  0  0  0  0  0
  152.4840  142.4358  163.1796 H   0  0  0  0  0  0  0  0  0  0  0  0
  153.5504  143.8351  163.0878 H   0  0  0  0  0  0  0  0  0  0  0  0
  153.7679  143.5539  160.6387 H   0  0  0  0  0  0  0  0  0  0  0  0
  153.4957  141.1342  160.4804 H   0  0  0  0  0  0  0  0  0  0  0  0
  151.8302  141.2127  161.0144 H   0  0  0  0  0  0  0  0  0  0  0  0
  151.0178  140.1961  158.8300 H   0  0  0  0  0  0  0  0  0  0  0  0
  152.8508  138.7765  157.8213 H   0  0  0  0  0  0  0  0  0  0  0  0
  153.1709  139.2648  159.4614 H   0  0  0  0  0  0  0  0  0  0  0  0
  153.9869  140.0846  158.1290 H   0  0  0  0  0  0  0  0  0  0  0  0
  150.5165  141.2556  156.7712 H   0  0  0  0  0  0  0  0  0  0  0  0
  152.1585  141.6087  156.3919 H   0  0  0  0  0  0  0  0  0  0  0  0
  152.1255  138.8527  156.5343 H   0  0  0  0  0  0  0  0  0  0  0  0
  150.8064  137.9225  153.3338 H   0  0  0  0  0  0  0  0  0  0  0  0
  152.2836  137.7792  154.2704 H   0  0  0  0  0  0  0  0  0  0  0  0
  150.9288  135.1421  153.9439 H   0  0  0  0  0  0  0  0  0  0  0  0
  149.5886  133.9207  155.9844 H   0  0  0  0  0  0  0  0  0  0  0  0
  149.0207  136.0217  157.7010 H   0  0  0  0  0  0  0  0  0  0  0  0
  150.6326  143.0400  158.0863 H   0  0  0  0  0  0  0  0  0  0  0  0
  150.1610  142.3263  159.6039 H   0  0  0  0  0  0  0  0  0  0  0  0
  150.3162  144.6823  159.9268 H   0  0  0  0  0  0  0  0  0  0  0  0
  151.6886  145.3498  158.0051 H   0  0  0  0  0  0  0  0  0  0  0  0
  153.1282  144.6511  158.7253 H   0  0  0  0  0  0  0  0  0  0  0  0
  152.3495  146.0389  159.4836 H   0  0  0  0  0  0  0  0  0  0  0  0
  1  2  1  0  0  0  0
  1 21  1  0  0  0  0
  1 22  1  0  0  0  0
  1 23  1  0  0  0  0
  2 20  1  0  0  0  0
  2  3  1  0  0  0  0
  2 24  1  0  0  0  0
  3  4  1  0  0  0  0
  3 25  1  0  0  0  0
  3 26  1  0  0  0  0
  4  5  1  0  0  0  0
  4 17  1  0  0  0  0
  5  6  1  0  0  0  0
  5  7  1  0  0  0  0
  5 27  1  0  0  0  0
  6 28  1  0  0  0  0
  6 29  1  0  0  0  0
  6 30  1  0  0  0  0
  7  8  1  0  0  0  0
  7 31  1  0  0  0  0
  7 32  1  0  0  0  0
  8  9  1  0  0  0  0
  8 33  1  0  0  0  0
  9 10  2  0  0  0  0
  9 11  1  0  0  0  0
 11 12  1  0  0  0  0
 11 34  1  0  0  0  0
 11 35  1  0  0  0  0
 12 16  1  0  0  0  0
 12 13  1  0  0  0  0
 13 14  2  0  0  0  0
 13 36  1  0  0  0  0
 14 15  1  0  0  0  0
 14 37  1  0  0  0  0
 15 16  2  0  0  0  0
 15 38  1  0  0  0  0
 17 18  1  0  0  0  0
 17 39  1  0  0  0  0
 17 40  1  0  0  0  0
 18 19  1  0  0  0  0
 18 20  1  0  0  0  0
 18 41  1  0  0  0  0
 19 42  1  0  0  0  0
 19 43  1  0  0  0  0
 19 44  1  0  0  0  0
M  END
> <s_m_source_file>
AV-unprocessed.smi

> <i_m_source_file_index>
1433

> <i_lp_mmshare_version>
43012

> <i_f3d_flags>
0

> <s_epik_input>
W0NIM11bQ0BASF0xW0NIMl1OKFtDSDJdW0NASF0oTzEpW0NIM10pW0NASF0oW0NIM10pW0NIMl1bTkhdQyg9TylbQ0gyXW4yW2NIXVtjSF1bY0hdbjI=

> <s_epik_cmdline>
J2VwaWtfcHl0aG9uJywgJy1waCcsICc3LjAnLCAnLXRuJywgJzgnLCAnLW1hJywgJzIwMCcsICctbWV0YWxfYmluZGluZycsICctaW1hZScsICc8aW5maWxlLm1hZT4nLCAnLW9tYWUnLCAnPG91dGZpbGUubWFlPic=

> <r_lp_tautomer_probability>
1

> <r_epik_Ionization_Penalty>
0.196927

> <r_epik_Ionization_Penalty_Charging>
0

> <r_epik_Ionization_Penalty_Neutral>
0.196927

> <r_epik_State_Penalty>
0.186684

> <r_epik_Charging_Adjusted_Penalty>
0.186684

> <i_epik_Tot_Q>
0

> <i_epik_Tot_abs_Q>
0

> <r_epik_Metal_State_Penalty>
0.186682

> <b_epik_Metal_Only>
0

> <s_lp_Force_Field>
OPLS_2005

> <r_lp_Energy>
34.0923

> <b_lp_Chiralities_Consistent>
1

> <s_lp_Variant>
AV-unprocessed.smi:1433-5

> <Gold.Version>
5.8.1

> <Gold.Id.Protein>
6NUR|6NUR_protein|mol2

> <Gold.PLP.Fitness>
45.5718

> <Gold.PLP.PLP>
-40.5149

> <Gold.PLP.part.hbond>
-0.9044

> <Gold.PLP.part.metal>
0.0000

> <Gold.PLP.part.buried>
-4.6668

> <Gold.PLP.part.nonpolar>
-33.6882

> <Gold.PLP.part.repulsive>
0.4195

> <Gold.PLP.ligand.clash>
0.0168

> <Gold.PLP.ligand.torsion>
0.4096

> <Gold.PLP.Chemscore.Hbond>
1.0000

> <Gold.PLP.Chemscore.CHOScore>
0.9391

> <Gold.PLP.Chemscore.Metal>
0.0000

> <Gold.Chemscore.Hbonds>
donor molecule, donor type, donor heavy atom, donor atom, acceptor molecule, acceptor atom, score
      P1  H  7989  7998       L1    10  0.65
      L1  C    13    36       P1  7949  0.61

> <Gold.PLP.Chemscore.Internal.Correction>
0.0756

> <Gold.Rescore>
     Score         DG    S(hbond)    S(metal)    S(lipo)     H(rot)  DE(clash)    DE(int)     intcor
     14.81     -16.33       0.98        0.00     104.28       1.80       0.02       1.50       ----

> <Gold.Chemscore.Fitness>
14.8057

> <Gold.Chemscore.DG>
-16.3306

> <Gold.Chemscore.ZeroCoef>
-5.4800

> <Gold.Chemscore.Hbond>
0.9782

> <Gold.Chemscore.Metal>
0.0000

> <Gold.Chemscore.Lipo>
104.2827

> <Gold.Chemscore.Internal_Hbond>
0.0000

> <Gold.Chemscore.DEClash>
0.0224

> <Gold.Chemscore.DEInternal>
1.5025

> <Gold.Chemscore.Rot>
1.8038

> <Gold.Chemscore.Internal.Correction>
   9.000000E+99

> <Gold.Chemscore.Hbonds>
donor molecule, donor type, donor heavy atom, donor atom, acceptor molecule, acceptor atom, score
      P1  H  7989  7998       L1    10  0.05

> <Gold.Chemscore.Hbond.Weighted>
-3.2673

> <Gold.Chemscore.Metal.Weighted>
-0.0000

> <Gold.Chemscore.Lipo.Weighted>
-12.2011

> <Gold.Chemscore.Internal_Hbond.Weighted>
0.0000

> <Gold.Chemscore.DEClash.Weighted>
0.0224

> <Gold.Chemscore.DEInternal.Weighted>
1.5025

> <Gold.Chemscore.Rot.Weighted>
4.6178

> <Gold.Chemscore.Internal.Correction.Weighted>
   9.000000E+99

> <Gold.Protein.RotatedTorsions>
[ 6907 6896 6895 6894 ] final   58.95 input  -60.11 | X-H torsion
[ 7974 7965 7964 7962 ] final -133.40 input  175.53 | X-H torsion
[ 8008 7997 7996 7995 ] final  -72.92 input   59.86 | X-H torsion
[ 10167 10162 10161 10158 ] final  168.06 input  -65.29 | X-H torsion
[ 10718 10713 10712 10709 ] final -156.36 input   66.30 | X-H torsion
[ 10763 10752 10751 10750 ] final  166.35 input  -60.55 | X-H torsion
[ 11005 11000 10999 10996 ] final  -35.40 input  -57.11 | X-H torsion

> <Gold.Protein.ActiveResidues>
 VAL166  LYS551  ARG553  GLY616  TRP617  ASP618  TYR619  PRO620  LYS621  CYS622 
 ASP623  PHE694  ASN695  SER759  ASP760  ASP761  ALA762  ILE779  LEU786  VAL792 
 PHE793  MET794  SER795  GLU796  ALA797  LYS798  CYS799  TRP800  GLU811  SER814 

> <Gold.Protein.RotatedAtoms>
  152.3870  134.6501  160.0121 H   0  0  0  0  0  0  0  0  0  0  0  0  # atno 6907 bound_to 6896
  151.6747  133.3307  159.3213 H   0  0  0  0  0  0  0  0  0  0  0  0  # atno 6908 bound_to 6896
  150.7794  134.6769  159.6467 H   0  0  0  0  0  0  0  0  0  0  0  0  # atno 6909 bound_to 6896
  144.9196  140.6998  143.4973 H   0  0  0  0  0  0  0  0  0  0  0  0  # atno 7974 bound_to 7965
  154.5205  140.0788  156.8162 H   0  0  0  0  0  0  0  0  0  0  0  0  # atno 8008 bound_to 7997
  155.3587  140.3416  155.4222 H   0  0  0  0  0  0  0  0  0  0  0  0  # atno 8009 bound_to 7997
  156.1675  140.1609  156.8492 H   0  0  0  0  0  0  0  0  0  0  0  0  # atno 8010 bound_to 7997
  139.4959  144.3855  151.9575 H   0  0  0  0  0  0  0  0  0  0  0  0  # atno 10167 bound_to 10162
  156.5255  130.8497  151.2697 H   0  0  0  0  0  0  0  0  0  0  0  0  # atno 10718 bound_to 10713
  154.3376  135.2754  155.2439 H   0  0  0  0  0  0  0  0  0  0  0  0  # atno 10763 bound_to 10752
  154.4724  135.5879  153.6334 H   0  0  0  0  0  0  0  0  0  0  0  0  # atno 10764 bound_to 10752
  152.9860  135.6091  154.3574 H   0  0  0  0  0  0  0  0  0  0  0  0  # atno 10765 bound_to 10752
  140.9793  133.7065  156.1656 H   0  0  0  0  0  0  0  0  0  0  0  0  # atno 11005 bound_to 11000
  145.3317  139.1757  143.4533 LP  0  0  0  0  0  0  0  0  0  0  0  0  # atno 17320 bound_to 7965
  146.3198  140.3348  142.8643 LP  0  0  0  0  0  0  0  0  0  0  0  0  # atno 17321 bound_to 7965
  140.3292  144.3336  150.5991 LP  0  0  0  0  0  0  0  0  0  0  0  0  # atno 17342 bound_to 10162
  140.5659  143.2186  151.7685 LP  0  0  0  0  0  0  0  0  0  0  0  0  # atno 17343 bound_to 10162
  157.7430  130.9903  150.2560 LP  0  0  0  0  0  0  0  0  0  0  0  0  # atno 17370 bound_to 10713
  156.3109  130.3772  149.7662 LP  0  0  0  0  0  0  0  0  0  0  0  0  # atno 17371 bound_to 10713
  140.7211  134.4357  157.5574 LP  0  0  0  0  0  0  0  0  0  0  0  0  # atno 17394 bound_to 11000
  139.8943  134.8709  156.2182 LP  0  0  0  0  0  0  0  0  0  0  0  0  # atno 17395 bound_to 11000

$$$$
