AV-unprocessed.smi:1573|AV-procd|sdf|6333|dock3
  -GOLD-   22720 6543D 1   1.00000     0.00000
 Structure written by MMmdl.
 41 41  0  0  0  0  0  0  0  0  1 V2000
  148.5617  132.1301  153.9011 C   0  0  0  0  0  0  0  0  0  0  0  0
  149.5184  133.3255  154.0141 C   0  0  0  0  0  0  0  0  0  0  0  0
  148.7994  134.5929  153.9684 N   0  0  0  0  0  0  0  0  0  0  0  0
  148.0611  135.0945  154.9698 C   0  0  0  0  0  0  0  0  0  0  0  0
  147.9420  134.5390  156.0634 O   0  0  0  0  0  0  0  0  0  0  0  0
  147.3383  136.4208  154.6875 C   0  0  2  0  0  0  0  0  0  0  0  0
  146.3050  136.1875  153.5720 C   0  0  0  0  0  0  0  0  0  0  0  0
  148.3163  137.3928  154.2066 N   0  0  0  0  0  0  0  0  0  0  0  0
  148.6225  138.5464  154.8212 C   0  0  0  0  0  0  0  0  0  0  0  0
  148.0334  138.9615  155.8192 O   0  0  0  0  0  0  0  0  0  0  0  0
  149.7953  139.3364  154.2420 C   0  0  0  0  0  0  0  0  0  0  0  0
  150.6973  139.7755  155.3681 C   0  0  0  0  0  0  0  0  0  0  0  0
  152.0416  139.3662  155.6084 C   0  0  0  0  0  0  0  0  0  0  0  0
  152.8729  138.4017  154.8118 C   0  0  0  0  0  0  0  0  0  0  0  0
  152.5650  139.9495  156.6739 N   0  0  0  0  0  0  0  0  0  0  0  0
  151.5863  140.7481  157.1444 N   0  0  0  0  0  0  0  0  0  0  0  0
  151.8336  141.5538  158.3243 C   0  0  0  0  0  0  0  0  0  0  0  0
  150.4388  140.6615  156.3807 C   0  0  0  0  0  0  0  0  0  0  0  0
  149.2104  141.4517  156.6986 C   0  0  0  0  0  0  0  0  0  0  0  0
  149.1149  131.1910  153.8980 H   0  0  0  0  0  0  0  0  0  0  0  0
  147.9797  132.1768  152.9803 H   0  0  0  0  0  0  0  0  0  0  0  0
  147.8620  132.0977  154.7368 H   0  0  0  0  0  0  0  0  0  0  0  0
  150.1065  133.2575  154.9307 H   0  0  0  0  0  0  0  0  0  0  0  0
  150.2278  133.3071  153.1867 H   0  0  0  0  0  0  0  0  0  0  0  0
  148.8408  135.1117  153.1029 H   0  0  0  0  0  0  0  0  0  0  0  0
  146.8340  136.7875  155.5839 H   0  0  0  0  0  0  0  0  0  0  0  0
  145.5587  135.4511  153.8730 H   0  0  0  0  0  0  0  0  0  0  0  0
  146.7676  135.8352  152.6486 H   0  0  0  0  0  0  0  0  0  0  0  0
  145.7727  137.1102  153.3391 H   0  0  0  0  0  0  0  0  0  0  0  0
  148.8557  137.1305  153.3945 H   0  0  0  0  0  0  0  0  0  0  0  0
  150.3346  138.7286  153.5143 H   0  0  0  0  0  0  0  0  0  0  0  0
  149.3995  140.1888  153.6893 H   0  0  0  0  0  0  0  0  0  0  0  0
  152.9438  138.7183  153.7712 H   0  0  0  0  0  0  0  0  0  0  0  0
  152.4330  137.4047  154.8262 H   0  0  0  0  0  0  0  0  0  0  0  0
  153.8877  138.3213  155.2029 H   0  0  0  0  0  0  0  0  0  0  0  0
  151.3288  141.1098  159.1823 H   0  0  0  0  0  0  0  0  0  0  0  0
  151.4524  142.5633  158.1689 H   0  0  0  0  0  0  0  0  0  0  0  0
  152.9029  141.6130  158.5314 H   0  0  0  0  0  0  0  0  0  0  0  0
  148.3695  141.1442  156.0776 H   0  0  0  0  0  0  0  0  0  0  0  0
  149.3813  142.5143  156.5273 H   0  0  0  0  0  0  0  0  0  0  0  0
  148.9203  141.3184  157.7409 H   0  0  0  0  0  0  0  0  0  0  0  0
  1  2  1  0  0  0  0
  1 20  1  0  0  0  0
  1 21  1  0  0  0  0
  1 22  1  0  0  0  0
  2  3  1  0  0  0  0
  2 23  1  0  0  0  0
  2 24  1  0  0  0  0
  3  4  1  0  0  0  0
  3 25  1  0  0  0  0
  4  5  2  0  0  0  0
  4  6  1  0  0  0  0
  6  7  1  0  0  0  0
  6  8  1  0  0  0  0
  6 26  1  0  0  0  0
  7 27  1  0  0  0  0
  7 28  1  0  0  0  0
  7 29  1  0  0  0  0
  8  9  1  0  0  0  0
  8 30  1  0  0  0  0
  9 10  2  0  0  0  0
  9 11  1  0  0  0  0
 11 12  1  0  0  0  0
 11 31  1  0  0  0  0
 11 32  1  0  0  0  0
 12 18  2  0  0  0  0
 12 13  1  0  0  0  0
 13 14  1  0  0  0  0
 13 15  2  0  0  0  0
 14 33  1  0  0  0  0
 14 34  1  0  0  0  0
 14 35  1  0  0  0  0
 15 16  1  0  0  0  0
 16 17  1  0  0  0  0
 16 18  1  0  0  0  0
 17 36  1  0  0  0  0
 17 37  1  0  0  0  0
 17 38  1  0  0  0  0
 18 19  1  0  0  0  0
 19 39  1  0  0  0  0
 19 40  1  0  0  0  0
 19 41  1  0  0  0  0
M  END
> <s_m_source_file>
AV-unprocessed.smi

> <i_m_source_file_index>
1573

> <i_lp_mmshare_version>
43012

> <i_f3d_flags>
0

> <s_epik_input>
W0NIM11bQ0gyXVtOSF1DKD1PKVtDQEhdKFtDSDNdKVtOSF1DKD1PKVtDSDJdYzFjKFtDSDNdKW5uKFtDSDNdKWMxW0NIM10=

> <s_epik_cmdline>
J2VwaWtfcHl0aG9uJywgJy1waCcsICc3LjAnLCAnLXRuJywgJzgnLCAnLW1hJywgJzIwMCcsICctbWV0YWxfYmluZGluZycsICctaW1hZScsICc8aW5maWxlLm1hZT4nLCAnLW9tYWUnLCAnPG91dGZpbGUubWFlPic=

> <r_lp_tautomer_probability>
1

> <r_epik_Ionization_Penalty>
0.00278414

> <r_epik_Ionization_Penalty_Charging>
0

> <r_epik_Ionization_Penalty_Neutral>
0.00278414

> <r_epik_State_Penalty>
0.00194489

> <r_epik_Charging_Adjusted_Penalty>
0.00194489

> <i_epik_Tot_Q>
0

> <i_epik_Tot_abs_Q>
0

> <r_epik_Metal_State_Penalty>
-0

> <b_epik_Metal_Only>
0

> <s_lp_Force_Field>
OPLS_2005

> <r_lp_Energy>
-3.80626

> <b_lp_Chiralities_Consistent>
1

> <s_lp_Variant>
AV-unprocessed.smi:1573-1

> <Gold.Version>
5.8.1

> <Gold.Id.Protein>
6NUR|6NUR_protein|mol2

> <Gold.PLP.Fitness>
37.6975

> <Gold.PLP.PLP>
-29.3742

> <Gold.PLP.part.hbond>
-3.0000

> <Gold.PLP.part.metal>
0.0000

> <Gold.PLP.part.buried>
-1.3723

> <Gold.PLP.part.nonpolar>
-24.9235

> <Gold.PLP.part.repulsive>
0.0200

> <Gold.PLP.ligand.clash>
0.0000

> <Gold.PLP.ligand.torsion>
0.3769

> <Gold.PLP.Chemscore.Hbond>
3.0000

> <Gold.PLP.Chemscore.CHOScore>
0.0000

> <Gold.PLP.Chemscore.Metal>
0.0000

> <Gold.Chemscore.Hbonds>
donor molecule, donor type, donor heavy atom, donor atom, acceptor molecule, acceptor atom, score
      L1  H     3    25       P1  7948  1.00
      L1  H     8    30       P1  7948  0.99
      P1  H  7997  8010       L1    15  1.00

> <Gold.PLP.Chemscore.Internal.Correction>
0.0770

> <Gold.Rescore>
     Score         DG    S(hbond)    S(metal)    S(lipo)     H(rot)  DE(clash)    DE(int)     intcor
     16.61     -17.51       2.79        0.00      64.94       1.91       0.40       0.50       ----

> <Gold.Chemscore.Fitness>
16.6128

> <Gold.Chemscore.DG>
-17.5101

> <Gold.Chemscore.ZeroCoef>
-5.4800

> <Gold.Chemscore.Hbond>
2.7910

> <Gold.Chemscore.Metal>
0.0000

> <Gold.Chemscore.Lipo>
64.9365

> <Gold.Chemscore.Internal_Hbond>
0.0000

> <Gold.Chemscore.DEClash>
0.3954

> <Gold.Chemscore.DEInternal>
0.5018

> <Gold.Chemscore.Rot>
1.9100

> <Gold.Chemscore.Internal.Correction>
   9.000000E+99

> <Gold.Chemscore.Hbonds>
donor molecule, donor type, donor heavy atom, donor atom, acceptor molecule, acceptor atom, score
      L1  H     3    25       P1  7948  0.39
      L1  H     8    30       P1  7948  0.94
      P1  H  7997  8010       L1    15  0.48

> <Gold.Chemscore.Hbond.Weighted>
-9.3221

> <Gold.Chemscore.Metal.Weighted>
-0.0000

> <Gold.Chemscore.Lipo.Weighted>
-7.5976

> <Gold.Chemscore.Internal_Hbond.Weighted>
0.0000

> <Gold.Chemscore.DEClash.Weighted>
0.3954

> <Gold.Chemscore.DEInternal.Weighted>
0.5018

> <Gold.Chemscore.Rot.Weighted>
4.8896

> <Gold.Chemscore.Internal.Correction.Weighted>
   9.000000E+99

> <Gold.Protein.RotatedTorsions>
[ 6907 6896 6895 6894 ] final  128.46 input  -60.11 | X-H torsion
[ 7974 7965 7964 7962 ] final  -81.61 input  175.53 | X-H torsion
[ 8008 7997 7996 7995 ] final   82.53 input   59.86 | X-H torsion
[ 10167 10162 10161 10158 ] final  176.77 input  -65.29 | X-H torsion
[ 10718 10713 10712 10709 ] final   66.53 input   66.30 | X-H torsion
[ 10763 10752 10751 10750 ] final -150.60 input  -60.55 | X-H torsion
[ 11005 11000 10999 10996 ] final   -5.52 input  -57.11 | X-H torsion

> <Gold.Protein.ActiveResidues>
 VAL166  LYS551  ARG553  GLY616  TRP617  ASP618  TYR619  PRO620  LYS621  CYS622 
 ASP623  PHE694  ASN695  SER759  ASP760  ASP761  ALA762  ILE779  LEU786  VAL792 
 PHE793  MET794  SER795  GLU796  ALA797  LYS798  CYS799  TRP800  GLU811  SER814 

> <Gold.Protein.RotatedAtoms>
  152.3718  133.6428  159.6092 H   0  0  0  0  0  0  0  0  0  0  0  0  # atno 6907 bound_to 6896
  150.7674  133.9258  159.3421 H   0  0  0  0  0  0  0  0  0  0  0  0  # atno 6908 bound_to 6896
  151.7080  135.0919  160.0314 H   0  0  0  0  0  0  0  0  0  0  0  0  # atno 6909 bound_to 6896
  145.5443  140.9505  143.1534 H   0  0  0  0  0  0  0  0  0  0  0  0  # atno 7974 bound_to 7965
  155.9118  140.3427  155.6105 H   0  0  0  0  0  0  0  0  0  0  0  0  # atno 8008 bound_to 7997
  155.7378  140.0803  157.2278 H   0  0  0  0  0  0  0  0  0  0  0  0  # atno 8009 bound_to 7997
  154.4057  140.1576  156.2569 H   0  0  0  0  0  0  0  0  0  0  0  0  # atno 8010 bound_to 7997
  139.5227  144.2877  152.0491 H   0  0  0  0  0  0  0  0  0  0  0  0  # atno 10167 bound_to 10162
  157.6175  130.9273  150.0122 H   0  0  0  0  0  0  0  0  0  0  0  0  # atno 10718 bound_to 10713
  154.8109  135.3280  154.7307 H   0  0  0  0  0  0  0  0  0  0  0  0  # atno 10763 bound_to 10752
  153.7956  135.6907  153.4868 H   0  0  0  0  0  0  0  0  0  0  0  0  # atno 10764 bound_to 10752
  153.1888  135.4559  155.0068 H   0  0  0  0  0  0  0  0  0  0  0  0  # atno 10765 bound_to 10752
  140.6920  133.9063  155.8625 H   0  0  0  0  0  0  0  0  0  0  0  0  # atno 11005 bound_to 11000
  144.7561  139.7071  143.7253 LP  0  0  0  0  0  0  0  0  0  0  0  0  # atno 17320 bound_to 7965
  146.1960  139.5226  142.9774 LP  0  0  0  0  0  0  0  0  0  0  0  0  # atno 17321 bound_to 7965
  140.2329  144.4349  150.6292 LP  0  0  0  0  0  0  0  0  0  0  0  0  # atno 17342 bound_to 10162
  140.6343  143.2192  151.6429 LP  0  0  0  0  0  0  0  0  0  0  0  0  # atno 17343 bound_to 10162
  156.1304  130.3643  149.9741 LP  0  0  0  0  0  0  0  0  0  0  0  0  # atno 17370 bound_to 10713
  156.7804  130.9219  151.3646 LP  0  0  0  0  0  0  0  0  0  0  0  0  # atno 17371 bound_to 10713
  141.0233  134.0858  157.4096 LP  0  0  0  0  0  0  0  0  0  0  0  0  # atno 17394 bound_to 11000
  139.8921  135.0122  156.6825 LP  0  0  0  0  0  0  0  0  0  0  0  0  # atno 17395 bound_to 11000

$$$$
