AV-unprocessed.smi:229|AV-procd|sdf|1759|dock8
  -GOLD-   2262020293D 1   1.00000     0.00000
 Structure written by MMmdl.
 58 62  0  0  0  0  0  0  0  0  1 V2000
  154.9890  140.7417  159.8334 C   0  0  0  0  0  0  0  0  0  0  0  0
  153.5915  140.6812  160.4645 C   0  0  0  0  0  0  0  0  0  0  0  0
  152.4997  141.3494  159.6126 C   0  0  2  0  0  0  0  0  0  0  0  0
  152.3165  140.6800  158.2386 C   0  0  0  0  0  0  0  0  0  0  0  0
  151.3487  141.4278  157.4461 N   0  0  0  0  0  0  0  0  0  0  0  0
  150.8574  140.7695  156.3659 C   0  0  0  0  0  0  0  0  0  0  0  0
  151.5934  139.7907  155.7732 N   0  0  0  0  0  0  0  0  0  0  0  0
  151.1134  139.1308  154.7148 C   0  0  0  0  0  0  0  0  0  0  0  0
  149.9425  139.2872  154.0944 N   0  0  0  0  0  0  0  0  0  0  0  0
  149.2036  140.2731  154.6782 C   0  0  0  0  0  0  0  0  0  0  0  0
  149.5810  141.0577  155.8046 C   0  0  0  0  0  0  0  0  0  0  0  0
  148.5759  141.9718  156.1009 N   0  0  0  0  0  0  0  0  0  0  0  0
  147.6538  141.7336  155.2085 C   0  0  0  0  0  0  0  0  0  0  0  0
  147.9493  140.7288  154.3159 N   0  0  0  0  0  0  0  0  0  0  0  0
  147.1147  140.2590  153.2244 C   0  0  0  0  0  0  0  0  0  0  0  0
  147.1775  138.7288  153.0516 C   0  0  2  0  0  0  0  0  0  0  0  0
  147.9121  138.4209  151.8816 O   0  0  0  0  0  0  0  0  0  0  0  0
  145.7715  138.0977  152.9859 C   0  0  1  0  0  0  0  0  0  0  0  0
  145.6842  136.6126  152.6191 C   0  0  0  0  0  0  0  0  0  0  0  0
  144.3368  136.2491  153.2013 C   0  0  0  0  0  0  0  0  0  0  0  0
  144.3246  137.0634  154.4937 C   0  0  0  0  0  0  0  0  0  0  0  0
  145.0860  138.2390  154.2266 O   0  0  0  0  0  0  0  0  0  0  0  0
  151.7022  142.8360  157.2937 C   0  0  0  0  0  0  0  0  0  0  0  0
  151.9452  143.4971  158.6691 C   0  0  2  0  0  0  0  0  0  0  0  0
  150.6598  143.7446  159.4672 C   0  0  0  0  0  0  0  0  0  0  0  0
  150.4050  145.2350  159.2932 C   0  0  0  0  0  0  0  0  0  0  0  0
  151.7165  145.7659  159.3119 O   0  0  0  0  0  0  0  0  0  0  0  0
  152.5215  144.9171  158.5059 C   0  0  0  0  0  0  0  0  0  0  0  0
  152.8808  142.7121  159.4157 O   0  0  0  0  0  0  0  0  0  0  0  0
  155.7118  140.2005  160.4440 H   0  0  0  0  0  0  0  0  0  0  0  0
  155.3439  141.7679  159.7393 H   0  0  0  0  0  0  0  0  0  0  0  0
  154.9918  140.2921  158.8400 H   0  0  0  0  0  0  0  0  0  0  0  0
  153.3279  139.6336  160.6141 H   0  0  0  0  0  0  0  0  0  0  0  0
  153.6157  141.1318  161.4574 H   0  0  0  0  0  0  0  0  0  0  0  0
  151.5597  141.3112  160.1647 H   0  0  0  0  0  0  0  0  0  0  0  0
  153.2665  140.6539  157.7029 H   0  0  0  0  0  0  0  0  0  0  0  0
  152.0016  139.6464  158.3708 H   0  0  0  0  0  0  0  0  0  0  0  0
  151.7608  138.3685  154.3071 H   0  0  0  0  0  0  0  0  0  0  0  0
  146.7292  142.2914  155.1723 H   0  0  0  0  0  0  0  0  0  0  0  0
  146.0895  140.5754  153.4212 H   0  0  0  0  0  0  0  0  0  0  0  0
  147.4252  140.7621  152.3077 H   0  0  0  0  0  0  0  0  0  0  0  0
  147.7096  138.3051  153.9043 H   0  0  0  0  0  0  0  0  0  0  0  0
  148.6892  138.9586  151.8694 H   0  0  0  0  0  0  0  0  0  0  0  0
  145.1747  138.6581  152.2643 H   0  0  0  0  0  0  0  0  0  0  0  0
  145.7486  136.4347  151.5454 H   0  0  0  0  0  0  0  0  0  0  0  0
  146.4622  136.0267  153.1094 H   0  0  0  0  0  0  0  0  0  0  0  0
  143.5389  136.5843  152.5372 H   0  0  0  0  0  0  0  0  0  0  0  0
  144.2148  135.1787  153.3694 H   0  0  0  0  0  0  0  0  0  0  0  0
  143.3145  137.3083  154.8225 H   0  0  0  0  0  0  0  0  0  0  0  0
  144.8164  136.5098  155.2947 H   0  0  0  0  0  0  0  0  0  0  0  0
  152.6061  142.9059  156.6864 H   0  0  0  0  0  0  0  0  0  0  0  0
  150.9130  143.3684  156.7602 H   0  0  0  0  0  0  0  0  0  0  0  0
  149.8175  143.1320  159.1440 H   0  0  0  0  0  0  0  0  0  0  0  0
  150.8287  143.5436  160.5261 H   0  0  0  0  0  0  0  0  0  0  0  0
  149.9313  145.4455  158.3328 H   0  0  0  0  0  0  0  0  0  0  0  0
  149.7866  145.6544  160.0869 H   0  0  0  0  0  0  0  0  0  0  0  0
  153.5697  144.9860  158.7985 H   0  0  0  0  0  0  0  0  0  0  0  0
  152.4470  145.2574  157.4717 H   0  0  0  0  0  0  0  0  0  0  0  0
  1  2  1  0  0  0  0
  1 30  1  0  0  0  0
  1 31  1  0  0  0  0
  1 32  1  0  0  0  0
  2  3  1  0  0  0  0
  2 33  1  0  0  0  0
  2 34  1  0  0  0  0
  3 29  1  0  0  0  0
  3  4  1  0  0  0  0
  3 35  1  0  0  0  0
  4  5  1  0  0  0  0
  4 36  1  0  0  0  0
  4 37  1  0  0  0  0
  5  6  1  0  0  0  0
  5 23  1  0  0  0  0
  6 11  1  0  0  0  0
  6  7  2  0  0  0  0
  7  8  1  0  0  0  0
  8  9  2  0  0  0  0
  8 38  1  0  0  0  0
  9 10  1  0  0  0  0
 10 14  1  0  0  0  0
 10 11  2  0  0  0  0
 11 12  1  0  0  0  0
 12 13  2  0  0  0  0
 13 14  1  0  0  0  0
 13 39  1  0  0  0  0
 14 15  1  0  0  0  0
 15 16  1  0  0  0  0
 15 40  1  0  0  0  0
 15 41  1  0  0  0  0
 16 17  1  0  0  0  0
 16 18  1  0  0  0  0
 16 42  1  0  0  0  0
 17 43  1  0  0  0  0
 18 22  1  0  0  0  0
 18 19  1  0  0  0  0
 18 44  1  0  0  0  0
 19 20  1  0  0  0  0
 19 45  1  0  0  0  0
 19 46  1  0  0  0  0
 20 21  1  0  0  0  0
 20 47  1  0  0  0  0
 20 48  1  0  0  0  0
 21 22  1  0  0  0  0
 21 49  1  0  0  0  0
 21 50  1  0  0  0  0
 23 24  1  0  0  0  0
 23 51  1  0  0  0  0
 23 52  1  0  0  0  0
 24 28  1  0  0  0  0
 24 25  1  0  0  0  0
 24 29  1  0  0  0  0
 25 26  1  0  0  0  0
 25 53  1  0  0  0  0
 25 54  1  0  0  0  0
 26 27  1  0  0  0  0
 26 55  1  0  0  0  0
 26 56  1  0  0  0  0
 27 28  1  0  0  0  0
 28 57  1  0  0  0  0
 28 58  1  0  0  0  0
M  END
> <s_m_source_file>
AV-unprocessed.smi

> <i_m_source_file_index>
229

> <i_lp_mmshare_version>
43012

> <i_f3d_flags>
0

> <s_epik_input>
W0NIMl0xT1tDSDJdW0NIMl1bQ0BdMTJbQ0gyXU4oW0NIMl1bQ0BIXShPMilbQ0gyXVtDSDNdKWMobltjSF1uMyljKGMzNCluW2NIXW40W0NIMl1bQ0BIXShbT0hdKVtDQEBIXTVbQ0gyXVtDSDJdW0NIMl1PNQ==

> <s_epik_cmdline>
J2VwaWtfcHl0aG9uJywgJy1waCcsICc3LjAnLCAnLXRuJywgJzgnLCAnLW1hJywgJzIwMCcsICctbWV0YWxfYmluZGluZycsICctaW1hZScsICc8aW5maWxlLm1hZT4nLCAnLW9tYWUnLCAnPG91dGZpbGUubWFlPic=

> <r_lp_tautomer_probability>
1

> <r_epik_Ionization_Penalty>
0.00318402

> <r_epik_Ionization_Penalty_Charging>
0

> <r_epik_Ionization_Penalty_Neutral>
0.00318402

> <r_epik_State_Penalty>
0.00215642

> <r_epik_Charging_Adjusted_Penalty>
0.00215642

> <i_epik_Tot_Q>
0

> <i_epik_Tot_abs_Q>
0

> <r_epik_Metal_State_Penalty>
-0

> <b_epik_Metal_Only>
0

> <s_lp_Force_Field>
OPLS_2005

> <r_lp_Energy>
55.431

> <b_lp_Chiralities_Consistent>
1

> <s_lp_Variant>
AV-unprocessed.smi:229-13

> <Gold.Version>
5.8.1

> <Gold.Id.Protein>
6NUR|6NUR_protein|mol2

> <Gold.PLP.Fitness>
48.7573

> <Gold.PLP.PLP>
-46.8550

> <Gold.PLP.part.hbond>
-3.2473

> <Gold.PLP.part.metal>
0.0000

> <Gold.PLP.part.buried>
-7.5010

> <Gold.PLP.part.nonpolar>
-39.5328

> <Gold.PLP.part.repulsive>
3.2738

> <Gold.PLP.ligand.clash>
0.0000

> <Gold.PLP.ligand.torsion>
1.4898

> <Gold.PLP.Chemscore.Hbond>
1.5077

> <Gold.PLP.Chemscore.CHOScore>
0.0000

> <Gold.PLP.Chemscore.Metal>
0.0000

> <Gold.Chemscore.Hbonds>
donor molecule, donor type, donor heavy atom, donor atom, acceptor molecule, acceptor atom, score
      L1  H    17    43       P1  7957  0.98
      P1  H  7954  7966       L1    17  0.46

> <Gold.PLP.Chemscore.Internal.Correction>
0.3587

> <Gold.Rescore>
     Score         DG    S(hbond)    S(metal)    S(lipo)     H(rot)  DE(clash)    DE(int)     intcor
     12.53     -15.10       0.86        0.00     111.44       2.46       0.69       1.88       ----

> <Gold.Chemscore.Fitness>
12.5335

> <Gold.Chemscore.DG>
-15.0984

> <Gold.Chemscore.ZeroCoef>
-5.4800

> <Gold.Chemscore.Hbond>
0.8609

> <Gold.Chemscore.Metal>
0.0000

> <Gold.Chemscore.Lipo>
111.4391

> <Gold.Chemscore.Internal_Hbond>
0.0000

> <Gold.Chemscore.DEClash>
0.6869

> <Gold.Chemscore.DEInternal>
1.8780

> <Gold.Chemscore.Rot>
2.4591

> <Gold.Chemscore.Internal.Correction>
   9.000000E+99

> <Gold.Chemscore.Hbonds>
donor molecule, donor type, donor heavy atom, donor atom, acceptor molecule, acceptor atom, score
      L1  H    17    43       P1  7957  0.77
      P1  H  7954  7966       L1    17  0.02

> <Gold.Chemscore.Hbond.Weighted>
-2.8754

> <Gold.Chemscore.Metal.Weighted>
-0.0000

> <Gold.Chemscore.Lipo.Weighted>
-13.0384

> <Gold.Chemscore.Internal_Hbond.Weighted>
0.0000

> <Gold.Chemscore.DEClash.Weighted>
0.6869

> <Gold.Chemscore.DEInternal.Weighted>
1.8780

> <Gold.Chemscore.Rot.Weighted>
6.2953

> <Gold.Chemscore.Internal.Correction.Weighted>
   9.000000E+99

> <Gold.Protein.RotatedTorsions>
[ 6907 6896 6895 6894 ] final   60.94 input  -60.11 | X-H torsion
[ 7974 7965 7964 7962 ] final -111.61 input  175.53 | X-H torsion
[ 8008 7997 7996 7995 ] final  -80.66 input   59.86 | X-H torsion
[ 10167 10162 10161 10158 ] final -141.32 input  -65.29 | X-H torsion
[ 10718 10713 10712 10709 ] final  -51.40 input   66.30 | X-H torsion
[ 10763 10752 10751 10750 ] final   61.50 input  -60.55 | X-H torsion
[ 11005 11000 10999 10996 ] final   17.56 input  -57.11 | X-H torsion

> <Gold.Protein.ActiveResidues>
 VAL166  LYS551  ARG553  GLY616  TRP617  ASP618  TYR619  PRO620  LYS621  CYS622 
 ASP623  PHE694  ASN695  SER759  ASP760  ASP761  ALA762  ILE779  LEU786  VAL792 
 PHE793  MET794  SER795  GLU796  ALA797  LYS798  CYS799  TRP800  GLU811  SER814 

> <Gold.Protein.RotatedAtoms>
  152.4046  134.6228  160.0054 H   0  0  0  0  0  0  0  0  0  0  0  0  # atno 6907 bound_to 6896
  151.6423  133.3320  159.3141 H   0  0  0  0  0  0  0  0  0  0  0  0  # atno 6908 bound_to 6896
  150.7943  134.7032  159.6606 H   0  0  0  0  0  0  0  0  0  0  0  0  # atno 6909 bound_to 6896
  145.1540  140.8844  143.3630 H   0  0  0  0  0  0  0  0  0  0  0  0  # atno 7974 bound_to 7965
  154.5905  140.0659  156.9232 H   0  0  0  0  0  0  0  0  0  0  0  0  # atno 8008 bound_to 7997
  155.2304  140.3337  155.4286 H   0  0  0  0  0  0  0  0  0  0  0  0  # atno 8009 bound_to 7997
  156.2252  140.1816  156.7364 H   0  0  0  0  0  0  0  0  0  0  0  0  # atno 8010 bound_to 7997
  139.8196  143.7592  152.2666 H   0  0  0  0  0  0  0  0  0  0  0  0  # atno 10167 bound_to 10162
  156.1713  130.4149  149.9643 H   0  0  0  0  0  0  0  0  0  0  0  0  # atno 10718 bound_to 10713
  152.9952  135.5498  154.6044 H   0  0  0  0  0  0  0  0  0  0  0  0  # atno 10763 bound_to 10752
  154.5378  135.2818  155.1125 H   0  0  0  0  0  0  0  0  0  0  0  0  # atno 10764 bound_to 10752
  154.2414  135.6415  153.5261 H   0  0  0  0  0  0  0  0  0  0  0  0  # atno 10765 bound_to 10752
  140.4346  134.1384  155.7684 H   0  0  0  0  0  0  0  0  0  0  0  0  # atno 11005 bound_to 11000
  145.0401  139.3267  143.5981 LP  0  0  0  0  0  0  0  0  0  0  0  0  # atno 17320 bound_to 7965
  146.3491  139.9771  142.8700 LP  0  0  0  0  0  0  0  0  0  0  0  0  # atno 17321 bound_to 7965
  139.7766  144.7459  151.0148 LP  0  0  0  0  0  0  0  0  0  0  0  0  # atno 17342 bound_to 10162
  140.7814  143.4587  151.0309 LP  0  0  0  0  0  0  0  0  0  0  0  0  # atno 17343 bound_to 10162
  156.7442  130.9091  151.3634 LP  0  0  0  0  0  0  0  0  0  0  0  0  # atno 17370 bound_to 10713
  157.6805  130.9135  150.0255 LP  0  0  0  0  0  0  0  0  0  0  0  0  # atno 17371 bound_to 10713
  141.1731  133.8569  157.1508 LP  0  0  0  0  0  0  0  0  0  0  0  0  # atno 17394 bound_to 11000
  140.0111  134.9988  157.0396 LP  0  0  0  0  0  0  0  0  0  0  0  0  # atno 17395 bound_to 11000

$$$$
