#       Name:                AV-unprocessed.smi:1573
#       Creating user name   scv26
#       Creation time:       Fri Mar 27 06:54:34 2020


#       File generated by GOLD software.
#

@<TRIPOS>MOLECULE
AV-unprocessed.smi:1573
    46    46     1
SMALL
NO_CHARGES


@<TRIPOS>ATOM
      1 ****        -2.4523   1.9867  -1.6164 C.3            1 S1                 0.0000
      2 ****        -3.5134   1.6901  -0.5472 C.3            1 S1                 0.0000
      3 ****        -3.1774   0.5000   0.2250 N.am           1 S1                 0.0000
      4 ****        -2.2655   0.4534   1.2078 C.2            1 S1                 0.0000
      5 ****        -1.6320   1.4400   1.5871 O.2            1 S1                 0.0000
      6 ****        -2.0256  -0.9208   1.8522 C.3            1 S1                 0.0000
      7 ****        -2.3499  -0.8213   3.3527 C.3            1 S1                 0.0000
      8 ****        -0.6126  -1.2619   1.7131 N.am           1 S1                 0.0000
      9 ****        -0.0669  -1.8647   0.6448 C.2            1 S1                 0.0000
     10 ****        -0.7247  -2.2890  -0.3053 O.2            1 S1                 0.0000
     11 ****         1.4571  -1.9754   0.6296 C.3            1 S1                 0.0000
     12 ****         2.0125  -0.9896  -0.3675 C.2            1 S1                 0.0000
     13 ****         2.4907  -1.2661  -1.6817 C.2            1 S1                 0.0000
     14 ****         2.5648  -2.5935  -2.3805 C.3            1 S1                 0.0000
     15 ****         2.8972  -0.1764  -2.3116 N.2            1 S1                 0.0000
     16 ****         2.6904   0.8256  -1.4339 N.pl3          1 S1                 0.0000
     17 ****         3.0269   2.1835  -1.8150 C.3            1 S1                 0.0000
     18 ****         2.1618   0.3667  -0.2433 C.2            1 S1                 0.0000
     19 ****         1.8430   1.2856   0.8918 C.3            1 S1                 0.0000
     20 ****        -2.7347   2.8555  -2.2109 H              1 S1                 0.0000
     21 ****        -2.3313   1.1430  -2.2963 H              1 S1                 0.0000
     22 ****        -1.4806   2.1959  -1.1679 H              1 S1                 0.0000
     23 ****        -3.6368   2.5481   0.1155 H              1 S1                 0.0000
     24 ****        -4.4790   1.5239  -1.0248 H              1 S1                 0.0000
     25 ****        -3.6495  -0.3568  -0.0258 H              1 S1                 0.0000
     26 ****        -2.6569  -1.6826   1.3902 H              1 S1                 0.0000
     27 ****        -3.3935  -0.5479   3.5137 H              1 S1                 0.0000
     28 ****        -1.7292  -0.0812   3.8604 H              1 S1                 0.0000
     29 ****        -2.1868  -1.7790   3.8477 H              1 S1                 0.0000
     30 ****         0.0057  -0.9432   2.4449 H              1 S1                 0.0000
     31 ****         1.8564  -1.7980   1.6290 H              1 S1                 0.0000
     32 ****         1.7274  -3.0002   0.3738 H              1 S1                 0.0000
     33 ****         1.5831  -3.0653  -2.4221 H              1 S1                 0.0000
     34 ****         3.2373  -3.2722  -1.8562 H              1 S1                 0.0000
     35 ****         2.9274  -2.4937  -3.4041 H              1 S1                 0.0000
     36 ****         3.9510   2.4833  -1.3207 H              1 S1                 0.0000
     37 ****         2.2263   2.8604  -1.5160 H              1 S1                 0.0000
     38 ****         3.1605   2.2572  -2.8950 H              1 S1                 0.0000
     39 ****         1.5742   0.7288   1.7890 H              1 S1                 0.0000
     40 ****         1.0052   1.9347   0.6378 H              1 S1                 0.0000
     41 ****         2.6987   1.9155   1.1352 H              1 S1                 0.0000
     42 ****        -1.7872   2.3295   1.1573 LP             1 S1                 0.0000
     43 ****        -0.9626   1.3512   2.3248 LP             1 S1                 0.0000
     44 ****        -1.7200  -2.1925  -0.3071 LP             1 S1                 0.0000
     45 ****        -0.2637  -2.7301  -1.0753 LP             1 S1                 0.0000
     46 ****         3.2747  -0.1104  -3.2352 LP             1 S1                 0.0000
@<TRIPOS>BOND
    1    1    2 1     
    2    1   20 1     
    3    1   21 1     
    4    1   22 1     
    5    2    3 1     
    6    2   23 1     
    7    2   24 1     
    8    3    4 am    
    9    3   25 1     
   10    4    5 2     
   11    4    6 1     
   12    6    7 1     
   13    6    8 1     
   14    6   26 1     
   15    7   27 1     
   16    7   28 1     
   17    7   29 1     
   18    8    9 am    
   19    8   30 1     
   20    9   10 2     
   21    9   11 1     
   22   11   12 1     
   23   11   31 1     
   24   11   32 1     
   25   12   18 2     
   26   12   13 1     
   27   13   14 1     
   28   13   15 2     
   29   14   33 1     
   30   14   34 1     
   31   14   35 1     
   32   15   16 1     
   33   16   17 1     
   34   16   18 1     
   35   17   36 1     
   36   17   37 1     
   37   17   38 1     
   38   18   19 1     
   39   19   39 1     
   40   19   40 1     
   41   19   41 1     
   42    5   42 1     
   43    5   43 1     
   44   10   44 1     
   45   10   45 1     
   46   15   46 1     
@<TRIPOS>SUBSTRUCTURE
      1 S1             1
@<TRIPOS>SET
LONE_PAIRS      STATIC     ATOMS    <user>   **** ""
5 42 43 44 45 46
DONOR_HYDROGENS      STATIC     ATOMS    <user>   **** ""
2 25 30
ATOM$BLUE        STATIC     ATOMS    COLORGROUP SYSTEM
5 42 43 44 45 46
ATOM$RED        STATIC     ATOMS    COLORGROUP SYSTEM
2 25 30
