AV-unprocessed.smi:203|AV-procd|sdf|1592|dock9
  -GOLD-   2262019493D 1   1.00000     0.00000
 Structure written by MMmdl.
 57 61  0  0  0  0  0  0  0  0  1 V2000
  151.8747  136.8253  156.2117 O   0  0  0  0  0  0  0  0  0  0  0  0
  151.3799  137.6926  156.9277 C   0  0  0  0  0  0  0  0  0  0  0  0
  152.1622  138.8762  157.4737 C   0  0  0  0  0  0  0  0  0  0  0  0
  151.1960  139.4639  158.5188 C   0  0  1  0  0  0  0  0  0  0  0  0
  151.2744  141.0047  158.7549 C   0  0  1  0  0  0  0  0  0  0  0  0
  152.5004  141.4304  159.6064 C   0  0  0  0  0  0  0  0  0  0  0  0
  152.5477  142.9496  159.8169 C   0  0  0  0  0  0  0  0  0  0  0  0
  152.5320  143.6643  158.4622 C   0  0  0  0  0  0  0  0  0  0  0  0
  151.3041  143.2335  157.6506 C   0  0  0  0  0  0  0  0  0  0  0  0
  151.2476  141.7795  157.4999 N   0  0  0  0  0  0  0  0  0  0  0  0
  150.2973  141.4496  156.5961 C   0  0  0  0  0  0  0  0  0  0  0  0
  150.7118  140.8366  155.4601 N   0  0  0  0  0  0  0  0  0  0  0  0
  149.8206  140.4863  154.5279 C   0  0  0  0  0  0  0  0  0  0  0  0
  148.4968  140.6582  154.5310 N   0  0  0  0  0  0  0  0  0  0  0  0
  148.0804  141.2840  155.6693 C   0  0  0  0  0  0  0  0  0  0  0  0
  148.9065  141.7141  156.7449 C   0  0  0  0  0  0  0  0  0  0  0  0
  148.1309  142.3201  157.7262 N   0  0  0  0  0  0  0  0  0  0  0  0
  146.9155  142.2567  157.2551 C   0  0  0  0  0  0  0  0  0  0  0  0
  146.7954  141.6553  156.0232 N   0  0  0  0  0  0  0  0  0  0  0  0
  145.5721  141.4727  155.2642 C   0  0  0  0  0  0  0  0  0  0  0  0
  144.6223  142.6857  155.3552 C   0  0  2  0  0  0  0  0  0  0  0  0
  143.3735  142.2805  154.8313 O   0  0  0  0  0  0  0  0  0  0  0  0
  145.1123  143.9353  154.5897 C   0  0  1  0  0  0  0  0  0  0  0  0
  145.7038  143.6504  153.2083 C   0  0  0  0  0  0  0  0  0  0  0  0
  145.5655  144.9801  152.4845 C   0  0  0  0  0  0  0  0  0  0  0  0
  144.4989  145.7273  153.2891 C   0  0  0  0  0  0  0  0  0  0  0  0
  144.0290  144.7854  154.2426 O   0  0  0  0  0  0  0  0  0  0  0  0
  149.8105  138.8991  158.1450 C   0  0  0  0  0  0  0  0  0  0  0  0
  150.1107  137.7371  157.3320 N   0  0  0  0  0  0  0  0  0  0  0  0
  153.1066  138.5613  157.9186 H   0  0  0  0  0  0  0  0  0  0  0  0
  152.3803  139.5529  156.6504 H   0  0  0  0  0  0  0  0  0  0  0  0
  151.4851  138.9688  159.4470 H   0  0  0  0  0  0  0  0  0  0  0  0
  150.3880  141.2879  159.3233 H   0  0  0  0  0  0  0  0  0  0  0  0
  152.4861  140.9519  160.5837 H   0  0  0  0  0  0  0  0  0  0  0  0
  153.4276  141.1199  159.1263 H   0  0  0  0  0  0  0  0  0  0  0  0
  151.6924  143.2674  160.4145 H   0  0  0  0  0  0  0  0  0  0  0  0
  153.4420  143.2245  160.3771 H   0  0  0  0  0  0  0  0  0  0  0  0
  152.5258  144.7449  158.6061 H   0  0  0  0  0  0  0  0  0  0  0  0
  153.4414  143.4278  157.9079 H   0  0  0  0  0  0  0  0  0  0  0  0
  150.3959  143.5803  158.1460 H   0  0  0  0  0  0  0  0  0  0  0  0
  151.3323  143.7116  156.6699 H   0  0  0  0  0  0  0  0  0  0  0  0
  150.2264  139.9993  153.6535 H   0  0  0  0  0  0  0  0  0  0  0  0
  146.0683  142.6577  157.7922 H   0  0  0  0  0  0  0  0  0  0  0  0
  145.8351  141.2732  154.2244 H   0  0  0  0  0  0  0  0  0  0  0  0
  145.0755  140.5753  155.6357 H   0  0  0  0  0  0  0  0  0  0  0  0
  144.4675  142.9466  156.4030 H   0  0  0  0  0  0  0  0  0  0  0  0
  143.5156  141.5528  154.2455 H   0  0  0  0  0  0  0  0  0  0  0  0
  145.8311  144.4940  155.1923 H   0  0  0  0  0  0  0  0  0  0  0  0
  146.7348  143.2984  153.2526 H   0  0  0  0  0  0  0  0  0  0  0  0
  145.1101  142.8915  152.6962 H   0  0  0  0  0  0  0  0  0  0  0  0
  146.5052  145.5335  152.4954 H   0  0  0  0  0  0  0  0  0  0  0  0
  145.2700  144.8364  151.4448 H   0  0  0  0  0  0  0  0  0  0  0  0
  144.9355  146.5806  153.8101 H   0  0  0  0  0  0  0  0  0  0  0  0
  143.6803  146.0891  152.6666 H   0  0  0  0  0  0  0  0  0  0  0  0
  149.2319  138.6223  159.0269 H   0  0  0  0  0  0  0  0  0  0  0  0
  149.2138  139.5919  157.5539 H   0  0  0  0  0  0  0  0  0  0  0  0
  149.4124  137.0508  157.0843 H   0  0  0  0  0  0  0  0  0  0  0  0
  1  2  2  0  0  0  0
  2 29  1  0  0  0  0
  2  3  1  0  0  0  0
  3  4  1  0  0  0  0
  3 30  1  0  0  0  0
  3 31  1  0  0  0  0
  4  5  1  0  0  0  0
  4 28  1  0  0  0  0
  4 32  1  0  0  0  0
  5 10  1  0  0  0  0
  5  6  1  0  0  0  0
  5 33  1  0  0  0  0
  6  7  1  0  0  0  0
  6 34  1  0  0  0  0
  6 35  1  0  0  0  0
  7  8  1  0  0  0  0
  7 36  1  0  0  0  0
  7 37  1  0  0  0  0
  8  9  1  0  0  0  0
  8 38  1  0  0  0  0
  8 39  1  0  0  0  0
  9 10  1  0  0  0  0
  9 40  1  0  0  0  0
  9 41  1  0  0  0  0
 10 11  1  0  0  0  0
 11 16  1  0  0  0  0
 11 12  2  0  0  0  0
 12 13  1  0  0  0  0
 13 14  2  0  0  0  0
 13 42  1  0  0  0  0
 14 15  1  0  0  0  0
 15 19  1  0  0  0  0
 15 16  2  0  0  0  0
 16 17  1  0  0  0  0
 17 18  2  0  0  0  0
 18 19  1  0  0  0  0
 18 43  1  0  0  0  0
 19 20  1  0  0  0  0
 20 21  1  0  0  0  0
 20 44  1  0  0  0  0
 20 45  1  0  0  0  0
 21 22  1  0  0  0  0
 21 23  1  0  0  0  0
 21 46  1  0  0  0  0
 22 47  1  0  0  0  0
 23 27  1  0  0  0  0
 23 24  1  0  0  0  0
 23 48  1  0  0  0  0
 24 25  1  0  0  0  0
 24 49  1  0  0  0  0
 24 50  1  0  0  0  0
 25 26  1  0  0  0  0
 25 51  1  0  0  0  0
 25 52  1  0  0  0  0
 26 27  1  0  0  0  0
 26 53  1  0  0  0  0
 26 54  1  0  0  0  0
 28 29  1  0  0  0  0
 28 55  1  0  0  0  0
 28 56  1  0  0  0  0
 29 57  1  0  0  0  0
M  END
> <s_m_source_file>
AV-unprocessed.smi

> <i_m_source_file_index>
203

> <i_lp_mmshare_version>
43012

> <i_f3d_flags>
0

> <s_epik_input>
Tz1DMVtDSDJdW0NASF0oW0NIMl1bTkhdMSlbQ0BASF0yW0NIMl1bQ0gyXVtDSDJdW0NIMl1OMmMobltjSF1uMyljKGMzNCluW2NIXW40W0NIMl1bQ0BIXShbT0hdKVtDQEBIXTVbQ0gyXVtDSDJdW0NIMl1PNQ==

> <s_epik_cmdline>
J2VwaWtfcHl0aG9uJywgJy1waCcsICc3LjAnLCAnLXRuJywgJzgnLCAnLW1hJywgJzIwMCcsICctbWV0YWxfYmluZGluZycsICctaW1hZScsICc8aW5maWxlLm1hZT4nLCAnLW9tYWUnLCAnPG91dGZpbGUubWFlPic=

> <r_lp_tautomer_probability>
1

> <r_epik_Ionization_Penalty>
0.00175146

> <r_epik_Ionization_Penalty_Charging>
0

> <r_epik_Ionization_Penalty_Neutral>
0.00175146

> <r_epik_State_Penalty>
0.00109045

> <r_epik_Charging_Adjusted_Penalty>
0.00109045

> <i_epik_Tot_Q>
0

> <i_epik_Tot_abs_Q>
0

> <r_epik_Metal_State_Penalty>
-0

> <b_epik_Metal_Only>
0

> <s_lp_Force_Field>
OPLS_2005

> <r_lp_Energy>
55.4973

> <b_lp_Chiralities_Consistent>
1

> <s_lp_Variant>
AV-unprocessed.smi:203-11

> <Gold.Version>
5.8.1

> <Gold.Id.Protein>
6NUR|6NUR_protein|mol2

> <Gold.PLP.Fitness>
52.7372

> <Gold.PLP.PLP>
-45.7575

> <Gold.PLP.part.hbond>
-4.0000

> <Gold.PLP.part.metal>
0.0000

> <Gold.PLP.part.buried>
-4.3474

> <Gold.PLP.part.nonpolar>
-38.8889

> <Gold.PLP.part.repulsive>
0.5063

> <Gold.PLP.ligand.clash>
0.0000

> <Gold.PLP.ligand.torsion>
1.1507

> <Gold.PLP.Chemscore.Hbond>
1.9920

> <Gold.PLP.Chemscore.CHOScore>
1.0000

> <Gold.PLP.Chemscore.Metal>
0.0000

> <Gold.Chemscore.Hbonds>
donor molecule, donor type, donor heavy atom, donor atom, acceptor molecule, acceptor atom, score
      L1  H    22    47       P1 10175  0.75
      P1  H 10752 10763       L1     1  0.57
      L1  C    13    42       P1  7957  0.92

> <Gold.PLP.Chemscore.Internal.Correction>
0.3051

> <Gold.Rescore>
     Score         DG    S(hbond)    S(metal)    S(lipo)     H(rot)  DE(clash)    DE(int)     intcor
     13.05     -15.41       1.68        0.00      96.47       2.72       1.42       0.93       ----

> <Gold.Chemscore.Fitness>
13.0550

> <Gold.Chemscore.DG>
-15.4087

> <Gold.Chemscore.ZeroCoef>
-5.4800

> <Gold.Chemscore.Hbond>
1.6759

> <Gold.Chemscore.Metal>
0.0000

> <Gold.Chemscore.Lipo>
96.4678

> <Gold.Chemscore.Internal_Hbond>
0.0000

> <Gold.Chemscore.DEClash>
1.4201

> <Gold.Chemscore.DEInternal>
0.9336

> <Gold.Chemscore.Rot>
2.7171

> <Gold.Chemscore.Internal.Correction>
   9.000000E+99

> <Gold.Chemscore.Hbonds>
donor molecule, donor type, donor heavy atom, donor atom, acceptor molecule, acceptor atom, score
      L1  H    22    47       P1 10175  0.09
      P1  H 10752 10763       L1     1  0.55

> <Gold.Chemscore.Hbond.Weighted>
-5.5977

> <Gold.Chemscore.Metal.Weighted>
-0.0000

> <Gold.Chemscore.Lipo.Weighted>
-11.2867

> <Gold.Chemscore.Internal_Hbond.Weighted>
0.0000

> <Gold.Chemscore.DEClash.Weighted>
1.4201

> <Gold.Chemscore.DEInternal.Weighted>
0.9336

> <Gold.Chemscore.Rot.Weighted>
6.9557

> <Gold.Chemscore.Internal.Correction.Weighted>
   9.000000E+99

> <Gold.Protein.RotatedTorsions>
[ 6907 6896 6895 6894 ] final   63.34 input  -60.11 | X-H torsion
[ 7974 7965 7964 7962 ] final  -85.79 input  175.53 | X-H torsion
[ 8008 7997 7996 7995 ] final   88.91 input   59.86 | X-H torsion
[ 10167 10162 10161 10158 ] final  -36.73 input  -65.29 | X-H torsion
[ 10718 10713 10712 10709 ] final  159.54 input   66.30 | X-H torsion
[ 10763 10752 10751 10750 ] final   72.67 input  -60.55 | X-H torsion
[ 11005 11000 10999 10996 ] final   12.33 input  -57.11 | X-H torsion

> <Gold.Protein.ActiveResidues>
 VAL166  LYS551  ARG553  GLY616  TRP617  ASP618  TYR619  PRO620  LYS621  CYS622 
 ASP623  PHE694  ASN695  SER759  ASP760  ASP761  ALA762  ILE779  LEU786  VAL792 
 PHE793  MET794  SER795  GLU796  ALA797  LYS798  CYS799  TRP800  GLU811  SER814 

> <Gold.Protein.RotatedAtoms>
  152.4245  134.5894  159.9969 H   0  0  0  0  0  0  0  0  0  0  0  0  # atno 6907 bound_to 6896
  151.6034  133.3348  159.3060 H   0  0  0  0  0  0  0  0  0  0  0  0  # atno 6908 bound_to 6896
  150.8134  134.7339  159.6774 H   0  0  0  0  0  0  0  0  0  0  0  0  # atno 6909 bound_to 6896
  145.4886  140.9554  143.1825 H   0  0  0  0  0  0  0  0  0  0  0  0  # atno 7974 bound_to 7965
  155.9935  140.3366  155.6776 H   0  0  0  0  0  0  0  0  0  0  0  0  # atno 8008 bound_to 7997
  155.6388  140.0693  157.2643 H   0  0  0  0  0  0  0  0  0  0  0  0  # atno 8009 bound_to 7997
  154.4227  140.1746  156.1538 H   0  0  0  0  0  0  0  0  0  0  0  0  # atno 8010 bound_to 7997
  140.7136  143.3389  151.2401 H   0  0  0  0  0  0  0  0  0  0  0  0  # atno 10167 bound_to 10162
  157.1627  131.0591  151.2223 H   0  0  0  0  0  0  0  0  0  0  0  0  # atno 10718 bound_to 10713
  153.0473  135.5091  154.7779 H   0  0  0  0  0  0  0  0  0  0  0  0  # atno 10763 bound_to 10752
  154.6669  135.2947  154.9796 H   0  0  0  0  0  0  0  0  0  0  0  0  # atno 10764 bound_to 10752
  154.0628  135.6688  153.4866 H   0  0  0  0  0  0  0  0  0  0  0  0  # atno 10765 bound_to 10752
  140.4932  134.0819  155.7776 H   0  0  0  0  0  0  0  0  0  0  0  0  # atno 11005 bound_to 11000
  144.7847  139.6452  143.7139 LP  0  0  0  0  0  0  0  0  0  0  0  0  # atno 17320 bound_to 7965
  146.2298  139.5792  142.9563 LP  0  0  0  0  0  0  0  0  0  0  0  0  # atno 17321 bound_to 7965
  139.6892  143.9722  152.2850 LP  0  0  0  0  0  0  0  0  0  0  0  0  # atno 17342 bound_to 10162
  139.9377  144.6701  150.8298 LP  0  0  0  0  0  0  0  0  0  0  0  0  # atno 17343 bound_to 10162
  157.4117  130.7389  149.6844 LP  0  0  0  0  0  0  0  0  0  0  0  0  # atno 17370 bound_to 10713
  155.9751  130.4093  150.3874 LP  0  0  0  0  0  0  0  0  0  0  0  0  # atno 17371 bound_to 10713
  141.1473  133.9032  157.2184 LP  0  0  0  0  0  0  0  0  0  0  0  0  # atno 17394 bound_to 11000
  139.9757  135.0115  156.9624 LP  0  0  0  0  0  0  0  0  0  0  0  0  # atno 17395 bound_to 11000

$$$$
