#       Name:                AV-unprocessed.smi:3342
#       Creating user name   scv26
#       Creation time:       Fri Mar 27 19:29:34 2020


#       File generated by GOLD software.
#

@<TRIPOS>MOLECULE
AV-unprocessed.smi:3342
    46    47     1
SMALL
NO_CHARGES


@<TRIPOS>ATOM
      1 ****        -3.4161  -0.5173   0.7326 C.3            1 S1                 0.0000
      2 ****        -2.3745   0.2755  -0.0740 C.3            1 S1                 0.0000
      3 ****        -2.1710  -0.2688  -1.5048 C.3            1 S1                 0.0000
      4 ****        -3.4005  -0.3012  -2.2738 N.pl3          1 S1                 0.0000
      5 ****        -4.0699   0.7825  -2.8265 C.2            1 S1                 0.0000
      6 ****        -5.1794   0.2755  -3.4645 C.2            1 S1                 0.0000
      7 ****        -5.2098  -1.1100  -3.3225 N.2            1 S1                 0.0000
      8 ****        -4.1236  -1.3786  -2.6094 C.2            1 S1                 0.0000
      9 ****        -1.1069   0.2692   0.6498 N.am           1 S1                 0.0000
     10 ****        -0.1428   1.2011   0.5531 C.2            1 S1                 0.0000
     11 ****        -0.2591   2.1903  -0.1720 O.2            1 S1                 0.0000
     12 ****         0.9469   0.9717   1.3291 N.am           1 S1                 0.0000
     13 ****         1.2469  -0.2681   2.0653 C.3            1 S1                 0.0000
     14 ****         2.3502  -1.0332   1.3122 C.3            1 S1                 0.0000
     15 ****         3.6139  -0.1583   1.1340 C.3            1 S1                 0.0000
     16 ****         4.6569  -0.8698   0.2620 C.2            1 S1                 0.0000
     17 ****         5.8372  -1.1414   0.8246 N.am           1 S1                 0.0000
     18 ****         4.4034  -1.1717  -0.9027 O.2            1 S1                 0.0000
     19 ****         3.2496   1.2261   0.5466 C.3            1 S1                 0.0000
     20 ****         2.1001   1.8799   1.3352 C.3            1 S1                 0.0000
     21 ****        -4.4038  -0.4615   0.2746 H              1 S1                 0.0000
     22 ****        -3.5088  -0.1249   1.7457 H              1 S1                 0.0000
     23 ****        -3.1418  -1.5702   0.8067 H              1 S1                 0.0000
     24 ****        -2.7306   1.3053  -0.1402 H              1 S1                 0.0000
     25 ****        -1.4512   0.3443  -2.0490 H              1 S1                 0.0000
     26 ****        -1.7570  -1.2778  -1.4703 H              1 S1                 0.0000
     27 ****        -3.7123   1.7962  -2.7204 H              1 S1                 0.0000
     28 ****        -5.9513   0.7966  -4.0112 H              1 S1                 0.0000
     29 ****        -3.8504  -2.3829  -2.3200 H              1 S1                 0.0000
     30 ****        -0.9443  -0.5087   1.2722 H              1 S1                 0.0000
     31 ****         1.5906  -0.0143   3.0692 H              1 S1                 0.0000
     32 ****         0.3834  -0.9161   2.2147 H              1 S1                 0.0000
     33 ****         2.6015  -1.9444   1.8566 H              1 S1                 0.0000
     34 ****         1.9651  -1.3500   0.3413 H              1 S1                 0.0000
     35 ****         4.0443   0.0057   2.1237 H              1 S1                 0.0000
     36 ****         6.5555  -1.6086   0.2907 H              1 S1                 0.0000
     37 ****         6.0066  -0.8777   1.7845 H              1 S1                 0.0000
     38 ****         4.1222   1.8803   0.5611 H              1 S1                 0.0000
     39 ****         2.9541   1.1301  -0.4996 H              1 S1                 0.0000
     40 ****         1.8677   2.8591   0.9140 H              1 S1                 0.0000
     41 ****         2.4092   2.0691   2.3643 H              1 S1                 0.0000
     42 ****        -5.8908  -1.7518  -3.6753 LP             1 S1                 0.0000
     43 ****        -1.0907   2.3192  -0.7123 LP             1 S1                 0.0000
     44 ****         0.4780   2.8643  -0.2202 LP             1 S1                 0.0000
     45 ****         3.5085  -0.9537  -1.2923 LP             1 S1                 0.0000
     46 ****         5.0920  -1.6352  -1.4603 LP             1 S1                 0.0000
@<TRIPOS>BOND
    1    1    2 1     
    2    1   21 1     
    3    1   22 1     
    4    1   23 1     
    5    2    3 1     
    6    2    9 1     
    7    2   24 1     
    8    3    4 1     
    9    3   25 1     
   10    3   26 1     
   11    4    8 1     
   12    4    5 1     
   13    5    6 2     
   14    5   27 1     
   15    6    7 1     
   16    6   28 1     
   17    7    8 2     
   18    8   29 1     
   19    9   10 am    
   20    9   30 1     
   21   10   11 2     
   22   10   12 am    
   23   12   20 1     
   24   12   13 1     
   25   13   14 1     
   26   13   31 1     
   27   13   32 1     
   28   14   15 1     
   29   14   33 1     
   30   14   34 1     
   31   15   16 1     
   32   15   19 1     
   33   15   35 1     
   34   16   17 am    
   35   16   18 2     
   36   17   36 1     
   37   17   37 1     
   38   19   20 1     
   39   19   38 1     
   40   19   39 1     
   41   20   40 1     
   42   20   41 1     
   43    7   42 1     
   44   11   43 1     
   45   11   44 1     
   46   18   45 1     
   47   18   46 1     
@<TRIPOS>SUBSTRUCTURE
      1 S1             1
@<TRIPOS>SET
LONE_PAIRS      STATIC     ATOMS    <user>   **** ""
5 42 43 44 45 46
DONOR_HYDROGENS      STATIC     ATOMS    <user>   **** ""
3 30 36 37
ATOM$BLUE        STATIC     ATOMS    COLORGROUP SYSTEM
5 42 43 44 45 46
ATOM$RED        STATIC     ATOMS    COLORGROUP SYSTEM
3 30 36 37
