AV-unprocessed.smi:1879|AV-procd|sdf|7632|dock9
  -GOLD-   22720 9353D 1   1.00000     0.00000
 Structure written by MMmdl.
 46 48  0  0  0  0  0  0  0  0  1 V2000
  147.9987  132.0885  153.7951 O   0  0  0  0  0  0  0  0  0  0  0  0
  148.0346  133.2691  153.4474 C   0  0  0  0  0  0  0  0  0  0  0  0
  148.8917  134.1895  153.9198 N   0  0  0  0  0  0  0  0  0  0  0  0
  149.9250  134.0112  154.8826 C   0  0  0  0  0  0  0  0  0  0  0  0
  150.2303  132.7313  155.4069 C   0  0  0  0  0  0  0  0  0  0  0  0
  151.2085  132.6109  156.4086 C   0  0  0  0  0  0  0  0  0  0  0  0
  151.8386  133.7801  156.8653 C   0  0  0  0  0  0  0  0  0  0  0  0
  151.5501  135.0067  156.3870 N   0  0  0  0  0  0  0  0  0  0  0  0
  150.6194  135.1386  155.4096 C   0  0  0  0  0  0  0  0  0  0  0  0
  150.3721  136.4491  154.9385 N   0  0  0  0  0  0  0  0  0  0  0  0
  149.2530  137.2255  155.4617 C   0  0  0  0  0  0  0  0  0  0  0  0
  149.5306  138.6617  155.0277 C   0  0  0  0  0  0  0  0  0  0  0  0
  151.0511  138.7413  155.1216 C   0  0  0  0  0  0  0  0  0  0  0  0
  151.5133  137.3349  154.7253 C   0  0  0  0  0  0  0  0  0  0  0  0
  147.2221  133.7948  152.5198 N   0  0  0  0  0  0  0  0  0  0  0  0
  146.1833  133.0655  151.7985 C   0  0  2  0  0  0  0  0  0  0  0  0
  146.5541  132.9229  150.3087 C   0  0  0  0  0  0  0  0  0  0  0  0
  145.4432  132.2117  149.5161 C   0  0  0  0  0  0  0  0  0  0  0  0
  144.0725  132.8933  149.6881 C   0  0  2  0  0  0  0  0  0  0  0  0
  144.0647  134.1412  149.0233 O   0  0  0  0  0  0  0  0  0  0  0  0
  143.7165  133.0845  151.1746 C   0  0  0  0  0  0  0  0  0  0  0  0
  144.8361  133.7937  151.9563 C   0  0  0  0  0  0  0  0  0  0  0  0
  148.8728  135.0918  153.4675 H   0  0  0  0  0  0  0  0  0  0  0  0
  149.7133  131.8441  155.0743 H   0  0  0  0  0  0  0  0  0  0  0  0
  151.4591  131.6468  156.8257 H   0  0  0  0  0  0  0  0  0  0  0  0
  152.5896  133.7311  157.6398 H   0  0  0  0  0  0  0  0  0  0  0  0
  148.3008  136.8618  155.0749 H   0  0  0  0  0  0  0  0  0  0  0  0
  149.2234  137.1762  156.5510 H   0  0  0  0  0  0  0  0  0  0  0  0
  149.2119  138.8083  153.9946 H   0  0  0  0  0  0  0  0  0  0  0  0
  149.0234  139.3998  155.6495 H   0  0  0  0  0  0  0  0  0  0  0  0
  151.4774  139.5211  154.4901 H   0  0  0  0  0  0  0  0  0  0  0  0
  151.3435  138.9463  156.1520 H   0  0  0  0  0  0  0  0  0  0  0  0
  152.3880  137.0263  155.2994 H   0  0  0  0  0  0  0  0  0  0  0  0
  151.7786  137.3169  153.6682 H   0  0  0  0  0  0  0  0  0  0  0  0
  147.3285  134.7731  152.2946 H   0  0  0  0  0  0  0  0  0  0  0  0
  146.0812  132.0693  152.2336 H   0  0  0  0  0  0  0  0  0  0  0  0
  146.7365  133.9079  149.8768 H   0  0  0  0  0  0  0  0  0  0  0  0
  147.4858  132.3657  150.2043 H   0  0  0  0  0  0  0  0  0  0  0  0
  145.7107  132.1600  148.4601 H   0  0  0  0  0  0  0  0  0  0  0  0
  145.3715  131.1795  149.8610 H   0  0  0  0  0  0  0  0  0  0  0  0
  143.3071  132.2775  149.2146 H   0  0  0  0  0  0  0  0  0  0  0  0
  144.9327  134.3095  148.6901 H   0  0  0  0  0  0  0  0  0  0  0  0
  142.7822  133.6382  151.2727 H   0  0  0  0  0  0  0  0  0  0  0  0
  143.5378  132.1071  151.6246 H   0  0  0  0  0  0  0  0  0  0  0  0
  144.5642  133.8501  153.0112 H   0  0  0  0  0  0  0  0  0  0  0  0
  144.9281  134.8232  151.6074 H   0  0  0  0  0  0  0  0  0  0  0  0
  1  2  2  0  0  0  0
  2  3  1  0  0  0  0
  2 15  1  0  0  0  0
  3  4  1  0  0  0  0
  3 23  1  0  0  0  0
  4  9  1  0  0  0  0
  4  5  2  0  0  0  0
  5  6  1  0  0  0  0
  5 24  1  0  0  0  0
  6  7  2  0  0  0  0
  6 25  1  0  0  0  0
  7  8  1  0  0  0  0
  7 26  1  0  0  0  0
  8  9  2  0  0  0  0
  9 10  1  0  0  0  0
 10 14  1  0  0  0  0
 10 11  1  0  0  0  0
 11 12  1  0  0  0  0
 11 27  1  0  0  0  0
 11 28  1  0  0  0  0
 12 13  1  0  0  0  0
 12 29  1  0  0  0  0
 12 30  1  0  0  0  0
 13 14  1  0  0  0  0
 13 31  1  0  0  0  0
 13 32  1  0  0  0  0
 14 33  1  0  0  0  0
 14 34  1  0  0  0  0
 15 16  1  0  0  0  0
 15 35  1  0  0  0  0
 16 22  1  0  0  0  0
 16 17  1  0  0  0  0
 16 36  1  0  0  0  0
 17 18  1  0  0  0  0
 17 37  1  0  0  0  0
 17 38  1  0  0  0  0
 18 19  1  0  0  0  0
 18 39  1  0  0  0  0
 18 40  1  0  0  0  0
 19 20  1  0  0  0  0
 19 21  1  0  0  0  0
 19 41  1  0  0  0  0
 20 42  1  0  0  0  0
 21 22  1  0  0  0  0
 21 43  1  0  0  0  0
 21 44  1  0  0  0  0
 22 45  1  0  0  0  0
 22 46  1  0  0  0  0
M  END
> <s_m_source_file>
AV-unprocessed.smi

> <i_m_source_file_index>
1879

> <i_lp_mmshare_version>
43012

> <i_f3d_flags>
0

> <s_epik_input>
W0NIMl0xW0NIMl1bQ0BIXShbT0hdKVtDSDJdW0NIMl1bQ0BIXTFbTkhdQyg9TylbTkhdYzJbY0hdW2NIXVtjSF1uYzJOM1tDSDJdW0NIMl1bQ0gyXVtDSDJdMw==

> <s_epik_cmdline>
J2VwaWtfcHl0aG9uJywgJy1waCcsICc3LjAnLCAnLXRuJywgJzgnLCAnLW1hJywgJzIwMCcsICctbWV0YWxfYmluZGluZycsICctaW1hZScsICc8aW5maWxlLm1hZT4nLCAnLW9tYWUnLCAnPG91dGZpbGUubWFlPic=

> <r_lp_tautomer_probability>
1

> <r_epik_Ionization_Penalty>
0.104121

> <r_epik_Ionization_Penalty_Charging>
0

> <r_epik_Ionization_Penalty_Neutral>
0.104121

> <r_epik_State_Penalty>
0.0934704

> <r_epik_Charging_Adjusted_Penalty>
0.0934704

> <i_epik_Tot_Q>
0

> <i_epik_Tot_abs_Q>
0

> <r_epik_Metal_State_Penalty>
0.0794466

> <b_epik_Metal_Only>
0

> <s_lp_Force_Field>
OPLS_2005

> <r_lp_Energy>
39.1778

> <b_lp_Chiralities_Consistent>
1

> <s_lp_Variant>
AV-unprocessed.smi:1879-2

> <Gold.Version>
5.8.1

> <Gold.Id.Protein>
6NUR|6NUR_protein|mol2

> <Gold.PLP.Fitness>
49.9724

> <Gold.PLP.PLP>
-40.5435

> <Gold.PLP.part.hbond>
-4.4007

> <Gold.PLP.part.metal>
0.0000

> <Gold.PLP.part.buried>
-2.3922

> <Gold.PLP.part.nonpolar>
-32.8776

> <Gold.PLP.part.repulsive>
0.2932

> <Gold.PLP.ligand.clash>
0.0000

> <Gold.PLP.ligand.torsion>
0.6390

> <Gold.PLP.Chemscore.Hbond>
3.4565

> <Gold.PLP.Chemscore.CHOScore>
0.0000

> <Gold.PLP.Chemscore.Metal>
0.0000

> <Gold.Chemscore.Hbonds>
donor molecule, donor type, donor heavy atom, donor atom, acceptor molecule, acceptor atom, score
      L1  H     3    23       P1  7948  1.00
      L1  H    15    35       P1  7948  0.46
      L1  H    20    42       P1  7921  1.00
      P1  H 10752 10763       L1     8  0.48

> <Gold.PLP.Chemscore.Internal.Correction>
0.3373

> <Gold.Rescore>
     Score         DG    S(hbond)    S(metal)    S(lipo)     H(rot)  DE(clash)    DE(int)     intcor
     17.21     -19.28       2.12        0.00      94.12       1.67       0.13       1.93       ----

> <Gold.Chemscore.Fitness>
17.2112

> <Gold.Chemscore.DG>
-19.2799

> <Gold.Chemscore.ZeroCoef>
-5.4800

> <Gold.Chemscore.Hbond>
2.1166

> <Gold.Chemscore.Metal>
0.0000

> <Gold.Chemscore.Lipo>
94.1157

> <Gold.Chemscore.Internal_Hbond>
0.0000

> <Gold.Chemscore.DEClash>
0.1350

> <Gold.Chemscore.DEInternal>
1.9338

> <Gold.Chemscore.Rot>
1.6723

> <Gold.Chemscore.Internal.Correction>
   9.000000E+99

> <Gold.Chemscore.Hbonds>
donor molecule, donor type, donor heavy atom, donor atom, acceptor molecule, acceptor atom, score
      L1  H     3    23       P1  7948  0.52
      L1  H    15    35       P1  7948  0.43
      L1  H    20    42       P1  7921  0.99
      P1  H 10752 10763       L1     8  0.01

> <Gold.Chemscore.Hbond.Weighted>
-7.0696

> <Gold.Chemscore.Metal.Weighted>
-0.0000

> <Gold.Chemscore.Lipo.Weighted>
-11.0115

> <Gold.Chemscore.Internal_Hbond.Weighted>
0.0000

> <Gold.Chemscore.DEClash.Weighted>
0.1350

> <Gold.Chemscore.DEInternal.Weighted>
1.9338

> <Gold.Chemscore.Rot.Weighted>
4.2812

> <Gold.Chemscore.Internal.Correction.Weighted>
   9.000000E+99

> <Gold.Protein.RotatedTorsions>
[ 6907 6896 6895 6894 ] final   44.14 input  -60.11 | X-H torsion
[ 7974 7965 7964 7962 ] final -172.00 input  175.53 | X-H torsion
[ 8008 7997 7996 7995 ] final  -17.70 input   59.86 | X-H torsion
[ 10167 10162 10161 10158 ] final    4.50 input  -65.29 | X-H torsion
[ 10718 10713 10712 10709 ] final -144.28 input   66.30 | X-H torsion
[ 10763 10752 10751 10750 ] final   89.82 input  -60.55 | X-H torsion
[ 11005 11000 10999 10996 ] final   26.94 input  -57.11 | X-H torsion

> <Gold.Protein.ActiveResidues>
 VAL166  LYS551  ARG553  GLY616  TRP617  ASP618  TYR619  PRO620  LYS621  CYS622 
 ASP623  PHE694  ASN695  SER759  ASP760  ASP761  ALA762  ILE779  LEU786  VAL792 
 PHE793  MET794  SER795  GLU796  ALA797  LYS798  CYS799  TRP800  GLU811  SER814 

> <Gold.Protein.RotatedAtoms>
  152.2288  134.8342  160.0476 H   0  0  0  0  0  0  0  0  0  0  0  0  # atno 6907 bound_to 6896
  151.9098  133.3553  159.3868 H   0  0  0  0  0  0  0  0  0  0  0  0  # atno 6908 bound_to 6896
  150.7020  134.4669  159.5451 H   0  0  0  0  0  0  0  0  0  0  0  0  # atno 6909 bound_to 6896
  144.7151  140.1837  143.6355 H   0  0  0  0  0  0  0  0  0  0  0  0  # atno 7974 bound_to 7965
  154.4959  140.2136  155.9447 H   0  0  0  0  0  0  0  0  0  0  0  0  # atno 8008 bound_to 7997
  156.1370  140.3186  155.8404 H   0  0  0  0  0  0  0  0  0  0  0  0  # atno 8009 bound_to 7997
  155.4191  140.0495  157.3017 H   0  0  0  0  0  0  0  0  0  0  0  0  # atno 8010 bound_to 7997
  140.6531  143.7494  150.7609 H   0  0  0  0  0  0  0  0  0  0  0  0  # atno 10167 bound_to 10162
  156.3682  130.7774  151.1951 H   0  0  0  0  0  0  0  0  0  0  0  0  # atno 10718 bound_to 10713
  153.1911  135.4456  155.0150 H   0  0  0  0  0  0  0  0  0  0  0  0  # atno 10763 bound_to 10752
  154.8091  135.3287  154.7356 H   0  0  0  0  0  0  0  0  0  0  0  0  # atno 10764 bound_to 10752
  153.7810  135.6977  153.4944 H   0  0  0  0  0  0  0  0  0  0  0  0  # atno 10765 bound_to 10752
  140.3316  134.2431  155.7701 H   0  0  0  0  0  0  0  0  0  0  0  0  # atno 11005 bound_to 11000
  145.8832  139.2334  143.1593 LP  0  0  0  0  0  0  0  0  0  0  0  0  # atno 17320 bound_to 7965
  145.9974  140.8550  143.0035 LP  0  0  0  0  0  0  0  0  0  0  0  0  # atno 17321 bound_to 7965
  140.1149  143.4665  152.2348 LP  0  0  0  0  0  0  0  0  0  0  0  0  # atno 17342 bound_to 10162
  139.5749  144.7482  151.3790 LP  0  0  0  0  0  0  0  0  0  0  0  0  # atno 17343 bound_to 10162
  157.7481  131.0380  150.4482 LP  0  0  0  0  0  0  0  0  0  0  0  0  # atno 17370 bound_to 10713
  156.4705  130.4051  149.6521 LP  0  0  0  0  0  0  0  0  0  0  0  0  # atno 17371 bound_to 10713
  141.2062  133.7840  157.0192 LP  0  0  0  0  0  0  0  0  0  0  0  0  # atno 17394 bound_to 11000
  140.0855  134.9623  157.1694 LP  0  0  0  0  0  0  0  0  0  0  0  0  # atno 17395 bound_to 11000

$$$$
