AV-unprocessed.smi:140|AV-procd|sdf|1185|dock2
  -GOLD-   2262018333D 1   1.00000     0.00000
 Structure written by MMmdl.
 52 55  0  0  0  0  0  0  0  0  1 V2000
  146.6559  140.3430  154.1786 C   0  0  0  0  0  0  0  0  0  0  0  0
  147.7356  139.3394  154.4284 C   0  0  0  0  0  0  0  0  0  0  0  0
  149.0860  139.4600  154.2858 C   0  0  0  0  0  0  0  0  0  0  0  0
  149.6921  138.2223  154.6398 C   0  0  0  0  0  0  0  0  0  0  0  0
  151.1366  137.8794  154.6624 C   0  0  0  0  0  0  0  0  0  0  0  0
  151.5650  136.7446  154.4466 O   0  0  0  0  0  0  0  0  0  0  0  0
  152.0939  139.0411  154.9887 C   0  0  0  0  0  0  0  0  0  0  0  0
  152.2337  139.2814  156.4196 N   0  0  0  0  0  0  0  0  0  0  0  0
  152.8584  138.2800  157.2045 C   0  0  0  0  0  0  0  0  0  0  0  0
  153.2780  137.2300  156.7149 O   0  0  0  0  0  0  0  0  0  0  0  0
  152.9698  138.6043  158.6226 C   0  0  0  0  0  0  0  0  0  0  0  0
  153.5386  137.7230  159.4626 F   0  0  0  0  0  0  0  0  0  0  0  0
  152.5125  139.7784  159.1091 C   0  0  0  0  0  0  0  0  0  0  0  0
  151.9172  140.7447  158.3148 N   0  0  0  0  0  0  0  0  0  0  0  0
  151.4281  142.0596  158.8808 C   0  0  2  0  0  0  0  0  0  0  0  0
  152.1949  143.2363  158.2519 C   0  0  0  0  0  0  0  0  0  0  0  0
  152.6025  144.0493  159.4633 C   0  0  0  0  0  0  0  0  0  0  0  0
  152.7554  142.9711  160.5261 C   0  0  0  0  0  0  0  0  0  0  0  0
  151.6629  142.1007  160.2599 O   0  0  0  0  0  0  0  0  0  0  0  0
  151.7661  140.5160  156.9302 C   0  0  0  0  0  0  0  0  0  0  0  0
  151.2564  141.3713  156.2019 O   0  0  0  0  0  0  0  0  0  0  0  0
  148.6805  137.3530  154.9800 C   0  0  0  0  0  0  0  0  0  0  0  0
  148.7174  135.9114  155.4058 C   0  0  0  0  0  0  0  0  0  0  0  0
  147.4750  138.0494  154.8750 N   0  0  0  0  0  0  0  0  0  0  0  0
  146.1463  137.5193  155.1729 C   0  0  0  0  0  0  0  0  0  0  0  0
  145.3405  137.1415  153.9643 C   0  0  0  0  0  0  0  0  0  0  0  0
  144.0783  136.6038  153.9678 C   0  0  0  0  0  0  0  0  0  0  0  0
  143.5636  136.3572  152.6612 C   0  0  0  0  0  0  0  0  0  0  0  0
  144.4398  136.7092  151.6700 C   0  0  0  0  0  0  0  0  0  0  0  0
  145.9183  137.3557  152.3249 S   0  0  0  0  0  0  0  0  0  0  0  0
  147.0601  141.2382  153.7057 H   0  0  0  0  0  0  0  0  0  0  0  0
  146.1810  140.6446  155.1121 H   0  0  0  0  0  0  0  0  0  0  0  0
  145.8887  139.9370  153.5189 H   0  0  0  0  0  0  0  0  0  0  0  0
  149.5894  140.3586  153.9604 H   0  0  0  0  0  0  0  0  0  0  0  0
  153.0889  138.8557  154.5809 H   0  0  0  0  0  0  0  0  0  0  0  0
  151.7573  139.9665  154.5192 H   0  0  0  0  0  0  0  0  0  0  0  0
  152.6276  139.9524  160.1677 H   0  0  0  0  0  0  0  0  0  0  0  0
  150.3513  142.0822  158.7032 H   0  0  0  0  0  0  0  0  0  0  0  0
  153.0783  142.8718  157.7249 H   0  0  0  0  0  0  0  0  0  0  0  0
  151.5655  143.7859  157.5519 H   0  0  0  0  0  0  0  0  0  0  0  0
  153.5143  144.6258  159.3050 H   0  0  0  0  0  0  0  0  0  0  0  0
  151.8034  144.7381  159.7405 H   0  0  0  0  0  0  0  0  0  0  0  0
  153.6993  142.4385  160.4038 H   0  0  0  0  0  0  0  0  0  0  0  0
  152.7129  143.3688  161.5402 H   0  0  0  0  0  0  0  0  0  0  0  0
  149.4654  135.3549  154.8422 H   0  0  0  0  0  0  0  0  0  0  0  0
  147.7708  135.4010  155.2345 H   0  0  0  0  0  0  0  0  0  0  0  0
  148.9610  135.8280  156.4650 H   0  0  0  0  0  0  0  0  0  0  0  0
  146.2532  136.6579  155.8323 H   0  0  0  0  0  0  0  0  0  0  0  0
  145.5939  138.2523  155.7601 H   0  0  0  0  0  0  0  0  0  0  0  0
  143.5092  136.3815  154.8583 H   0  0  0  0  0  0  0  0  0  0  0  0
  142.5827  135.9361  152.4966 H   0  0  0  0  0  0  0  0  0  0  0  0
  144.3083  136.6300  150.6010 H   0  0  0  0  0  0  0  0  0  0  0  0
  1  2  1  0  0  0  0
  1 31  1  0  0  0  0
  1 32  1  0  0  0  0
  1 33  1  0  0  0  0
  2 24  1  0  0  0  0
  2  3  2  0  0  0  0
  3  4  1  0  0  0  0
  3 34  1  0  0  0  0
  4  5  1  0  0  0  0
  4 22  2  0  0  0  0
  5  6  2  0  0  0  0
  5  7  1  0  0  0  0
  7  8  1  0  0  0  0
  7 35  1  0  0  0  0
  7 36  1  0  0  0  0
  8 20  1  0  0  0  0
  8  9  1  0  0  0  0
  9 10  2  0  0  0  0
  9 11  1  0  0  0  0
 11 12  1  0  0  0  0
 11 13  2  0  0  0  0
 13 14  1  0  0  0  0
 13 37  1  0  0  0  0
 14 15  1  0  0  0  0
 14 20  1  0  0  0  0
 15 19  1  0  0  0  0
 15 16  1  0  0  0  0
 15 38  1  0  0  0  0
 16 17  1  0  0  0  0
 16 39  1  0  0  0  0
 16 40  1  0  0  0  0
 17 18  1  0  0  0  0
 17 41  1  0  0  0  0
 17 42  1  0  0  0  0
 18 19  1  0  0  0  0
 18 43  1  0  0  0  0
 18 44  1  0  0  0  0
 20 21  2  0  0  0  0
 22 23  1  0  0  0  0
 22 24  1  0  0  0  0
 23 45  1  0  0  0  0
 23 46  1  0  0  0  0
 23 47  1  0  0  0  0
 24 25  1  0  0  0  0
 25 26  1  0  0  0  0
 25 48  1  0  0  0  0
 25 49  1  0  0  0  0
 26 30  1  0  0  0  0
 26 27  2  0  0  0  0
 27 28  1  0  0  0  0
 27 50  1  0  0  0  0
 28 29  2  0  0  0  0
 28 51  1  0  0  0  0
 29 30  1  0  0  0  0
 29 52  1  0  0  0  0
M  END
> <s_m_source_file>
AV-unprocessed.smi

> <i_m_source_file_index>
140

> <i_lp_mmshare_version>
43012

> <i_f3d_flags>
0

> <s_epik_input>
czFbY0hdW2NIXVtjSF1jMVtDSDJdbjJjKFtDSDNdKWMoW2NIXWMyW0NIM10pQyg9TylbQ0gyXW4zYyg9TyljKEYpW2NIXW4oYzM9TylbQ0BASF00W0NIMl1bQ0gyXVtDSDJdTzQ=

> <s_epik_cmdline>
J2VwaWtfcHl0aG9uJywgJy1waCcsICc3LjAnLCAnLXRuJywgJzgnLCAnLW1hJywgJzIwMCcsICctbWV0YWxfYmluZGluZycsICctaW1hZScsICc8aW5maWxlLm1hZT4nLCAnLW9tYWUnLCAnPG91dGZpbGUubWFlPic=

> <r_lp_tautomer_probability>
1

> <r_epik_Ionization_Penalty>
5.024e-09

> <r_epik_Ionization_Penalty_Charging>
5.01743e-09

> <r_epik_Ionization_Penalty_Neutral>
6.5712e-12

> <r_epik_State_Penalty>
-0

> <r_epik_Charging_Adjusted_Penalty>
5.01743e-09

> <i_epik_Tot_Q>
0

> <i_epik_Tot_abs_Q>
0

> <r_epik_Metal_State_Penalty>
-0

> <b_epik_Metal_Only>
0

> <s_epik_Chemistry_Notes>
This compound contains an acetal/aminal-like group ( X-CH(R)-Y where X, Y are N, S, or O) that may be acid/base labile, releasing an aldehyde.

> <s_lp_Force_Field>
OPLS_2005

> <r_lp_Energy>
39.7817

> <b_lp_Chiralities_Consistent>
1

> <s_lp_Variant>
AV-unprocessed.smi:140-1

> <Gold.Version>
5.8.1

> <Gold.Id.Protein>
6NUR|6NUR_protein|mol2

> <Gold.PLP.Fitness>
47.7565

> <Gold.PLP.PLP>
-44.5626

> <Gold.PLP.part.hbond>
-2.8077

> <Gold.PLP.part.metal>
0.0000

> <Gold.PLP.part.buried>
-6.2932

> <Gold.PLP.part.nonpolar>
-36.6214

> <Gold.PLP.part.repulsive>
0.8014

> <Gold.PLP.ligand.clash>
0.0000

> <Gold.PLP.ligand.torsion>
1.0041

> <Gold.PLP.Chemscore.Hbond>
1.0000

> <Gold.PLP.Chemscore.CHOScore>
0.6623

> <Gold.PLP.Chemscore.Metal>
0.0000

> <Gold.Chemscore.Hbonds>
donor molecule, donor type, donor heavy atom, donor atom, acceptor molecule, acceptor atom, score
      P1  H 10752 10764       L1     6  1.00
      L1  C    29    52       P1 10171  0.59

> <Gold.PLP.Chemscore.Internal.Correction>
0.2151

> <Gold.Rescore>
     Score         DG    S(hbond)    S(metal)    S(lipo)     H(rot)  DE(clash)    DE(int)     intcor
     12.97     -16.73       1.49        0.00      94.39       1.87       0.19       3.56       ----

> <Gold.Chemscore.Fitness>
12.9747

> <Gold.Chemscore.DG>
-16.7251

> <Gold.Chemscore.ZeroCoef>
-5.4800

> <Gold.Chemscore.Hbond>
1.4947

> <Gold.Chemscore.Metal>
0.0000

> <Gold.Chemscore.Lipo>
94.3876

> <Gold.Chemscore.Internal_Hbond>
0.0000

> <Gold.Chemscore.DEClash>
0.1881

> <Gold.Chemscore.DEInternal>
3.5623

> <Gold.Chemscore.Rot>
1.8713

> <Gold.Chemscore.Internal.Correction>
   9.000000E+99

> <Gold.Chemscore.Hbonds>
donor molecule, donor type, donor heavy atom, donor atom, acceptor molecule, acceptor atom, score
      P1  H 10752 10764       L1     6  1.00

> <Gold.Chemscore.Hbond.Weighted>
-4.9922

> <Gold.Chemscore.Metal.Weighted>
-0.0000

> <Gold.Chemscore.Lipo.Weighted>
-11.0434

> <Gold.Chemscore.Internal_Hbond.Weighted>
0.0000

> <Gold.Chemscore.DEClash.Weighted>
0.1881

> <Gold.Chemscore.DEInternal.Weighted>
3.5623

> <Gold.Chemscore.Rot.Weighted>
4.7905

> <Gold.Chemscore.Internal.Correction.Weighted>
   9.000000E+99

> <Gold.Protein.RotatedTorsions>
[ 6907 6896 6895 6894 ] final  104.89 input  -60.11 | X-H torsion
[ 7974 7965 7964 7962 ] final  -60.41 input  175.53 | X-H torsion
[ 8008 7997 7996 7995 ] final    0.84 input   59.86 | X-H torsion
[ 10167 10162 10161 10158 ] final -102.10 input  -65.29 | X-H torsion
[ 10718 10713 10712 10709 ] final  101.06 input   66.30 | X-H torsion
[ 10763 10752 10751 10750 ] final  -80.38 input  -60.55 | X-H torsion
[ 11005 11000 10999 10996 ] final   21.32 input  -57.11 | X-H torsion

> <Gold.Protein.ActiveResidues>
 VAL166  LYS551  ARG553  GLY616  TRP617  ASP618  TYR619  PRO620  LYS621  CYS622 
 ASP623  PHE694  ASN695  SER759  ASP760  ASP761  ALA762  ILE779  LEU786  VAL792 
 PHE793  MET794  SER795  GLU796  ALA797  LYS798  CYS799  TRP800  GLU811  SER814 

> <Gold.Protein.RotatedAtoms>
  152.5249  133.9610  159.7716 H   0  0  0  0  0  0  0  0  0  0  0  0  # atno 6907 bound_to 6896
  150.9901  133.6150  159.2716 H   0  0  0  0  0  0  0  0  0  0  0  0  # atno 6908 bound_to 6896
  151.3297  135.0845  159.9387 H   0  0  0  0  0  0  0  0  0  0  0  0  # atno 6909 bound_to 6896
  145.8158  140.8571  143.0158 H   0  0  0  0  0  0  0  0  0  0  0  0  # atno 7974 bound_to 7965
  154.6728  140.2615  155.6989 H   0  0  0  0  0  0  0  0  0  0  0  0  # atno 8008 bound_to 7997
  156.2666  140.2826  156.1166 H   0  0  0  0  0  0  0  0  0  0  0  0  # atno 8009 bound_to 7997
  155.1144  140.0376  157.2723 H   0  0  0  0  0  0  0  0  0  0  0  0  # atno 8010 bound_to 7997
  140.2342  143.3585  152.0859 H   0  0  0  0  0  0  0  0  0  0  0  0  # atno 10167 bound_to 10162
  157.6839  131.0715  150.5195 H   0  0  0  0  0  0  0  0  0  0  0  0  # atno 10718 bound_to 10713
  154.5505  135.5663  153.6918 H   0  0  0  0  0  0  0  0  0  0  0  0  # atno 10763 bound_to 10752
  152.9988  135.6249  154.2380 H   0  0  0  0  0  0  0  0  0  0  0  0  # atno 10764 bound_to 10752
  154.2315  135.2866  155.2868 H   0  0  0  0  0  0  0  0  0  0  0  0  # atno 10765 bound_to 10752
  140.3929  134.1800  155.7663 H   0  0  0  0  0  0  0  0  0  0  0  0  # atno 11005 bound_to 11000
  144.6752  140.0462  143.7480 LP  0  0  0  0  0  0  0  0  0  0  0  0  # atno 17320 bound_to 7965
  145.9728  139.2882  143.1088 LP  0  0  0  0  0  0  0  0  0  0  0  0  # atno 17321 bound_to 7965
  139.5099  144.6876  151.5847 LP  0  0  0  0  0  0  0  0  0  0  0  0  # atno 17342 bound_to 10162
  140.6162  143.9344  150.6490 LP  0  0  0  0  0  0  0  0  0  0  0  0  # atno 17343 bound_to 10162
  156.5508  130.4231  149.6108 LP  0  0  0  0  0  0  0  0  0  0  0  0  # atno 17370 bound_to 10713
  156.2904  130.7121  151.1968 LP  0  0  0  0  0  0  0  0  0  0  0  0  # atno 17371 bound_to 10713
  141.1884  133.8260  157.0995 LP  0  0  0  0  0  0  0  0  0  0  0  0  # atno 17394 bound_to 11000
  140.0393  134.9862  157.0931 LP  0  0  0  0  0  0  0  0  0  0  0  0  # atno 17395 bound_to 11000

$$$$
