AV-unprocessed.smi:1595|AV-procd|sdf|6415|dock6
  -GOLD-   22720 7 53D 1   1.00000     0.00000
 Structure written by MMmdl.
 29 30  0  0  0  0  0  0  0  0  1 V2000
  153.2098  138.8476  157.0729 O   0  0  0  0  0  0  0  0  0  0  0  0
  152.0928  138.7611  157.5853 C   0  0  0  0  0  0  0  0  0  0  0  0
  151.8872  139.0505  159.0794 C   0  0  0  0  0  0  0  0  0  0  0  0
  152.4528  140.3407  159.5092 N   0  0  0  0  0  0  0  0  0  0  0  0
  151.8624  141.5071  158.9839 C   0  0  0  0  0  0  0  0  0  0  0  0
  152.2928  142.7469  159.2874 C   0  0  0  0  0  0  0  0  0  0  0  0
  151.6072  143.9923  158.7473 C   0  0  0  0  0  0  0  0  0  0  0  0
  151.6212  144.0028  157.4143 F   0  0  0  0  0  0  0  0  0  0  0  0
  150.3368  144.0195  159.1478 F   0  0  0  0  0  0  0  0  0  0  0  0
  152.2043  145.1032  159.1810 F   0  0  0  0  0  0  0  0  0  0  0  0
  153.3939  142.8356  160.2260 C   0  0  0  0  0  0  0  0  0  0  0  0
  153.9677  141.7303  160.7401 C   0  0  0  0  0  0  0  0  0  0  0  0
  153.5053  140.3881  160.3799 C   0  0  0  0  0  0  0  0  0  0  0  0
  154.0292  139.3705  160.8342 O   0  0  0  0  0  0  0  0  0  0  0  0
  150.9891  138.4351  156.8972 N   0  0  0  0  0  0  0  0  0  0  0  0
  150.9388  138.1345  155.5029 C   0  0  0  0  0  0  0  0  0  0  0  0
  151.9848  138.7664  154.6099 C   0  0  0  0  0  0  0  0  0  0  0  0
  150.5634  139.2543  154.5563 C   0  0  0  0  0  0  0  0  0  0  0  0
  150.8168  139.0147  159.2872 H   0  0  0  0  0  0  0  0  0  0  0  0
  152.3175  138.2375  159.6671 H   0  0  0  0  0  0  0  0  0  0  0  0
  151.0363  141.3274  158.3111 H   0  0  0  0  0  0  0  0  0  0  0  0
  153.7687  143.8058  160.5171 H   0  0  0  0  0  0  0  0  0  0  0  0
  154.7890  141.8344  161.4341 H   0  0  0  0  0  0  0  0  0  0  0  0
  150.1150  138.3932  157.4009 H   0  0  0  0  0  0  0  0  0  0  0  0
  150.6061  137.1375  155.2172 H   0  0  0  0  0  0  0  0  0  0  0  0
  152.7227  139.4198  155.0717 H   0  0  0  0  0  0  0  0  0  0  0  0
  152.3464  138.1787  153.7685 H   0  0  0  0  0  0  0  0  0  0  0  0
  149.9754  138.9930  153.6791 H   0  0  0  0  0  0  0  0  0  0  0  0
  150.3515  140.2326  154.9837 H   0  0  0  0  0  0  0  0  0  0  0  0
  1  2  2  0  0  0  0
  2  3  1  0  0  0  0
  2 15  1  0  0  0  0
  3  4  1  0  0  0  0
  3 19  1  0  0  0  0
  3 20  1  0  0  0  0
  4 13  1  0  0  0  0
  4  5  1  0  0  0  0
  5  6  2  0  0  0  0
  5 21  1  0  0  0  0
  6  7  1  0  0  0  0
  6 11  1  0  0  0  0
  7  8  1  0  0  0  0
  7  9  1  0  0  0  0
  7 10  1  0  0  0  0
 11 12  2  0  0  0  0
 11 22  1  0  0  0  0
 12 13  1  0  0  0  0
 12 23  1  0  0  0  0
 13 14  2  0  0  0  0
 15 16  1  0  0  0  0
 15 24  1  0  0  0  0
 16 18  1  0  0  0  0
 16 17  1  0  0  0  0
 16 25  1  0  0  0  0
 17 18  1  0  0  0  0
 17 26  1  0  0  0  0
 17 27  1  0  0  0  0
 18 28  1  0  0  0  0
 18 29  1  0  0  0  0
M  END
> <s_m_source_file>
AV-unprocessed.smi

> <i_m_source_file_index>
1595

> <i_lp_mmshare_version>
43012

> <i_f3d_flags>
0

> <s_epik_input>
W0NIMl0xW0NIMl1bQ0hdMVtOSF1DKD1PKVtDSDJdbjJbY0hdYyhDKEYpKEYpRilbY0hdW2NIXWMyPU8=

> <s_epik_cmdline>
J2VwaWtfcHl0aG9uJywgJy1waCcsICc3LjAnLCAnLXRuJywgJzgnLCAnLW1hJywgJzIwMCcsICctbWV0YWxfYmluZGluZycsICctaW1hZScsICc8aW5maWxlLm1hZT4nLCAnLW9tYWUnLCAnPG91dGZpbGUubWFlPic=

> <r_lp_tautomer_probability>
1

> <r_epik_Ionization_Penalty>
3.87815e-08

> <r_epik_Ionization_Penalty_Charging>
1.81112e-08

> <r_epik_Ionization_Penalty_Neutral>
2.06703e-08

> <r_epik_State_Penalty>
-0

> <r_epik_Charging_Adjusted_Penalty>
1.81112e-08

> <i_epik_Tot_Q>
0

> <i_epik_Tot_abs_Q>
0

> <r_epik_Metal_State_Penalty>
-0

> <b_epik_Metal_Only>
0

> <s_lp_Force_Field>
OPLS_2005

> <r_lp_Energy>
27.3116

> <b_lp_Chiralities_Consistent>
1

> <s_lp_Variant>
AV-unprocessed.smi:1595-1

> <Gold.Version>
5.8.1

> <Gold.Id.Protein>
6NUR|6NUR_protein|mol2

> <Gold.PLP.Fitness>
44.2730

> <Gold.PLP.PLP>
-42.1637

> <Gold.PLP.part.hbond>
-1.0000

> <Gold.PLP.part.metal>
0.0000

> <Gold.PLP.part.buried>
-4.7888

> <Gold.PLP.part.nonpolar>
-36.9660

> <Gold.PLP.part.repulsive>
0.0087

> <Gold.PLP.ligand.clash>
0.0000

> <Gold.PLP.ligand.torsion>
0.4808

> <Gold.PLP.Chemscore.Hbond>
1.0000

> <Gold.PLP.Chemscore.CHOScore>
0.0000

> <Gold.PLP.Chemscore.Metal>
0.0000

> <Gold.Chemscore.Hbonds>
donor molecule, donor type, donor heavy atom, donor atom, acceptor molecule, acceptor atom, score
      P1  H  7997  8010       L1     1  1.00

> <Gold.PLP.Chemscore.Internal.Correction>
0.0710

> <Gold.Rescore>
     Score         DG    S(hbond)    S(metal)    S(lipo)     H(rot)  DE(clash)    DE(int)     intcor
     12.35     -14.18       0.99        0.00      81.59       1.62       0.04       1.79       ----

> <Gold.Chemscore.Fitness>
12.3517

> <Gold.Chemscore.DG>
-14.1786

> <Gold.Chemscore.ZeroCoef>
-5.4800

> <Gold.Chemscore.Hbond>
0.9874

> <Gold.Chemscore.Metal>
0.0000

> <Gold.Chemscore.Lipo>
81.5878

> <Gold.Chemscore.Internal_Hbond>
0.0000

> <Gold.Chemscore.DEClash>
0.0356

> <Gold.Chemscore.DEInternal>
1.7912

> <Gold.Chemscore.Rot>
1.6192

> <Gold.Chemscore.Internal.Correction>
   9.000000E+99

> <Gold.Chemscore.Hbonds>
donor molecule, donor type, donor heavy atom, donor atom, acceptor molecule, acceptor atom, score
      P1  H  7997  8010       L1     1  0.97

> <Gold.Chemscore.Hbond.Weighted>
-3.2980

> <Gold.Chemscore.Metal.Weighted>
-0.0000

> <Gold.Chemscore.Lipo.Weighted>
-9.5458

> <Gold.Chemscore.Internal_Hbond.Weighted>
0.0000

> <Gold.Chemscore.DEClash.Weighted>
0.0356

> <Gold.Chemscore.DEInternal.Weighted>
1.7912

> <Gold.Chemscore.Rot.Weighted>
4.1452

> <Gold.Chemscore.Internal.Correction.Weighted>
   9.000000E+99

> <Gold.Protein.RotatedTorsions>
[ 6907 6896 6895 6894 ] final  136.68 input  -60.11 | X-H torsion
[ 7974 7965 7964 7962 ] final -173.75 input  175.53 | X-H torsion
[ 8008 7997 7996 7995 ] final   39.87 input   59.86 | X-H torsion
[ 10167 10162 10161 10158 ] final  -54.27 input  -65.29 | X-H torsion
[ 10718 10713 10712 10709 ] final   92.47 input   66.30 | X-H torsion
[ 10763 10752 10751 10750 ] final  121.26 input  -60.55 | X-H torsion
[ 11005 11000 10999 10996 ] final  -75.78 input  -57.11 | X-H torsion

> <Gold.Protein.ActiveResidues>
 VAL166  LYS551  ARG553  GLY616  TRP617  ASP618  TYR619  PRO620  LYS621  CYS622 
 ASP623  PHE694  ASN695  SER759  ASP760  ASP761  ALA762  ILE779  LEU786  VAL792 
 PHE793  MET794  SER795  GLU796  ALA797  LYS798  CYS799  TRP800  GLU811  SER814 

> <Gold.Protein.RotatedAtoms>
  152.2866  133.5521  159.5530 H   0  0  0  0  0  0  0  0  0  0  0  0  # atno 6907 bound_to 6896
  150.7218  134.0488  159.3800 H   0  0  0  0  0  0  0  0  0  0  0  0  # atno 6908 bound_to 6896
  151.8396  135.0595  160.0497 H   0  0  0  0  0  0  0  0  0  0  0  0  # atno 6909 bound_to 6896
  144.7136  140.1576  143.6379 H   0  0  0  0  0  0  0  0  0  0  0  0  # atno 7974 bound_to 7965
  155.2438  140.3347  155.4289 H   0  0  0  0  0  0  0  0  0  0  0  0  # atno 8008 bound_to 7997
  156.2244  140.1823  156.7442 H   0  0  0  0  0  0  0  0  0  0  0  0  # atno 8009 bound_to 7997
  154.5876  140.0643  156.9178 H   0  0  0  0  0  0  0  0  0  0  0  0  # atno 8010 bound_to 7997
  140.6439  143.2524  151.4913 H   0  0  0  0  0  0  0  0  0  0  0  0  # atno 10167 bound_to 10162
  157.6958  131.0444  150.3887 H   0  0  0  0  0  0  0  0  0  0  0  0  # atno 10718 bound_to 10713
  153.6114  135.3430  155.2980 H   0  0  0  0  0  0  0  0  0  0  0  0  # atno 10763 bound_to 10752
  154.8618  135.4251  154.2306 H   0  0  0  0  0  0  0  0  0  0  0  0  # atno 10764 bound_to 10752
  153.3157  135.7035  153.7147 H   0  0  0  0  0  0  0  0  0  0  0  0  # atno 10765 bound_to 10752
  141.1648  133.6959  156.7569 H   0  0  0  0  0  0  0  0  0  0  0  0  # atno 11005 bound_to 11000
  145.9060  139.2458  143.1465 LP  0  0  0  0  0  0  0  0  0  0  0  0  # atno 17320 bound_to 7965
  145.9764  140.8719  143.0137 LP  0  0  0  0  0  0  0  0  0  0  0  0  # atno 17321 bound_to 7965
  139.5649  144.2066  152.1749 LP  0  0  0  0  0  0  0  0  0  0  0  0  # atno 17342 bound_to 10162
  140.1345  144.5258  150.6782 LP  0  0  0  0  0  0  0  0  0  0  0  0  # atno 17343 bound_to 10162
  156.4293  130.3969  149.6771 LP  0  0  0  0  0  0  0  0  0  0  0  0  # atno 17370 bound_to 10713
  156.3994  130.7667  151.2674 LP  0  0  0  0  0  0  0  0  0  0  0  0  # atno 17371 bound_to 10713
  140.2562  134.8502  157.3715 LP  0  0  0  0  0  0  0  0  0  0  0  0  # atno 17394 bound_to 11000
  140.1654  134.4675  155.7866 LP  0  0  0  0  0  0  0  0  0  0  0  0  # atno 17395 bound_to 11000

$$$$
