AV-unprocessed.smi:2294|AV-procd|sdf|9216|dock9
  -GOLD-   2272012433D 1   1.00000     0.00000
 Structure written by MMmdl.
 34 35  0  0  0  0  0  0  0  0  1 V2000
  152.5495  143.5666  161.7442 C   0  0  0  0  0  0  0  0  0  0  0  0
  152.1893  143.1361  160.3334 C   0  0  0  0  0  0  0  0  0  0  0  0
  151.4287  144.0505  159.5992 N   0  0  0  0  0  0  0  0  0  0  0  0
  151.0754  143.7689  158.3879 C   0  0  0  0  0  0  0  0  0  0  0  0
  151.4380  142.5576  157.7748 N   0  0  0  0  0  0  0  0  0  0  0  0
  150.9690  142.3595  156.3924 C   0  0  0  0  0  0  0  0  0  0  0  0
  150.1913  141.0356  156.2191 C   0  0  2  0  0  0  0  0  0  0  0  0
  150.9393  140.1681  155.3892 O   0  0  0  0  0  0  0  0  0  0  0  0
  148.8025  141.2965  155.6490 C   0  0  0  0  0  0  0  0  0  0  0  0
  148.5284  141.0479  154.2848 C   0  0  0  0  0  0  0  0  0  0  0  0
  147.2468  141.2995  153.7581 C   0  0  0  0  0  0  0  0  0  0  0  0
  146.2304  141.8057  154.5898 C   0  0  0  0  0  0  0  0  0  0  0  0
  146.4981  142.0639  155.9474 C   0  0  0  0  0  0  0  0  0  0  0  0
  147.7795  141.8134  156.4765 C   0  0  0  0  0  0  0  0  0  0  0  0
  148.0213  142.0780  157.7831 F   0  0  0  0  0  0  0  0  0  0  0  0
  152.1757  141.6091  158.4213 C   0  0  0  0  0  0  0  0  0  0  0  0
  152.4869  140.5477  157.8781 O   0  0  0  0  0  0  0  0  0  0  0  0
  152.5698  141.9433  159.7998 C   0  0  0  0  0  0  0  0  0  0  0  0
  153.3965  140.9082  160.5532 C   0  0  0  0  0  0  0  0  0  0  0  0
  152.1369  142.8691  162.4735 H   0  0  0  0  0  0  0  0  0  0  0  0
  152.1555  144.5583  161.9696 H   0  0  0  0  0  0  0  0  0  0  0  0
  153.6320  143.6025  161.8686 H   0  0  0  0  0  0  0  0  0  0  0  0
  150.4764  144.4442  157.7739 H   0  0  0  0  0  0  0  0  0  0  0  0
  150.3130  143.1934  156.1327 H   0  0  0  0  0  0  0  0  0  0  0  0
  151.7818  142.4265  155.6665 H   0  0  0  0  0  0  0  0  0  0  0  0
  150.0803  140.5371  157.1825 H   0  0  0  0  0  0  0  0  0  0  0  0
  151.1350  139.3819  155.8758 H   0  0  0  0  0  0  0  0  0  0  0  0
  149.3014  140.6657  153.6342 H   0  0  0  0  0  0  0  0  0  0  0  0
  147.0447  141.1054  152.7150 H   0  0  0  0  0  0  0  0  0  0  0  0
  145.2475  141.9991  154.1858 H   0  0  0  0  0  0  0  0  0  0  0  0
  145.7198  142.4571  156.5846 H   0  0  0  0  0  0  0  0  0  0  0  0
  154.3287  140.7129  160.0226 H   0  0  0  0  0  0  0  0  0  0  0  0
  152.8467  139.9694  160.6284 H   0  0  0  0  0  0  0  0  0  0  0  0
  153.6548  141.2175  161.5646 H   0  0  0  0  0  0  0  0  0  0  0  0
  1  2  1  0  0  0  0
  1 20  1  0  0  0  0
  1 21  1  0  0  0  0
  1 22  1  0  0  0  0
  2 18  2  0  0  0  0
  2  3  1  0  0  0  0
  3  4  2  0  0  0  0
  4  5  1  0  0  0  0
  4 23  1  0  0  0  0
  5  6  1  0  0  0  0
  5 16  1  0  0  0  0
  6  7  1  0  0  0  0
  6 24  1  0  0  0  0
  6 25  1  0  0  0  0
  7  8  1  0  0  0  0
  7  9  1  0  0  0  0
  7 26  1  0  0  0  0
  8 27  1  0  0  0  0
  9 14  1  0  0  0  0
  9 10  2  0  0  0  0
 10 11  1  0  0  0  0
 10 28  1  0  0  0  0
 11 12  2  0  0  0  0
 11 29  1  0  0  0  0
 12 13  1  0  0  0  0
 12 30  1  0  0  0  0
 13 14  2  0  0  0  0
 13 31  1  0  0  0  0
 14 15  1  0  0  0  0
 16 17  2  0  0  0  0
 16 18  1  0  0  0  0
 18 19  1  0  0  0  0
 19 32  1  0  0  0  0
 19 33  1  0  0  0  0
 19 34  1  0  0  0  0
M  END
> <s_m_source_file>
AV-unprocessed.smi

> <i_m_source_file_index>
2294

> <i_lp_mmshare_version>
43012

> <i_f3d_flags>
0

> <s_epik_input>
W0NIM11jMW5bY0hdbihjKD1PKWMxW0NIM10pW0NIMl1bQ0BIXShbT0hdKWMyW2NIXVtjSF1bY0hdW2NIXWMyRg==

> <s_epik_cmdline>
J2VwaWtfcHl0aG9uJywgJy1waCcsICc3LjAnLCAnLXRuJywgJzgnLCAnLW1hJywgJzIwMCcsICctbWV0YWxfYmluZGluZycsICctaW1hZScsICc8aW5maWxlLm1hZT4nLCAnLW9tYWUnLCAnPG91dGZpbGUubWFlPic=

> <r_lp_tautomer_probability>
1

> <r_epik_Ionization_Penalty>
5.07259e-05

> <r_epik_Ionization_Penalty_Charging>
7.56727e-08

> <r_epik_Ionization_Penalty_Neutral>
5.06502e-05

> <r_epik_State_Penalty>
-0

> <r_epik_Charging_Adjusted_Penalty>
7.56727e-08

> <i_epik_Tot_Q>
0

> <i_epik_Tot_abs_Q>
0

> <r_epik_Metal_State_Penalty>
-0

> <b_epik_Metal_Only>
0

> <s_lp_Force_Field>
OPLS_2005

> <r_lp_Energy>
20.4384

> <b_lp_Chiralities_Consistent>
1

> <s_lp_Variant>
AV-unprocessed.smi:2294-1

> <Gold.Version>
5.8.1

> <Gold.Id.Protein>
6NUR|6NUR_protein|mol2

> <Gold.PLP.Fitness>
45.3393

> <Gold.PLP.PLP>
-40.3236

> <Gold.PLP.part.hbond>
-2.0000

> <Gold.PLP.part.metal>
0.0000

> <Gold.PLP.part.buried>
-4.1771

> <Gold.PLP.part.nonpolar>
-32.5631

> <Gold.PLP.part.repulsive>
0.0576

> <Gold.PLP.ligand.clash>
0.0000

> <Gold.PLP.ligand.torsion>
1.2490

> <Gold.PLP.Chemscore.Hbond>
1.5304

> <Gold.PLP.Chemscore.CHOScore>
0.9716

> <Gold.PLP.Chemscore.Metal>
0.0000

> <Gold.Chemscore.Hbonds>
donor molecule, donor type, donor heavy atom, donor atom, acceptor molecule, acceptor atom, score
      P1  H  7989  7998       L1     8  0.75
      P1  H  7997  8008       L1    17  0.32
      L1  C     4    23       P1  8028  0.76

> <Gold.PLP.Chemscore.Internal.Correction>
0.0076

> <Gold.Rescore>
     Score         DG    S(hbond)    S(metal)    S(lipo)     H(rot)  DE(clash)    DE(int)     intcor
     14.19     -16.52       1.77        0.00      87.97       2.02       0.02       2.31       ----

> <Gold.Chemscore.Fitness>
14.1896

> <Gold.Chemscore.DG>
-16.5160

> <Gold.Chemscore.ZeroCoef>
-5.4800

> <Gold.Chemscore.Hbond>
1.7695

> <Gold.Chemscore.Metal>
0.0000

> <Gold.Chemscore.Lipo>
87.9669

> <Gold.Chemscore.Internal_Hbond>
0.0000

> <Gold.Chemscore.DEClash>
0.0205

> <Gold.Chemscore.DEInternal>
2.3060

> <Gold.Chemscore.Rot>
2.0181

> <Gold.Chemscore.Internal.Correction>
   9.000000E+99

> <Gold.Chemscore.Hbonds>
donor molecule, donor type, donor heavy atom, donor atom, acceptor molecule, acceptor atom, score
      P1  H  7989  7998       L1     8  0.71
      P1  H  7997  8008       L1    17  0.33

> <Gold.Chemscore.Hbond.Weighted>
-5.9103

> <Gold.Chemscore.Metal.Weighted>
-0.0000

> <Gold.Chemscore.Lipo.Weighted>
-10.2921

> <Gold.Chemscore.Internal_Hbond.Weighted>
0.0000

> <Gold.Chemscore.DEClash.Weighted>
0.0205

> <Gold.Chemscore.DEInternal.Weighted>
2.3060

> <Gold.Chemscore.Rot.Weighted>
5.1663

> <Gold.Chemscore.Internal.Correction.Weighted>
   9.000000E+99

> <Gold.Protein.RotatedTorsions>
[ 6907 6896 6895 6894 ] final  -30.18 input  -60.11 | X-H torsion
[ 7974 7965 7964 7962 ] final  -45.97 input  175.53 | X-H torsion
[ 8008 7997 7996 7995 ] final  -66.38 input   59.86 | X-H torsion
[ 10167 10162 10161 10158 ] final -121.75 input  -65.29 | X-H torsion
[ 10718 10713 10712 10709 ] final  166.39 input   66.30 | X-H torsion
[ 10763 10752 10751 10750 ] final    1.13 input  -60.55 | X-H torsion
[ 11005 11000 10999 10996 ] final  -23.64 input  -57.11 | X-H torsion

> <Gold.Protein.ActiveResidues>
 VAL166  LYS551  ARG553  GLY616  TRP617  ASP618  TYR619  PRO620  LYS621  CYS622 
 ASP623  PHE694  ASN695  SER759  ASP760  ASP761  ALA762  ILE779  LEU786  VAL792 
 PHE793  MET794  SER795  GLU796  ALA797  LYS798  CYS799  TRP800  GLU811  SER814 

> <Gold.Protein.RotatedAtoms>
  151.1090  135.0016  159.8484 H   0  0  0  0  0  0  0  0  0  0  0  0  # atno 6907 bound_to 6896
  152.5442  134.1859  159.8664 H   0  0  0  0  0  0  0  0  0  0  0  0  # atno 6908 bound_to 6896
  151.1907  133.4624  159.2628 H   0  0  0  0  0  0  0  0  0  0  0  0  # atno 6909 bound_to 6896
  145.9766  140.7327  142.9384 H   0  0  0  0  0  0  0  0  0  0  0  0  # atno 7974 bound_to 7965
  154.4731  140.0914  156.7194 H   0  0  0  0  0  0  0  0  0  0  0  0  # atno 8008 bound_to 7997
  155.4670  140.3463  155.4302 H   0  0  0  0  0  0  0  0  0  0  0  0  # atno 8009 bound_to 7997
  156.1072  140.1438  156.9377 H   0  0  0  0  0  0  0  0  0  0  0  0  # atno 8010 bound_to 7997
  140.0217  143.5338  152.2218 H   0  0  0  0  0  0  0  0  0  0  0  0  # atno 10167 bound_to 10162
  157.0665  131.0354  151.2627 H   0  0  0  0  0  0  0  0  0  0  0  0  # atno 10718 bound_to 10713
  153.3119  135.6963  153.7108 H   0  0  0  0  0  0  0  0  0  0  0  0  # atno 10763 bound_to 10752
  153.5982  135.3467  155.2936 H   0  0  0  0  0  0  0  0  0  0  0  0  # atno 10764 bound_to 10752
  154.8577  135.4334  154.2259 H   0  0  0  0  0  0  0  0  0  0  0  0  # atno 10765 bound_to 10752
  140.8771  133.7680  156.0256 H   0  0  0  0  0  0  0  0  0  0  0  0  # atno 11005 bound_to 11000
  144.6850  140.2839  143.7288 LP  0  0  0  0  0  0  0  0  0  0  0  0  # atno 17320 bound_to 7965
  145.7829  139.1898  143.2147 LP  0  0  0  0  0  0  0  0  0  0  0  0  # atno 17321 bound_to 7965
  139.6135  144.7614  151.2897 LP  0  0  0  0  0  0  0  0  0  0  0  0  # atno 17342 bound_to 10162
  140.7340  143.6779  150.8025 LP  0  0  0  0  0  0  0  0  0  0  0  0  # atno 17343 bound_to 10162
  157.4912  130.7823  149.7510 LP  0  0  0  0  0  0  0  0  0  0  0  0  # atno 17370 bound_to 10713
  155.9963  130.3907  150.2785 LP  0  0  0  0  0  0  0  0  0  0  0  0  # atno 17371 bound_to 10713
  140.8505  134.2959  157.5277 LP  0  0  0  0  0  0  0  0  0  0  0  0  # atno 17394 bound_to 11000
  139.8716  134.9465  156.3941 LP  0  0  0  0  0  0  0  0  0  0  0  0  # atno 17395 bound_to 11000

$$$$
