AV-unprocessed.smi:86|AV-procd|sdf|812|dock5
  -GOLD-   2262017213D 1   1.00000     0.00000
 Structure written by MMmdl.
 51 55  0  0  0  0  0  0  0  0  1 V2000
  154.5617  143.6193  170.1839 O   0  0  0  0  0  0  0  0  0  0  0  0
  155.3244  143.7592  169.0026 C   0  0  0  0  0  0  0  0  0  0  0  0
  155.8422  142.3985  168.5046 C   0  0  0  0  0  0  0  0  0  0  0  0
  156.5860  142.5624  167.1636 C   0  0  0  0  0  0  0  0  0  0  0  0
  155.7028  142.7270  166.0187 N   0  0  0  0  0  0  0  0  0  0  0  0
  154.8292  143.7659  165.7931 C   0  0  0  0  0  0  0  0  0  0  0  0
  154.1400  143.6823  164.6886 N   0  0  0  0  0  0  0  0  0  0  0  0
  154.5816  142.5056  164.0930 C   0  0  0  0  0  0  0  0  0  0  0  0
  154.2598  141.8115  162.8891 C   0  0  0  0  0  0  0  0  0  0  0  0
  153.3421  142.2366  161.9838 N   0  0  0  0  0  0  0  0  0  0  0  0
  152.6887  143.5403  162.0819 C   0  0  0  0  0  0  0  0  0  0  0  0
  152.4222  143.9335  160.6275 C   0  0  2  0  0  0  0  0  0  0  0  0
  151.2558  144.8783  160.3156 C   0  0  0  0  0  0  0  0  0  0  0  0
  151.1476  145.0547  158.7850 C   0  0  0  0  0  0  0  0  0  0  0  0
  151.0600  143.7002  158.0386 C   0  0  1  0  0  0  0  0  0  0  0  0
  151.0928  143.9269  156.6454 O   0  0  0  0  0  0  0  0  0  0  0  0
  152.2007  142.7332  158.4305 C   0  0  0  0  0  0  0  0  0  0  0  0
  152.2169  142.5825  159.9562 C   0  0  1  0  0  0  0  0  0  0  0  0
  153.3183  141.7488  160.6062 C   0  0  0  0  0  0  0  0  0  0  0  0
  154.9083  140.6403  162.6543 N   0  0  0  0  0  0  0  0  0  0  0  0
  155.8187  140.1832  163.5182 C   0  0  0  0  0  0  0  0  0  0  0  0
  156.2227  140.7255  164.6672 N   0  0  0  0  0  0  0  0  0  0  0  0
  155.5675  141.8941  164.9204 C   0  0  0  0  0  0  0  0  0  0  0  0
  156.5626  141.5665  169.5755 C   0  0  0  0  0  0  0  0  0  0  0  0
  155.4050  140.7314  169.7872 O   0  0  0  0  0  0  0  0  0  0  0  0
  154.8230  141.2526  168.5733 C   0  0  0  0  0  0  0  0  0  0  0  0
  154.6866  144.3911  170.7146 H   0  0  0  0  0  0  0  0  0  0  0  0
  154.7227  144.2640  168.2468 H   0  0  0  0  0  0  0  0  0  0  0  0
  156.1562  144.4295  169.2221 H   0  0  0  0  0  0  0  0  0  0  0  0
  157.2436  143.4319  167.1977 H   0  0  0  0  0  0  0  0  0  0  0  0
  157.2421  141.7113  166.9776 H   0  0  0  0  0  0  0  0  0  0  0  0
  154.7135  144.5932  166.4777 H   0  0  0  0  0  0  0  0  0  0  0  0
  151.7588  143.4339  162.6414 H   0  0  0  0  0  0  0  0  0  0  0  0
  153.3122  144.2852  162.5772 H   0  0  0  0  0  0  0  0  0  0  0  0
  153.3390  144.3806  160.2369 H   0  0  0  0  0  0  0  0  0  0  0  0
  150.3247  144.4710  160.7117 H   0  0  0  0  0  0  0  0  0  0  0  0
  151.4096  145.8443  160.7975 H   0  0  0  0  0  0  0  0  0  0  0  0
  150.2793  145.6696  158.5463 H   0  0  0  0  0  0  0  0  0  0  0  0
  152.0198  145.6072  158.4316 H   0  0  0  0  0  0  0  0  0  0  0  0
  150.1037  143.2312  158.2740 H   0  0  0  0  0  0  0  0  0  0  0  0
  150.4046  144.5354  156.4243 H   0  0  0  0  0  0  0  0  0  0  0  0
  152.0570  141.7616  157.9563 H   0  0  0  0  0  0  0  0  0  0  0  0
  153.1612  143.1174  158.0830 H   0  0  0  0  0  0  0  0  0  0  0  0
  151.2563  142.1711  160.2741 H   0  0  0  0  0  0  0  0  0  0  0  0
  154.2823  141.9324  160.1295 H   0  0  0  0  0  0  0  0  0  0  0  0
  153.1010  140.6812  160.5585 H   0  0  0  0  0  0  0  0  0  0  0  0
  156.2900  139.2491  163.2505 H   0  0  0  0  0  0  0  0  0  0  0  0
  157.4075  140.9877  169.1999 H   0  0  0  0  0  0  0  0  0  0  0  0
  156.8430  142.1316  170.4652 H   0  0  0  0  0  0  0  0  0  0  0  0
  153.7912  141.5796  168.7089 H   0  0  0  0  0  0  0  0  0  0  0  0
  154.8997  140.5404  167.7499 H   0  0  0  0  0  0  0  0  0  0  0  0
  1  2  1  0  0  0  0
  1 27  1  0  0  0  0
  2  3  1  0  0  0  0
  2 28  1  0  0  0  0
  2 29  1  0  0  0  0
  3 26  1  0  0  0  0
  3  4  1  0  0  0  0
  3 24  1  0  0  0  0
  4  5  1  0  0  0  0
  4 30  1  0  0  0  0
  4 31  1  0  0  0  0
  5 23  1  0  0  0  0
  5  6  1  0  0  0  0
  6  7  2  0  0  0  0
  6 32  1  0  0  0  0
  7  8  1  0  0  0  0
  8 23  2  0  0  0  0
  8  9  1  0  0  0  0
  9 10  1  0  0  0  0
  9 20  2  0  0  0  0
 10 19  1  0  0  0  0
 10 11  1  0  0  0  0
 11 12  1  0  0  0  0
 11 33  1  0  0  0  0
 11 34  1  0  0  0  0
 12 18  1  0  0  0  0
 12 13  1  0  0  0  0
 12 35  1  0  0  0  0
 13 14  1  0  0  0  0
 13 36  1  0  0  0  0
 13 37  1  0  0  0  0
 14 15  1  0  0  0  0
 14 38  1  0  0  0  0
 14 39  1  0  0  0  0
 15 16  1  0  0  0  0
 15 17  1  0  0  0  0
 15 40  1  0  0  0  0
 16 41  1  0  0  0  0
 17 18  1  0  0  0  0
 17 42  1  0  0  0  0
 17 43  1  0  0  0  0
 18 19  1  0  0  0  0
 18 44  1  0  0  0  0
 19 45  1  0  0  0  0
 19 46  1  0  0  0  0
 20 21  1  0  0  0  0
 21 22  2  0  0  0  0
 21 47  1  0  0  0  0
 22 23  1  0  0  0  0
 24 25  1  0  0  0  0
 24 48  1  0  0  0  0
 24 49  1  0  0  0  0
 25 26  1  0  0  0  0
 26 50  1  0  0  0  0
 26 51  1  0  0  0  0
M  END
> <s_m_source_file>
AV-unprocessed.smi

> <i_m_source_file_index>
86

> <i_lp_mmshare_version>
43012

> <i_f3d_flags>
0

> <s_epik_input>
W0NIMl0xT1tDSDJdQzEoW0NIMl1bT0hdKVtDSDJdbihbY0hdbjIpYyhjMjMpbltjSF1uYzNOKFtDSDJdNClbQ0gyXVtDQEBIXShbQ0BIXTQ1KVtDSDJdW0NASF0oW09IXSlbQ0gyXVtDSDJdNQ==

> <s_epik_cmdline>
J2VwaWtfcHl0aG9uJywgJy1waCcsICc3LjAnLCAnLXRuJywgJzgnLCAnLW1hJywgJzIwMCcsICctbWV0YWxfYmluZGluZycsICctaW1hZScsICc8aW5maWxlLm1hZT4nLCAnLW9tYWUnLCAnPG91dGZpbGUubWFlPic=

> <r_lp_tautomer_probability>
1

> <r_epik_Ionization_Penalty>
0.00425795

> <r_epik_Ionization_Penalty_Charging>
0

> <r_epik_Ionization_Penalty_Neutral>
0.00425795

> <r_epik_State_Penalty>
0.00299946

> <r_epik_Charging_Adjusted_Penalty>
0.00299946

> <i_epik_Tot_Q>
0

> <i_epik_Tot_abs_Q>
0

> <r_epik_Metal_State_Penalty>
-0

> <b_epik_Metal_Only>
0

> <s_lp_Force_Field>
OPLS_2005

> <r_lp_Energy>
53.7305

> <b_lp_Chiralities_Consistent>
1

> <s_lp_Variant>
AV-unprocessed.smi:86-1

> <Gold.Version>
5.8.1

> <Gold.Id.Protein>
6NUR|6NUR_protein|mol2

> <Gold.PLP.Fitness>
58.3396

> <Gold.PLP.PLP>
-55.7770

> <Gold.PLP.part.hbond>
-3.7434

> <Gold.PLP.part.metal>
0.0000

> <Gold.PLP.part.buried>
-3.3728

> <Gold.PLP.part.nonpolar>
-48.2845

> <Gold.PLP.part.repulsive>
0.2058

> <Gold.PLP.ligand.clash>
0.0000

> <Gold.PLP.ligand.torsion>
0.4563

> <Gold.PLP.Chemscore.Hbond>
0.9920

> <Gold.PLP.Chemscore.CHOScore>
0.0000

> <Gold.PLP.Chemscore.Metal>
0.0000

> <Gold.Chemscore.Hbonds>
donor molecule, donor type, donor heavy atom, donor atom, acceptor molecule, acceptor atom, score
      L1  H    16    41       P1  8028  0.94

> <Gold.PLP.Chemscore.Internal.Correction>
0.4990

> <Gold.Rescore>
     Score         DG    S(hbond)    S(metal)    S(lipo)     H(rot)  DE(clash)    DE(int)     intcor
     11.53     -15.77       0.92        0.00     122.07       2.76       1.83       2.41       ----

> <Gold.Chemscore.Fitness>
11.5320

> <Gold.Chemscore.DG>
-15.7737

> <Gold.Chemscore.ZeroCoef>
-5.4800

> <Gold.Chemscore.Hbond>
0.9237

> <Gold.Chemscore.Metal>
0.0000

> <Gold.Chemscore.Lipo>
122.0689

> <Gold.Chemscore.Internal_Hbond>
0.0000

> <Gold.Chemscore.DEClash>
1.8339

> <Gold.Chemscore.DEInternal>
2.4078

> <Gold.Chemscore.Rot>
2.7630

> <Gold.Chemscore.Internal.Correction>
   9.000000E+99

> <Gold.Chemscore.Hbonds>
donor molecule, donor type, donor heavy atom, donor atom, acceptor molecule, acceptor atom, score
      L1  H    16    41       P1  8028  0.90

> <Gold.Chemscore.Hbond.Weighted>
-3.0850

> <Gold.Chemscore.Metal.Weighted>
-0.0000

> <Gold.Chemscore.Lipo.Weighted>
-14.2821

> <Gold.Chemscore.Internal_Hbond.Weighted>
0.0000

> <Gold.Chemscore.DEClash.Weighted>
1.8339

> <Gold.Chemscore.DEInternal.Weighted>
2.4078

> <Gold.Chemscore.Rot.Weighted>
7.0734

> <Gold.Chemscore.Internal.Correction.Weighted>
   9.000000E+99

> <Gold.Protein.RotatedTorsions>
[ 6907 6896 6895 6894 ] final  110.59 input  -60.11 | X-H torsion
[ 7974 7965 7964 7962 ] final -142.77 input  175.53 | X-H torsion
[ 8008 7997 7996 7995 ] final  -45.67 input   59.86 | X-H torsion
[ 10167 10162 10161 10158 ] final -159.47 input  -65.29 | X-H torsion
[ 10718 10713 10712 10709 ] final  -14.56 input   66.30 | X-H torsion
[ 10763 10752 10751 10750 ] final   66.86 input  -60.55 | X-H torsion
[ 11005 11000 10999 10996 ] final  111.09 input  -57.11 | X-H torsion

> <Gold.Protein.ActiveResidues>
 VAL166  LYS551  ARG553  GLY616  TRP617  ASP618  TYR619  PRO620  LYS621  CYS622 
 ASP623  PHE694  ASN695  SER759  ASP760  ASP761  ALA762  ILE779  LEU786  VAL792 
 PHE793  MET794  SER795  GLU796  ALA797  LYS798  CYS799  TRP800  GLU811  SER814 

> <Gold.Protein.RotatedAtoms>
  152.5012  133.8779  159.7330 H   0  0  0  0  0  0  0  0  0  0  0  0  # atno 6907 bound_to 6896
  150.9249  133.6827  159.2830 H   0  0  0  0  0  0  0  0  0  0  0  0  # atno 6908 bound_to 6896
  151.4192  135.1000  159.9661 H   0  0  0  0  0  0  0  0  0  0  0  0  # atno 6909 bound_to 6896
  144.8418  140.5917  143.5447 H   0  0  0  0  0  0  0  0  0  0  0  0  # atno 7974 bound_to 7965
  154.4002  140.1391  156.3886 H   0  0  0  0  0  0  0  0  0  0  0  0  # atno 8008 bound_to 7997
  155.7935  140.3478  155.5342 H   0  0  0  0  0  0  0  0  0  0  0  0  # atno 8009 bound_to 7997
  155.8555  140.0948  157.1638 H   0  0  0  0  0  0  0  0  0  0  0  0  # atno 8010 bound_to 7997
  139.6612  143.9909  152.2226 H   0  0  0  0  0  0  0  0  0  0  0  0  # atno 10167 bound_to 10162
  156.6142  130.4858  149.6190 H   0  0  0  0  0  0  0  0  0  0  0  0  # atno 10718 bound_to 10713
  153.0159  135.5305  154.6890 H   0  0  0  0  0  0  0  0  0  0  0  0  # atno 10763 bound_to 10752
  154.6030  135.2870  155.0517 H   0  0  0  0  0  0  0  0  0  0  0  0  # atno 10764 bound_to 10752
  154.1567  135.6554  153.5028 H   0  0  0  0  0  0  0  0  0  0  0  0  # atno 10765 bound_to 10752
  139.8896  134.9500  156.6379 H   0  0  0  0  0  0  0  0  0  0  0  0  # atno 11005 bound_to 11000
  145.4678  139.1506  143.3831 LP  0  0  0  0  0  0  0  0  0  0  0  0  # atno 17320 bound_to 7965
  146.2710  140.4810  142.8814 LP  0  0  0  0  0  0  0  0  0  0  0  0  # atno 17321 bound_to 7965
  139.9648  144.6533  150.8045 LP  0  0  0  0  0  0  0  0  0  0  0  0  # atno 17342 bound_to 10162
  140.7581  143.3099  151.2869 LP  0  0  0  0  0  0  0  0  0  0  0  0  # atno 17343 bound_to 10162
  156.2365  130.6826  151.1514 LP  0  0  0  0  0  0  0  0  0  0  0  0  # atno 17370 bound_to 10713
  157.7246  131.0659  150.5989 LP  0  0  0  0  0  0  0  0  0  0  0  0  # atno 17371 bound_to 10713
  140.7616  133.8812  155.8423 LP  0  0  0  0  0  0  0  0  0  0  0  0  # atno 17394 bound_to 11000
  140.9917  134.1270  157.4402 LP  0  0  0  0  0  0  0  0  0  0  0  0  # atno 17395 bound_to 11000

$$$$
