#       Name:                AV-unprocessed.smi:682
#       Creating user name   scv26
#       Creation time:       Fri Mar 27 00:29:33 2020


#       File generated by GOLD software.
#

@<TRIPOS>MOLECULE
AV-unprocessed.smi:682
    46    47     1
SMALL
NO_CHARGES


@<TRIPOS>ATOM
      1 ****        -0.8362  -3.2385   1.6781 C.3            1 S1                 0.0000
      2 ****        -1.1447  -2.3062   0.6491 O.3            1 S1                 0.0000
      3 ****        -2.3672  -1.5667   0.7714 C.3            1 S1                 0.0000
      4 ****        -3.5604  -2.5255   0.8751 C.3            1 S1                 0.0000
      5 ****        -2.2092  -0.4454   1.8158 C.3            1 S1                 0.0000
      6 ****        -1.6857   0.4722   0.7087 C.3            1 S1                 0.0000
      7 ****        -0.2241   0.4471   0.6475 N.am           1 S1                 0.0000
      8 ****         0.5317   1.3705   0.0396 C.2            1 S1                 0.0000
      9 ****         0.0729   2.3697  -0.5139 O.2            1 S1                 0.0000
     10 ****         1.8341   1.0512   0.1049 N.am           1 S1                 0.0000
     11 ****         2.9225   1.7742  -0.4435 C.2            1 S1                 0.0000
     12 ****         2.9256   3.0347  -1.1052 C.2            1 S1                 0.0000
     13 ****         4.1518   3.3739  -1.4748 N.2            1 S1                 0.0000
     14 ****         4.9399   2.3523  -1.0608 N.pl3          1 S1                 0.0000
     15 ****         6.3635   2.4078  -1.3162 C.3            1 S1                 0.0000
     16 ****         4.2206   1.3609  -0.4238 C.2            1 S1                 0.0000
     17 ****        -2.3829  -0.4527  -0.3261 C.3            1 S1                 0.0000
     18 ****        -1.6515  -0.7600  -1.6435 C.3            1 S1                 0.0000
     19 ****        -3.7721   0.0510  -0.7452 C.3            1 S1                 0.0000
     20 ****         0.1837  -3.5960   1.5374 H              1 S1                 0.0000
     21 ****        -1.4898  -4.1097   1.6399 H              1 S1                 0.0000
     22 ****        -0.8976  -2.7977   2.6724 H              1 S1                 0.0000
     23 ****        -4.5109  -1.9931   0.8714 H              1 S1                 0.0000
     24 ****        -3.5424  -3.1010   1.8002 H              1 S1                 0.0000
     25 ****        -3.5768  -3.2288   0.0424 H              1 S1                 0.0000
     26 ****        -3.1677  -0.1077   2.2130 H              1 S1                 0.0000
     27 ****        -1.5046  -0.6350   2.6254 H              1 S1                 0.0000
     28 ****        -2.1110   1.4762   0.7616 H              1 S1                 0.0000
     29 ****         0.2352  -0.3473   1.0685 H              1 S1                 0.0000
     30 ****         2.0682   0.1906   0.5776 H              1 S1                 0.0000
     31 ****         2.1079   3.7039  -1.3278 H              1 S1                 0.0000
     32 ****         6.8434   1.4944  -0.9634 H              1 S1                 0.0000
     33 ****         6.7987   3.2615  -0.7960 H              1 S1                 0.0000
     34 ****         6.5429   2.5112  -2.3868 H              1 S1                 0.0000
     35 ****         4.6837   0.4698  -0.0261 H              1 S1                 0.0000
     36 ****        -1.5741   0.1277  -2.2721 H              1 S1                 0.0000
     37 ****        -2.1734  -1.5253  -2.2186 H              1 S1                 0.0000
     38 ****        -0.6357  -1.1229  -1.4881 H              1 S1                 0.0000
     39 ****        -3.7008   0.9507  -1.3573 H              1 S1                 0.0000
     40 ****        -4.3915   0.3047   0.1152 H              1 S1                 0.0000
     41 ****        -4.3145  -0.6960  -1.3256 H              1 S1                 0.0000
     42 ****        -1.1859  -2.8130  -0.2120 LP             1 S1                 0.0000
     43 ****        -0.3965  -1.6439   0.6106 LP             1 S1                 0.0000
     44 ****        -0.9148   2.5257  -0.5255 LP             1 S1                 0.0000
     45 ****         0.6878   3.0254  -0.9520 LP             1 S1                 0.0000
     46 ****         4.4345   4.2041  -1.9553 LP             1 S1                 0.0000
@<TRIPOS>BOND
    1    1    2 1     
    2    1   20 1     
    3    1   21 1     
    4    1   22 1     
    5    2    3 1     
    6    3   17 1     
    7    3    4 1     
    8    3    5 1     
    9    4   23 1     
   10    4   24 1     
   11    4   25 1     
   12    5    6 1     
   13    5   26 1     
   14    5   27 1     
   15    6    7 1     
   16    6   17 1     
   17    6   28 1     
   18    7    8 am    
   19    7   29 1     
   20    8    9 2     
   21    8   10 am    
   22   10   11 1     
   23   10   30 1     
   24   11   16 2     
   25   11   12 1     
   26   12   13 2     
   27   12   31 1     
   28   13   14 1     
   29   14   15 1     
   30   14   16 1     
   31   15   32 1     
   32   15   33 1     
   33   15   34 1     
   34   16   35 1     
   35   17   18 1     
   36   17   19 1     
   37   18   36 1     
   38   18   37 1     
   39   18   38 1     
   40   19   39 1     
   41   19   40 1     
   42   19   41 1     
   43    2   42 1     
   44    2   43 1     
   45    9   44 1     
   46    9   45 1     
   47   13   46 1     
@<TRIPOS>SUBSTRUCTURE
      1 S1             1
@<TRIPOS>SET
LONE_PAIRS      STATIC     ATOMS    <user>   **** ""
5 42 43 44 45 46
DONOR_HYDROGENS      STATIC     ATOMS    <user>   **** ""
2 29 30
ATOM$BLUE        STATIC     ATOMS    COLORGROUP SYSTEM
5 42 43 44 45 46
ATOM$RED        STATIC     ATOMS    COLORGROUP SYSTEM
2 29 30
