AV-unprocessed.smi:1641|AV-procd|sdf|6559|dock10
  -GOLD-   22720 7243D 1   1.00000     0.00000
 Structure written by MMmdl.
 42 43  0  0  0  0  0  0  0  0  2 V2000
  137.1116  137.0987  153.1146 C   0  0  0  0  0  0  0  0  0  0  0  0
  138.4545  137.7394  153.0290 C   0  0  0  0  0  0  0  0  0  0  0  0
  138.6488  139.0464  153.2429 N   0  0  0  0  0  0  0  0  0  0  0  0
  139.9813  139.4099  153.1055 N   0  0  0  0  0  0  0  0  0  0  0  0
  140.7546  138.3621  152.7890 C   0  0  0  0  0  0  0  0  0  0  0  0
  142.1574  138.4497  152.5858 N   0  0  0  0  0  0  0  0  0  0  0  0
  143.0234  137.4557  152.3216 C   0  0  0  0  0  0  0  0  0  0  0  0
  142.7288  136.2669  152.1961 O   0  0  0  0  0  0  0  0  0  0  0  0
  144.2773  137.9179  152.2095 N   0  0  0  0  0  0  0  0  0  0  0  0
  145.4449  137.0923  151.9233 C   0  0  0  0  0  0  0  0  0  0  0  0
  145.5882  135.9410  152.9381 C   0  0  0  0  0  0  0  0  0  0  0  0
  146.4399  134.8378  152.4283 N   0  3  1  0  0  0  0  0  0  0  0  0
  146.6819  133.7928  153.4513 C   0  0  0  0  0  0  0  0  0  0  0  0
  147.6175  132.7004  152.8991 C   0  0  1  0  0  0  0  0  0  0  0  0
  147.8308  131.5589  153.8991 C   0  0  0  0  0  0  0  0  0  0  0  0
  147.0435  132.1515  151.7184 O   0  0  0  0  0  0  0  0  0  0  0  0
  146.8825  133.1193  150.6875 C   0  0  1  0  0  0  0  0  0  0  0  0
  146.3487  132.4038  149.4420 C   0  0  0  0  0  0  0  0  0  0  0  0
  145.9275  134.2237  151.1783 C   0  0  0  0  0  0  0  0  0  0  0  0
  139.9085  136.8322  152.6310 S   0  0  0  0  0  0  0  0  0  0  0  0
  136.4448  137.6903  153.7425 H   0  0  0  0  0  0  0  0  0  0  0  0
  137.1987  136.1006  153.5441 H   0  0  0  0  0  0  0  0  0  0  0  0
  136.6752  137.0157  152.1190 H   0  0  0  0  0  0  0  0  0  0  0  0
  142.5460  139.3787  152.6536 H   0  0  0  0  0  0  0  0  0  0  0  0
  144.4335  138.9093  152.3219 H   0  0  0  0  0  0  0  0  0  0  0  0
  145.3716  136.7188  150.9017 H   0  0  0  0  0  0  0  0  0  0  0  0
  146.3285  137.7303  151.9580 H   0  0  0  0  0  0  0  0  0  0  0  0
  146.0349  136.3464  153.8474 H   0  0  0  0  0  0  0  0  0  0  0  0
  144.6132  135.5442  153.2253 H   0  0  0  0  0  0  0  0  0  0  0  0
  147.1286  134.2427  154.3390 H   0  0  0  0  0  0  0  0  0  0  0  0
  145.7295  133.3567  153.7568 H   0  0  0  0  0  0  0  0  0  0  0  0
  148.5890  133.1353  152.6574 H   0  0  0  0  0  0  0  0  0  0  0  0
  148.2833  131.9231  154.8217 H   0  0  0  0  0  0  0  0  0  0  0  0
  148.4921  130.7978  153.4841 H   0  0  0  0  0  0  0  0  0  0  0  0
  146.8874  131.0763  154.1559 H   0  0  0  0  0  0  0  0  0  0  0  0
  147.8547  133.5537  150.4473 H   0  0  0  0  0  0  0  0  0  0  0  0
  146.2131  133.1015  148.6154 H   0  0  0  0  0  0  0  0  0  0  0  0
  145.3875  131.9287  149.6407 H   0  0  0  0  0  0  0  0  0  0  0  0
  147.0407  131.6285  149.1119 H   0  0  0  0  0  0  0  0  0  0  0  0
  144.9339  133.8093  151.3573 H   0  0  0  0  0  0  0  0  0  0  0  0
  145.8221  134.9784  150.3995 H   0  0  0  0  0  0  0  0  0  0  0  0
  147.3414  135.2405  152.2154 H   0  0  0  0  0  0  0  0  0  0  0  0
  1  2  1  0  0  0  0
  1 21  1  0  0  0  0
  1 22  1  0  0  0  0
  1 23  1  0  0  0  0
  2 20  1  0  0  0  0
  2  3  2  0  0  0  0
  3  4  1  0  0  0  0
  4  5  2  0  0  0  0
  5  6  1  0  0  0  0
  5 20  1  0  0  0  0
  6  7  1  0  0  0  0
  6 24  1  0  0  0  0
  7  8  2  0  0  0  0
  7  9  1  0  0  0  0
  9 10  1  0  0  0  0
  9 25  1  0  0  0  0
 10 11  1  0  0  0  0
 10 26  1  0  0  0  0
 10 27  1  0  0  0  0
 11 12  1  0  0  0  0
 11 28  1  0  0  0  0
 11 29  1  0  0  0  0
 12 19  1  0  0  0  0
 12 13  1  0  0  0  0
 12 42  1  0  0  0  0
 13 14  1  0  0  0  0
 13 30  1  0  0  0  0
 13 31  1  0  0  0  0
 14 15  1  0  0  0  0
 14 16  1  0  0  0  0
 14 32  1  0  0  0  0
 15 33  1  0  0  0  0
 15 34  1  0  0  0  0
 15 35  1  0  0  0  0
 16 17  1  0  0  0  0
 17 18  1  0  0  0  0
 17 19  1  0  0  0  0
 17 36  1  0  0  0  0
 18 37  1  0  0  0  0
 18 38  1  0  0  0  0
 18 39  1  0  0  0  0
 19 40  1  0  0  0  0
 19 41  1  0  0  0  0
M  CHG  1  12   1
M  END
> <s_m_source_file>
AV-unprocessed.smi

> <i_m_source_file_index>
1641

> <i_lp_mmshare_version>
43012

> <i_f3d_flags>
0

> <s_epik_input>
W0NIM11jMW5uYyhzMSlbTkhdQyg9TylbTkhdW0NIMl1bQ0gyXU4yW0NIMl1bQ0BASF0oW0NIM10pT1tDQEBIXShbQ0gzXSlbQ0gyXTI=

> <s_epik_cmdline>
J2VwaWtfcHl0aG9uJywgJy1waCcsICc3LjAnLCAnLXRuJywgJzgnLCAnLW1hJywgJzIwMCcsICctbWV0YWxfYmluZGluZycsICctaW1hZScsICc8aW5maWxlLm1hZT4nLCAnLW9tYWUnLCAnPG91dGZpbGUubWFlPic=

> <r_lp_tautomer_probability>
1

> <r_epik_Ionization_Penalty>
0.700114

> <r_epik_Ionization_Penalty_Charging>
0.695697

> <r_epik_Ionization_Penalty_Neutral>
0.00441638

> <r_epik_State_Penalty>
0.717972

> <r_epik_Charging_Adjusted_Penalty>
1.41367

> <i_epik_Tot_Q>
1

> <i_epik_Tot_abs_Q>
1

> <r_epik_Metal_State_Penalty>
1.06958

> <b_epik_Metal_Only>
0

> <s_lp_Force_Field>
OPLS_2005

> <r_lp_Energy>
12.6792

> <b_lp_Chiralities_Consistent>
1

> <s_lp_Variant>
AV-unprocessed.smi:1641-4

> <Gold.Version>
5.8.1

> <Gold.Id.Protein>
6NUR|6NUR_protein|mol2

> <Gold.PLP.Fitness>
43.3394

> <Gold.PLP.PLP>
-31.5817

> <Gold.PLP.part.hbond>
-4.0000

> <Gold.PLP.part.metal>
0.0000

> <Gold.PLP.part.buried>
-3.6871

> <Gold.PLP.part.nonpolar>
-26.9827

> <Gold.PLP.part.repulsive>
2.2455

> <Gold.PLP.ligand.clash>
0.0000

> <Gold.PLP.ligand.torsion>
0.1147

> <Gold.PLP.Chemscore.Hbond>
3.9920

> <Gold.PLP.Chemscore.CHOScore>
0.0000

> <Gold.PLP.Chemscore.Metal>
0.0000

> <Gold.Chemscore.Hbonds>
donor molecule, donor type, donor heavy atom, donor atom, acceptor molecule, acceptor atom, score
      L1  H     6    24       P1 10175  0.93
      L1  H     9    25       P1 10175  0.88
      L1  H    12    42       P1  7948  2.00

> <Gold.PLP.Chemscore.Internal.Correction>
0.0111

> <Gold.Rescore>
     Score         DG    S(hbond)    S(metal)    S(lipo)     H(rot)  DE(clash)    DE(int)     intcor
     16.54     -18.63       2.82        0.00      67.68       1.64       0.68       1.41       ----

> <Gold.Chemscore.Fitness>
16.5363

> <Gold.Chemscore.DG>
-18.6276

> <Gold.Chemscore.ZeroCoef>
-5.4800

> <Gold.Chemscore.Hbond>
2.8193

> <Gold.Chemscore.Metal>
0.0000

> <Gold.Chemscore.Lipo>
67.6813

> <Gold.Chemscore.Internal_Hbond>
0.0000

> <Gold.Chemscore.DEClash>
0.6767

> <Gold.Chemscore.DEInternal>
1.4146

> <Gold.Chemscore.Rot>
1.6358

> <Gold.Chemscore.Internal.Correction>
   9.000000E+99

> <Gold.Chemscore.Hbonds>
donor molecule, donor type, donor heavy atom, donor atom, acceptor molecule, acceptor atom, score
      L1  H     6    24       P1 10175  0.84
      L1  H     9    25       P1 10175  0.87
      L1  H    12    42       P1  7948  1.00

> <Gold.Chemscore.Hbond.Weighted>
-9.4166

> <Gold.Chemscore.Metal.Weighted>
-0.0000

> <Gold.Chemscore.Lipo.Weighted>
-7.9187

> <Gold.Chemscore.Internal_Hbond.Weighted>
0.0000

> <Gold.Chemscore.DEClash.Weighted>
0.6767

> <Gold.Chemscore.DEInternal.Weighted>
1.4146

> <Gold.Chemscore.Rot.Weighted>
4.1878

> <Gold.Chemscore.Internal.Correction.Weighted>
   9.000000E+99

> <Gold.Protein.RotatedTorsions>
[ 6907 6896 6895 6894 ] final  -67.92 input  -60.11 | X-H torsion
[ 7974 7965 7964 7962 ] final  166.63 input  175.53 | X-H torsion
[ 8008 7997 7996 7995 ] final   88.27 input   59.86 | X-H torsion
[ 10167 10162 10161 10158 ] final  105.01 input  -65.29 | X-H torsion
[ 10718 10713 10712 10709 ] final  -85.19 input   66.30 | X-H torsion
[ 10763 10752 10751 10750 ] final -143.09 input  -60.55 | X-H torsion
[ 11005 11000 10999 10996 ] final -163.92 input  -57.11 | X-H torsion

> <Gold.Protein.ActiveResidues>
 VAL166  LYS551  ARG553  GLY616  TRP617  ASP618  TYR619  PRO620  LYS621  CYS622 
 ASP623  PHE694  ASN695  SER759  ASP760  ASP761  ALA762  ILE779  LEU786  VAL792 
 PHE793  MET794  SER795  GLU796  ALA797  LYS798  CYS799  TRP800  GLU811  SER814 

> <Gold.Protein.RotatedAtoms>
  150.7383  134.5812  159.5939 H   0  0  0  0  0  0  0  0  0  0  0  0  # atno 6907 bound_to 6896
  152.3225  134.7359  160.0319 H   0  0  0  0  0  0  0  0  0  0  0  0  # atno 6908 bound_to 6896
  151.7870  133.3319  159.3524 H   0  0  0  0  0  0  0  0  0  0  0  0  # atno 6909 bound_to 6896
  144.7455  139.8644  143.6383 H   0  0  0  0  0  0  0  0  0  0  0  0  # atno 7974 bound_to 7965
  155.9857  140.3373  155.6705 H   0  0  0  0  0  0  0  0  0  0  0  0  # atno 8008 bound_to 7997
  155.6488  140.0703  157.2612 H   0  0  0  0  0  0  0  0  0  0  0  0  # atno 8009 bound_to 7997
  154.4204  140.1729  156.1640 H   0  0  0  0  0  0  0  0  0  0  0  0  # atno 8010 bound_to 7997
  139.7129  144.7074  151.0998 H   0  0  0  0  0  0  0  0  0  0  0  0  # atno 10167 bound_to 10162
  155.9999  130.4722  150.4524 H   0  0  0  0  0  0  0  0  0  0  0  0  # atno 10718 bound_to 10713
  154.8484  135.3477  154.6131 H   0  0  0  0  0  0  0  0  0  0  0  0  # atno 10763 bound_to 10752
  153.6740  135.6983  153.5143 H   0  0  0  0  0  0  0  0  0  0  0  0  # atno 10764 bound_to 10752
  153.2720  135.4290  155.0953 H   0  0  0  0  0  0  0  0  0  0  0  0  # atno 10765 bound_to 10752
  140.5928  134.5028  157.5195 H   0  0  0  0  0  0  0  0  0  0  0  0  # atno 11005 bound_to 11000
  146.1325  139.4364  143.0159 LP  0  0  0  0  0  0  0  0  0  0  0  0  # atno 17320 bound_to 7965
  145.7141  141.0097  143.1438 LP  0  0  0  0  0  0  0  0  0  0  0  0  # atno 17321 bound_to 7965
  140.7737  143.5269  150.9469 LP  0  0  0  0  0  0  0  0  0  0  0  0  # atno 17342 bound_to 10162
  139.8954  143.6901  152.3139 LP  0  0  0  0  0  0  0  0  0  0  0  0  # atno 17343 bound_to 10162
  157.2555  131.0556  151.2352 LP  0  0  0  0  0  0  0  0  0  0  0  0  # atno 17370 bound_to 10713
  157.3486  130.7070  149.6426 LP  0  0  0  0  0  0  0  0  0  0  0  0  # atno 17371 bound_to 10713
  139.9267  134.8043  156.1049 LP  0  0  0  0  0  0  0  0  0  0  0  0  # atno 17394 bound_to 11000
  141.0924  133.6709  156.2570 LP  0  0  0  0  0  0  0  0  0  0  0  0  # atno 17395 bound_to 11000

$$$$
