AV-unprocessed.smi:2098|AV-procd|sdf|8566|dock7
  -GOLD-   2272011293D 1   1.00000     0.00000
 Structure written by MMmdl.
 36 38  0  0  0  0  0  0  0  0  1 V2000
  150.5178  138.3887  158.2927 O   0  0  0  0  0  0  0  0  0  0  0  0
  150.8164  139.7378  157.9904 C   0  0  1  0  0  0  0  0  0  0  0  0
  152.0709  140.1454  158.7790 C   0  0  0  0  0  0  0  0  0  0  0  0
  152.1927  141.5617  158.7539 O   0  0  0  0  0  0  0  0  0  0  0  0
  152.5202  142.2093  159.9259 C   0  0  0  0  0  0  0  0  0  0  0  0
  153.3074  141.4949  160.8530 C   0  0  0  0  0  0  0  0  0  0  0  0
  153.6918  142.0800  162.0749 C   0  0  0  0  0  0  0  0  0  0  0  0
  153.2904  143.3927  162.3828 C   0  0  0  0  0  0  0  0  0  0  0  0
  153.6611  143.9581  163.5560 F   0  0  0  0  0  0  0  0  0  0  0  0
  152.5030  144.1167  161.4687 C   0  0  0  0  0  0  0  0  0  0  0  0
  152.1176  143.5311  160.2470 C   0  0  0  0  0  0  0  0  0  0  0  0
  151.0267  139.8778  156.4703 C   0  0  0  0  0  0  0  0  0  0  0  0
  149.8859  139.4113  155.7015 N   0  0  0  0  0  0  0  0  0  0  0  0
  149.5763  138.1341  155.4068 C   0  0  0  0  0  0  0  0  0  0  0  0
  148.4761  137.9228  154.6900 N   0  0  0  0  0  0  0  0  0  0  0  0
  148.0169  139.2145  154.4966 C   0  0  0  0  0  0  0  0  0  0  0  0
  146.8761  139.6887  153.8098 C   0  0  0  0  0  0  0  0  0  0  0  0
  146.6059  141.0715  153.7428 C   0  0  0  0  0  0  0  0  0  0  0  0
  147.4703  141.9995  154.3592 C   0  0  0  0  0  0  0  0  0  0  0  0
  148.6124  141.5508  155.0498 C   0  0  0  0  0  0  0  0  0  0  0  0
  148.8777  140.1702  155.1161 C   0  0  0  0  0  0  0  0  0  0  0  0
  149.5782  138.2906  158.3223 H   0  0  0  0  0  0  0  0  0  0  0  0
  149.9740  140.3625  158.2909 H   0  0  0  0  0  0  0  0  0  0  0  0
  152.0249  139.7605  159.7994 H   0  0  0  0  0  0  0  0  0  0  0  0
  152.9543  139.7185  158.3009 H   0  0  0  0  0  0  0  0  0  0  0  0
  153.6206  140.4866  160.6244 H   0  0  0  0  0  0  0  0  0  0  0  0
  154.2953  141.5212  162.7749 H   0  0  0  0  0  0  0  0  0  0  0  0
  152.1934  145.1243  161.7042 H   0  0  0  0  0  0  0  0  0  0  0  0
  151.5127  144.1184  159.5732 H   0  0  0  0  0  0  0  0  0  0  0  0
  151.2052  140.9219  156.2100 H   0  0  0  0  0  0  0  0  0  0  0  0
  151.9122  139.3245  156.1548 H   0  0  0  0  0  0  0  0  0  0  0  0
  150.1940  137.3122  155.7382 H   0  0  0  0  0  0  0  0  0  0  0  0
  146.2075  138.9869  153.3340 H   0  0  0  0  0  0  0  0  0  0  0  0
  145.7309  141.4221  153.2154 H   0  0  0  0  0  0  0  0  0  0  0  0
  147.2556  143.0565  154.3018 H   0  0  0  0  0  0  0  0  0  0  0  0
  149.2776  142.2591  155.5210 H   0  0  0  0  0  0  0  0  0  0  0  0
  1  2  1  0  0  0  0
  1 22  1  0  0  0  0
  2  3  1  0  0  0  0
  2 12  1  0  0  0  0
  2 23  1  0  0  0  0
  3  4  1  0  0  0  0
  3 24  1  0  0  0  0
  3 25  1  0  0  0  0
  4  5  1  0  0  0  0
  5 11  1  0  0  0  0
  5  6  2  0  0  0  0
  6  7  1  0  0  0  0
  6 26  1  0  0  0  0
  7  8  2  0  0  0  0
  7 27  1  0  0  0  0
  8  9  1  0  0  0  0
  8 10  1  0  0  0  0
 10 11  2  0  0  0  0
 10 28  1  0  0  0  0
 11 29  1  0  0  0  0
 12 13  1  0  0  0  0
 12 30  1  0  0  0  0
 12 31  1  0  0  0  0
 13 21  1  0  0  0  0
 13 14  1  0  0  0  0
 14 15  2  0  0  0  0
 14 32  1  0  0  0  0
 15 16  1  0  0  0  0
 16 21  2  0  0  0  0
 16 17  1  0  0  0  0
 17 18  2  0  0  0  0
 17 33  1  0  0  0  0
 18 19  1  0  0  0  0
 18 34  1  0  0  0  0
 19 20  2  0  0  0  0
 19 35  1  0  0  0  0
 20 21  1  0  0  0  0
 20 36  1  0  0  0  0
M  END
> <s_m_source_file>
AV-unprocessed.smi

> <i_m_source_file_index>
2098

> <i_lp_mmshare_version>
43012

> <i_f3d_flags>
0

> <s_epik_input>
W2NIXTFbY0hdW2NIXVtjSF1jKGMxMiluKFtjSF1uMilbQ0gyXVtDQEhdKFtPSF0pW0NIMl1PYzNbY0hdW2NIXWMoRilbY0hdW2NIXTM=

> <s_epik_cmdline>
J2VwaWtfcHl0aG9uJywgJy1waCcsICc3LjAnLCAnLXRuJywgJzgnLCAnLW1hJywgJzIwMCcsICctbWV0YWxfYmluZGluZycsICctaW1hZScsICc8aW5maWxlLm1hZT4nLCAnLW9tYWUnLCAnPG91dGZpbGUubWFlPic=

> <r_lp_tautomer_probability>
1

> <r_epik_Ionization_Penalty>
0.0603575

> <r_epik_Ionization_Penalty_Charging>
0

> <r_epik_Ionization_Penalty_Neutral>
0.0603575

> <r_epik_State_Penalty>
0.0523204

> <r_epik_Charging_Adjusted_Penalty>
0.0523204

> <i_epik_Tot_Q>
0

> <i_epik_Tot_abs_Q>
0

> <r_epik_Metal_State_Penalty>
5.46976e-05

> <b_epik_Metal_Only>
0

> <s_lp_Force_Field>
OPLS_2005

> <r_lp_Energy>
15.3663

> <b_lp_Chiralities_Consistent>
1

> <s_lp_Variant>
AV-unprocessed.smi:2098-2

> <Gold.Version>
5.8.1

> <Gold.Id.Protein>
6NUR|6NUR_protein|mol2

> <Gold.PLP.Fitness>
46.9300

> <Gold.PLP.PLP>
-49.0464

> <Gold.PLP.part.hbond>
0.0000

> <Gold.PLP.part.metal>
0.0000

> <Gold.PLP.part.buried>
-2.5023

> <Gold.PLP.part.nonpolar>
-46.7317

> <Gold.PLP.part.repulsive>
2.0207

> <Gold.PLP.ligand.clash>
0.0000

> <Gold.PLP.ligand.torsion>
1.0707

> <Gold.PLP.Chemscore.Hbond>
0.0000

> <Gold.PLP.Chemscore.CHOScore>
0.0000

> <Gold.PLP.Chemscore.Metal>
0.0000

> <Gold.PLP.Chemscore.Internal.Correction>
0.0250

> <Gold.Rescore>
     Score         DG    S(hbond)    S(metal)    S(lipo)     H(rot)  DE(clash)    DE(int)     intcor
     12.58     -14.19       0.00        0.00     126.41       2.37       0.54       1.07       ----

> <Gold.Chemscore.Fitness>
12.5825

> <Gold.Chemscore.DG>
-14.1935

> <Gold.Chemscore.ZeroCoef>
-5.4800

> <Gold.Chemscore.Hbond>
0.0000

> <Gold.Chemscore.Metal>
0.0000

> <Gold.Chemscore.Lipo>
126.4082

> <Gold.Chemscore.Internal_Hbond>
0.0000

> <Gold.Chemscore.DEClash>
0.5419

> <Gold.Chemscore.DEInternal>
1.0692

> <Gold.Chemscore.Rot>
2.3735

> <Gold.Chemscore.Internal.Correction>
   9.000000E+99

> <Gold.Chemscore.Hbond.Weighted>
-0.0000

> <Gold.Chemscore.Metal.Weighted>
-0.0000

> <Gold.Chemscore.Lipo.Weighted>
-14.7898

> <Gold.Chemscore.Internal_Hbond.Weighted>
0.0000

> <Gold.Chemscore.DEClash.Weighted>
0.5419

> <Gold.Chemscore.DEInternal.Weighted>
1.0692

> <Gold.Chemscore.Rot.Weighted>
6.0762

> <Gold.Chemscore.Internal.Correction.Weighted>
   9.000000E+99

> <Gold.Protein.RotatedTorsions>
[ 6907 6896 6895 6894 ] final  142.68 input  -60.11 | X-H torsion
[ 7974 7965 7964 7962 ] final   -7.89 input  175.53 | X-H torsion
[ 8008 7997 7996 7995 ] final -140.73 input   59.86 | X-H torsion
[ 10167 10162 10161 10158 ] final  132.83 input  -65.29 | X-H torsion
[ 10718 10713 10712 10709 ] final  -73.16 input   66.30 | X-H torsion
[ 10763 10752 10751 10750 ] final  150.97 input  -60.55 | X-H torsion
[ 11005 11000 10999 10996 ] final  -49.10 input  -57.11 | X-H torsion

> <Gold.Protein.ActiveResidues>
 VAL166  LYS551  ARG553  GLY616  TRP617  ASP618  TYR619  PRO620  LYS621  CYS622 
 ASP623  PHE694  ASN695  SER759  ASP760  ASP761  ALA762  ILE779  LEU786  VAL792 
 PHE793  MET794  SER795  GLU796  ALA797  LYS798  CYS799  TRP800  GLU811  SER814 

> <Gold.Protein.RotatedAtoms>
  152.2157  133.4944  159.5134 H   0  0  0  0  0  0  0  0  0  0  0  0  # atno 6907 bound_to 6896
  150.7000  134.1409  159.4113 H   0  0  0  0  0  0  0  0  0  0  0  0  # atno 6908 bound_to 6896
  151.9329  135.0248  160.0581 H   0  0  0  0  0  0  0  0  0  0  0  0  # atno 6909 bound_to 6896
  146.2295  140.2387  142.8342 H   0  0  0  0  0  0  0  0  0  0  0  0  # atno 7974 bound_to 7965
  155.4662  140.0549  157.2985 H   0  0  0  0  0  0  0  0  0  0  0  0  # atno 8008 bound_to 7997
  154.4717  140.2043  155.9933 H   0  0  0  0  0  0  0  0  0  0  0  0  # atno 8009 bound_to 7997
  156.1066  140.3211  155.8019 H   0  0  0  0  0  0  0  0  0  0  0  0  # atno 8010 bound_to 7997
  139.5323  144.6644  151.4908 H   0  0  0  0  0  0  0  0  0  0  0  0  # atno 10167 bound_to 10162
  156.0291  130.4388  150.2700 H   0  0  0  0  0  0  0  0  0  0  0  0  # atno 10718 bound_to 10713
  154.0962  135.2849  155.3261 H   0  0  0  0  0  0  0  0  0  0  0  0  # atno 10763 bound_to 10752
  154.6587  135.5342  153.7994 H   0  0  0  0  0  0  0  0  0  0  0  0  # atno 10764 bound_to 10752
  153.0395  135.6528  154.1128 H   0  0  0  0  0  0  0  0  0  0  0  0  # atno 10765 bound_to 10752
  141.0739  133.6671  156.3537 H   0  0  0  0  0  0  0  0  0  0  0  0  # atno 11005 bound_to 11000
  144.9501  140.8170  143.5577 LP  0  0  0  0  0  0  0  0  0  0  0  0  # atno 17320 bound_to 7965
  145.2347  139.2099  143.5024 LP  0  0  0  0  0  0  0  0  0  0  0  0  # atno 17321 bound_to 7965
  140.6508  143.8700  150.6784 LP  0  0  0  0  0  0  0  0  0  0  0  0  # atno 17342 bound_to 10162
  140.2064  143.3918  152.1752 LP  0  0  0  0  0  0  0  0  0  0  0  0  # atno 17343 bound_to 10162
  157.0803  131.0141  151.3159 LP  0  0  0  0  0  0  0  0  0  0  0  0  # atno 17370 bound_to 10713
  157.4932  130.7835  149.7529 LP  0  0  0  0  0  0  0  0  0  0  0  0  # atno 17371 bound_to 10713
  140.5614  134.5930  157.5434 LP  0  0  0  0  0  0  0  0  0  0  0  0  # atno 17394 bound_to 11000
  139.9552  134.7547  156.0358 LP  0  0  0  0  0  0  0  0  0  0  0  0  # atno 17395 bound_to 11000

$$$$
