AV-unprocessed.smi:2725|AV-procd|sdf|10517|dock1
  -GOLD-   2272014553D 1   1.00000     0.00000
 Structure written by MMmdl.
 45 46  0  0  0  0  0  0  0  0  2 V2000
  152.2252  140.0321  155.3492 O   0  0  0  0  0  0  0  0  0  0  0  0
  151.2274  140.2036  156.0504 C   0  0  0  0  0  0  0  0  0  0  0  0
  151.3439  140.8405  157.4387 C   0  0  0  0  0  0  0  0  0  0  0  0
  150.6590  142.2173  157.5364 C   0  0  0  0  0  0  0  0  0  0  0  0
  151.3303  143.1537  158.5567 C   0  0  0  0  0  0  0  0  0  0  0  0
  151.4442  142.5769  159.9719 C   0  0  0  0  0  0  0  0  0  0  0  0
  151.6022  143.7906  160.8968 C   0  0  0  0  0  0  0  0  0  0  0  0
  151.1138  145.0098  160.1002 C   0  0  0  0  0  0  0  0  0  0  0  0
  150.5686  144.4620  158.7783 C   0  0  0  0  0  0  0  0  0  0  0  0
  149.9903  139.8559  155.6636 N   0  0  0  0  0  0  0  0  0  0  0  0
  149.6438  139.2575  154.3758 C   0  0  2  0  0  0  0  0  0  0  0  0
  148.1845  138.7614  154.4430 C   0  0  0  0  0  0  0  0  0  0  0  0
  147.7173  138.4529  153.1472 O   0  0  0  0  0  0  0  0  0  0  0  0
  150.6501  138.1273  154.0579 C   0  0  0  0  0  0  0  0  0  0  0  0
  150.3126  136.8074  154.7287 C   0  0  0  0  0  0  0  0  0  0  0  0
  150.8060  136.4771  156.0096 C   0  0  0  0  0  0  0  0  0  0  0  0
  150.4687  135.2317  156.5792 C   0  0  0  0  0  0  0  0  0  0  0  0
  149.6465  134.3426  155.8562 C   0  0  0  0  0  0  0  0  0  0  0  0
  149.1818  134.7223  154.5807 C   0  0  0  0  0  0  0  0  0  0  0  0
  149.5269  135.9246  154.0694 N   0  3  0  0  0  0  0  0  0  0  0  0
  150.9117  140.1529  158.1661 H   0  0  0  0  0  0  0  0  0  0  0  0
  152.4003  140.9420  157.6924 H   0  0  0  0  0  0  0  0  0  0  0  0
  150.6775  142.6976  156.5569 H   0  0  0  0  0  0  0  0  0  0  0  0
  149.6063  142.0917  157.7943 H   0  0  0  0  0  0  0  0  0  0  0  0
  152.3321  143.4050  158.2043 H   0  0  0  0  0  0  0  0  0  0  0  0
  150.5285  142.0436  160.2308 H   0  0  0  0  0  0  0  0  0  0  0  0
  152.2719  141.8739  160.0700 H   0  0  0  0  0  0  0  0  0  0  0  0
  151.0331  143.6564  161.8171 H   0  0  0  0  0  0  0  0  0  0  0  0
  152.6476  143.9242  161.1775 H   0  0  0  0  0  0  0  0  0  0  0  0
  150.3601  145.5818  160.6423 H   0  0  0  0  0  0  0  0  0  0  0  0
  151.9531  145.6783  159.9051 H   0  0  0  0  0  0  0  0  0  0  0  0
  150.6929  145.1648  157.9539 H   0  0  0  0  0  0  0  0  0  0  0  0
  149.5016  144.2591  158.8819 H   0  0  0  0  0  0  0  0  0  0  0  0
  149.2281  140.0419  156.2993 H   0  0  0  0  0  0  0  0  0  0  0  0
  149.7270  140.0150  153.5933 H   0  0  0  0  0  0  0  0  0  0  0  0
  148.1059  137.8449  155.0256 H   0  0  0  0  0  0  0  0  0  0  0  0
  147.5297  139.4941  154.9167 H   0  0  0  0  0  0  0  0  0  0  0  0
  148.2667  137.7773  152.7794 H   0  0  0  0  0  0  0  0  0  0  0  0
  150.6826  137.9433  152.9830 H   0  0  0  0  0  0  0  0  0  0  0  0
  151.6590  138.4331  154.3390 H   0  0  0  0  0  0  0  0  0  0  0  0
  151.4382  137.1683  156.5485 H   0  0  0  0  0  0  0  0  0  0  0  0
  150.8371  134.9613  157.5580 H   0  0  0  0  0  0  0  0  0  0  0  0
  149.3770  133.3836  156.2742 H   0  0  0  0  0  0  0  0  0  0  0  0
  148.5497  134.1057  153.9584 H   0  0  0  0  0  0  0  0  0  0  0  0
  149.1789  136.1781  153.1446 H   0  0  0  0  0  0  0  0  0  0  0  0
  1  2  2  0  0  0  0
  2  3  1  0  0  0  0
  2 10  1  0  0  0  0
  3  4  1  0  0  0  0
  3 21  1  0  0  0  0
  3 22  1  0  0  0  0
  4  5  1  0  0  0  0
  4 23  1  0  0  0  0
  4 24  1  0  0  0  0
  5  9  1  0  0  0  0
  5  6  1  0  0  0  0
  5 25  1  0  0  0  0
  6  7  1  0  0  0  0
  6 26  1  0  0  0  0
  6 27  1  0  0  0  0
  7  8  1  0  0  0  0
  7 28  1  0  0  0  0
  7 29  1  0  0  0  0
  8  9  1  0  0  0  0
  8 30  1  0  0  0  0
  8 31  1  0  0  0  0
  9 32  1  0  0  0  0
  9 33  1  0  0  0  0
 10 11  1  0  0  0  0
 10 34  1  0  0  0  0
 11 12  1  0  0  0  0
 11 14  1  0  0  0  0
 11 35  1  0  0  0  0
 12 13  1  0  0  0  0
 12 36  1  0  0  0  0
 12 37  1  0  0  0  0
 13 38  1  0  0  0  0
 14 15  1  0  0  0  0
 14 39  1  0  0  0  0
 14 40  1  0  0  0  0
 15 20  1  0  0  0  0
 15 16  2  0  0  0  0
 16 17  1  0  0  0  0
 16 41  1  0  0  0  0
 17 18  2  0  0  0  0
 17 42  1  0  0  0  0
 18 19  1  0  0  0  0
 18 43  1  0  0  0  0
 19 20  2  0  0  0  0
 19 44  1  0  0  0  0
 20 45  1  0  0  0  0
M  CHG  1  20   1
M  END
> <s_m_source_file>
AV-unprocessed.smi

> <i_m_source_file_index>
2725

> <i_lp_mmshare_version>
43012

> <i_f3d_flags>
0

> <s_epik_input>
W0NIMl0xW0NIMl1bQ0gyXVtDSDJdW0NIXTFbQ0gyXVtDSDJdQyg9TylbTkhdW0NASF0oW0NIMl1bT0hdKVtDSDJdYzJbY0hdW2NIXVtjSF1bY0hdbjI=

> <s_epik_cmdline>
J2VwaWtfcHl0aG9uJywgJy1waCcsICc3LjAnLCAnLXRuJywgJzgnLCAnLW1hJywgJzIwMCcsICctbWV0YWxfYmluZGluZycsICctaW1hZScsICc8aW5maWxlLm1hZT4nLCAnLW9tYWUnLCAnPG91dGZpbGUubWFlPic=

> <r_epik_Ionization_Penalty>
1.87189

> <r_epik_Ionization_Penalty_Charging>
1.87189

> <r_epik_Ionization_Penalty_Neutral>
6.79411e-08

> <r_epik_State_Penalty>
1.99097

> <r_epik_Charging_Adjusted_Penalty>
3.86287

> <i_epik_Tot_Q>
1

> <i_epik_Tot_abs_Q>
1

> <r_epik_Metal_State_Penalty>
2.01578

> <b_epik_Metal_Only>
0

> <s_lp_Force_Field>
OPLS_2005

> <r_lp_Energy>
30.4182

> <b_lp_Chiralities_Consistent>
1

> <s_lp_Variant>
AV-unprocessed.smi:2725-3

> <Gold.Version>
5.8.1

> <Gold.Id.Protein>
6NUR|6NUR_protein|mol2

> <Gold.PLP.Fitness>
54.1582

> <Gold.PLP.PLP>
-43.9153

> <Gold.PLP.part.hbond>
-6.0000

> <Gold.PLP.part.metal>
0.0000

> <Gold.PLP.part.buried>
-3.0806

> <Gold.PLP.part.nonpolar>
-34.6705

> <Gold.PLP.part.repulsive>
0.1420

> <Gold.PLP.ligand.clash>
0.0000

> <Gold.PLP.ligand.torsion>
1.0674

> <Gold.PLP.Chemscore.Hbond>
4.0749

> <Gold.PLP.Chemscore.CHOScore>
0.0000

> <Gold.PLP.Chemscore.Metal>
0.0000

> <Gold.Chemscore.Hbonds>
donor molecule, donor type, donor heavy atom, donor atom, acceptor molecule, acceptor atom, score
      L1  H    13    38       P1  7948  1.00
      L1  H    20    45       P1  7948  0.75
      P1  H  7989  7998       L1     1  0.60
      P1  H  7997  8009       L1     1  0.32

> <Gold.PLP.Chemscore.Internal.Correction>
0.1531

> <Gold.Rescore>
     Score         DG    S(hbond)    S(metal)    S(lipo)     H(rot)  DE(clash)    DE(int)     intcor
     18.93     -21.20       2.88        0.00     108.60       2.58       0.00       2.27       ----

> <Gold.Chemscore.Fitness>
18.9335

> <Gold.Chemscore.DG>
-21.1992

> <Gold.Chemscore.ZeroCoef>
-5.4800

> <Gold.Chemscore.Hbond>
2.8774

> <Gold.Chemscore.Metal>
0.0000

> <Gold.Chemscore.Lipo>
108.6016

> <Gold.Chemscore.Internal_Hbond>
0.0000

> <Gold.Chemscore.DEClash>
0.0000

> <Gold.Chemscore.DEInternal>
2.2657

> <Gold.Chemscore.Rot>
2.5773

> <Gold.Chemscore.Internal.Correction>
   9.000000E+99

> <Gold.Chemscore.Hbonds>
donor molecule, donor type, donor heavy atom, donor atom, acceptor molecule, acceptor atom, score
      L1  H    13    38       P1  7948  1.00
      L1  H    20    45       P1  7948  0.32
      P1  H  7989  7998       L1     1  0.26
      P1  H  7997  8009       L1     1  0.32

> <Gold.Chemscore.Hbond.Weighted>
-9.6106

> <Gold.Chemscore.Metal.Weighted>
-0.0000

> <Gold.Chemscore.Lipo.Weighted>
-12.7064

> <Gold.Chemscore.Internal_Hbond.Weighted>
0.0000

> <Gold.Chemscore.DEClash.Weighted>
0.0000

> <Gold.Chemscore.DEInternal.Weighted>
2.2657

> <Gold.Chemscore.Rot.Weighted>
6.5978

> <Gold.Chemscore.Internal.Correction.Weighted>
   9.000000E+99

> <Gold.Protein.RotatedTorsions>
[ 6907 6896 6895 6894 ] final -122.69 input  -60.11 | X-H torsion
[ 7974 7965 7964 7962 ] final  -91.48 input  175.53 | X-H torsion
[ 8008 7997 7996 7995 ] final -158.43 input   59.86 | X-H torsion
[ 10167 10162 10161 10158 ] final   13.40 input  -65.29 | X-H torsion
[ 10718 10713 10712 10709 ] final  -91.26 input   66.30 | X-H torsion
[ 10763 10752 10751 10750 ] final  -90.09 input  -60.55 | X-H torsion
[ 11005 11000 10999 10996 ] final   96.16 input  -57.11 | X-H torsion

> <Gold.Protein.ActiveResidues>
 VAL166  LYS551  ARG553  GLY616  TRP617  ASP618  TYR619  PRO620  LYS621  CYS622 
 ASP623  PHE694  ASN695  SER759  ASP760  ASP761  ALA762  ILE779  LEU786  VAL792 
 PHE793  MET794  SER795  GLU796  ALA797  LYS798  CYS799  TRP800  GLU811  SER814 

> <Gold.Protein.RotatedAtoms>
  150.8600  133.7658  159.2995 H   0  0  0  0  0  0  0  0  0  0  0  0  # atno 6907 bound_to 6896
  151.5303  135.1066  159.9910 H   0  0  0  0  0  0  0  0  0  0  0  0  # atno 6908 bound_to 6896
  152.4619  133.7796  159.6899 H   0  0  0  0  0  0  0  0  0  0  0  0  # atno 6909 bound_to 6896
  145.4126  140.9546  143.2226 H   0  0  0  0  0  0  0  0  0  0  0  0  # atno 7974 bound_to 7965
  155.7474  140.0822  157.2217 H   0  0  0  0  0  0  0  0  0  0  0  0  # atno 8008 bound_to 7997
  154.4015  140.1567  156.2740 H   0  0  0  0  0  0  0  0  0  0  0  0  # atno 8009 bound_to 7997
  155.8963  140.3412  155.5996 H   0  0  0  0  0  0  0  0  0  0  0  0  # atno 8010 bound_to 7997
  140.6005  143.8615  150.6960 H   0  0  0  0  0  0  0  0  0  0  0  0  # atno 10167 bound_to 10162
  155.9992  130.4941  150.5447 H   0  0  0  0  0  0  0  0  0  0  0  0  # atno 10718 bound_to 10713
  154.6621  135.5317  153.8031 H   0  0  0  0  0  0  0  0  0  0  0  0  # atno 10763 bound_to 10752
  153.0448  135.6508  154.0855 H   0  0  0  0  0  0  0  0  0  0  0  0  # atno 10764 bound_to 10752
  154.0763  135.2950  155.3279 H   0  0  0  0  0  0  0  0  0  0  0  0  # atno 10765 bound_to 10752
  139.8783  134.8936  156.4118 H   0  0  0  0  0  0  0  0  0  0  0  0  # atno 11005 bound_to 11000
  144.8299  139.5646  143.6948 LP  0  0  0  0  0  0  0  0  0  0  0  0  # atno 17320 bound_to 7965
  146.2697  139.6606  142.9304 LP  0  0  0  0  0  0  0  0  0  0  0  0  # atno 17321 bound_to 7965
  140.2159  143.3846  152.1681 LP  0  0  0  0  0  0  0  0  0  0  0  0  # atno 17342 bound_to 10162
  139.5287  144.7134  151.5133 LP  0  0  0  0  0  0  0  0  0  0  0  0  # atno 17343 bound_to 10162
  157.3378  131.0711  151.1811 LP  0  0  0  0  0  0  0  0  0  0  0  0  # atno 17370 bound_to 10713
  157.2670  130.6686  149.6001 LP  0  0  0  0  0  0  0  0  0  0  0  0  # atno 17371 bound_to 10713
  140.9195  133.7655  155.9889 LP  0  0  0  0  0  0  0  0  0  0  0  0  # atno 17394 bound_to 11000
  140.8456  134.3015  157.5296 LP  0  0  0  0  0  0  0  0  0  0  0  0  # atno 17395 bound_to 11000

$$$$
