AV-unprocessed.smi:1504|AV-procd|sdf|6073|dock10
  -GOLD-   22720 6193D 1   1.00000     0.00000
 Structure written by MMmdl.
 40 41  0  0  0  0  0  0  0  0  2 V2000
  146.0197  138.8668  153.7162 O   0  0  0  0  0  0  0  0  0  0  0  0
  146.8195  138.0754  153.2166 C   0  0  0  0  0  0  0  0  0  0  0  0
  146.4658  136.9363  152.6051 N   0  0  0  0  0  0  0  0  0  0  0  0
  145.0939  136.4704  152.4407 C   0  0  0  0  0  0  0  0  0  0  0  0
  144.8272  135.9919  151.0035 C   0  0  0  0  0  0  0  0  0  0  0  0
  144.9250  134.4847  150.8708 C   0  0  0  0  0  0  0  0  0  0  0  0
  146.1065  133.7781  151.1844 C   0  0  0  0  0  0  0  0  0  0  0  0
  146.1291  132.3752  151.0400 C   0  0  0  0  0  0  0  0  0  0  0  0
  144.9712  131.7089  150.5871 C   0  0  0  0  0  0  0  0  0  0  0  0
  143.8179  132.4639  150.2908 C   0  0  0  0  0  0  0  0  0  0  0  0
  143.8360  133.8066  150.4415 N   0  3  0  0  0  0  0  0  0  0  0  0
  148.1471  138.2472  153.2220 N   0  0  0  0  0  0  0  0  0  0  0  0
  148.8242  139.3938  153.8137 C   0  0  0  0  0  0  0  0  0  0  0  0
  149.8813  138.9460  154.8374 C   0  0  2  0  0  0  0  0  0  0  0  0
  150.4581  140.1271  155.6420 C   0  0  0  0  0  0  0  0  0  0  0  0
  151.6729  139.6309  156.4317 C   0  0  0  0  0  0  0  0  0  0  0  0
  152.4743  138.3807  155.3611 S   0  0  0  0  0  0  0  0  0  0  0  0
  153.5956  139.0005  154.6390 O   0  0  0  0  0  0  0  0  0  0  0  0
  152.6606  137.1400  156.1286 O   0  0  0  0  0  0  0  0  0  0  0  0
  151.0619  138.1850  154.2076 C   0  0  0  0  0  0  0  0  0  0  0  0
  147.1965  136.3523  152.2250 H   0  0  0  0  0  0  0  0  0  0  0  0
  144.8830  135.6721  153.1545 H   0  0  0  0  0  0  0  0  0  0  0  0
  144.4261  137.2951  152.6908 H   0  0  0  0  0  0  0  0  0  0  0  0
  143.8351  136.3109  150.6806 H   0  0  0  0  0  0  0  0  0  0  0  0
  145.5369  136.4520  150.3144 H   0  0  0  0  0  0  0  0  0  0  0  0
  146.9851  134.3024  151.5317 H   0  0  0  0  0  0  0  0  0  0  0  0
  147.0237  131.8170  151.2740 H   0  0  0  0  0  0  0  0  0  0  0  0
  144.9681  130.6351  150.4695 H   0  0  0  0  0  0  0  0  0  0  0  0
  142.8890  132.0382  149.9401 H   0  0  0  0  0  0  0  0  0  0  0  0
  148.7273  137.5440  152.7883 H   0  0  0  0  0  0  0  0  0  0  0  0
  149.2901  139.9847  153.0233 H   0  0  0  0  0  0  0  0  0  0  0  0
  148.0865  140.0346  154.2995 H   0  0  0  0  0  0  0  0  0  0  0  0
  149.4041  138.2747  155.5533 H   0  0  0  0  0  0  0  0  0  0  0  0
  150.7819  140.9080  154.9523 H   0  0  0  0  0  0  0  0  0  0  0  0
  149.7111  140.5723  156.2998 H   0  0  0  0  0  0  0  0  0  0  0  0
  152.3770  140.4246  156.6814 H   0  0  0  0  0  0  0  0  0  0  0  0
  151.3601  139.1369  157.3519 H   0  0  0  0  0  0  0  0  0  0  0  0
  150.8522  137.1270  154.0502 H   0  0  0  0  0  0  0  0  0  0  0  0
  151.3504  138.6268  153.2532 H   0  0  0  0  0  0  0  0  0  0  0  0
  142.9900  134.3327  150.2211 H   0  0  0  0  0  0  0  0  0  0  0  0
  1  2  2  0  0  0  0
  2  3  1  0  0  0  0
  2 12  1  0  0  0  0
  3  4  1  0  0  0  0
  3 21  1  0  0  0  0
  4  5  1  0  0  0  0
  4 22  1  0  0  0  0
  4 23  1  0  0  0  0
  5  6  1  0  0  0  0
  5 24  1  0  0  0  0
  5 25  1  0  0  0  0
  6 11  1  0  0  0  0
  6  7  2  0  0  0  0
  7  8  1  0  0  0  0
  7 26  1  0  0  0  0
  8  9  2  0  0  0  0
  8 27  1  0  0  0  0
  9 10  1  0  0  0  0
  9 28  1  0  0  0  0
 10 11  2  0  0  0  0
 10 29  1  0  0  0  0
 11 40  1  0  0  0  0
 12 13  1  0  0  0  0
 12 30  1  0  0  0  0
 13 14  1  0  0  0  0
 13 31  1  0  0  0  0
 13 32  1  0  0  0  0
 14 20  1  0  0  0  0
 14 15  1  0  0  0  0
 14 33  1  0  0  0  0
 15 16  1  0  0  0  0
 15 34  1  0  0  0  0
 15 35  1  0  0  0  0
 16 17  1  0  0  0  0
 16 36  1  0  0  0  0
 16 37  1  0  0  0  0
 17 18  2  0  0  0  0
 17 19  2  0  0  0  0
 17 20  1  0  0  0  0
 20 38  1  0  0  0  0
 20 39  1  0  0  0  0
M  CHG  1  11   1
M  END
> <s_m_source_file>
AV-unprocessed.smi

> <i_m_source_file_index>
1504

> <i_lp_mmshare_version>
43012

> <i_f3d_flags>
0

> <s_epik_input>
Tz1TMSg9TylbQ0gyXVtDSDJdW0NASF0oW0NIMl0xKVtDSDJdW05IXUMoPU8pW05IXVtDSDJdW0NIMl1jMltjSF1bY0hdW2NIXVtjSF1uMg==

> <s_epik_cmdline>
J2VwaWtfcHl0aG9uJywgJy1waCcsICc3LjAnLCAnLXRuJywgJzgnLCAnLW1hJywgJzIwMCcsICctbWV0YWxfYmluZGluZycsICctaW1hZScsICc8aW5maWxlLm1hZT4nLCAnLW9tYWUnLCAnPG91dGZpbGUubWFlPic=

> <r_epik_Ionization_Penalty>
1.57393

> <r_epik_Ionization_Penalty_Charging>
1.57388

> <r_epik_Ionization_Penalty_Neutral>
4.82054e-05

> <r_epik_State_Penalty>
1.66991

> <r_epik_Charging_Adjusted_Penalty>
3.24379

> <i_epik_Tot_Q>
1

> <i_epik_Tot_abs_Q>
1

> <r_epik_Metal_State_Penalty>
1.71052

> <b_epik_Metal_Only>
0

> <s_lp_Force_Field>
OPLS_2005

> <r_lp_Energy>
6.68719

> <b_lp_Chiralities_Consistent>
1

> <s_lp_Variant>
AV-unprocessed.smi:1504-3

> <Gold.Version>
5.8.1

> <Gold.Id.Protein>
6NUR|6NUR_protein|mol2

> <Gold.PLP.Fitness>
52.7249

> <Gold.PLP.PLP>
-36.4010

> <Gold.PLP.part.hbond>
-5.8266

> <Gold.PLP.part.metal>
0.0000

> <Gold.PLP.part.buried>
-2.2920

> <Gold.PLP.part.nonpolar>
-31.0978

> <Gold.PLP.part.repulsive>
0.4880

> <Gold.PLP.ligand.clash>
0.0000

> <Gold.PLP.ligand.torsion>
0.3912

> <Gold.PLP.Chemscore.Hbond>
5.6946

> <Gold.PLP.Chemscore.CHOScore>
0.0000

> <Gold.PLP.Chemscore.Metal>
0.0000

> <Gold.Chemscore.Hbonds>
donor molecule, donor type, donor heavy atom, donor atom, acceptor molecule, acceptor atom, score
      L1  H     3    21       P1  7948  0.93
      L1  H    11    40       P1 10186  1.69
      L1  H    12    30       P1  7948  1.00
      P1  H  7997  8008       L1    18  1.00
      P1  H 10752 10764       L1    19  0.78

> <Gold.PLP.Chemscore.Internal.Correction>
0.0224

> <Gold.Rescore>
     Score         DG    S(hbond)    S(metal)    S(lipo)     H(rot)  DE(clash)    DE(int)     intcor
     24.75     -25.25       4.66        0.00      80.00       2.01       0.04       0.46       ----

> <Gold.Chemscore.Fitness>
24.7475

> <Gold.Chemscore.DG>
-25.2474

> <Gold.Chemscore.ZeroCoef>
-5.4800

> <Gold.Chemscore.Hbond>
4.6602

> <Gold.Chemscore.Metal>
0.0000

> <Gold.Chemscore.Lipo>
79.9975

> <Gold.Chemscore.Internal_Hbond>
0.0000

> <Gold.Chemscore.DEClash>
0.0437

> <Gold.Chemscore.DEInternal>
0.4562

> <Gold.Chemscore.Rot>
2.0146

> <Gold.Chemscore.Internal.Correction>
   9.000000E+99

> <Gold.Chemscore.Hbonds>
donor molecule, donor type, donor heavy atom, donor atom, acceptor molecule, acceptor atom, score
      L1  H     3    21       P1  7948  0.90
      L1  H    11    40       P1 10186  0.71
      L1  H    12    30       P1  7948  0.96
      P1  H  7997  8008       L1    18  0.87
      P1  H 10752 10764       L1    19  0.70

> <Gold.Chemscore.Hbond.Weighted>
-15.5650

> <Gold.Chemscore.Metal.Weighted>
-0.0000

> <Gold.Chemscore.Lipo.Weighted>
-9.3597

> <Gold.Chemscore.Internal_Hbond.Weighted>
0.0000

> <Gold.Chemscore.DEClash.Weighted>
0.0437

> <Gold.Chemscore.DEInternal.Weighted>
0.4562

> <Gold.Chemscore.Rot.Weighted>
5.1573

> <Gold.Chemscore.Internal.Correction.Weighted>
   9.000000E+99

> <Gold.Protein.RotatedTorsions>
[ 6907 6896 6895 6894 ] final  -54.66 input  -60.11 | X-H torsion
[ 7974 7965 7964 7962 ] final   94.62 input  175.53 | X-H torsion
[ 8008 7997 7996 7995 ] final   -1.77 input   59.86 | X-H torsion
[ 10167 10162 10161 10158 ] final  -45.78 input  -65.29 | X-H torsion
[ 10718 10713 10712 10709 ] final   54.84 input   66.30 | X-H torsion
[ 10763 10752 10751 10750 ] final  -23.74 input  -60.55 | X-H torsion
[ 11005 11000 10999 10996 ] final  -20.43 input  -57.11 | X-H torsion

> <Gold.Protein.ActiveResidues>
 VAL166  LYS551  ARG553  GLY616  TRP617  ASP618  TYR619  PRO620  LYS621  CYS622 
 ASP623  PHE694  ASN695  SER759  ASP760  ASP761  ALA762  ILE779  LEU786  VAL792 
 PHE793  MET794  SER795  GLU796  ALA797  LYS798  CYS799  TRP800  GLU811  SER814 

> <Gold.Protein.RotatedAtoms>
  150.8319  134.7576  159.6860 H   0  0  0  0  0  0  0  0  0  0  0  0  # atno 6907 bound_to 6896
  152.4422  134.5564  159.9891 H   0  0  0  0  0  0  0  0  0  0  0  0  # atno 6908 bound_to 6896
  151.5723  133.3350  159.3028 H   0  0  0  0  0  0  0  0  0  0  0  0  # atno 6909 bound_to 6896
  145.4631  139.2286  143.2976 H   0  0  0  0  0  0  0  0  0  0  0  0  # atno 7974 bound_to 7965
  154.6431  140.2551  155.7299 H   0  0  0  0  0  0  0  0  0  0  0  0  # atno 8008 bound_to 7997
  156.2539  140.2883  156.0754 H   0  0  0  0  0  0  0  0  0  0  0  0  # atno 8009 bound_to 7997
  155.1566  140.0383  157.2823 H   0  0  0  0  0  0  0  0  0  0  0  0  # atno 8010 bound_to 7997
  140.6844  143.2863  151.3688 H   0  0  0  0  0  0  0  0  0  0  0  0  # atno 10167 bound_to 10162
  157.5292  130.8619  149.8664 H   0  0  0  0  0  0  0  0  0  0  0  0  # atno 10718 bound_to 10713
  153.6727  135.6971  153.5142 H   0  0  0  0  0  0  0  0  0  0  0  0  # atno 10763 bound_to 10752
  153.2545  135.4264  155.0831 H   0  0  0  0  0  0  0  0  0  0  0  0  # atno 10764 bound_to 10752
  154.8422  135.3540  154.6271 H   0  0  0  0  0  0  0  0  0  0  0  0  # atno 10765 bound_to 10752
  140.8463  133.7889  155.9916 H   0  0  0  0  0  0  0  0  0  0  0  0  # atno 11005 bound_to 11000
  146.2439  140.5402  142.8922 LP  0  0  0  0  0  0  0  0  0  0  0  0  # atno 17320 bound_to 7965
  144.7990  140.6178  143.6490 LP  0  0  0  0  0  0  0  0  0  0  0  0  # atno 17321 bound_to 7965
  139.6191  144.0943  152.2374 LP  0  0  0  0  0  0  0  0  0  0  0  0  # atno 17342 bound_to 10162
  140.0381  144.6028  150.7433 LP  0  0  0  0  0  0  0  0  0  0  0  0  # atno 17343 bound_to 10162
  156.0410  130.3739  150.1436 LP  0  0  0  0  0  0  0  0  0  0  0  0  # atno 17370 bound_to 10713
  156.9621  130.9808  151.3477 LP  0  0  0  0  0  0  0  0  0  0  0  0  # atno 17371 bound_to 10713
  140.8839  134.2577  157.5130 LP  0  0  0  0  0  0  0  0  0  0  0  0  # atno 17394 bound_to 11000
  139.8703  134.9629  156.4443 LP  0  0  0  0  0  0  0  0  0  0  0  0  # atno 17395 bound_to 11000

$$$$
