AV-unprocessed.smi:2688|AV-procd|sdf|10386|dock9
  -GOLD-   2272014423D 1   1.00000     0.00000
 Structure written by MMmdl.
 51 54  0  0  0  0  0  0  0  0  1 V2000
  143.2416  136.1580  162.9173 C   0  0  0  0  0  0  0  0  0  0  0  0
  144.4801  135.3678  162.6157 C   0  0  0  0  0  0  0  0  0  0  0  0
  144.5205  133.9186  162.6620 C   0  0  0  0  0  0  0  0  0  0  0  0
  145.6739  133.2792  162.3717 C   0  0  0  0  0  0  0  0  0  0  0  0
  146.8867  134.0095  162.0094 C   0  0  0  0  0  0  0  0  0  0  0  0
  147.9514  133.4563  161.7345 O   0  0  0  0  0  0  0  0  0  0  0  0
  146.7292  135.3668  162.0005 N   0  0  0  0  0  0  0  0  0  0  0  0
  147.8406  136.2583  161.6386 C   0  0  0  0  0  0  0  0  0  0  0  0
  148.0718  136.3421  160.1232 C   0  0  0  0  0  0  0  0  0  0  0  0
  148.9606  135.6784  159.5870 O   0  0  0  0  0  0  0  0  0  0  0  0
  147.2504  137.1549  159.4408 N   0  0  0  0  0  0  0  0  0  0  0  0
  147.3194  137.3907  158.0033 C   0  0  0  0  0  0  0  0  0  0  0  0
  147.3905  138.9004  157.6910 C   0  0  0  0  0  0  0  0  0  0  0  0
  148.3916  139.3284  156.5883 C   0  0  0  0  0  0  0  0  0  0  0  0
  149.8397  138.8804  156.9284 C   0  0  0  0  0  0  0  0  0  0  0  0
  150.8241  139.3712  155.8451 C   0  0  1  0  0  0  0  0  0  0  0  0
  150.4226  138.7799  154.4771 C   0  0  0  0  0  0  0  0  0  0  0  0
  148.9949  139.2454  154.1194 C   0  0  2  0  0  0  0  0  0  0  0  0
  148.9584  140.7854  154.0426 C   0  0  0  0  0  0  0  0  0  0  0  0
  149.3633  141.3694  155.4115 C   0  0  2  0  0  0  0  0  0  0  0  0
  150.7910  140.9113  155.7729 C   0  0  0  0  0  0  0  0  0  0  0  0
  148.3772  140.8782  156.4915 C   0  0  0  0  0  0  0  0  0  0  0  0
  148.0045  138.7541  155.1985 C   0  0  0  0  0  0  0  0  0  0  0  0
  145.5481  136.0251  162.3020 N   0  0  0  0  0  0  0  0  0  0  0  0
  142.4039  135.5022  163.1558 H   0  0  0  0  0  0  0  0  0  0  0  0
  142.9533  136.7694  162.0616 H   0  0  0  0  0  0  0  0  0  0  0  0
  143.4010  136.8201  163.7688 H   0  0  0  0  0  0  0  0  0  0  0  0
  143.6319  133.3645  162.9268 H   0  0  0  0  0  0  0  0  0  0  0  0
  145.7026  132.1998  162.4059 H   0  0  0  0  0  0  0  0  0  0  0  0
  147.6517  137.2681  162.0076 H   0  0  0  0  0  0  0  0  0  0  0  0
  148.7560  135.9315  162.1358 H   0  0  0  0  0  0  0  0  0  0  0  0
  146.5424  137.6588  159.9548 H   0  0  0  0  0  0  0  0  0  0  0  0
  148.1754  136.8558  157.5918 H   0  0  0  0  0  0  0  0  0  0  0  0
  146.4303  136.9496  157.5541 H   0  0  0  0  0  0  0  0  0  0  0  0
  146.3909  139.2391  157.4147 H   0  0  0  0  0  0  0  0  0  0  0  0
  147.6382  139.4390  158.6071 H   0  0  0  0  0  0  0  0  0  0  0  0
  150.1367  139.2662  157.9047 H   0  0  0  0  0  0  0  0  0  0  0  0
  149.9048  137.7947  156.9965 H   0  0  0  0  0  0  0  0  0  0  0  0
  151.8328  139.0435  156.0988 H   0  0  0  0  0  0  0  0  0  0  0  0
  151.1276  139.0965  153.7075 H   0  0  0  0  0  0  0  0  0  0  0  0
  150.4691  137.6906  154.5077 H   0  0  0  0  0  0  0  0  0  0  0  0
  148.7114  138.8298  153.1519 H   0  0  0  0  0  0  0  0  0  0  0  0
  149.6341  141.1426  153.2642 H   0  0  0  0  0  0  0  0  0  0  0  0
  147.9603  141.1272  153.7654 H   0  0  0  0  0  0  0  0  0  0  0  0
  149.3343  142.4584  155.3631 H   0  0  0  0  0  0  0  0  0  0  0  0
  151.0965  141.3418  156.7274 H   0  0  0  0  0  0  0  0  0  0  0  0
  151.5036  141.2708  155.0297 H   0  0  0  0  0  0  0  0  0  0  0  0
  147.3722  141.2332  156.2584 H   0  0  0  0  0  0  0  0  0  0  0  0
  148.6381  141.3195  157.4545 H   0  0  0  0  0  0  0  0  0  0  0  0
  148.0104  137.6642  155.2157 H   0  0  0  0  0  0  0  0  0  0  0  0
  146.9886  139.0514  154.9347 H   0  0  0  0  0  0  0  0  0  0  0  0
  1  2  1  0  0  0  0
  1 25  1  0  0  0  0
  1 26  1  0  0  0  0
  1 27  1  0  0  0  0
  2 24  2  0  0  0  0
  2  3  1  0  0  0  0
  3  4  2  0  0  0  0
  3 28  1  0  0  0  0
  4  5  1  0  0  0  0
  4 29  1  0  0  0  0
  5  6  2  0  0  0  0
  5  7  1  0  0  0  0
  7  8  1  0  0  0  0
  7 24  1  0  0  0  0
  8  9  1  0  0  0  0
  8 30  1  0  0  0  0
  8 31  1  0  0  0  0
  9 10  2  0  0  0  0
  9 11  1  0  0  0  0
 11 12  1  0  0  0  0
 11 32  1  0  0  0  0
 12 13  1  0  0  0  0
 12 33  1  0  0  0  0
 12 34  1  0  0  0  0
 13 14  1  0  0  0  0
 13 35  1  0  0  0  0
 13 36  1  0  0  0  0
 14 22  1  0  0  0  0
 14 23  1  0  0  0  0
 14 15  1  0  0  0  0
 15 16  1  0  0  0  0
 15 37  1  0  0  0  0
 15 38  1  0  0  0  0
 16 21  1  0  0  0  0
 16 17  1  0  0  0  0
 16 39  1  0  0  0  0
 17 18  1  0  0  0  0
 17 40  1  0  0  0  0
 17 41  1  0  0  0  0
 18 19  1  0  0  0  0
 18 23  1  0  0  0  0
 18 42  1  0  0  0  0
 19 20  1  0  0  0  0
 19 43  1  0  0  0  0
 19 44  1  0  0  0  0
 20 21  1  0  0  0  0
 20 22  1  0  0  0  0
 20 45  1  0  0  0  0
 21 46  1  0  0  0  0
 21 47  1  0  0  0  0
 22 48  1  0  0  0  0
 22 49  1  0  0  0  0
 23 50  1  0  0  0  0
 23 51  1  0  0  0  0
M  END
> <s_m_source_file>
AV-unprocessed.smi

> <i_m_source_file_index>
2688

> <i_lp_mmshare_version>
43012

> <i_f3d_flags>
0

> <s_epik_input>
W0NIM11jMVtjSF1bY0hdYyg9TyluKG4xKVtDSDJdQyg9TylbTkhdW0NIMl1bQ0gyXUMyM1tDSDJdW0NASF00W0NIMl1bQ0BASF0oW0NIMl0zKVtDSDJdW0NASF0oW0NIMl00KVtDSDJdMg==

> <s_epik_cmdline>
J2VwaWtfcHl0aG9uJywgJy1waCcsICc3LjAnLCAnLXRuJywgJzgnLCAnLW1hJywgJzIwMCcsICctbWV0YWxfYmluZGluZycsICctaW1hZScsICc8aW5maWxlLm1hZT4nLCAnLW9tYWUnLCAnPG91dGZpbGUubWFlPic=

> <r_lp_tautomer_probability>
1

> <r_epik_Ionization_Penalty>
8.74812e-07

> <r_epik_Ionization_Penalty_Charging>
8.53005e-07

> <r_epik_Ionization_Penalty_Neutral>
2.18061e-08

> <r_epik_State_Penalty>
-0

> <r_epik_Charging_Adjusted_Penalty>
8.53005e-07

> <i_epik_Tot_Q>
0

> <i_epik_Tot_abs_Q>
0

> <r_epik_Metal_State_Penalty>
-0

> <b_epik_Metal_Only>
0

> <s_lp_Force_Field>
OPLS_2005

> <r_lp_Energy>
47.4944

> <b_lp_Chiralities_Consistent>
1

> <s_lp_Variant>
AV-unprocessed.smi:2688-1

> <Gold.Version>
5.8.1

> <Gold.Id.Protein>
6NUR|6NUR_protein|mol2

> <Gold.PLP.Fitness>
41.5937

> <Gold.PLP.PLP>
-40.3634

> <Gold.PLP.part.hbond>
-1.0000

> <Gold.PLP.part.metal>
0.0000

> <Gold.PLP.part.buried>
-3.1713

> <Gold.PLP.part.nonpolar>
-35.8894

> <Gold.PLP.part.repulsive>
0.1544

> <Gold.PLP.ligand.clash>
0.0000

> <Gold.PLP.ligand.torsion>
0.8853

> <Gold.PLP.Chemscore.Hbond>
0.9913

> <Gold.PLP.Chemscore.CHOScore>
0.0000

> <Gold.PLP.Chemscore.Metal>
0.0000

> <Gold.Chemscore.Hbonds>
donor molecule, donor type, donor heavy atom, donor atom, acceptor molecule, acceptor atom, score
      P1  H  6896  6909       L1    10  0.96

> <Gold.PLP.Chemscore.Internal.Correction>
0.0272

> <Gold.Rescore>
     Score         DG    S(hbond)    S(metal)    S(lipo)     H(rot)  DE(clash)    DE(int)     intcor
     13.68     -14.45       0.98        0.00      86.54       1.73       0.03       0.74       ----

> <Gold.Chemscore.Fitness>
13.6837

> <Gold.Chemscore.DG>
-14.4504

> <Gold.Chemscore.ZeroCoef>
-5.4800

> <Gold.Chemscore.Hbond>
0.9826

> <Gold.Chemscore.Metal>
0.0000

> <Gold.Chemscore.Lipo>
86.5397

> <Gold.Chemscore.Internal_Hbond>
0.0000

> <Gold.Chemscore.DEClash>
0.0270

> <Gold.Chemscore.DEInternal>
0.7397

> <Gold.Chemscore.Rot>
1.7331

> <Gold.Chemscore.Internal.Correction>
   9.000000E+99

> <Gold.Chemscore.Hbonds>
donor molecule, donor type, donor heavy atom, donor atom, acceptor molecule, acceptor atom, score
      P1  H  6896  6909       L1    10  0.87

> <Gold.Chemscore.Hbond.Weighted>
-3.2820

> <Gold.Chemscore.Metal.Weighted>
-0.0000

> <Gold.Chemscore.Lipo.Weighted>
-10.1251

> <Gold.Chemscore.Internal_Hbond.Weighted>
0.0000

> <Gold.Chemscore.DEClash.Weighted>
0.0270

> <Gold.Chemscore.DEInternal.Weighted>
0.7397

> <Gold.Chemscore.Rot.Weighted>
4.4367

> <Gold.Chemscore.Internal.Correction.Weighted>
   9.000000E+99

> <Gold.Protein.RotatedTorsions>
[ 6907 6896 6895 6894 ] final   44.67 input  -60.11 | X-H torsion
[ 7974 7965 7964 7962 ] final   75.12 input  175.53 | X-H torsion
[ 8008 7997 7996 7995 ] final  -77.82 input   59.86 | X-H torsion
[ 10167 10162 10161 10158 ] final  -47.62 input  -65.29 | X-H torsion
[ 10718 10713 10712 10709 ] final -179.33 input   66.30 | X-H torsion
[ 10763 10752 10751 10750 ] final -151.85 input  -60.55 | X-H torsion
[ 11005 11000 10999 10996 ] final    1.71 input  -57.11 | X-H torsion

> <Gold.Protein.ActiveResidues>
 VAL166  LYS551  ARG553  GLY616  TRP617  ASP618  TYR619  PRO620  LYS621  CYS622 
 ASP623  PHE694  ASN695  SER759  ASP760  ASP761  ALA762  ILE779  LEU786  VAL792 
 PHE793  MET794  SER795  GLU796  ALA797  LYS798  CYS799  TRP800  GLU811  SER814 

> <Gold.Protein.RotatedAtoms>
  152.2353  134.8282  160.0467 H   0  0  0  0  0  0  0  0  0  0  0  0  # atno 6907 bound_to 6896
  151.9016  133.3534  159.3841 H   0  0  0  0  0  0  0  0  0  0  0  0  # atno 6908 bound_to 6896
  150.7037  134.4748  159.5486 H   0  0  0  0  0  0  0  0  0  0  0  0  # atno 6909 bound_to 6896
  145.7196  139.2644  143.1603 H   0  0  0  0  0  0  0  0  0  0  0  0  # atno 7974 bound_to 7965
  154.5631  140.0704  156.8850 H   0  0  0  0  0  0  0  0  0  0  0  0  # atno 8008 bound_to 7997
  155.2774  140.3369  155.4242 H   0  0  0  0  0  0  0  0  0  0  0  0  # atno 8009 bound_to 7997
  156.2059  140.1739  156.7787 H   0  0  0  0  0  0  0  0  0  0  0  0  # atno 8010 bound_to 7997
  140.6767  143.2776  151.3953 H   0  0  0  0  0  0  0  0  0  0  0  0  # atno 10167 bound_to 10162
  156.8575  130.9740  151.3086 H   0  0  0  0  0  0  0  0  0  0  0  0  # atno 10718 bound_to 10713
  154.8031  135.3250  154.7499 H   0  0  0  0  0  0  0  0  0  0  0  0  # atno 10763 bound_to 10752
  153.8163  135.6891  153.4838 H   0  0  0  0  0  0  0  0  0  0  0  0  # atno 10764 bound_to 10752
  153.1760  135.4605  154.9910 H   0  0  0  0  0  0  0  0  0  0  0  0  # atno 10765 bound_to 10752
  140.6124  133.9736  155.8184 H   0  0  0  0  0  0  0  0  0  0  0  0  # atno 11005 bound_to 11000
  146.0638  140.7943  142.9722 LP  0  0  0  0  0  0  0  0  0  0  0  0  # atno 17320 bound_to 7965
  144.6920  140.3236  143.7228 LP  0  0  0  0  0  0  0  0  0  0  0  0  # atno 17321 bound_to 7965
  139.6064  144.1189  152.2253 LP  0  0  0  0  0  0  0  0  0  0  0  0  # atno 17342 bound_to 10162
  140.0589  144.5872  150.7278 LP  0  0  0  0  0  0  0  0  0  0  0  0  # atno 17343 bound_to 10162
  157.6269  130.8698  149.9205 LP  0  0  0  0  0  0  0  0  0  0  0  0  # atno 17370 bound_to 10713
  156.0795  130.3675  150.0610 LP  0  0  0  0  0  0  0  0  0  0  0  0  # atno 17371 bound_to 10713
  141.0799  134.0079  157.3402 LP  0  0  0  0  0  0  0  0  0  0  0  0  # atno 17394 bound_to 11000
  139.9187  135.0199  156.7980 LP  0  0  0  0  0  0  0  0  0  0  0  0  # atno 17395 bound_to 11000

$$$$
