AV-unprocessed.smi:21|AV-procd|sdf|121|dock7
  -GOLD-   2262015293D 1   1.00000     0.00000
 Structure written by MMmdl.
 62 65  0  0  0  0  0  0  0  0  2 V2000
  144.0966  132.9038  150.1103 C   0  0  0  0  0  0  0  0  0  0  0  0
  144.1929  133.3375  151.4572 O   0  0  0  0  0  0  0  0  0  0  0  0
  144.3026  134.7465  151.5919 C   0  0  1  0  0  0  0  0  0  0  0  0
  144.4500  135.1308  153.0575 C   0  0  0  0  0  0  0  0  0  0  0  0
  145.1028  136.5139  152.9864 C   0  0  1  0  0  0  0  0  0  0  0  0
  145.8715  136.8953  154.2692 C   0  0  0  0  0  0  0  0  0  0  0  0
  145.4982  138.2009  154.8092 N   0  0  0  0  0  0  0  0  0  0  0  0
  144.0897  138.3666  155.1383 C   0  0  0  0  0  0  0  0  0  0  0  0
  146.3007  138.6510  155.7984 C   0  0  0  0  0  0  0  0  0  0  0  0
  146.3234  137.9391  156.9515 N   0  0  0  0  0  0  0  0  0  0  0  0
  147.0908  138.3422  157.9691 C   0  0  0  0  0  0  0  0  0  0  0  0
  147.8945  139.4061  158.0386 N   0  0  0  0  0  0  0  0  0  0  0  0
  147.8731  140.1217  156.8775 C   0  0  0  0  0  0  0  0  0  0  0  0
  147.1097  139.8188  155.7159 C   0  0  0  0  0  0  0  0  0  0  0  0
  147.3412  140.7728  154.7321 N   0  0  0  0  0  0  0  0  0  0  0  0
  148.2029  141.5878  155.2773 C   0  0  0  0  0  0  0  0  0  0  0  0
  148.5795  141.2692  156.5624 N   0  0  0  0  0  0  0  0  0  0  0  0
  149.5183  142.0025  157.3943 C   0  0  0  0  0  0  0  0  0  0  0  0
  150.8975  142.2161  156.7201 C   0  0  2  0  0  0  0  0  0  0  0  0
  151.5431  140.8602  156.3326 C   0  0  0  0  0  0  0  0  0  0  0  0
  150.9318  140.2890  155.1954 O   0  0  0  0  0  0  0  0  0  0  0  0
  151.8233  143.0669  157.6337 C   0  0  2  0  0  0  0  0  0  0  0  0
  152.0045  142.5269  159.0436 C   0  0  0  0  0  0  0  0  0  0  0  0
  152.5351  143.7400  159.7995 C   0  0  0  0  0  0  0  0  0  0  0  0
  151.9629  144.8741  159.1606 O   0  0  0  0  0  0  0  0  0  0  0  0
  151.3180  144.4784  157.9548 C   0  0  0  0  0  0  0  0  0  0  0  0
  146.0052  136.4541  151.8128 N   0  3  2  0  0  0  0  0  0  0  0  0
  146.1363  137.7364  151.0869 C   0  0  0  0  0  0  0  0  0  0  0  0
  145.5765  135.3214  150.9580 C   0  0  0  0  0  0  0  0  0  0  0  0
  143.4212  135.2465  151.1854 H   0  0  0  0  0  0  0  0  0  0  0  0
  144.3226  137.2471  152.7720 H   0  0  0  0  0  0  0  0  0  0  0  0
  143.9949  131.8188  150.0835 H   0  0  0  0  0  0  0  0  0  0  0  0
  144.9868  133.1686  149.5390 H   0  0  0  0  0  0  0  0  0  0  0  0
  143.2233  133.3343  149.6186 H   0  0  0  0  0  0  0  0  0  0  0  0
  143.4984  135.1361  153.5898 H   0  0  0  0  0  0  0  0  0  0  0  0
  145.1127  134.4252  153.5613 H   0  0  0  0  0  0  0  0  0  0  0  0
  145.6948  136.1397  155.0357 H   0  0  0  0  0  0  0  0  0  0  0  0
  146.9447  136.8823  154.0774 H   0  0  0  0  0  0  0  0  0  0  0  0
  143.8950  139.3592  155.5469 H   0  0  0  0  0  0  0  0  0  0  0  0
  143.7677  137.6239  155.8693 H   0  0  0  0  0  0  0  0  0  0  0  0
  143.4782  138.2484  154.2436 H   0  0  0  0  0  0  0  0  0  0  0  0
  147.0581  137.7230  158.8536 H   0  0  0  0  0  0  0  0  0  0  0  0
  148.5939  142.4481  154.7533 H   0  0  0  0  0  0  0  0  0  0  0  0
  149.0496  142.9568  157.6326 H   0  0  0  0  0  0  0  0  0  0  0  0
  149.6387  141.4742  158.3409 H   0  0  0  0  0  0  0  0  0  0  0  0
  150.7192  142.7767  155.8008 H   0  0  0  0  0  0  0  0  0  0  0  0
  152.6125  140.9771  156.1549 H   0  0  0  0  0  0  0  0  0  0  0  0
  151.4377  140.1236  157.1274 H   0  0  0  0  0  0  0  0  0  0  0  0
  150.0005  140.2393  155.3481 H   0  0  0  0  0  0  0  0  0  0  0  0
  152.8083  143.1501  157.1708 H   0  0  0  0  0  0  0  0  0  0  0  0
  151.0439  142.2188  159.4594 H   0  0  0  0  0  0  0  0  0  0  0  0
  152.6891  141.6802  159.0998 H   0  0  0  0  0  0  0  0  0  0  0  0
  152.2858  143.7112  160.8603 H   0  0  0  0  0  0  0  0  0  0  0  0
  153.6200  143.8012  159.7073 H   0  0  0  0  0  0  0  0  0  0  0  0
  151.5267  145.1898  157.1557 H   0  0  0  0  0  0  0  0  0  0  0  0
  150.2417  144.4728  158.1317 H   0  0  0  0  0  0  0  0  0  0  0  0
  145.1830  138.0432  150.6545 H   0  0  0  0  0  0  0  0  0  0  0  0
  146.8640  137.6441  150.2802 H   0  0  0  0  0  0  0  0  0  0  0  0
  146.4778  138.5256  151.7575 H   0  0  0  0  0  0  0  0  0  0  0  0
  146.3754  134.5791  150.9710 H   0  0  0  0  0  0  0  0  0  0  0  0
  145.4134  135.6089  149.9183 H   0  0  0  0  0  0  0  0  0  0  0  0
  146.9216  136.2113  152.1617 H   0  0  0  0  0  0  0  0  0  0  0  0
  1  2  1  0  0  0  0
  1 32  1  0  0  0  0
  1 33  1  0  0  0  0
  1 34  1  0  0  0  0
  2  3  1  0  0  0  0
  3 30  1  0  0  0  0
  3 29  1  0  0  0  0
  3  4  1  0  0  0  0
  4  5  1  0  0  0  0
  4 35  1  0  0  0  0
  4 36  1  0  0  0  0
  5 31  1  0  0  0  0
  5  6  1  0  0  0  0
  5 27  1  0  0  0  0
  6  7  1  0  0  0  0
  6 37  1  0  0  0  0
  6 38  1  0  0  0  0
  7  8  1  0  0  0  0
  7  9  1  0  0  0  0
  8 39  1  0  0  0  0
  8 40  1  0  0  0  0
  8 41  1  0  0  0  0
  9 14  1  0  0  0  0
  9 10  2  0  0  0  0
 10 11  1  0  0  0  0
 11 12  2  0  0  0  0
 11 42  1  0  0  0  0
 12 13  1  0  0  0  0
 13 17  1  0  0  0  0
 13 14  2  0  0  0  0
 14 15  1  0  0  0  0
 15 16  2  0  0  0  0
 16 17  1  0  0  0  0
 16 43  1  0  0  0  0
 17 18  1  0  0  0  0
 18 19  1  0  0  0  0
 18 44  1  0  0  0  0
 18 45  1  0  0  0  0
 19 20  1  0  0  0  0
 19 22  1  0  0  0  0
 19 46  1  0  0  0  0
 20 21  1  0  0  0  0
 20 47  1  0  0  0  0
 20 48  1  0  0  0  0
 21 49  1  0  0  0  0
 22 26  1  0  0  0  0
 22 23  1  0  0  0  0
 22 50  1  0  0  0  0
 23 24  1  0  0  0  0
 23 51  1  0  0  0  0
 23 52  1  0  0  0  0
 24 25  1  0  0  0  0
 24 53  1  0  0  0  0
 24 54  1  0  0  0  0
 25 26  1  0  0  0  0
 26 55  1  0  0  0  0
 26 56  1  0  0  0  0
 27 28  1  0  0  0  0
 27 29  1  0  0  0  0
 27 62  1  0  0  0  0
 28 57  1  0  0  0  0
 28 58  1  0  0  0  0
 28 59  1  0  0  0  0
 29 60  1  0  0  0  0
 29 61  1  0  0  0  0
M  CHG  1  27   1
M  END
> <s_m_source_file>
AV-unprocessed.smi

> <i_m_source_file_index>
21

> <i_lp_mmshare_version>
43012

> <i_f3d_flags>
0

> <s_epik_input>
W0NIM11PW0NASF0xW0NIMl1bQ0BIXShOKFtDSDNdKVtDSDJdMSlbQ0gyXU4oW0NIM10pYyhuW2NIXW4yKWMoYzIzKW5bY0hdbjNbQ0gyXVtDQEhdKFtDSDJdW09IXSlbQ0BASF00W0NIMl1bQ0gyXU9bQ0gyXTQ=

> <s_epik_cmdline>
J2VwaWtfcHl0aG9uJywgJy1waCcsICc3LjAnLCAnLXRuJywgJzgnLCAnLW1hJywgJzIwMCcsICctbWV0YWxfYmluZGluZycsICctaW1hZScsICc8aW5maWxlLm1hZT4nLCAnLW9tYWUnLCAnPG91dGZpbGUubWFlPic=

> <r_lp_tautomer_probability>
1

> <r_epik_Ionization_Penalty>
0.0157465

> <r_epik_Ionization_Penalty_Charging>
0.015354

> <r_epik_Ionization_Penalty_Neutral>
0.000392529

> <r_epik_State_Penalty>
0.0120612

> <r_epik_Charging_Adjusted_Penalty>
0.0274152

> <i_epik_Tot_Q>
1

> <i_epik_Tot_abs_Q>
1

> <r_epik_Metal_State_Penalty>
0.0121253

> <b_epik_Metal_Only>
0

> <s_lp_Force_Field>
OPLS_2005

> <r_lp_Energy>
60.2547

> <b_lp_Chiralities_Consistent>
1

> <s_lp_Variant>
AV-unprocessed.smi:21-1

> <Gold.Version>
5.8.1

> <Gold.Id.Protein>
6NUR|6NUR_protein|mol2

> <Gold.PLP.Fitness>
49.4850

> <Gold.PLP.PLP>
-38.9232

> <Gold.PLP.part.hbond>
-2.7475

> <Gold.PLP.part.metal>
0.0000

> <Gold.PLP.part.buried>
-3.9060

> <Gold.PLP.part.nonpolar>
-32.2251

> <Gold.PLP.part.repulsive>
0.4200

> <Gold.PLP.ligand.clash>
0.0000

> <Gold.PLP.ligand.torsion>
1.0796

> <Gold.PLP.Chemscore.Hbond>
3.0000

> <Gold.PLP.Chemscore.CHOScore>
0.9761

> <Gold.PLP.Chemscore.Metal>
0.0000

> <Gold.Chemscore.Hbonds>
donor molecule, donor type, donor heavy atom, donor atom, acceptor molecule, acceptor atom, score
      L1  H    27    62       P1  7948  1.84
      P1  H  7989  7998       L1    21  1.00
      L1  C    16    43       P1  8028  0.95

> <Gold.PLP.Chemscore.Internal.Correction>
0.7926

> <Gold.Rescore>
     Score         DG    S(hbond)    S(metal)    S(lipo)     H(rot)  DE(clash)    DE(int)     intcor
     12.70     -15.45       1.89        0.00     104.33       3.35       1.41       1.34       ----

> <Gold.Chemscore.Fitness>
12.6992

> <Gold.Chemscore.DG>
-15.4519

> <Gold.Chemscore.ZeroCoef>
-5.4800

> <Gold.Chemscore.Hbond>
1.8950

> <Gold.Chemscore.Metal>
0.0000

> <Gold.Chemscore.Lipo>
104.3274

> <Gold.Chemscore.Internal_Hbond>
0.0000

> <Gold.Chemscore.DEClash>
1.4129

> <Gold.Chemscore.DEInternal>
1.3399

> <Gold.Chemscore.Rot>
3.3452

> <Gold.Chemscore.Internal.Correction>
   9.000000E+99

> <Gold.Chemscore.Hbonds>
donor molecule, donor type, donor heavy atom, donor atom, acceptor molecule, acceptor atom, score
      L1  H    27    62       P1  7948  0.84
      P1  H  7989  7998       L1    21  0.87

> <Gold.Chemscore.Hbond.Weighted>
-6.3293

> <Gold.Chemscore.Metal.Weighted>
-0.0000

> <Gold.Chemscore.Lipo.Weighted>
-12.2063

> <Gold.Chemscore.Internal_Hbond.Weighted>
0.0000

> <Gold.Chemscore.DEClash.Weighted>
1.4129

> <Gold.Chemscore.DEInternal.Weighted>
1.3399

> <Gold.Chemscore.Rot.Weighted>
8.5636

> <Gold.Chemscore.Internal.Correction.Weighted>
   9.000000E+99

> <Gold.Protein.RotatedTorsions>
[ 6907 6896 6895 6894 ] final  116.38 input  -60.11 | X-H torsion
[ 7974 7965 7964 7962 ] final -169.16 input  175.53 | X-H torsion
[ 8008 7997 7996 7995 ] final -139.32 input   59.86 | X-H torsion
[ 10167 10162 10161 10158 ] final  107.27 input  -65.29 | X-H torsion
[ 10718 10713 10712 10709 ] final   74.26 input   66.30 | X-H torsion
[ 10763 10752 10751 10750 ] final  -93.40 input  -60.55 | X-H torsion
[ 11005 11000 10999 10996 ] final  -51.69 input  -57.11 | X-H torsion

> <Gold.Protein.ActiveResidues>
 VAL166  LYS551  ARG553  GLY616  TRP617  ASP618  TYR619  PRO620  LYS621  CYS622 
 ASP623  PHE694  ASN695  SER759  ASP760  ASP761  ALA762  ILE779  LEU786  VAL792 
 PHE793  MET794  SER795  GLU796  ALA797  LYS798  CYS799  TRP800  GLU811  SER814 

> <Gold.Protein.RotatedAtoms>
  152.4682  133.7969  159.6931 H   0  0  0  0  0  0  0  0  0  0  0  0  # atno 6907 bound_to 6896
  150.8656  133.7569  159.2984 H   0  0  0  0  0  0  0  0  0  0  0  0  # atno 6908 bound_to 6896
  151.5120  135.1068  159.9908 H   0  0  0  0  0  0  0  0  0  0  0  0  # atno 6909 bound_to 6896
  144.7190  140.2263  143.6310 H   0  0  0  0  0  0  0  0  0  0  0  0  # atno 7974 bound_to 7965
  155.4429  140.0533  157.3008 H   0  0  0  0  0  0  0  0  0  0  0  0  # atno 8008 bound_to 7997
  154.4810  140.2081  155.9720 H   0  0  0  0  0  0  0  0  0  0  0  0  # atno 8009 bound_to 7997
  156.1205  140.3189  155.8207 H   0  0  0  0  0  0  0  0  0  0  0  0  # atno 8010 bound_to 7997
  139.6941  144.7104  151.1298 H   0  0  0  0  0  0  0  0  0  0  0  0  # atno 10167 bound_to 10162
  157.6584  130.9669  150.1186 H   0  0  0  0  0  0  0  0  0  0  0  0  # atno 10718 bound_to 10713
  154.6955  135.5196  153.8452 H   0  0  0  0  0  0  0  0  0  0  0  0  # atno 10763 bound_to 10752
  153.0664  135.6586  154.0355 H   0  0  0  0  0  0  0  0  0  0  0  0  # atno 10764 bound_to 10752
  154.0222  135.2992  155.3359 H   0  0  0  0  0  0  0  0  0  0  0  0  # atno 10765 bound_to 10752
  141.0884  133.6637  156.3914 H   0  0  0  0  0  0  0  0  0  0  0  0  # atno 11005 bound_to 11000
  145.8453  139.2149  143.1803 LP  0  0  0  0  0  0  0  0  0  0  0  0  # atno 17320 bound_to 7965
  146.0309  140.8258  142.9876 LP  0  0  0  0  0  0  0  0  0  0  0  0  # atno 17321 bound_to 7965
  140.7691  143.5517  150.9197 LP  0  0  0  0  0  0  0  0  0  0  0  0  # atno 17342 bound_to 10162
  139.9196  143.6622  152.3099 LP  0  0  0  0  0  0  0  0  0  0  0  0  # atno 17343 bound_to 10162
  156.2063  130.3663  149.8725 LP  0  0  0  0  0  0  0  0  0  0  0  0  # atno 17370 bound_to 10713
  156.6616  130.8784  151.3548 LP  0  0  0  0  0  0  0  0  0  0  0  0  # atno 17371 bound_to 10713
  140.5309  134.6214  157.5349 LP  0  0  0  0  0  0  0  0  0  0  0  0  # atno 17394 bound_to 11000
  139.9706  134.7299  156.0049 LP  0  0  0  0  0  0  0  0  0  0  0  0  # atno 17395 bound_to 11000

$$$$
