AV-unprocessed.smi:54|AV-procd|sdf|545|dock1
  -GOLD-   2262016433D 1   1.00000     0.00000
 Structure written by MMmdl.
 43 45  0  0  0  0  0  0  0  0  2 V2000
  152.8973  143.7692  159.6566 C   0  0  0  0  0  0  0  0  0  0  0  0
  152.5009  142.4500  160.3400 C   0  0  0  0  0  0  0  0  0  0  0  0
  153.3529  142.1940  161.5945 C   0  0  0  0  0  0  0  0  0  0  0  0
  152.6115  141.2751  159.3576 C   0  0  0  0  0  0  0  0  0  0  0  0
  153.2851  140.2920  159.6741 O   0  0  0  0  0  0  0  0  0  0  0  0
  151.9286  141.4247  158.2003 N   0  0  0  0  0  0  0  0  0  0  0  0
  151.8137  140.5459  157.1159 C   0  0  0  0  0  0  0  0  0  0  0  0
  150.7945  140.8218  156.3381 N   0  0  0  0  0  0  0  0  0  0  0  0
  150.6955  139.9557  155.2662 C   0  0  0  0  0  0  0  0  0  0  0  0
  151.5178  138.9081  154.9554 C   0  0  0  0  0  0  0  0  0  0  0  0
  151.1073  138.2661  153.7932 N   0  0  0  0  0  0  0  0  0  0  0  0
  150.0315  138.9727  153.4511 C   0  0  0  0  0  0  0  0  0  0  0  0
  149.7212  139.9944  154.2761 N   0  0  0  0  0  0  0  0  0  0  0  0
  148.5933  140.9699  154.1570 C   0  0  2  0  0  0  0  0  0  0  0  0
  148.3057  141.4534  155.4379 O   0  0  0  0  0  0  0  0  0  0  0  0
  146.9782  141.1077  155.8331 C   0  0  2  0  0  0  0  0  0  0  0  0
  146.9434  140.7946  157.3368 C   0  0  0  0  0  0  0  0  0  0  0  0
  147.8978  139.8023  157.6461 O   0  0  0  0  0  0  0  0  0  0  0  0
  146.6356  139.9065  154.9497 C   0  0  1  0  0  0  0  0  0  0  0  0
  145.2438  139.7124  154.7850 O   0  0  0  0  0  0  0  0  0  0  0  0
  147.3455  140.2425  153.6458 C   0  0  1  0  0  0  0  0  0  0  0  0
  146.5850  141.0813  152.7962 O   0  0  0  0  0  0  0  0  0  0  0  0
  152.6560  138.6576  155.8694 C   0  0  0  0  0  0  0  0  0  0  0  0
  153.4232  137.7276  155.6290 O   0  0  0  0  0  0  0  0  0  0  0  0
  152.7548  139.5130  156.9306 N   0  5  0  0  0  0  0  0  0  0  0  0
  148.9710  141.7513  153.4962 H   0  0  0  0  0  0  0  0  0  0  0  0
  146.3136  141.9380  155.5872 H   0  0  0  0  0  0  0  0  0  0  0  0
  147.0727  139.0001  155.3719 H   0  0  0  0  0  0  0  0  0  0  0  0
  147.6158  139.3480  153.0823 H   0  0  0  0  0  0  0  0  0  0  0  0
  152.2897  143.9536  158.7697 H   0  0  0  0  0  0  0  0  0  0  0  0
  153.9438  143.7639  159.3485 H   0  0  0  0  0  0  0  0  0  0  0  0
  152.7561  144.6143  160.3305 H   0  0  0  0  0  0  0  0  0  0  0  0
  151.4604  142.5383  160.6571 H   0  0  0  0  0  0  0  0  0  0  0  0
  153.0811  141.2518  162.0722 H   0  0  0  0  0  0  0  0  0  0  0  0
  153.2102  142.9862  162.3298 H   0  0  0  0  0  0  0  0  0  0  0  0
  154.4168  142.1525  161.3570 H   0  0  0  0  0  0  0  0  0  0  0  0
  151.3886  142.2751  158.1376 H   0  0  0  0  0  0  0  0  0  0  0  0
  149.4556  138.7394  152.5686 H   0  0  0  0  0  0  0  0  0  0  0  0
  147.1997  141.6853  157.9112 H   0  0  0  0  0  0  0  0  0  0  0  0
  145.9506  140.4782  157.6568 H   0  0  0  0  0  0  0  0  0  0  0  0
  148.7593  140.1875  157.5969 H   0  0  0  0  0  0  0  0  0  0  0  0
  144.9939  140.0498  153.9382 H   0  0  0  0  0  0  0  0  0  0  0  0
  145.6795  140.8155  152.8483 H   0  0  0  0  0  0  0  0  0  0  0  0
  1  2  1  0  0  0  0
  1 30  1  0  0  0  0
  1 31  1  0  0  0  0
  1 32  1  0  0  0  0
  2  3  1  0  0  0  0
  2  4  1  0  0  0  0
  2 33  1  0  0  0  0
  3 34  1  0  0  0  0
  3 35  1  0  0  0  0
  3 36  1  0  0  0  0
  4  5  2  0  0  0  0
  4  6  1  0  0  0  0
  6 37  1  0  0  0  0
  6  7  1  0  0  0  0
  7 25  1  0  0  0  0
  7  8  2  0  0  0  0
  8  9  1  0  0  0  0
  9 13  1  0  0  0  0
  9 10  2  0  0  0  0
 10 11  1  0  0  0  0
 10 23  1  0  0  0  0
 11 12  2  0  0  0  0
 12 13  1  0  0  0  0
 12 38  1  0  0  0  0
 13 14  1  0  0  0  0
 14 26  1  0  0  0  0
 14 21  1  0  0  0  0
 14 15  1  0  0  0  0
 15 16  1  0  0  0  0
 16 27  1  0  0  0  0
 16 17  1  0  0  0  0
 16 19  1  0  0  0  0
 17 18  1  0  0  0  0
 17 39  1  0  0  0  0
 17 40  1  0  0  0  0
 18 41  1  0  0  0  0
 19 28  1  0  0  0  0
 19 20  1  0  0  0  0
 19 21  1  0  0  0  0
 20 42  1  0  0  0  0
 21 29  1  0  0  0  0
 21 22  1  0  0  0  0
 22 43  1  0  0  0  0
 23 24  2  0  0  0  0
 23 25  1  0  0  0  0
M  CHG  1  25  -1
M  END
> <s_m_source_file>
AV-unprocessed.smi

> <i_m_source_file_index>
54

> <i_lp_mmshare_version>
43012

> <i_f3d_flags>
0

> <s_epik_input>
W0NIM11bQ0hdKFtDSDNdKUMoPU8pW05IXWMobjEpW25IXWMoPU8pYyhjMTIpbltjSF1uMltDQEBIXTNPW0NASF0oW0NIMl1bT0hdKVtDQEBIXShbT0hdKVtDQEhdM1tPSF0=

> <s_epik_cmdline>
J2VwaWtfcHl0aG9uJywgJy1waCcsICc3LjAnLCAnLXRuJywgJzgnLCAnLW1hJywgJzIwMCcsICctbWV0YWxfYmluZGluZycsICctaW1hZScsICc8aW5maWxlLm1hZT4nLCAnLW9tYWUnLCAnPG91dGZpbGUubWFlPic=

> <r_lp_tautomer_probability>
0.85571

> <r_epik_Ionization_Penalty>
1.75936

> <r_epik_Ionization_Penalty_Charging>
4.55893e-11

> <r_epik_Ionization_Penalty_Neutral>
1.75936

> <r_epik_State_Penalty>
1.72072

> <r_epik_Charging_Adjusted_Penalty>
1.72072

> <i_epik_Tot_Q>
-1

> <i_epik_Tot_abs_Q>
1

> <r_epik_Metal_State_Penalty>
0.400338

> <b_epik_Metal_Only>
1

> <s_epik_Chemistry_Notes>
This compound contains an acetal/aminal-like group ( X-CH(R)-Y where X, Y are N, S, or O) that may be acid/base labile, releasing an aldehyde.

> <s_lp_Force_Field>
OPLS_2005

> <r_lp_Energy>
58.3918

> <b_lp_Chiralities_Consistent>
1

> <s_lp_Variant>
AV-unprocessed.smi:54-17

> <Gold.Version>
5.8.1

> <Gold.Id.Protein>
6NUR|6NUR_protein|mol2

> <Gold.PLP.Fitness>
52.9998

> <Gold.PLP.PLP>
-37.7387

> <Gold.PLP.part.hbond>
-4.3574

> <Gold.PLP.part.metal>
0.0000

> <Gold.PLP.part.buried>
-2.1624

> <Gold.PLP.part.nonpolar>
-31.6447

> <Gold.PLP.part.repulsive>
0.4706

> <Gold.PLP.ligand.clash>
0.0000

> <Gold.PLP.ligand.torsion>
0.7953

> <Gold.PLP.Chemscore.Hbond>
4.0741

> <Gold.PLP.Chemscore.CHOScore>
1.5255

> <Gold.PLP.Chemscore.Metal>
0.0000

> <Gold.Chemscore.Hbonds>
donor molecule, donor type, donor heavy atom, donor atom, acceptor molecule, acceptor atom, score
      L1  H    20    42       P1 10175  1.00
      L1  H    22    43       P1 10175  0.96
      P1  H  7997  8009       L1    25  1.90
      P1  H 10752 10764       L1    24  0.01
      L1  C    12    38       P1  7948  0.68
      L1  C    12    38       P1  7957  0.48

> <Gold.PLP.Chemscore.Internal.Correction>
0.0529

> <Gold.Rescore>
     Score         DG    S(hbond)    S(metal)    S(lipo)     H(rot)  DE(clash)    DE(int)     intcor
      4.96      -9.29       2.26        0.00      55.97       4.02       0.74       3.59       ----

> <Gold.Chemscore.Fitness>
4.9602

> <Gold.Chemscore.DG>
-9.2868

> <Gold.Chemscore.ZeroCoef>
-5.4800

> <Gold.Chemscore.Hbond>
2.2598

> <Gold.Chemscore.Metal>
0.0000

> <Gold.Chemscore.Lipo>
55.9679

> <Gold.Chemscore.Internal_Hbond>
0.0000

> <Gold.Chemscore.DEClash>
0.7395

> <Gold.Chemscore.DEInternal>
3.5871

> <Gold.Chemscore.Rot>
4.0192

> <Gold.Chemscore.Internal.Correction>
   9.000000E+99

> <Gold.Chemscore.Hbonds>
donor molecule, donor type, donor heavy atom, donor atom, acceptor molecule, acceptor atom, score
      L1  H    20    42       P1 10175  0.93
      L1  H    22    43       P1 10175  0.36
      P1  H  7997  8009       L1    25  0.19
      P1  H 10752 10764       L1    24  0.02

> <Gold.Chemscore.Hbond.Weighted>
-7.5478

> <Gold.Chemscore.Metal.Weighted>
-0.0000

> <Gold.Chemscore.Lipo.Weighted>
-6.5482

> <Gold.Chemscore.Internal_Hbond.Weighted>
0.0000

> <Gold.Chemscore.DEClash.Weighted>
0.7395

> <Gold.Chemscore.DEInternal.Weighted>
3.5871

> <Gold.Chemscore.Rot.Weighted>
10.2893

> <Gold.Chemscore.Internal.Correction.Weighted>
   9.000000E+99

> <Gold.Protein.RotatedTorsions>
[ 6907 6896 6895 6894 ] final  142.77 input  -60.11 | X-H torsion
[ 7974 7965 7964 7962 ] final   -5.08 input  175.53 | X-H torsion
[ 8008 7997 7996 7995 ] final  177.09 input   59.86 | X-H torsion
[ 10167 10162 10161 10158 ] final  -16.32 input  -65.29 | X-H torsion
[ 10718 10713 10712 10709 ] final  146.97 input   66.30 | X-H torsion
[ 10763 10752 10751 10750 ] final   13.75 input  -60.55 | X-H torsion
[ 11005 11000 10999 10996 ] final   44.44 input  -57.11 | X-H torsion

> <Gold.Protein.ActiveResidues>
 VAL166  LYS551  ARG553  GLY616  TRP617  ASP618  TYR619  PRO620  LYS621  CYS622 
 ASP623  PHE694  ASN695  SER759  ASP760  ASP761  ALA762  ILE779  LEU786  VAL792 
 PHE793  MET794  SER795  GLU796  ALA797  LYS798  CYS799  TRP800  GLU811  SER814 

> <Gold.Protein.RotatedAtoms>
  152.2145  133.4936  159.5128 H   0  0  0  0  0  0  0  0  0  0  0  0  # atno 6907 bound_to 6896
  150.6998  134.1423  159.4118 H   0  0  0  0  0  0  0  0  0  0  0  0  # atno 6908 bound_to 6896
  151.9343  135.0242  160.0582 H   0  0  0  0  0  0  0  0  0  0  0  0  # atno 6909 bound_to 6896
  146.2360  140.1967  142.8333 H   0  0  0  0  0  0  0  0  0  0  0  0  # atno 7974 bound_to 7965
  156.0695  140.1367  156.9846 H   0  0  0  0  0  0  0  0  0  0  0  0  # atno 8008 bound_to 7997
  154.4524  140.0975  156.6708 H   0  0  0  0  0  0  0  0  0  0  0  0  # atno 8009 bound_to 7997
  155.5251  140.3457  155.4417 H   0  0  0  0  0  0  0  0  0  0  0  0  # atno 8010 bound_to 7997
  140.7232  143.5128  150.9728 H   0  0  0  0  0  0  0  0  0  0  0  0  # atno 10167 bound_to 10162
  157.3267  131.0913  151.1196 H   0  0  0  0  0  0  0  0  0  0  0  0  # atno 10718 bound_to 10713
  153.1690  135.6809  153.8634 H   0  0  0  0  0  0  0  0  0  0  0  0  # atno 10763 bound_to 10752
  153.8004  135.3156  155.3390 H   0  0  0  0  0  0  0  0  0  0  0  0  # atno 10764 bound_to 10752
  154.7985  135.4792  154.0310 H   0  0  0  0  0  0  0  0  0  0  0  0  # atno 10765 bound_to 10752
  140.1552  134.4411  155.8355 H   0  0  0  0  0  0  0  0  0  0  0  0  # atno 11005 bound_to 11000
  144.9814  140.8463  143.5395 LP  0  0  0  0  0  0  0  0  0  0  0  0  # atno 17320 bound_to 7965
  145.1961  139.2276  143.5217 LP  0  0  0  0  0  0  0  0  0  0  0  0  # atno 17321 bound_to 7965
  139.8843  143.7033  152.3153 LP  0  0  0  0  0  0  0  0  0  0  0  0  # atno 17342 bound_to 10162
  139.7326  144.7579  151.0778 LP  0  0  0  0  0  0  0  0  0  0  0  0  # atno 17343 bound_to 10162
  157.2460  130.6592  149.5910 LP  0  0  0  0  0  0  0  0  0  0  0  0  # atno 17370 bound_to 10713
  155.9691  130.4553  150.5883 LP  0  0  0  0  0  0  0  0  0  0  0  0  # atno 17371 bound_to 10713
  141.2203  133.6889  156.7494 LP  0  0  0  0  0  0  0  0  0  0  0  0  # atno 17394 bound_to 11000
  140.2556  134.8506  157.3710 LP  0  0  0  0  0  0  0  0  0  0  0  0  # atno 17395 bound_to 11000

$$$$
