#       Name:                AV-unprocessed.smi:2331
#       Creating user name   scv26
#       Creation time:       Fri Mar 27 12:53:22 2020


#       File generated by GOLD software.
#

@<TRIPOS>MOLECULE
AV-unprocessed.smi:2331
    54    55     1
SMALL
NO_CHARGES


@<TRIPOS>ATOM
      1 ****        -2.9104   1.7219  -0.7342 C.3            1 S1                 0.0000
      2 ****        -3.0217   0.8575   0.5453 C.3            1 S1                 0.0000
      3 ****        -4.5271   0.6935   0.8437 C.3            1 S1                 0.0000
      4 ****        -2.4127  -0.5434   0.2616 C.3            1 S1                 0.0000
      5 ****        -0.9524  -0.5234   0.2133 N.am           1 S1                 0.0000
      6 ****        -0.1965  -0.4803  -0.8962 C.2            1 S1                 0.0000
      7 ****        -0.6696  -0.5765  -2.0283 O.2            1 S1                 0.0000
      8 ****         1.1296  -0.4027  -0.6377 N.am           1 S1                 0.0000
      9 ****         1.6651   0.3524   0.5022 C.3            1 S1                 0.0000
     10 ****         2.9653   0.9710   0.0087 C.3            1 S1                 0.0000
     11 ****         3.4601  -0.0363  -1.0113 C.3            1 S1                 0.0000
     12 ****         2.1856  -0.6262  -1.6471 C.3            1 S1                 0.0000
     13 ****         2.3593  -2.1183  -2.0893 C.3            1 S1                 0.0000
     14 ****         3.6652  -2.3345  -2.8819 C.3            1 S1                 0.0000
     15 ****         2.2548  -3.1294  -0.9295 C.3            1 S1                 0.0000
     16 ****         1.3500  -2.4334  -3.0279 O.3            1 S1                 0.0000
     17 ****        -2.3232   1.5060   1.7571 C.ar           1 S1                 0.0000
     18 ****        -1.5940   2.7175   1.6660 C.ar           1 S1                 0.0000
     19 ****        -0.9619   3.2244   2.8186 C.ar           1 S1                 0.0000
     20 ****        -1.0108   2.6174   4.0219 N.ar           1 S1                 0.0000
     21 ****        -1.7048   1.4648   4.1129 C.ar           1 S1                 0.0000
     22 ****        -2.3705   0.8733   3.0216 C.ar           1 S1                 0.0000
     23 ****        -3.4071   1.2420  -1.5782 H              1 S1                 0.0000
     24 ****        -1.8754   1.8902  -1.0319 H              1 S1                 0.0000
     25 ****        -3.3785   2.6978  -0.6006 H              1 S1                 0.0000
     26 ****        -5.0530   0.2536  -0.0043 H              1 S1                 0.0000
     27 ****        -4.9948   1.6557   1.0554 H              1 S1                 0.0000
     28 ****        -4.7088   0.0461   1.7015 H              1 S1                 0.0000
     29 ****        -2.6841  -1.2344   1.0602 H              1 S1                 0.0000
     30 ****        -2.8330  -0.9734  -0.6493 H              1 S1                 0.0000
     31 ****        -0.4748  -0.4814   1.1020 H              1 S1                 0.0000
     32 ****         0.9905   1.1301   0.8655 H              1 S1                 0.0000
     33 ****         1.8544  -0.3405   1.3230 H              1 S1                 0.0000
     34 ****         2.7589   1.9228  -0.4824 H              1 S1                 0.0000
     35 ****         3.6811   1.1527   0.8108 H              1 S1                 0.0000
     36 ****         4.1290   0.4105  -1.7472 H              1 S1                 0.0000
     37 ****         4.0205  -0.8069  -0.4816 H              1 S1                 0.0000
     38 ****         1.9503  -0.0138  -2.5202 H              1 S1                 0.0000
     39 ****         4.5489  -2.2126  -2.2559 H              1 S1                 0.0000
     40 ****         3.7479  -1.6295  -3.7101 H              1 S1                 0.0000
     41 ****         3.7149  -3.3402  -3.3019 H              1 S1                 0.0000
     42 ****         3.0034  -2.9331  -0.1621 H              1 S1                 0.0000
     43 ****         2.4083  -4.1504  -1.2803 H              1 S1                 0.0000
     44 ****         1.2762  -3.1004  -0.4502 H              1 S1                 0.0000
     45 ****         1.4681  -3.3276  -3.3094 H              1 S1                 0.0000
     46 ****        -1.4975   3.2659   0.7421 H              1 S1                 0.0000
     47 ****        -0.3978   4.1440   2.7705 H              1 S1                 0.0000
     48 ****        -1.7280   0.9957   5.0854 H              1 S1                 0.0000
     49 ****        -2.9007  -0.0569   3.1614 H              1 S1                 0.0000
     50 ****        -1.6554  -0.6922  -2.1501 LP             1 S1                 0.0000
     51 ****        -0.0682  -0.5390  -2.8264 LP             1 S1                 0.0000
     52 ****         1.4190  -1.8206  -3.8152 LP             1 S1                 0.0000
     53 ****         0.4508  -2.3301  -2.6029 LP             1 S1                 0.0000
     54 ****        -0.5489   3.0080   4.8181 LP             1 S1                 0.0000
@<TRIPOS>BOND
    1    1    2 1     
    2    1   23 1     
    3    1   24 1     
    4    1   25 1     
    5    2    3 1     
    6    2    4 1     
    7    2   17 1     
    8    3   26 1     
    9    3   27 1     
   10    3   28 1     
   11    4    5 1     
   12    4   29 1     
   13    4   30 1     
   14    5    6 am    
   15    5   31 1     
   16    6    7 2     
   17    6    8 am    
   18    8   12 1     
   19    8    9 1     
   20    9   10 1     
   21    9   32 1     
   22    9   33 1     
   23   10   11 1     
   24   10   34 1     
   25   10   35 1     
   26   11   12 1     
   27   11   36 1     
   28   11   37 1     
   29   12   13 1     
   30   12   38 1     
   31   13   14 1     
   32   13   15 1     
   33   13   16 1     
   34   14   39 1     
   35   14   40 1     
   36   14   41 1     
   37   15   42 1     
   38   15   43 1     
   39   15   44 1     
   40   16   45 1     
   41   17   22 ar    
   42   17   18 ar    
   43   18   19 ar    
   44   18   46 1     
   45   19   20 ar    
   46   19   47 1     
   47   20   21 ar    
   48   21   22 ar    
   49   21   48 1     
   50   22   49 1     
   51    7   50 1     
   52    7   51 1     
   53   16   52 1     
   54   16   53 1     
   55   20   54 1     
@<TRIPOS>SUBSTRUCTURE
      1 S1             1
@<TRIPOS>SET
LONE_PAIRS      STATIC     ATOMS    <user>   **** ""
5 50 51 52 53 54
DONOR_HYDROGENS      STATIC     ATOMS    <user>   **** ""
2 31 45
ATOM$BLUE        STATIC     ATOMS    COLORGROUP SYSTEM
5 50 51 52 53 54
ATOM$RED        STATIC     ATOMS    COLORGROUP SYSTEM
2 31 45
