AV-unprocessed.smi:114|AV-procd|sdf|1109|dock8
  -GOLD-   2262018223D 1   1.00000     0.00000
 Structure written by MMmdl.
 32 34  0  0  0  0  0  0  0  0  1 V2000
  152.9183  138.9016  155.0294 N   0  0  0  0  0  0  0  0  0  0  0  0
  151.7050  138.3651  154.8387 C   0  0  0  0  0  0  0  0  0  0  0  0
  151.5788  137.0196  154.9033 N   0  0  0  0  0  0  0  0  0  0  0  0
  150.3847  136.4437  154.7190 C   0  0  0  0  0  0  0  0  0  0  0  0
  150.3495  135.0929  154.7994 F   0  0  0  0  0  0  0  0  0  0  0  0
  149.2226  137.0534  154.4633 N   0  0  0  0  0  0  0  0  0  0  0  0
  149.3435  138.4108  154.3968 C   0  0  0  0  0  0  0  0  0  0  0  0
  150.5502  139.1404  154.5720 C   0  0  0  0  0  0  0  0  0  0  0  0
  150.3074  140.4999  154.4346 N   0  0  0  0  0  0  0  0  0  0  0  0
  149.0262  140.5656  154.1905 C   0  0  0  0  0  0  0  0  0  0  0  0
  148.3673  139.3563  154.1452 N   0  0  0  0  0  0  0  0  0  0  0  0
  146.9069  139.1333  153.8850 C   0  0  2  0  0  0  0  0  0  0  0  0
  146.4260  138.1437  154.7452 O   0  0  0  0  0  0  0  0  0  0  0  0
  145.9172  137.0355  154.0048 C   0  0  1  0  0  0  0  0  0  0  0  0
  144.7797  136.3370  154.7705 C   0  0  0  0  0  0  0  0  0  0  0  0
  143.7433  137.2551  155.0445 O   0  0  0  0  0  0  0  0  0  0  0  0
  145.5300  137.6394  152.6470 C   0  0  1  0  0  0  0  0  0  0  0  0
  144.2462  138.2359  152.6940 O   0  0  0  0  0  0  0  0  0  0  0  0
  146.5986  138.7004  152.4372 C   0  0  2  0  0  0  0  0  0  0  0  0
  147.7109  138.1608  151.7452 O   0  0  0  0  0  0  0  0  0  0  0  0
  146.4336  140.0802  154.1480 H   0  0  0  0  0  0  0  0  0  0  0  0
  146.7292  136.3288  153.8300 H   0  0  0  0  0  0  0  0  0  0  0  0
  145.5236  136.8894  151.8547 H   0  0  0  0  0  0  0  0  0  0  0  0
  146.2328  139.5565  151.8686 H   0  0  0  0  0  0  0  0  0  0  0  0
  153.0371  139.9036  154.9852 H   0  0  0  0  0  0  0  0  0  0  0  0
  153.7090  138.3042  155.2233 H   0  0  0  0  0  0  0  0  0  0  0  0
  148.5217  141.5079  154.0328 H   0  0  0  0  0  0  0  0  0  0  0  0
  144.3906  135.4833  154.2144 H   0  0  0  0  0  0  0  0  0  0  0  0
  145.1448  135.9648  155.7281 H   0  0  0  0  0  0  0  0  0  0  0  0
  144.1275  138.0553  155.3689 H   0  0  0  0  0  0  0  0  0  0  0  0
  144.0385  138.5694  151.8345 H   0  0  0  0  0  0  0  0  0  0  0  0
  148.0042  137.3900  152.2065 H   0  0  0  0  0  0  0  0  0  0  0  0
  1  2  1  0  0  0  0
  1 25  1  0  0  0  0
  1 26  1  0  0  0  0
  2  8  1  0  0  0  0
  2  3  2  0  0  0  0
  3  4  1  0  0  0  0
  4  5  1  0  0  0  0
  4  6  2  0  0  0  0
  6  7  1  0  0  0  0
  7 11  1  0  0  0  0
  7  8  2  0  0  0  0
  8  9  1  0  0  0  0
  9 10  2  0  0  0  0
 10 11  1  0  0  0  0
 10 27  1  0  0  0  0
 11 12  1  0  0  0  0
 12 21  1  0  0  0  0
 12 19  1  0  0  0  0
 12 13  1  0  0  0  0
 13 14  1  0  0  0  0
 14 22  1  0  0  0  0
 14 15  1  0  0  0  0
 14 17  1  0  0  0  0
 15 16  1  0  0  0  0
 15 28  1  0  0  0  0
 15 29  1  0  0  0  0
 16 30  1  0  0  0  0
 17 23  1  0  0  0  0
 17 18  1  0  0  0  0
 17 19  1  0  0  0  0
 18 31  1  0  0  0  0
 19 24  1  0  0  0  0
 19 20  1  0  0  0  0
 20 32  1  0  0  0  0
M  END
> <s_m_source_file>
AV-unprocessed.smi

> <i_m_source_file_index>
114

> <i_lp_mmshare_version>
43012

> <i_f3d_flags>
0

> <s_epik_input>
RmMobjEpbmMoW05IMl0pYyhjMTIpbltjSF1uMltDQEBIXTNPW0NASF0oW0NIMl1bT0hdKVtDQEBIXShbT0hdKVtDQEBIXTNbT0hd

> <s_epik_cmdline>
J2VwaWtfcHl0aG9uJywgJy1waCcsICc3LjAnLCAnLXRuJywgJzgnLCAnLW1hJywgJzIwMCcsICctbWV0YWxfYmluZGluZycsICctaW1hZScsICc8aW5maWxlLm1hZT4nLCAnLW9tYWUnLCAnPG91dGZpbGUubWFlPic=

> <r_lp_tautomer_probability>
1

> <r_epik_Ionization_Penalty>
1.13199e-05

> <r_epik_Ionization_Penalty_Charging>
0

> <r_epik_Ionization_Penalty_Neutral>
1.13199e-05

> <r_epik_State_Penalty>
-0

> <r_epik_Charging_Adjusted_Penalty>
0

> <i_epik_Tot_Q>
0

> <i_epik_Tot_abs_Q>
0

> <r_epik_Metal_State_Penalty>
-0

> <b_epik_Metal_Only>
0

> <s_epik_Chemistry_Notes>
This compound contains an acetal/aminal-like group ( X-CH(R)-Y where X, Y are N, S, or O) that may be acid/base labile, releasing an aldehyde.

> <s_lp_Force_Field>
OPLS_2005

> <r_lp_Energy>
40.543

> <b_lp_Chiralities_Consistent>
1

> <s_lp_Variant>
AV-unprocessed.smi:114-3

> <Gold.Version>
5.8.1

> <Gold.Id.Protein>
6NUR|6NUR_protein|mol2

> <Gold.PLP.Fitness>
38.3086

> <Gold.PLP.PLP>
-25.7739

> <Gold.PLP.part.hbond>
-5.3139

> <Gold.PLP.part.metal>
0.0000

> <Gold.PLP.part.buried>
-3.5497

> <Gold.PLP.part.nonpolar>
-20.9399

> <Gold.PLP.part.repulsive>
3.2794

> <Gold.PLP.ligand.clash>
0.0000

> <Gold.PLP.ligand.torsion>
0.5383

> <Gold.PLP.Chemscore.Hbond>
4.5364

> <Gold.PLP.Chemscore.CHOScore>
0.0000

> <Gold.PLP.Chemscore.Metal>
0.0000

> <Gold.Chemscore.Hbonds>
donor molecule, donor type, donor heavy atom, donor atom, acceptor molecule, acceptor atom, score
      L1  H    18    31       P1 10171  1.00
      L1  H    20    32       P1  7948  0.64
      P1  H  7954  7966       L1    20  1.00
      P1  H  7989  7998       L1     9  0.88
      P1  H 10752 10763       L1     3  1.00

> <Gold.PLP.Chemscore.Internal.Correction>
0.0020

> <Gold.Rescore>
     Score         DG    S(hbond)    S(metal)    S(lipo)     H(rot)  DE(clash)    DE(int)     intcor
      8.27     -10.56       3.77        0.00      23.79       4.03       0.63       1.65       ----

> <Gold.Chemscore.Fitness>
8.2719

> <Gold.Chemscore.DG>
-10.5607

> <Gold.Chemscore.ZeroCoef>
-5.4800

> <Gold.Chemscore.Hbond>
3.7748

> <Gold.Chemscore.Metal>
0.0000

> <Gold.Chemscore.Lipo>
23.7943

> <Gold.Chemscore.Internal_Hbond>
0.0000

> <Gold.Chemscore.DEClash>
0.6343

> <Gold.Chemscore.DEInternal>
1.6545

> <Gold.Chemscore.Rot>
4.0277

> <Gold.Chemscore.Internal.Correction>
   9.000000E+99

> <Gold.Chemscore.Hbonds>
donor molecule, donor type, donor heavy atom, donor atom, acceptor molecule, acceptor atom, score
      L1  H    18    31       P1 10171  0.91
      L1  H    20    32       P1  7948  0.58
      P1  H  7954  7966       L1    20  0.54
      P1  H  7989  7998       L1     9  0.20
      P1  H 10752 10763       L1     3  0.58

> <Gold.Chemscore.Hbond.Weighted>
-12.6078

> <Gold.Chemscore.Metal.Weighted>
-0.0000

> <Gold.Chemscore.Lipo.Weighted>
-2.7839

> <Gold.Chemscore.Internal_Hbond.Weighted>
0.0000

> <Gold.Chemscore.DEClash.Weighted>
0.6343

> <Gold.Chemscore.DEInternal.Weighted>
1.6545

> <Gold.Chemscore.Rot.Weighted>
10.3110

> <Gold.Chemscore.Internal.Correction.Weighted>
   9.000000E+99

> <Gold.Protein.RotatedTorsions>
[ 6907 6896 6895 6894 ] final   73.99 input  -60.11 | X-H torsion
[ 7974 7965 7964 7962 ] final  -80.04 input  175.53 | X-H torsion
[ 8008 7997 7996 7995 ] final   -8.57 input   59.86 | X-H torsion
[ 10167 10162 10161 10158 ] final -173.39 input  -65.29 | X-H torsion
[ 10718 10713 10712 10709 ] final   95.75 input   66.30 | X-H torsion
[ 10763 10752 10751 10750 ] final   61.11 input  -60.55 | X-H torsion
[ 11005 11000 10999 10996 ] final   33.06 input  -57.11 | X-H torsion

> <Gold.Protein.ActiveResidues>
 VAL166  LYS551  ARG553  GLY616  TRP617  ASP618  TYR619  PRO620  LYS621  CYS622 
 ASP623  PHE694  ASN695  SER759  ASP760  ASP761  ALA762  ILE779  LEU786  VAL792 
 PHE793  MET794  SER795  GLU796  ALA797  LYS798  CYS799  TRP800  GLU811  SER814 

> <Gold.Protein.RotatedAtoms>
  152.4952  134.4339  159.9520 H   0  0  0  0  0  0  0  0  0  0  0  0  # atno 6907 bound_to 6896
  151.4319  133.3662  159.2777 H   0  0  0  0  0  0  0  0  0  0  0  0  # atno 6908 bound_to 6896
  150.9149  134.8589  159.7510 H   0  0  0  0  0  0  0  0  0  0  0  0  # atno 6909 bound_to 6896
  145.5653  140.9475  143.1425 H   0  0  0  0  0  0  0  0  0  0  0  0  # atno 7974 bound_to 7965
  154.5729  140.2377  155.8166 H   0  0  0  0  0  0  0  0  0  0  0  0  # atno 8008 bound_to 7997
  156.2120  140.3023  155.9712 H   0  0  0  0  0  0  0  0  0  0  0  0  # atno 8009 bound_to 7997
  155.2680  140.0417  157.2994 H   0  0  0  0  0  0  0  0  0  0  0  0  # atno 8010 bound_to 7997
  139.5691  144.1685  152.1357 H   0  0  0  0  0  0  0  0  0  0  0  0  # atno 10167 bound_to 10162
  157.6935  131.0556  150.4387 H   0  0  0  0  0  0  0  0  0  0  0  0  # atno 10718 bound_to 10713
  152.9940  135.5512  154.5980 H   0  0  0  0  0  0  0  0  0  0  0  0  # atno 10763 bound_to 10752
  154.5328  135.2814  155.1167 H   0  0  0  0  0  0  0  0  0  0  0  0  # atno 10764 bound_to 10752
  154.2476  135.6405  153.5281 H   0  0  0  0  0  0  0  0  0  0  0  0  # atno 10765 bound_to 10752
  140.2670  134.3126  155.7839 H   0  0  0  0  0  0  0  0  0  0  0  0  # atno 11005 bound_to 11000
  144.7463  139.7310  143.7291 LP  0  0  0  0  0  0  0  0  0  0  0  0  # atno 17320 bound_to 7965
  146.1823  139.5021  142.9859 LP  0  0  0  0  0  0  0  0  0  0  0  0  # atno 17321 bound_to 7965
  140.1214  144.5370  150.6860 LP  0  0  0  0  0  0  0  0  0  0  0  0  # atno 17342 bound_to 10162
  140.6975  143.2413  151.4959 LP  0  0  0  0  0  0  0  0  0  0  0  0  # atno 17343 bound_to 10162
  156.4748  130.4060  149.6497 LP  0  0  0  0  0  0  0  0  0  0  0  0  # atno 17370 bound_to 10713
  156.3564  130.7459  151.2425 LP  0  0  0  0  0  0  0  0  0  0  0  0  # atno 17371 bound_to 10713
  141.2183  133.7443  156.9275 LP  0  0  0  0  0  0  0  0  0  0  0  0  # atno 17394 bound_to 11000
  140.1410  134.9294  157.2466 LP  0  0  0  0  0  0  0  0  0  0  0  0  # atno 17395 bound_to 11000

$$$$
