#       Name:                AV-unprocessed.smi:2030
#       Creating user name   scv26
#       Creation time:       Fri Mar 27 10:49:28 2020


#       File generated by GOLD software.
#

@<TRIPOS>MOLECULE
AV-unprocessed.smi:2030
    41    42     1
SMALL
NO_CHARGES


@<TRIPOS>ATOM
      1 ****        -2.9644  -1.7182   0.7751 C.3            1 S1                 0.0000
      2 ****        -2.7135  -0.2896   0.9549 N.am           1 S1                 0.0000
      3 ****        -1.3821   0.0710   0.9316 N.2            1 S1                 0.0000
      4 ****        -1.0059   1.3087   0.8484 C.2            1 S1                 0.0000
      5 ****         0.4417   1.6428   0.8065 C.2            1 S1                 0.0000
      6 ****         0.8259   2.7749   0.5124 O.2            1 S1                 0.0000
      7 ****         1.2836   0.6342   1.0938 N.am           1 S1                 0.0000
      8 ****         2.7395   0.7052   1.0245 C.3            1 S1                 0.0000
      9 ****         3.2641   0.5902  -0.4205 C.3            1 S1                 0.0000
     10 ****         2.7070  -0.6084  -1.1706 C.ar           1 S1                 0.0000
     11 ****         1.6553  -0.4524  -2.0993 C.ar           1 S1                 0.0000
     12 ****         1.1589  -1.5979  -2.7503 C.ar           1 S1                 0.0000
     13 ****         1.7321  -2.8490  -2.4515 C.ar           1 S1                 0.0000
     14 ****         2.7800  -2.8987  -1.5105 C.ar           1 S1                 0.0000
     15 ****         3.2615  -1.8065  -0.8785 N.ar           1 S1                 0.0000
     16 ****        -2.0300   2.4221   0.7616 C.3            1 S1                 0.0000
     17 ****        -3.3668   2.0321   1.4237 C.3            1 S1                 0.0000
     18 ****        -3.7421   0.5712   1.1575 C.2            1 S1                 0.0000
     19 ****        -4.9258   0.2338   1.1621 O.2            1 S1                 0.0000
     20 ****        -3.6010  -1.8907  -0.0935 H              1 S1                 0.0000
     21 ****        -3.4623  -2.1337   1.6520 H              1 S1                 0.0000
     22 ****        -2.0415  -2.2805   0.6231 H              1 S1                 0.0000
     23 ****         0.8822  -0.2623   1.3295 H              1 S1                 0.0000
     24 ****         3.1007   1.6227   1.4913 H              1 S1                 0.0000
     25 ****         3.1335  -0.1189   1.6197 H              1 S1                 0.0000
     26 ****         3.0186   1.4978  -0.9733 H              1 S1                 0.0000
     27 ****         4.3532   0.5306  -0.4118 H              1 S1                 0.0000
     28 ****         1.2322   0.5209  -2.3015 H              1 S1                 0.0000
     29 ****         0.3524  -1.5182  -3.4641 H              1 S1                 0.0000
     30 ****         1.3775  -3.7491  -2.9314 H              1 S1                 0.0000
     31 ****         3.2427  -3.8412  -1.2576 H              1 S1                 0.0000
     32 ****        -1.6550   3.3258   1.2439 H              1 S1                 0.0000
     33 ****        -2.1943   2.6780  -0.2856 H              1 S1                 0.0000
     34 ****        -3.2920   2.1585   2.5045 H              1 S1                 0.0000
     35 ****        -4.1652   2.6931   1.0848 H              1 S1                 0.0000
     36 ****        -0.6855  -0.6447   0.9804 LP             1 S1                 0.0000
     37 ****         0.1596   3.4887   0.2964 LP             1 S1                 0.0000
     38 ****         1.8042   2.9807   0.4895 LP             1 S1                 0.0000
     39 ****         4.0055  -1.8816  -0.2147 LP             1 S1                 0.0000
     40 ****        -5.1736  -0.7230   1.0105 LP             1 S1                 0.0000
     41 ****        -5.6398   0.9166   1.3174 LP             1 S1                 0.0000
@<TRIPOS>BOND
    1    1    2 1     
    2    1   20 1     
    3    1   21 1     
    4    1   22 1     
    5    2   18 am    
    6    2    3 1     
    7    3    4 2     
    8    4    5 1     
    9    4   16 1     
   10    5    6 2     
   11    5    7 am    
   12    7    8 1     
   13    7   23 1     
   14    8    9 1     
   15    8   24 1     
   16    8   25 1     
   17    9   10 1     
   18    9   26 1     
   19    9   27 1     
   20   10   15 ar    
   21   10   11 ar    
   22   11   12 ar    
   23   11   28 1     
   24   12   13 ar    
   25   12   29 1     
   26   13   14 ar    
   27   13   30 1     
   28   14   15 ar    
   29   14   31 1     
   30   16   17 1     
   31   16   32 1     
   32   16   33 1     
   33   17   18 1     
   34   17   34 1     
   35   17   35 1     
   36   18   19 2     
   37    3   36 1     
   38    6   37 1     
   39    6   38 1     
   40   15   39 1     
   41   19   40 1     
   42   19   41 1     
@<TRIPOS>SUBSTRUCTURE
      1 S1             1
@<TRIPOS>SET
LONE_PAIRS      STATIC     ATOMS    <user>   **** ""
6 36 37 38 39 40 41
DONOR_HYDROGENS      STATIC     ATOMS    <user>   **** ""
1 23
ATOM$BLUE        STATIC     ATOMS    COLORGROUP SYSTEM
6 36 37 38 39 40 41
ATOM$RED        STATIC     ATOMS    COLORGROUP SYSTEM
1 23
