AV-unprocessed.smi:1433|AV-procd|sdf|5839|dock3
  -GOLD-   22720 5503D 1   1.00000     0.00000
 Structure written by MMmdl.
 44 45  0  0  0  0  0  0  0  0  1 V2000
  150.7174  142.1120  156.0398 C   0  0  0  0  0  0  0  0  0  0  0  0
  150.3857  140.6369  155.7912 C   0  0  1  0  0  0  0  0  0  0  0  0
  149.2028  140.4650  154.8197 C   0  0  0  0  0  0  0  0  0  0  0  0
  148.9373  139.0594  154.5107 N   0  0  0  0  0  0  0  0  0  0  0  0
  147.7690  138.8649  153.6252 C   0  0  2  0  0  0  0  0  0  0  0  0
  146.7570  140.0332  153.6648 C   0  0  0  0  0  0  0  0  0  0  0  0
  146.9920  137.5504  153.9001 C   0  0  0  0  0  0  0  0  0  0  0  0
  146.5456  136.9155  152.6613 N   0  0  0  0  0  0  0  0  0  0  0  0
  145.2713  136.6722  152.3162 C   0  0  0  0  0  0  0  0  0  0  0  0
  144.3077  136.9106  153.0434 O   0  0  0  0  0  0  0  0  0  0  0  0
  145.0450  136.0779  150.9257 C   0  0  0  0  0  0  0  0  0  0  0  0
  145.1558  134.6302  150.9454 N   0  0  0  0  0  0  0  0  0  0  0  0
  144.1684  133.6922  150.7255 C   0  0  0  0  0  0  0  0  0  0  0  0
  144.7438  132.4598  150.8472 C   0  0  0  0  0  0  0  0  0  0  0  0
  146.1048  132.7504  151.1446 C   0  0  0  0  0  0  0  0  0  0  0  0
  146.3484  134.0498  151.2035 N   0  0  0  0  0  0  0  0  0  0  0  0
  150.1653  138.4830  153.9561 C   0  0  0  0  0  0  0  0  0  0  0  0
  151.3785  138.6393  154.8917 C   0  0  2  0  0  0  0  0  0  0  0  0
  151.3134  137.7197  156.1239 C   0  0  0  0  0  0  0  0  0  0  0  0
  151.5464  140.0090  155.2535 O   0  0  0  0  0  0  0  0  0  0  0  0
  149.8616  142.6416  156.4589 H   0  0  0  0  0  0  0  0  0  0  0  0
  151.0018  142.6139  155.1145 H   0  0  0  0  0  0  0  0  0  0  0  0
  151.5461  142.2118  156.7411 H   0  0  0  0  0  0  0  0  0  0  0  0
  150.1374  140.1770  156.7481 H   0  0  0  0  0  0  0  0  0  0  0  0
  148.3331  140.9252  155.2857 H   0  0  0  0  0  0  0  0  0  0  0  0
  149.3964  141.0159  153.8979 H   0  0  0  0  0  0  0  0  0  0  0  0
  148.1323  138.8051  152.5981 H   0  0  0  0  0  0  0  0  0  0  0  0
  145.8604  139.7996  153.0900 H   0  0  0  0  0  0  0  0  0  0  0  0
  147.1657  140.9434  153.2270 H   0  0  0  0  0  0  0  0  0  0  0  0
  146.4444  140.2596  154.6849 H   0  0  0  0  0  0  0  0  0  0  0  0
  147.6411  136.8416  154.4147 H   0  0  0  0  0  0  0  0  0  0  0  0
  146.1663  137.7122  154.5928 H   0  0  0  0  0  0  0  0  0  0  0  0
  147.2642  136.6778  151.9926 H   0  0  0  0  0  0  0  0  0  0  0  0
  144.0525  136.3468  150.5619 H   0  0  0  0  0  0  0  0  0  0  0  0
  145.7678  136.4943  150.2219 H   0  0  0  0  0  0  0  0  0  0  0  0
  143.1501  133.9779  150.5052 H   0  0  0  0  0  0  0  0  0  0  0  0
  144.2658  131.4976  150.7396 H   0  0  0  0  0  0  0  0  0  0  0  0
  146.9176  132.0606  151.3183 H   0  0  0  0  0  0  0  0  0  0  0  0
  150.0435  137.4236  153.7450 H   0  0  0  0  0  0  0  0  0  0  0  0
  150.3891  138.9602  153.0007 H   0  0  0  0  0  0  0  0  0  0  0  0
  152.2716  138.3592  154.3325 H   0  0  0  0  0  0  0  0  0  0  0  0
  151.2967  136.6718  155.8239 H   0  0  0  0  0  0  0  0  0  0  0  0
  150.4202  137.8981  156.7225 H   0  0  0  0  0  0  0  0  0  0  0  0
  152.1822  137.8661  156.7656 H   0  0  0  0  0  0  0  0  0  0  0  0
  1  2  1  0  0  0  0
  1 21  1  0  0  0  0
  1 22  1  0  0  0  0
  1 23  1  0  0  0  0
  2 20  1  0  0  0  0
  2  3  1  0  0  0  0
  2 24  1  0  0  0  0
  3  4  1  0  0  0  0
  3 25  1  0  0  0  0
  3 26  1  0  0  0  0
  4  5  1  0  0  0  0
  4 17  1  0  0  0  0
  5  6  1  0  0  0  0
  5  7  1  0  0  0  0
  5 27  1  0  0  0  0
  6 28  1  0  0  0  0
  6 29  1  0  0  0  0
  6 30  1  0  0  0  0
  7  8  1  0  0  0  0
  7 31  1  0  0  0  0
  7 32  1  0  0  0  0
  8  9  1  0  0  0  0
  8 33  1  0  0  0  0
  9 10  2  0  0  0  0
  9 11  1  0  0  0  0
 11 12  1  0  0  0  0
 11 34  1  0  0  0  0
 11 35  1  0  0  0  0
 12 16  1  0  0  0  0
 12 13  1  0  0  0  0
 13 14  2  0  0  0  0
 13 36  1  0  0  0  0
 14 15  1  0  0  0  0
 14 37  1  0  0  0  0
 15 16  2  0  0  0  0
 15 38  1  0  0  0  0
 17 18  1  0  0  0  0
 17 39  1  0  0  0  0
 17 40  1  0  0  0  0
 18 19  1  0  0  0  0
 18 20  1  0  0  0  0
 18 41  1  0  0  0  0
 19 42  1  0  0  0  0
 19 43  1  0  0  0  0
 19 44  1  0  0  0  0
M  END
> <s_m_source_file>
AV-unprocessed.smi

> <i_m_source_file_index>
1433

> <i_lp_mmshare_version>
43012

> <i_f3d_flags>
0

> <s_epik_input>
W0NIM11bQ0BASF0xW0NIMl1OKFtDSDJdW0NASF0oTzEpW0NIM10pW0NASF0oW0NIM10pW0NIMl1bTkhdQyg9TylbQ0gyXW4yW2NIXVtjSF1bY0hdbjI=

> <s_epik_cmdline>
J2VwaWtfcHl0aG9uJywgJy1waCcsICc3LjAnLCAnLXRuJywgJzgnLCAnLW1hJywgJzIwMCcsICctbWV0YWxfYmluZGluZycsICctaW1hZScsICc8aW5maWxlLm1hZT4nLCAnLW9tYWUnLCAnPG91dGZpbGUubWFlPic=

> <r_lp_tautomer_probability>
1

> <r_epik_Ionization_Penalty>
0.196927

> <r_epik_Ionization_Penalty_Charging>
0

> <r_epik_Ionization_Penalty_Neutral>
0.196927

> <r_epik_State_Penalty>
0.186684

> <r_epik_Charging_Adjusted_Penalty>
0.186684

> <i_epik_Tot_Q>
0

> <i_epik_Tot_abs_Q>
0

> <r_epik_Metal_State_Penalty>
0.186682

> <b_epik_Metal_Only>
0

> <s_lp_Force_Field>
OPLS_2005

> <r_lp_Energy>
34.0923

> <b_lp_Chiralities_Consistent>
1

> <s_lp_Variant>
AV-unprocessed.smi:1433-5

> <Gold.Version>
5.8.1

> <Gold.Id.Protein>
6NUR|6NUR_protein|mol2

> <Gold.PLP.Fitness>
39.5953

> <Gold.PLP.PLP>
-31.6542

> <Gold.PLP.part.hbond>
-2.0000

> <Gold.PLP.part.metal>
0.0000

> <Gold.PLP.part.buried>
-4.4507

> <Gold.PLP.part.nonpolar>
-27.4205

> <Gold.PLP.part.repulsive>
0.5401

> <Gold.PLP.ligand.clash>
0.3984

> <Gold.PLP.ligand.torsion>
1.7668

> <Gold.PLP.Chemscore.Hbond>
1.9600

> <Gold.PLP.Chemscore.CHOScore>
1.9751

> <Gold.PLP.Chemscore.Metal>
0.0000

> <Gold.Chemscore.Hbonds>
donor molecule, donor type, donor heavy atom, donor atom, acceptor molecule, acceptor atom, score
      L1  H     8    33       P1  7948  0.88
      P1  H  7989  7998       L1    20  1.00
      L1  C    13    36       P1 10186  1.00
      L1  C    15    38       P1 10747  0.82

> <Gold.PLP.Chemscore.Internal.Correction>
0.0680

> <Gold.Rescore>
     Score         DG    S(hbond)    S(metal)    S(lipo)     H(rot)  DE(clash)    DE(int)     intcor
     12.24     -14.26       1.06        0.00      84.42       1.80       0.36       1.66       ----

> <Gold.Chemscore.Fitness>
12.2434

> <Gold.Chemscore.DG>
-14.2647

> <Gold.Chemscore.ZeroCoef>
-5.4800

> <Gold.Chemscore.Hbond>
1.0556

> <Gold.Chemscore.Metal>
0.0000

> <Gold.Chemscore.Lipo>
84.4181

> <Gold.Chemscore.Internal_Hbond>
0.0000

> <Gold.Chemscore.DEClash>
0.3614

> <Gold.Chemscore.DEInternal>
1.6598

> <Gold.Chemscore.Rot>
1.8038

> <Gold.Chemscore.Internal.Correction>
   9.000000E+99

> <Gold.Chemscore.Hbonds>
donor molecule, donor type, donor heavy atom, donor atom, acceptor molecule, acceptor atom, score
      L1  H     8    33       P1  7948  0.87
      P1  H  7989  7998       L1    20  0.10

> <Gold.Chemscore.Hbond.Weighted>
-3.5256

> <Gold.Chemscore.Metal.Weighted>
-0.0000

> <Gold.Chemscore.Lipo.Weighted>
-9.8769

> <Gold.Chemscore.Internal_Hbond.Weighted>
0.0000

> <Gold.Chemscore.DEClash.Weighted>
0.3614

> <Gold.Chemscore.DEInternal.Weighted>
1.6598

> <Gold.Chemscore.Rot.Weighted>
4.6178

> <Gold.Chemscore.Internal.Correction.Weighted>
   9.000000E+99

> <Gold.Protein.RotatedTorsions>
[ 6907 6896 6895 6894 ] final   92.69 input  -60.11 | X-H torsion
[ 7974 7965 7964 7962 ] final  122.42 input  175.53 | X-H torsion
[ 8008 7997 7996 7995 ] final   -9.09 input   59.86 | X-H torsion
[ 10167 10162 10161 10158 ] final  -21.49 input  -65.29 | X-H torsion
[ 10718 10713 10712 10709 ] final   49.08 input   66.30 | X-H torsion
[ 10763 10752 10751 10750 ] final  135.21 input  -60.55 | X-H torsion
[ 11005 11000 10999 10996 ] final   31.20 input  -57.11 | X-H torsion

> <Gold.Protein.ActiveResidues>
 VAL166  LYS551  ARG553  GLY616  TRP617  ASP618  TYR619  PRO620  LYS621  CYS622 
 ASP623  PHE694  ASN695  SER759  ASP760  ASP761  ALA762  ILE779  LEU786  VAL792 
 PHE793  MET794  SER795  GLU796  ALA797  LYS798  CYS799  TRP800  GLU811  SER814 

> <Gold.Protein.RotatedAtoms>
  152.5453  134.1463  159.8499 H   0  0  0  0  0  0  0  0  0  0  0  0  # atno 6907 bound_to 6896
  151.1494  133.4910  159.2603 H   0  0  0  0  0  0  0  0  0  0  0  0  # atno 6908 bound_to 6896
  151.1488  135.0227  159.8714 H   0  0  0  0  0  0  0  0  0  0  0  0  # atno 6909 bound_to 6896
  145.1078  139.3474  143.4779 H   0  0  0  0  0  0  0  0  0  0  0  0  # atno 7974 bound_to 7965
  154.5679  140.2364  155.8235 H   0  0  0  0  0  0  0  0  0  0  0  0  # atno 8008 bound_to 7997
  156.2083  140.3033  155.9635 H   0  0  0  0  0  0  0  0  0  0  0  0  # atno 8009 bound_to 7997
  155.2766  140.0420  157.3002 H   0  0  0  0  0  0  0  0  0  0  0  0  # atno 8010 bound_to 7997
  140.7282  143.4623  151.0362 H   0  0  0  0  0  0  0  0  0  0  0  0  # atno 10167 bound_to 10162
  157.4751  130.8280  149.8030 H   0  0  0  0  0  0  0  0  0  0  0  0  # atno 10718 bound_to 10713
  153.8364  135.3097  155.3423 H   0  0  0  0  0  0  0  0  0  0  0  0  # atno 10763 bound_to 10752
  154.7951  135.4760  154.0146 H   0  0  0  0  0  0  0  0  0  0  0  0  # atno 10764 bound_to 10752
  153.1603  135.6859  153.8844 H   0  0  0  0  0  0  0  0  0  0  0  0  # atno 10765 bound_to 10752
  140.2863  134.2915  155.7787 H   0  0  0  0  0  0  0  0  0  0  0  0  # atno 11005 bound_to 11000
  146.3527  140.0983  142.8609 LP  0  0  0  0  0  0  0  0  0  0  0  0  # atno 17320 bound_to 7965
  145.0882  140.9266  143.4785 LP  0  0  0  0  0  0  0  0  0  0  0  0  # atno 17321 bound_to 7965
  139.8308  143.7693  152.3179 LP  0  0  0  0  0  0  0  0  0  0  0  0  # atno 17342 bound_to 10162
  139.7808  144.7445  151.0091 LP  0  0  0  0  0  0  0  0  0  0  0  0  # atno 17343 bound_to 10162
  156.0093  130.3841  150.2321 LP  0  0  0  0  0  0  0  0  0  0  0  0  # atno 17370 bound_to 10713
  157.0505  131.0061  151.3255 LP  0  0  0  0  0  0  0  0  0  0  0  0  # atno 17371 bound_to 10713
  141.2154  133.7557  156.9557 LP  0  0  0  0  0  0  0  0  0  0  0  0  # atno 17394 bound_to 11000
  140.1236  134.9401  157.2239 LP  0  0  0  0  0  0  0  0  0  0  0  0  # atno 17395 bound_to 11000

$$$$
