#       Name:                AV-unprocessed.smi:2881
#       Creating user name   scv26
#       Creation time:       Fri Mar 27 15:54:02 2020


#       File generated by GOLD software.
#

@<TRIPOS>MOLECULE
AV-unprocessed.smi:2881
    45    47     1
SMALL
NO_CHARGES


@<TRIPOS>ATOM
      1 ****        -3.5880   3.0127  -1.2241 C.3            1 S1                 0.0000
      2 ****        -2.9358   2.4631   0.0106 C.2            1 S1                 0.0000
      3 ****        -2.9606   1.1213   0.4912 C.2            1 S1                 0.0000
      4 ****        -2.2117   1.1572   1.6343 C.2            1 S1                 0.0000
      5 ****        -1.8238   0.0776   2.5949 C.3            1 S1                 0.0000
      6 ****        -0.3859  -0.3769   2.3418 C.2            1 S1                 0.0000
      7 ****         0.4738  -0.2148   3.2071 O.2            1 S1                 0.0000
      8 ****        -0.1367  -0.9172   1.1385 N.am           1 S1                 0.0000
      9 ****         1.1803  -1.2973   0.6300 C.3            1 S1                 0.0000
     10 ****         1.0497  -2.4783  -0.3557 C.3            1 S1                 0.0000
     11 ****         2.4404  -3.0972  -0.5862 C.3            1 S1                 0.0000
     12 ****         3.1459  -2.0249  -1.4382 C.3            1 S1                 0.0000
     13 ****         2.0642  -0.9358  -1.5851 C.3            1 S1                 0.0000
     14 ****         0.7987  -1.7779  -1.6859 C.3            1 S1                 0.0000
     15 ****         1.8840  -0.2040  -0.2321 C.3            1 S1                 0.0000
     16 ****         1.1408   1.1470  -0.3618 C.3            1 S1                 0.0000
     17 ****         1.9146   2.0704  -1.0977 O.3            1 S1                 0.0000
     18 ****        -1.8024   2.4632   1.7828 N.pl3          1 S1                 0.0000
     19 ****        -2.2354   3.2684   0.7956 N.2            1 S1                 0.0000
     20 ****        -1.2273   2.8112   2.5371 H              1 S1                 0.0000
     21 ****        -3.5160   2.3057  -2.0507 H              1 S1                 0.0000
     22 ****        -3.1210   3.9442  -1.5462 H              1 S1                 0.0000
     23 ****        -4.6451   3.2128  -1.0494 H              1 S1                 0.0000
     24 ****        -3.4465   0.2610   0.0556 H              1 S1                 0.0000
     25 ****        -2.4931  -0.7774   2.4928 H              1 S1                 0.0000
     26 ****        -1.9229   0.4343   3.6211 H              1 S1                 0.0000
     27 ****        -0.9116  -1.0134   0.4982 H              1 S1                 0.0000
     28 ****         1.8157  -1.5893   1.4683 H              1 S1                 0.0000
     29 ****         0.2957  -3.2135  -0.0717 H              1 S1                 0.0000
     30 ****         2.9666  -3.3032   0.3467 H              1 S1                 0.0000
     31 ****         2.3616  -4.0343  -1.1387 H              1 S1                 0.0000
     32 ****         4.0548  -1.6487  -0.9674 H              1 S1                 0.0000
     33 ****         3.4205  -2.4318  -2.4122 H              1 S1                 0.0000
     34 ****         2.2405  -0.2723  -2.4321 H              1 S1                 0.0000
     35 ****         0.7987  -2.4582  -2.5394 H              1 S1                 0.0000
     36 ****        -0.1194  -1.1889  -1.7022 H              1 S1                 0.0000
     37 ****         2.8633   0.0073   0.2007 H              1 S1                 0.0000
     38 ****         0.1710   1.0298  -0.8460 H              1 S1                 0.0000
     39 ****         0.9621   1.5813   0.6217 H              1 S1                 0.0000
     40 ****         1.4399   2.8864  -1.1477 H              1 S1                 0.0000
     41 ****         0.2326   0.2147   4.0774 LP             1 S1                 0.0000
     42 ****         1.4137  -0.5126   3.0401 LP             1 S1                 0.0000
     43 ****         2.0758   1.7168  -2.0191 LP             1 S1                 0.0000
     44 ****         2.7910   2.2174  -0.6390 LP             1 S1                 0.0000
     45 ****        -2.0675   4.2475   0.6810 LP             1 S1                 0.0000
@<TRIPOS>BOND
    1    1   21 1     
    2    1   22 1     
    3    1   23 1     
    4    1    2 1     
    5    2   19 2     
    6    2    3 1     
    7    3    4 2     
    8    3   24 1     
    9    4   18 1     
   10    4    5 1     
   11    5    6 1     
   12    5   25 1     
   13    5   26 1     
   14    6    7 2     
   15    6    8 am    
   16    8    9 1     
   17    8   27 1     
   18    9   15 1     
   19    9   10 1     
   20    9   28 1     
   21   10   14 1     
   22   10   11 1     
   23   10   29 1     
   24   11   12 1     
   25   11   30 1     
   26   11   31 1     
   27   12   13 1     
   28   12   32 1     
   29   12   33 1     
   30   13   14 1     
   31   13   15 1     
   32   13   34 1     
   33   14   35 1     
   34   14   36 1     
   35   15   16 1     
   36   15   37 1     
   37   16   17 1     
   38   16   38 1     
   39   16   39 1     
   40   17   40 1     
   41   18   19 1     
   42   18   20 1     
   43    7   41 1     
   44    7   42 1     
   45   17   43 1     
   46   17   44 1     
   47   19   45 1     
@<TRIPOS>SUBSTRUCTURE
      1 S1             1
@<TRIPOS>SET
LONE_PAIRS      STATIC     ATOMS    <user>   **** ""
5 41 42 43 44 45
DONOR_HYDROGENS      STATIC     ATOMS    <user>   **** ""
3 27 40 20
ATOM$BLUE        STATIC     ATOMS    COLORGROUP SYSTEM
5 41 42 43 44 45
ATOM$RED        STATIC     ATOMS    COLORGROUP SYSTEM
3 27 40 20
