AV-unprocessed.smi:339|AV-procd|sdf|2379|dock5
  -GOLD-   2262022303D 1   1.00000     0.00000
 Structure written by MMmdl.
 45 46  0  0  0  0  0  0  0  0  1 V2000
  153.1582  143.2465  162.0774 C   0  0  0  0  0  0  0  0  0  0  0  0
  152.6636  143.5326  160.6718 C   0  0  0  0  0  0  0  0  0  0  0  0
  152.4620  144.8676  160.2648 C   0  0  0  0  0  0  0  0  0  0  0  0
  151.9949  145.1506  158.9679 C   0  0  0  0  0  0  0  0  0  0  0  0
  151.7195  144.0992  158.0741 C   0  0  0  0  0  0  0  0  0  0  0  0
  151.9169  142.7604  158.4703 C   0  0  0  0  0  0  0  0  0  0  0  0
  151.6028  141.6379  157.4983 C   0  0  0  0  0  0  0  0  0  0  0  0
  152.4050  142.4755  159.7676 C   0  0  0  0  0  0  0  0  0  0  0  0
  152.6046  141.1755  160.1541 O   0  0  0  0  0  0  0  0  0  0  0  0
  153.6296  140.5180  159.4234 C   0  0  0  0  0  0  0  0  0  0  0  0
  154.2632  139.4372  160.3134 C   0  0  1  0  0  0  0  0  0  0  0  0
  154.5058  140.0272  161.5759 O   0  0  0  0  0  0  0  0  0  0  0  0
  153.3128  138.2374  160.5240 C   0  0  0  0  0  0  0  0  0  0  0  0
  153.8990  137.2179  161.4023 N   0  0  0  0  0  0  0  0  0  0  0  0
  154.1718  137.6686  162.6784 N   0  0  0  0  0  0  0  0  0  0  0  0
  154.7032  136.8945  163.5665 C   0  0  0  0  0  0  0  0  0  0  0  0
  154.9544  137.4961  164.9228 C   0  0  0  0  0  0  0  0  0  0  0  0
  155.0249  135.5129  163.2222 C   0  0  0  0  0  0  0  0  0  0  0  0
  155.6493  134.6462  164.3072 C   0  0  0  0  0  0  0  0  0  0  0  0
  154.7431  135.0797  161.9679 C   0  0  0  0  0  0  0  0  0  0  0  0
  155.0104  133.7431  161.5445 C   0  0  0  0  0  0  0  0  0  0  0  0
  155.2067  132.6554  161.2004 N   0  0  0  0  0  0  0  0  0  0  0  0
  154.1439  135.9527  160.9561 C   0  0  0  0  0  0  0  0  0  0  0  0
  153.8846  135.5936  159.8064 O   0  0  0  0  0  0  0  0  0  0  0  0
  152.9599  144.0879  162.7419 H   0  0  0  0  0  0  0  0  0  0  0  0
  154.2326  143.0643  162.0703 H   0  0  0  0  0  0  0  0  0  0  0  0
  152.6620  142.3695  162.4937 H   0  0  0  0  0  0  0  0  0  0  0  0
  152.6642  145.6805  160.9469 H   0  0  0  0  0  0  0  0  0  0  0  0
  151.8425  146.1745  158.6604 H   0  0  0  0  0  0  0  0  0  0  0  0
  151.3541  144.3249  157.0832 H   0  0  0  0  0  0  0  0  0  0  0  0
  151.1086  140.8102  158.0080 H   0  0  0  0  0  0  0  0  0  0  0  0
  152.5195  141.2636  157.0427 H   0  0  0  0  0  0  0  0  0  0  0  0
  150.9422  141.9813  156.7018 H   0  0  0  0  0  0  0  0  0  0  0  0
  153.2620  140.0931  158.4873 H   0  0  0  0  0  0  0  0  0  0  0  0
  154.3792  141.2643  159.1581 H   0  0  0  0  0  0  0  0  0  0  0  0
  155.2033  139.1073  159.8694 H   0  0  0  0  0  0  0  0  0  0  0  0
  154.6747  140.9483  161.4497 H   0  0  0  0  0  0  0  0  0  0  0  0
  152.3472  138.5751  160.9060 H   0  0  0  0  0  0  0  0  0  0  0  0
  153.0821  137.7724  159.5637 H   0  0  0  0  0  0  0  0  0  0  0  0
  154.5062  136.8861  165.7072 H   0  0  0  0  0  0  0  0  0  0  0  0
  154.5335  138.4991  165.0070 H   0  0  0  0  0  0  0  0  0  0  0  0
  156.0243  137.5693  165.1197 H   0  0  0  0  0  0  0  0  0  0  0  0
  155.9976  133.6896  163.9192 H   0  0  0  0  0  0  0  0  0  0  0  0
  154.9219  134.4407  165.0929 H   0  0  0  0  0  0  0  0  0  0  0  0
  156.5099  135.1437  164.7556 H   0  0  0  0  0  0  0  0  0  0  0  0
  1  2  1  0  0  0  0
  1 25  1  0  0  0  0
  1 26  1  0  0  0  0
  1 27  1  0  0  0  0
  2  8  1  0  0  0  0
  2  3  2  0  0  0  0
  3  4  1  0  0  0  0
  3 28  1  0  0  0  0
  4  5  2  0  0  0  0
  4 29  1  0  0  0  0
  5  6  1  0  0  0  0
  5 30  1  0  0  0  0
  6  7  1  0  0  0  0
  6  8  2  0  0  0  0
  7 31  1  0  0  0  0
  7 32  1  0  0  0  0
  7 33  1  0  0  0  0
  8  9  1  0  0  0  0
  9 10  1  0  0  0  0
 10 11  1  0  0  0  0
 10 34  1  0  0  0  0
 10 35  1  0  0  0  0
 11 12  1  0  0  0  0
 11 13  1  0  0  0  0
 11 36  1  0  0  0  0
 12 37  1  0  0  0  0
 13 14  1  0  0  0  0
 13 38  1  0  0  0  0
 13 39  1  0  0  0  0
 14 23  1  0  0  0  0
 14 15  1  0  0  0  0
 15 16  2  0  0  0  0
 16 17  1  0  0  0  0
 16 18  1  0  0  0  0
 17 40  1  0  0  0  0
 17 41  1  0  0  0  0
 17 42  1  0  0  0  0
 18 19  1  0  0  0  0
 18 20  2  0  0  0  0
 19 43  1  0  0  0  0
 19 44  1  0  0  0  0
 19 45  1  0  0  0  0
 20 21  1  0  0  0  0
 20 23  1  0  0  0  0
 21 22  3  0  0  0  0
 23 24  2  0  0  0  0
M  END
> <s_m_source_file>
AV-unprocessed.smi

> <i_m_source_file_index>
339

> <i_lp_mmshare_version>
43012

> <i_f3d_flags>
0

> <s_epik_input>
W0NIM11jMVtjSF1bY0hdW2NIXWMoW0NIM10pYzFPW0NIMl1bQ0BIXShbT0hdKVtDSDJdbjJuYyhbQ0gzXSljKFtDSDNdKWMoQyNOKWMyPU8=

> <s_epik_cmdline>
J2VwaWtfcHl0aG9uJywgJy1waCcsICc3LjAnLCAnLXRuJywgJzgnLCAnLW1hJywgJzIwMCcsICctbWV0YWxfYmluZGluZycsICctaW1hZScsICc8aW5maWxlLm1hZT4nLCAnLW9tYWUnLCAnPG91dGZpbGUubWFlPic=

> <r_lp_tautomer_probability>
1

> <r_epik_Ionization_Penalty>
1.17331e-07

> <r_epik_Ionization_Penalty_Charging>
1.57223e-10

> <r_epik_Ionization_Penalty_Neutral>
1.17174e-07

> <r_epik_State_Penalty>
-0

> <r_epik_Charging_Adjusted_Penalty>
1.57223e-10

> <i_epik_Tot_Q>
0

> <i_epik_Tot_abs_Q>
0

> <r_epik_Metal_State_Penalty>
-0

> <b_epik_Metal_Only>
0

> <s_lp_Force_Field>
OPLS_2005

> <r_lp_Energy>
35.8185

> <b_lp_Chiralities_Consistent>
1

> <s_lp_Variant>
AV-unprocessed.smi:339-2

> <Gold.Version>
5.8.1

> <Gold.Id.Protein>
6NUR|6NUR_protein|mol2

> <Gold.PLP.Fitness>
51.8779

> <Gold.PLP.PLP>
-49.3624

> <Gold.PLP.part.hbond>
-1.0000

> <Gold.PLP.part.metal>
0.0000

> <Gold.PLP.part.buried>
-6.5423

> <Gold.PLP.part.nonpolar>
-41.5631

> <Gold.PLP.part.repulsive>
0.0000

> <Gold.PLP.ligand.clash>
0.0000

> <Gold.PLP.ligand.torsion>
0.2860

> <Gold.PLP.Chemscore.Hbond>
1.0000

> <Gold.PLP.Chemscore.CHOScore>
0.0000

> <Gold.PLP.Chemscore.Metal>
0.0000

> <Gold.Chemscore.Hbonds>
donor molecule, donor type, donor heavy atom, donor atom, acceptor molecule, acceptor atom, score
      P1  H  6896  6907       L1    24  1.00

> <Gold.PLP.Chemscore.Internal.Correction>
0.0874

> <Gold.Rescore>
     Score         DG    S(hbond)    S(metal)    S(lipo)     H(rot)  DE(clash)    DE(int)     intcor
     17.21     -19.31       0.99        0.00     140.15       2.29       0.09       2.01       ----

> <Gold.Chemscore.Fitness>
17.2109

> <Gold.Chemscore.DG>
-19.3082

> <Gold.Chemscore.ZeroCoef>
-5.4800

> <Gold.Chemscore.Hbond>
0.9864

> <Gold.Chemscore.Metal>
0.0000

> <Gold.Chemscore.Lipo>
140.1466

> <Gold.Chemscore.Internal_Hbond>
0.0000

> <Gold.Chemscore.DEClash>
0.0889

> <Gold.Chemscore.DEInternal>
2.0084

> <Gold.Chemscore.Rot>
2.2905

> <Gold.Chemscore.Internal.Correction>
   9.000000E+99

> <Gold.Chemscore.Hbonds>
donor molecule, donor type, donor heavy atom, donor atom, acceptor molecule, acceptor atom, score
      P1  H  6896  6907       L1    24  0.54

> <Gold.Chemscore.Hbond.Weighted>
-3.2946

> <Gold.Chemscore.Metal.Weighted>
-0.0000

> <Gold.Chemscore.Lipo.Weighted>
-16.3972

> <Gold.Chemscore.Internal_Hbond.Weighted>
0.0000

> <Gold.Chemscore.DEClash.Weighted>
0.0889

> <Gold.Chemscore.DEInternal.Weighted>
2.0084

> <Gold.Chemscore.Rot.Weighted>
5.8636

> <Gold.Chemscore.Internal.Correction.Weighted>
   9.000000E+99

> <Gold.Protein.RotatedTorsions>
[ 6907 6896 6895 6894 ] final   76.72 input  -60.11 | X-H torsion
[ 7974 7965 7964 7962 ] final  121.78 input  175.53 | X-H torsion
[ 8008 7997 7996 7995 ] final  -20.72 input   59.86 | X-H torsion
[ 10167 10162 10161 10158 ] final  141.96 input  -65.29 | X-H torsion
[ 10718 10713 10712 10709 ] final  -36.54 input   66.30 | X-H torsion
[ 10763 10752 10751 10750 ] final   -0.52 input  -60.55 | X-H torsion
[ 11005 11000 10999 10996 ] final    1.83 input  -57.11 | X-H torsion

> <Gold.Protein.ActiveResidues>
 VAL166  LYS551  ARG553  GLY616  TRP617  ASP618  TYR619  PRO620  LYS621  CYS622 
 ASP623  PHE694  ASN695  SER759  ASP760  ASP761  ALA762  ILE779  LEU786  VAL792 
 PHE793  MET794  SER795  GLU796  ALA797  LYS798  CYS799  TRP800  GLU811  SER814 

> <Gold.Protein.RotatedAtoms>
  152.5085  134.3927  159.9389 H   0  0  0  0  0  0  0  0  0  0  0  0  # atno 6907 bound_to 6896
  151.3887  133.3790  159.2726 H   0  0  0  0  0  0  0  0  0  0  0  0  # atno 6908 bound_to 6896
  150.9449  134.8875  159.7694 H   0  0  0  0  0  0  0  0  0  0  0  0  # atno 6909 bound_to 6896
  145.1153  139.3425  143.4742 H   0  0  0  0  0  0  0  0  0  0  0  0  # atno 7974 bound_to 7965
  154.4752  140.2054  155.9897 H   0  0  0  0  0  0  0  0  0  0  0  0  # atno 8008 bound_to 7997
  156.1076  140.3234  155.7998 H   0  0  0  0  0  0  0  0  0  0  0  0  # atno 8009 bound_to 7997
  155.4690  140.0530  157.2972 H   0  0  0  0  0  0  0  0  0  0  0  0  # atno 8010 bound_to 7997
  139.5006  144.6137  151.6212 H   0  0  0  0  0  0  0  0  0  0  0  0  # atno 10167 bound_to 10162
  156.3256  130.4272  149.7919 H   0  0  0  0  0  0  0  0  0  0  0  0  # atno 10718 bound_to 10713
  153.3329  135.6976  153.6932 H   0  0  0  0  0  0  0  0  0  0  0  0  # atno 10763 bound_to 10752
  153.5728  135.3513  155.2845 H   0  0  0  0  0  0  0  0  0  0  0  0  # atno 10764 bound_to 10752
  154.8621  135.4276  154.2522 H   0  0  0  0  0  0  0  0  0  0  0  0  # atno 10765 bound_to 10752
  140.6110  133.9748  155.8177 H   0  0  0  0  0  0  0  0  0  0  0  0  # atno 11005 bound_to 11000
  146.3524  140.1089  142.8605 LP  0  0  0  0  0  0  0  0  0  0  0  0  # atno 17320 bound_to 7965
  145.0801  140.9215  143.4830 LP  0  0  0  0  0  0  0  0  0  0  0  0  # atno 17321 bound_to 7965
  140.5819  143.9930  150.6273 LP  0  0  0  0  0  0  0  0  0  0  0  0  # atno 17342 bound_to 10162
  140.3082  143.3215  152.0905 LP  0  0  0  0  0  0  0  0  0  0  0  0  # atno 17343 bound_to 10162
  156.5211  130.8215  151.3204 LP  0  0  0  0  0  0  0  0  0  0  0  0  # atno 17370 bound_to 10713
  157.7420  130.9882  150.2489 LP  0  0  0  0  0  0  0  0  0  0  0  0  # atno 17371 bound_to 10713
  141.0808  134.0066  157.3389 LP  0  0  0  0  0  0  0  0  0  0  0  0  # atno 17394 bound_to 11000
  139.9192  135.0199  156.7999 LP  0  0  0  0  0  0  0  0  0  0  0  0  # atno 17395 bound_to 11000

$$$$
