AV-unprocessed.smi:3234|AV-procd|sdf|12351|dock3
  -GOLD-   2272018213D 1   1.00000     0.00000
 Structure written by MMmdl.
 37 39  0  0  0  0  0  0  0  0  2 V2000
  149.8252  140.6634  157.2284 O   0  0  0  0  0  0  0  0  0  0  0  0
  149.7520  141.8310  156.8460 C   0  0  0  0  0  0  0  0  0  0  0  0
  150.4291  142.8680  157.3686 N   0  0  0  0  0  0  0  0  0  0  0  0
  151.3223  142.8762  158.4739 C   0  0  0  0  0  0  0  0  0  0  0  0
  151.5138  144.0956  159.1558 C   0  0  0  0  0  0  0  0  0  0  0  0
  152.3830  144.1241  160.2646 C   0  0  0  0  0  0  0  0  0  0  0  0
  153.0399  143.0368  160.7201 N   0  0  0  0  0  0  0  0  0  0  0  0
  152.8426  141.8670  160.0761 C   0  0  0  0  0  0  0  0  0  0  0  0
  151.9966  141.7293  158.9573 C   0  0  0  0  0  0  0  0  0  0  0  0
  148.9855  142.2201  155.8172 N   0  0  0  0  0  0  0  0  0  0  0  0
  148.1322  141.3330  155.0342 C   0  0  1  0  0  0  0  0  0  0  0  0
  147.1824  142.0670  154.0972 C   0  0  0  0  0  0  0  0  0  0  0  0
  146.8072  140.9787  153.0845 C   0  0  0  0  0  0  0  0  0  0  0  0
  147.9509  140.0339  153.0274 N   0  3  2  0  0  0  0  0  0  0  0  0
  147.5496  138.6139  153.1269 C   0  0  0  0  0  0  0  0  0  0  0  0
  146.2821  138.2912  152.3726 C   0  0  0  0  0  0  0  0  0  0  0  0
  146.2590  138.4025  153.8817 C   0  0  0  0  0  0  0  0  0  0  0  0
  148.9204  140.4482  154.0651 C   0  0  0  0  0  0  0  0  0  0  0  0
  150.3326  143.7502  156.8873 H   0  0  0  0  0  0  0  0  0  0  0  0
  151.0120  144.9969  158.8352 H   0  0  0  0  0  0  0  0  0  0  0  0
  152.5533  145.0458  160.8008 H   0  0  0  0  0  0  0  0  0  0  0  0
  153.3714  141.0108  160.4678 H   0  0  0  0  0  0  0  0  0  0  0  0
  151.8745  140.7563  158.5070 H   0  0  0  0  0  0  0  0  0  0  0  0
  148.9857  143.1977  155.5641 H   0  0  0  0  0  0  0  0  0  0  0  0
  147.5448  140.7024  155.7053 H   0  0  0  0  0  0  0  0  0  0  0  0
  146.3151  142.4847  154.6095 H   0  0  0  0  0  0  0  0  0  0  0  0
  147.7023  142.8822  153.5911 H   0  0  0  0  0  0  0  0  0  0  0  0
  145.9080  140.4617  153.4244 H   0  0  0  0  0  0  0  0  0  0  0  0
  146.5929  141.3933  152.0992 H   0  0  0  0  0  0  0  0  0  0  0  0
  148.3554  137.8845  153.1935 H   0  0  0  0  0  0  0  0  0  0  0  0
  145.8052  139.0866  151.8025 H   0  0  0  0  0  0  0  0  0  0  0  0
  146.1926  137.2948  151.9446 H   0  0  0  0  0  0  0  0  0  0  0  0
  146.1544  137.4792  154.4477 H   0  0  0  0  0  0  0  0  0  0  0  0
  145.7662  139.2716  154.3141 H   0  0  0  0  0  0  0  0  0  0  0  0
  149.7075  141.0257  153.5776 H   0  0  0  0  0  0  0  0  0  0  0  0
  149.3956  139.6011  154.5628 H   0  0  0  0  0  0  0  0  0  0  0  0
  148.4062  140.1517  152.1334 H   0  0  0  0  0  0  0  0  0  0  0  0
  1  2  2  0  0  0  0
  2  3  1  0  0  0  0
  2 10  1  0  0  0  0
  3  4  1  0  0  0  0
  3 19  1  0  0  0  0
  4  9  1  0  0  0  0
  4  5  2  0  0  0  0
  5  6  1  0  0  0  0
  5 20  1  0  0  0  0
  6  7  2  0  0  0  0
  6 21  1  0  0  0  0
  7  8  1  0  0  0  0
  8  9  2  0  0  0  0
  8 22  1  0  0  0  0
  9 23  1  0  0  0  0
 10 11  1  0  0  0  0
 10 24  1  0  0  0  0
 11 18  1  0  0  0  0
 11 12  1  0  0  0  0
 11 25  1  0  0  0  0
 12 13  1  0  0  0  0
 12 26  1  0  0  0  0
 12 27  1  0  0  0  0
 13 14  1  0  0  0  0
 13 28  1  0  0  0  0
 13 29  1  0  0  0  0
 14 15  1  0  0  0  0
 14 18  1  0  0  0  0
 14 37  1  0  0  0  0
 15 17  1  0  0  0  0
 15 16  1  0  0  0  0
 15 30  1  0  0  0  0
 16 17  1  0  0  0  0
 16 31  1  0  0  0  0
 16 32  1  0  0  0  0
 17 33  1  0  0  0  0
 17 34  1  0  0  0  0
 18 35  1  0  0  0  0
 18 36  1  0  0  0  0
M  CHG  1  14   1
M  END
> <s_m_source_file>
AV-unprocessed.smi

> <i_m_source_file_index>
3234

> <i_lp_mmshare_version>
43012

> <i_f3d_flags>
0

> <s_epik_input>
W2NIXTFbY0hdbltjSF1bY0hdYzFbTkhdQyg9TylbTkhdW0NAQEhdMltDSDJdW0NIMl1OKFtDSDJdMilbQ0hdM1tDSDJdW0NIMl0z

> <s_epik_cmdline>
J2VwaWtfcHl0aG9uJywgJy1waCcsICc3LjAnLCAnLXRuJywgJzgnLCAnLW1hJywgJzIwMCcsICctbWV0YWxfYmluZGluZycsICctaW1hZScsICc8aW5maWxlLm1hZT4nLCAnLW9tYWUnLCAnPG91dGZpbGUubWFlPic=

> <r_epik_Ionization_Penalty>
0.0934328

> <r_epik_Ionization_Penalty_Charging>
0.000606352

> <r_epik_Ionization_Penalty_Neutral>
0.0928265

> <r_epik_State_Penalty>
0.0830811

> <r_epik_Charging_Adjusted_Penalty>
0.0836875

> <i_epik_Tot_Q>
1

> <i_epik_Tot_abs_Q>
1

> <r_epik_Metal_State_Penalty>
0.0724491

> <b_epik_Metal_Only>
0

> <s_lp_Force_Field>
OPLS_2005

> <r_lp_Energy>
41.5008

> <b_lp_Chiralities_Consistent>
1

> <s_lp_Variant>
AV-unprocessed.smi:3234-4

> <Gold.Version>
5.8.1

> <Gold.Id.Protein>
6NUR|6NUR_protein|mol2

> <Gold.PLP.Fitness>
41.1268

> <Gold.PLP.PLP>
-33.8727

> <Gold.PLP.part.hbond>
-2.7724

> <Gold.PLP.part.metal>
0.0000

> <Gold.PLP.part.buried>
-2.0522

> <Gold.PLP.part.nonpolar>
-30.0456

> <Gold.PLP.part.repulsive>
0.2696

> <Gold.PLP.ligand.clash>
0.0000

> <Gold.PLP.ligand.torsion>
0.8920

> <Gold.PLP.Chemscore.Hbond>
2.5903

> <Gold.PLP.Chemscore.CHOScore>
0.0000

> <Gold.PLP.Chemscore.Metal>
0.0000

> <Gold.Chemscore.Hbonds>
donor molecule, donor type, donor heavy atom, donor atom, acceptor molecule, acceptor atom, score
      L1  H     3    19       P1  8028  0.60
      L1  H    10    24       P1  8028  0.98
      L1  H    14    37       P1  7957  1.00

> <Gold.PLP.Chemscore.Internal.Correction>
1.2671

> <Gold.Rescore>
     Score         DG    S(hbond)    S(metal)    S(lipo)     H(rot)  DE(clash)    DE(int)     intcor
     21.22     -22.49       2.67        0.00      95.70       1.21       0.19       1.08       ----

> <Gold.Chemscore.Fitness>
21.2215

> <Gold.Chemscore.DG>
-22.4909

> <Gold.Chemscore.ZeroCoef>
-5.4800

> <Gold.Chemscore.Hbond>
2.6687

> <Gold.Chemscore.Metal>
0.0000

> <Gold.Chemscore.Lipo>
95.7003

> <Gold.Chemscore.Internal_Hbond>
0.0000

> <Gold.Chemscore.DEClash>
0.1850

> <Gold.Chemscore.DEInternal>
1.0844

> <Gold.Chemscore.Rot>
1.2108

> <Gold.Chemscore.Internal.Correction>
   9.000000E+99

> <Gold.Chemscore.Hbonds>
donor molecule, donor type, donor heavy atom, donor atom, acceptor molecule, acceptor atom, score
      L1  H     3    19       P1  8028  0.61
      L1  H    10    24       P1  8028  0.92
      L1  H    14    37       P1  7957  0.92

> <Gold.Chemscore.Hbond.Weighted>
-8.9136

> <Gold.Chemscore.Metal.Weighted>
-0.0000

> <Gold.Chemscore.Lipo.Weighted>
-11.1969

> <Gold.Chemscore.Internal_Hbond.Weighted>
0.0000

> <Gold.Chemscore.DEClash.Weighted>
0.1850

> <Gold.Chemscore.DEInternal.Weighted>
1.0844

> <Gold.Chemscore.Rot.Weighted>
3.0996

> <Gold.Chemscore.Internal.Correction.Weighted>
   9.000000E+99

> <Gold.Protein.RotatedTorsions>
[ 6907 6896 6895 6894 ] final  166.40 input  -60.11 | X-H torsion
[ 7974 7965 7964 7962 ] final  156.33 input  175.53 | X-H torsion
[ 8008 7997 7996 7995 ] final  143.29 input   59.86 | X-H torsion
[ 10167 10162 10161 10158 ] final   20.27 input  -65.29 | X-H torsion
[ 10718 10713 10712 10709 ] final  -12.62 input   66.30 | X-H torsion
[ 10763 10752 10751 10750 ] final  170.02 input  -60.55 | X-H torsion
[ 11005 11000 10999 10996 ] final   11.05 input  -57.11 | X-H torsion

> <Gold.Protein.ActiveResidues>
 VAL166  LYS551  ARG553  GLY616  TRP617  ASP618  TYR619  PRO620  LYS621  CYS622 
 ASP623  PHE694  ASN695  SER759  ASP760  ASP761  ALA762  ILE779  LEU786  VAL792 
 PHE793  MET794  SER795  GLU796  ALA797  LYS798  CYS799  TRP800  GLU811  SER814 

> <Gold.Protein.RotatedAtoms>
  151.8795  133.3492  159.3761 H   0  0  0  0  0  0  0  0  0  0  0  0  # atno 6907 bound_to 6896
  150.7131  134.5032  159.5581 H   0  0  0  0  0  0  0  0  0  0  0  0  # atno 6908 bound_to 6896
  152.2581  134.8063  160.0486 H   0  0  0  0  0  0  0  0  0  0  0  0  # atno 6909 bound_to 6896
  144.7969  139.7189  143.6198 H   0  0  0  0  0  0  0  0  0  0  0  0  # atno 7974 bound_to 7965
  156.2933  140.2266  156.4866 H   0  0  0  0  0  0  0  0  0  0  0  0  # atno 8008 bound_to 7997
  154.7806  140.0460  157.1146 H   0  0  0  0  0  0  0  0  0  0  0  0  # atno 8009 bound_to 7997
  154.9763  140.3073  155.4969 H   0  0  0  0  0  0  0  0  0  0  0  0  # atno 8010 bound_to 7997
  140.5516  143.9499  150.6582 H   0  0  0  0  0  0  0  0  0  0  0  0  # atno 10167 bound_to 10162
  156.6420  130.4931  149.6091 H   0  0  0  0  0  0  0  0  0  0  0  0  # atno 10718 bound_to 10713
  154.3916  135.2754  155.2151 H   0  0  0  0  0  0  0  0  0  0  0  0  # atno 10763 bound_to 10752
  154.4215  135.5999  153.6016 H   0  0  0  0  0  0  0  0  0  0  0  0  # atno 10764 bound_to 10752
  152.9832  135.5973  154.4172 H   0  0  0  0  0  0  0  0  0  0  0  0  # atno 10765 bound_to 10752
  140.5076  134.0684  155.7809 H   0  0  0  0  0  0  0  0  0  0  0  0  # atno 11005 bound_to 11000
  146.2240  139.5688  142.9599 LP  0  0  0  0  0  0  0  0  0  0  0  0  # atno 17320 bound_to 7965
  145.5650  141.0400  143.2205 LP  0  0  0  0  0  0  0  0  0  0  0  0  # atno 17321 bound_to 7965
  140.2926  143.3314  152.1048 LP  0  0  0  0  0  0  0  0  0  0  0  0  # atno 17342 bound_to 10162
  139.5030  144.6746  151.6160 LP  0  0  0  0  0  0  0  0  0  0  0  0  # atno 17343 bound_to 10162
  156.2151  130.6703  151.1310 LP  0  0  0  0  0  0  0  0  0  0  0  0  # atno 17370 bound_to 10713
  157.7168  131.0705  150.6296 LP  0  0  0  0  0  0  0  0  0  0  0  0  # atno 17371 bound_to 10713
  141.1403  133.9150  157.2342 LP  0  0  0  0  0  0  0  0  0  0  0  0  # atno 17394 bound_to 11000
  139.9677  135.0137  156.9431 LP  0  0  0  0  0  0  0  0  0  0  0  0  # atno 17395 bound_to 11000

$$$$
