AV-unprocessed.smi:193|AV-procd|sdf|1515|dock4
  -GOLD-   2262019353D 1   1.00000     0.00000
 Structure written by MMmdl.
 61 65  0  0  0  0  0  0  0  0  1 V2000
  154.6225  140.7167  161.3600 C   0  0  0  0  0  0  0  0  0  0  0  0
  153.7478  140.8999  160.1101 C   0  0  1  0  0  0  0  0  0  0  0  0
  153.1068  139.5471  159.7323 C   0  0  0  0  0  0  0  0  0  0  0  0
  152.5945  139.4752  158.3629 N   0  0  0  0  0  0  0  0  0  0  0  0
  152.6019  138.2687  157.7331 C   0  0  0  0  0  0  0  0  0  0  0  0
  153.5427  137.3509  158.0833 N   0  0  0  0  0  0  0  0  0  0  0  0
  153.5822  136.1547  157.4904 C   0  0  0  0  0  0  0  0  0  0  0  0
  152.7893  135.6722  156.5329 N   0  0  0  0  0  0  0  0  0  0  0  0
  151.8425  136.5839  156.1713 C   0  0  0  0  0  0  0  0  0  0  0  0
  151.6752  137.8906  156.7151 C   0  0  0  0  0  0  0  0  0  0  0  0
  150.6088  138.5233  156.0839 N   0  0  0  0  0  0  0  0  0  0  0  0
  150.1700  137.6433  155.2270 C   0  0  0  0  0  0  0  0  0  0  0  0
  150.8601  136.4536  155.2050 N   0  0  0  0  0  0  0  0  0  0  0  0
  150.5984  135.3116  154.3420 C   0  0  0  0  0  0  0  0  0  0  0  0
  150.2640  134.0102  155.1130 C   0  0  0  0  0  0  0  0  0  0  0  0
  149.7036  133.0949  154.1867 O   0  0  0  0  0  0  0  0  0  0  0  0
  151.5109  133.3589  155.7506 C   0  0  0  0  0  0  0  0  0  0  0  0
  151.1421  132.1846  156.6742 C   0  0  0  0  0  0  0  0  0  0  0  0
  150.2126  132.6111  157.6631 O   0  0  0  0  0  0  0  0  0  0  0  0
  148.9812  133.0550  157.1061 C   0  0  0  0  0  0  0  0  0  0  0  0
  149.2201  134.2861  156.2135 C   0  0  0  0  0  0  0  0  0  0  0  0
  152.2366  140.6809  157.6143 C   0  0  0  0  0  0  0  0  0  0  0  0
  151.3380  141.6294  158.4192 C   0  0  0  0  0  0  0  0  0  0  0  0
  152.1418  142.5917  159.1671 N   0  0  0  0  0  0  0  0  0  0  0  0
  151.2810  143.7002  159.5577 C   0  0  1  0  0  0  0  0  0  0  0  0
  151.8896  144.8048  160.3931 C   0  0  0  0  0  0  0  0  0  0  0  0
  151.5334  145.0682  158.9493 C   0  0  1  0  0  0  0  0  0  0  0  0
  152.6262  145.3231  157.9289 C   0  0  0  0  0  0  0  0  0  0  0  0
  152.6869  141.9894  160.3825 C   0  0  0  0  0  0  0  0  0  0  0  0
  154.0298  140.3852  162.2133 H   0  0  0  0  0  0  0  0  0  0  0  0
  155.1150  141.6490  161.6379 H   0  0  0  0  0  0  0  0  0  0  0  0
  155.4043  139.9759  161.1896 H   0  0  0  0  0  0  0  0  0  0  0  0
  154.4146  141.2274  159.3107 H   0  0  0  0  0  0  0  0  0  0  0  0
  153.8636  138.7703  159.8500 H   0  0  0  0  0  0  0  0  0  0  0  0
  152.3034  139.3065  160.4292 H   0  0  0  0  0  0  0  0  0  0  0  0
  154.3628  135.4902  157.8306 H   0  0  0  0  0  0  0  0  0  0  0  0
  149.3324  137.8427  154.5745 H   0  0  0  0  0  0  0  0  0  0  0  0
  149.7749  135.5727  153.6760 H   0  0  0  0  0  0  0  0  0  0  0  0
  151.4688  135.1609  153.7017 H   0  0  0  0  0  0  0  0  0  0  0  0
  149.9372  132.2185  154.4524 H   0  0  0  0  0  0  0  0  0  0  0  0
  152.2084  133.0165  154.9852 H   0  0  0  0  0  0  0  0  0  0  0  0
  152.0451  134.1065  156.3385 H   0  0  0  0  0  0  0  0  0  0  0  0
  150.7275  131.3518  156.1041 H   0  0  0  0  0  0  0  0  0  0  0  0
  152.0359  131.8094  157.1727 H   0  0  0  0  0  0  0  0  0  0  0  0
  148.5103  132.2461  156.5454 H   0  0  0  0  0  0  0  0  0  0  0  0
  148.3013  133.3107  157.9190 H   0  0  0  0  0  0  0  0  0  0  0  0
  149.5682  135.1060  156.8436 H   0  0  0  0  0  0  0  0  0  0  0  0
  148.2788  134.6187  155.7742 H   0  0  0  0  0  0  0  0  0  0  0  0
  153.1348  141.1872  157.2581 H   0  0  0  0  0  0  0  0  0  0  0  0
  151.6738  140.4016  156.7230 H   0  0  0  0  0  0  0  0  0  0  0  0
  150.7349  142.1847  157.6994 H   0  0  0  0  0  0  0  0  0  0  0  0
  150.6349  141.0924  159.0583 H   0  0  0  0  0  0  0  0  0  0  0  0
  150.2374  143.4826  159.7802 H   0  0  0  0  0  0  0  0  0  0  0  0
  151.2617  145.2600  161.1560 H   0  0  0  0  0  0  0  0  0  0  0  0
  152.9452  144.7278  160.6474 H   0  0  0  0  0  0  0  0  0  0  0  0
  150.6441  145.6728  158.7822 H   0  0  0  0  0  0  0  0  0  0  0  0
  153.5209  144.7430  158.1569 H   0  0  0  0  0  0  0  0  0  0  0  0
  152.8941  146.3796  157.9271 H   0  0  0  0  0  0  0  0  0  0  0  0
  152.2791  145.0509  156.9322 H   0  0  0  0  0  0  0  0  0  0  0  0
  151.8855  141.5987  161.0120 H   0  0  0  0  0  0  0  0  0  0  0  0
  153.1601  142.7889  160.9544 H   0  0  0  0  0  0  0  0  0  0  0  0
  1  2  1  0  0  0  0
  1 30  1  0  0  0  0
  1 31  1  0  0  0  0
  1 32  1  0  0  0  0
  2 29  1  0  0  0  0
  2  3  1  0  0  0  0
  2 33  1  0  0  0  0
  3  4  1  0  0  0  0
  3 34  1  0  0  0  0
  3 35  1  0  0  0  0
  4  5  1  0  0  0  0
  4 22  1  0  0  0  0
  5 10  1  0  0  0  0
  5  6  2  0  0  0  0
  6  7  1  0  0  0  0
  7  8  2  0  0  0  0
  7 36  1  0  0  0  0
  8  9  1  0  0  0  0
  9 13  1  0  0  0  0
  9 10  2  0  0  0  0
 10 11  1  0  0  0  0
 11 12  2  0  0  0  0
 12 13  1  0  0  0  0
 12 37  1  0  0  0  0
 13 14  1  0  0  0  0
 14 15  1  0  0  0  0
 14 38  1  0  0  0  0
 14 39  1  0  0  0  0
 15 21  1  0  0  0  0
 15 16  1  0  0  0  0
 15 17  1  0  0  0  0
 16 40  1  0  0  0  0
 17 18  1  0  0  0  0
 17 41  1  0  0  0  0
 17 42  1  0  0  0  0
 18 19  1  0  0  0  0
 18 43  1  0  0  0  0
 18 44  1  0  0  0  0
 19 20  1  0  0  0  0
 20 21  1  0  0  0  0
 20 45  1  0  0  0  0
 20 46  1  0  0  0  0
 21 47  1  0  0  0  0
 21 48  1  0  0  0  0
 22 23  1  0  0  0  0
 22 49  1  0  0  0  0
 22 50  1  0  0  0  0
 23 24  1  0  0  0  0
 23 51  1  0  0  0  0
 23 52  1  0  0  0  0
 24 25  1  0  0  0  0
 24 29  1  0  0  0  0
 25 27  1  0  0  0  0
 25 26  1  0  0  0  0
 25 53  1  0  0  0  0
 26 27  1  0  0  0  0
 26 54  1  0  0  0  0
 26 55  1  0  0  0  0
 27 28  1  0  0  0  0
 27 56  1  0  0  0  0
 28 57  1  0  0  0  0
 28 58  1  0  0  0  0
 28 59  1  0  0  0  0
 29 60  1  0  0  0  0
 29 61  1  0  0  0  0
M  END
> <s_m_source_file>
AV-unprocessed.smi

> <i_m_source_file_index>
193

> <i_lp_mmshare_version>
43012

> <i_f3d_flags>
0

> <s_epik_input>
W0NIM11bQ0BASF0xW0NIMl1bQ0BIXTFOKFtDSDJdMilbQ0gyXVtDSDJdTihbQ0gyXVtDQEhdMltDSDNdKWMobltjSF1uMyljKGMzNCluW2NIXW40W0NIMl1DNShbT0hdKVtDSDJdW0NIMl1PW0NIMl1bQ0gyXTU=

> <s_epik_cmdline>
J2VwaWtfcHl0aG9uJywgJy1waCcsICc3LjAnLCAnLXRuJywgJzgnLCAnLW1hJywgJzIwMCcsICctbWV0YWxfYmluZGluZycsICctaW1hZScsICc8aW5maWxlLm1hZT4nLCAnLW9tYWUnLCAnPG91dGZpbGUubWFlPic=

> <r_lp_tautomer_probability>
1

> <r_epik_Ionization_Penalty>
1.45227

> <r_epik_Ionization_Penalty_Charging>
0

> <r_epik_Ionization_Penalty_Neutral>
1.45227

> <r_epik_State_Penalty>
2.02377

> <r_epik_Charging_Adjusted_Penalty>
2.02377

> <i_epik_Tot_Q>
0

> <i_epik_Tot_abs_Q>
0

> <r_epik_Metal_State_Penalty>
2.01937

> <b_epik_Metal_Only>
0

> <s_lp_Force_Field>
OPLS_2005

> <r_lp_Energy>
52.058

> <b_lp_Chiralities_Consistent>
1

> <s_lp_Variant>
AV-unprocessed.smi:193-20

> <Gold.Version>
5.8.1

> <Gold.Id.Protein>
6NUR|6NUR_protein|mol2

> <Gold.PLP.Fitness>
49.2671

> <Gold.PLP.PLP>
-44.6852

> <Gold.PLP.part.hbond>
-2.0000

> <Gold.PLP.part.metal>
0.0000

> <Gold.PLP.part.buried>
-7.0936

> <Gold.PLP.part.nonpolar>
-35.5850

> <Gold.PLP.part.repulsive>
0.0000

> <Gold.PLP.ligand.clash>
0.0000

> <Gold.PLP.ligand.torsion>
1.3077

> <Gold.PLP.Chemscore.Hbond>
2.0000

> <Gold.PLP.Chemscore.CHOScore>
0.0000

> <Gold.PLP.Chemscore.Metal>
0.0000

> <Gold.Chemscore.Hbonds>
donor molecule, donor type, donor heavy atom, donor atom, acceptor molecule, acceptor atom, score
      P1  H  6896  6908       L1    19  1.00
      P1  H 10752 10764       L1     8  0.73

> <Gold.PLP.Chemscore.Internal.Correction>
1.1972

> <Gold.Rescore>
     Score         DG    S(hbond)    S(metal)    S(lipo)     H(rot)  DE(clash)    DE(int)     intcor
     15.26     -18.47       0.91        0.00     126.67       1.91       0.29       2.92       ----

> <Gold.Chemscore.Fitness>
15.2622

> <Gold.Chemscore.DG>
-18.4740

> <Gold.Chemscore.ZeroCoef>
-5.4800

> <Gold.Chemscore.Hbond>
0.9145

> <Gold.Chemscore.Metal>
0.0000

> <Gold.Chemscore.Lipo>
126.6738

> <Gold.Chemscore.Internal_Hbond>
0.0000

> <Gold.Chemscore.DEClash>
0.2890

> <Gold.Chemscore.DEInternal>
2.9228

> <Gold.Chemscore.Rot>
1.9068

> <Gold.Chemscore.Internal.Correction>
   9.000000E+99

> <Gold.Chemscore.Hbonds>
donor molecule, donor type, donor heavy atom, donor atom, acceptor molecule, acceptor atom, score
      P1  H  6896  6908       L1    19  0.80
      P1  H 10752 10764       L1     8  0.26

> <Gold.Chemscore.Hbond.Weighted>
-3.0546

> <Gold.Chemscore.Metal.Weighted>
-0.0000

> <Gold.Chemscore.Lipo.Weighted>
-14.8208

> <Gold.Chemscore.Internal_Hbond.Weighted>
0.0000

> <Gold.Chemscore.DEClash.Weighted>
0.2890

> <Gold.Chemscore.DEInternal.Weighted>
2.9228

> <Gold.Chemscore.Rot.Weighted>
4.8814

> <Gold.Chemscore.Internal.Correction.Weighted>
   9.000000E+99

> <Gold.Protein.RotatedTorsions>
[ 6907 6896 6895 6894 ] final   93.17 input  -60.11 | X-H torsion
[ 7974 7965 7964 7962 ] final  -45.65 input  175.53 | X-H torsion
[ 8008 7997 7996 7995 ] final  106.98 input   59.86 | X-H torsion
[ 10167 10162 10161 10158 ] final   94.13 input  -65.29 | X-H torsion
[ 10718 10713 10712 10709 ] final   92.02 input   66.30 | X-H torsion
[ 10763 10752 10751 10750 ] final   -7.58 input  -60.55 | X-H torsion
[ 11005 11000 10999 10996 ] final   50.78 input  -57.11 | X-H torsion

> <Gold.Protein.ActiveResidues>
 VAL166  LYS551  ARG553  GLY616  TRP617  ASP618  TYR619  PRO620  LYS621  CYS622 
 ASP623  PHE694  ASN695  SER759  ASP760  ASP761  ALA762  ILE779  LEU786  VAL792 
 PHE793  MET794  SER795  GLU796  ALA797  LYS798  CYS799  TRP800  GLU811  SER814 

> <Gold.Protein.RotatedAtoms>
  152.5453  134.1389  159.8470 H   0  0  0  0  0  0  0  0  0  0  0  0  # atno 6907 bound_to 6896
  151.1427  133.4953  159.2604 H   0  0  0  0  0  0  0  0  0  0  0  0  # atno 6908 bound_to 6896
  151.1556  135.0259  159.8742 H   0  0  0  0  0  0  0  0  0  0  0  0  # atno 6909 bound_to 6896
  145.9799  140.7295  142.9369 H   0  0  0  0  0  0  0  0  0  0  0  0  # atno 7974 bound_to 7965
  156.1787  140.3103  155.9108 H   0  0  0  0  0  0  0  0  0  0  0  0  # atno 8008 bound_to 7997
  155.3431  140.0467  157.3062 H   0  0  0  0  0  0  0  0  0  0  0  0  # atno 8009 bound_to 7997
  154.5319  140.2233  155.8800 H   0  0  0  0  0  0  0  0  0  0  0  0  # atno 8010 bound_to 7997
  139.8113  144.6772  150.9637 H   0  0  0  0  0  0  0  0  0  0  0  0  # atno 10167 bound_to 10162
  157.6959  131.0428  150.3818 H   0  0  0  0  0  0  0  0  0  0  0  0  # atno 10718 bound_to 10713
  153.4283  135.7011  153.6247 H   0  0  0  0  0  0  0  0  0  0  0  0  # atno 10763 bound_to 10752
  153.4673  135.3723  155.2372 H   0  0  0  0  0  0  0  0  0  0  0  0  # atno 10764 bound_to 10752
  154.8724  135.4034  154.3663 H   0  0  0  0  0  0  0  0  0  0  0  0  # atno 10765 bound_to 10752
  140.0988  134.5109  155.8782 H   0  0  0  0  0  0  0  0  0  0  0  0  # atno 11005 bound_to 11000
  144.6858  140.2890  143.7281 LP  0  0  0  0  0  0  0  0  0  0  0  0  # atno 17320 bound_to 7965
  145.7785  139.1882  143.2171 LP  0  0  0  0  0  0  0  0  0  0  0  0  # atno 17321 bound_to 7965
  140.7817  143.4182  151.0883 LP  0  0  0  0  0  0  0  0  0  0  0  0  # atno 17342 bound_to 10162
  139.7849  143.8302  152.3143 LP  0  0  0  0  0  0  0  0  0  0  0  0  # atno 17343 bound_to 10162
  156.4231  130.3957  149.6811 LP  0  0  0  0  0  0  0  0  0  0  0  0  # atno 17370 bound_to 10713
  156.4055  130.7696  151.2706 LP  0  0  0  0  0  0  0  0  0  0  0  0  # atno 17371 bound_to 10713
  141.2100  133.6689  156.6476 LP  0  0  0  0  0  0  0  0  0  0  0  0  # atno 17394 bound_to 11000
  140.3249  134.7977  157.4281 LP  0  0  0  0  0  0  0  0  0  0  0  0  # atno 17395 bound_to 11000

$$$$
