AV-unprocessed.smi:287|AV-procd|sdf|2181|dock8
  -GOLD-   2262021553D 1   1.00000     0.00000
 Structure written by MMmdl.
 55 58  0  0  0  0  0  0  0  0  1 V2000
  153.2375  141.9105  161.7148 C   0  0  0  0  0  0  0  0  0  0  0  0
  152.6022  142.1703  160.3920 C   0  0  0  0  0  0  0  0  0  0  0  0
  151.8675  141.4081  159.5314 C   0  0  0  0  0  0  0  0  0  0  0  0
  151.5404  142.2267  158.4094 C   0  0  0  0  0  0  0  0  0  0  0  0
  150.7325  141.7884  157.1953 C   0  0  1  0  0  0  0  0  0  0  0  0
  149.2856  141.4746  157.6132 C   0  0  0  0  0  0  0  0  0  0  0  0
  150.6227  142.7975  156.2101 O   0  0  0  0  0  0  0  0  0  0  0  0
  151.3598  140.5642  156.4916 C   0  0  0  0  0  0  0  0  0  0  0  0
  150.6180  140.1490  155.3078 N   0  0  0  0  0  0  0  0  0  0  0  0
  149.8603  139.0322  155.3170 C   0  0  0  0  0  0  0  0  0  0  0  0
  150.3905  137.9747  155.9769 N   0  0  0  0  0  0  0  0  0  0  0  0
  149.7205  136.8211  156.0471 C   0  0  0  0  0  0  0  0  0  0  0  0
  148.5246  136.5186  155.5387 N   0  0  0  0  0  0  0  0  0  0  0  0
  147.9833  137.5796  154.8734 C   0  0  0  0  0  0  0  0  0  0  0  0
  148.5793  138.8630  154.7114 C   0  0  0  0  0  0  0  0  0  0  0  0
  147.7250  139.6701  153.9669 N   0  0  0  0  0  0  0  0  0  0  0  0
  146.6961  138.9087  153.7103 C   0  0  0  0  0  0  0  0  0  0  0  0
  146.7642  137.6357  154.2340 N   0  0  0  0  0  0  0  0  0  0  0  0
  145.7834  136.5079  154.1330 C   0  0  2  0  0  0  0  0  0  0  0  0
  146.2856  135.5708  153.2277 O   0  0  0  0  0  0  0  0  0  0  0  0
  145.7260  135.8084  151.9400 C   0  0  1  0  0  0  0  0  0  0  0  0
  145.9052  134.5911  151.0159 C   0  0  0  0  0  0  0  0  0  0  0  0
  145.1172  134.7457  149.8546 O   0  0  0  0  0  0  0  0  0  0  0  0
  144.2780  136.1695  152.2921 C   0  0  1  0  0  0  0  0  0  0  0  0
  143.5147  134.9965  152.5255 O   0  0  0  0  0  0  0  0  0  0  0  0
  144.4515  137.0198  153.5505 C   0  0  1  0  0  0  0  0  0  0  0  0
  143.3637  136.9013  154.4484 O   0  0  0  0  0  0  0  0  0  0  0  0
  152.1099  143.4466  158.6876 C   0  0  0  0  0  0  0  0  0  0  0  0
  152.1689  144.7545  157.9693 C   0  0  0  0  0  0  0  0  0  0  0  0
  152.7550  143.4201  159.8872 O   0  0  0  0  0  0  0  0  0  0  0  0
  145.7213  136.0977  155.1419 H   0  0  0  0  0  0  0  0  0  0  0  0
  146.1992  136.6864  151.4960 H   0  0  0  0  0  0  0  0  0  0  0  0
  143.7960  136.7331  151.4925 H   0  0  0  0  0  0  0  0  0  0  0  0
  144.5579  138.0673  153.2633 H   0  0  0  0  0  0  0  0  0  0  0  0
  153.2844  140.8409  161.9205 H   0  0  0  0  0  0  0  0  0  0  0  0
  152.6694  142.3847  162.5152 H   0  0  0  0  0  0  0  0  0  0  0  0
  154.2539  142.3040  161.7413 H   0  0  0  0  0  0  0  0  0  0  0  0
  151.5968  140.3742  159.6858 H   0  0  0  0  0  0  0  0  0  0  0  0
  149.2501  140.6672  158.3454 H   0  0  0  0  0  0  0  0  0  0  0  0
  148.6798  141.1667  156.7598 H   0  0  0  0  0  0  0  0  0  0  0  0
  148.8055  142.3452  158.0624 H   0  0  0  0  0  0  0  0  0  0  0  0
  149.8408  143.2997  156.3818 H   0  0  0  0  0  0  0  0  0  0  0  0
  152.3635  140.8352  156.1616 H   0  0  0  0  0  0  0  0  0  0  0  0
  151.4671  139.7298  157.1863 H   0  0  0  0  0  0  0  0  0  0  0  0
  150.7245  140.7406  154.4961 H   0  0  0  0  0  0  0  0  0  0  0  0
  150.2141  136.0269  156.5876 H   0  0  0  0  0  0  0  0  0  0  0  0
  145.8575  139.2646  153.1295 H   0  0  0  0  0  0  0  0  0  0  0  0
  146.9516  134.4457  150.7451 H   0  0  0  0  0  0  0  0  0  0  0  0
  145.5691  133.6848  151.5204 H   0  0  0  0  0  0  0  0  0  0  0  0
  145.6936  134.8447  149.1122 H   0  0  0  0  0  0  0  0  0  0  0  0
  144.0777  134.3528  152.9285 H   0  0  0  0  0  0  0  0  0  0  0  0
  143.3618  137.6588  155.0139 H   0  0  0  0  0  0  0  0  0  0  0  0
  151.1659  145.1382  157.7822 H   0  0  0  0  0  0  0  0  0  0  0  0
  152.6759  144.6451  157.0105 H   0  0  0  0  0  0  0  0  0  0  0  0
  152.7099  145.5013  158.5512 H   0  0  0  0  0  0  0  0  0  0  0  0
  1  2  1  0  0  0  0
  1 35  1  0  0  0  0
  1 36  1  0  0  0  0
  1 37  1  0  0  0  0
  2 30  1  0  0  0  0
  2  3  2  0  0  0  0
  3  4  1  0  0  0  0
  3 38  1  0  0  0  0
  4  5  1  0  0  0  0
  4 28  2  0  0  0  0
  5  6  1  0  0  0  0
  5  7  1  0  0  0  0
  5  8  1  0  0  0  0
  6 39  1  0  0  0  0
  6 40  1  0  0  0  0
  6 41  1  0  0  0  0
  7 42  1  0  0  0  0
  8  9  1  0  0  0  0
  8 43  1  0  0  0  0
  8 44  1  0  0  0  0
  9 10  1  0  0  0  0
  9 45  1  0  0  0  0
 10 15  1  0  0  0  0
 10 11  2  0  0  0  0
 11 12  1  0  0  0  0
 12 13  2  0  0  0  0
 12 46  1  0  0  0  0
 13 14  1  0  0  0  0
 14 18  1  0  0  0  0
 14 15  2  0  0  0  0
 15 16  1  0  0  0  0
 16 17  2  0  0  0  0
 17 18  1  0  0  0  0
 17 47  1  0  0  0  0
 18 19  1  0  0  0  0
 19 31  1  0  0  0  0
 19 26  1  0  0  0  0
 19 20  1  0  0  0  0
 20 21  1  0  0  0  0
 21 32  1  0  0  0  0
 21 22  1  0  0  0  0
 21 24  1  0  0  0  0
 22 23  1  0  0  0  0
 22 48  1  0  0  0  0
 22 49  1  0  0  0  0
 23 50  1  0  0  0  0
 24 33  1  0  0  0  0
 24 25  1  0  0  0  0
 24 26  1  0  0  0  0
 25 51  1  0  0  0  0
 26 34  1  0  0  0  0
 26 27  1  0  0  0  0
 27 52  1  0  0  0  0
 28 29  1  0  0  0  0
 28 30  1  0  0  0  0
 29 53  1  0  0  0  0
 29 54  1  0  0  0  0
 29 55  1  0  0  0  0
M  END
> <s_m_source_file>
AV-unprocessed.smi

> <i_m_source_file_index>
287

> <i_lp_mmshare_version>
43012

> <i_f3d_flags>
0

> <s_epik_input>
W0NIM11jMVtjSF1jKGMobzEpW0NIM10pW0NAQF0oW0NIM10pKFtPSF0pW0NIMl1bTkhdYyhuW2NIXW4yKWMoYzIzKW5bY0hdbjNbQ0BASF00T1tDQEhdKFtDSDJdW09IXSlbQ0BASF0oW09IXSlbQ0BIXTRbT0hd

> <s_epik_cmdline>
J2VwaWtfcHl0aG9uJywgJy1waCcsICc3LjAnLCAnLXRuJywgJzgnLCAnLW1hJywgJzIwMCcsICctbWV0YWxfYmluZGluZycsICctaW1hZScsICc8aW5maWxlLm1hZT4nLCAnLW9tYWUnLCAnPG91dGZpbGUubWFlPic=

> <r_lp_tautomer_probability>
1

> <r_epik_Ionization_Penalty>
0.000992612

> <r_epik_Ionization_Penalty_Charging>
0

> <r_epik_Ionization_Penalty_Neutral>
0.000992612

> <r_epik_State_Penalty>
-0

> <r_epik_Charging_Adjusted_Penalty>
0

> <i_epik_Tot_Q>
0

> <i_epik_Tot_abs_Q>
0

> <r_epik_Metal_State_Penalty>
-0

> <b_epik_Metal_Only>
0

> <s_epik_Chemistry_Notes>
This compound contains an acetal/aminal-like group ( X-CH(R)-Y where X, Y are N, S, or O) that may be acid/base labile, releasing an aldehyde.

> <s_lp_Force_Field>
OPLS_2005

> <r_lp_Energy>
45.0467

> <b_lp_Chiralities_Consistent>
1

> <s_lp_Variant>
AV-unprocessed.smi:287-5

> <Gold.Version>
5.8.1

> <Gold.Id.Protein>
6NUR|6NUR_protein|mol2

> <Gold.PLP.Fitness>
51.6110

> <Gold.PLP.PLP>
-44.7942

> <Gold.PLP.part.hbond>
-2.0000

> <Gold.PLP.part.metal>
0.0000

> <Gold.PLP.part.buried>
-8.1252

> <Gold.PLP.part.nonpolar>
-35.5222

> <Gold.PLP.part.repulsive>
2.0727

> <Gold.PLP.ligand.clash>
0.0000

> <Gold.PLP.ligand.torsion>
0.7602

> <Gold.PLP.Chemscore.Hbond>
1.7440

> <Gold.PLP.Chemscore.CHOScore>
1.0000

> <Gold.PLP.Chemscore.Metal>
0.0000

> <Gold.Chemscore.Hbonds>
donor molecule, donor type, donor heavy atom, donor atom, acceptor molecule, acceptor atom, score
      L1  H     7    42       P1  8028  0.78
      L1  H    23    50       P1  7921  1.00
      L1  C    17    47       P1 10175  0.89

> <Gold.PLP.Chemscore.Internal.Correction>
0.1052

> <Gold.Rescore>
     Score         DG    S(hbond)    S(metal)    S(lipo)     H(rot)  DE(clash)    DE(int)     intcor
      8.17      -9.95       1.81        0.00     101.62       5.27       0.21       1.57       ----

> <Gold.Chemscore.Fitness>
8.1707

> <Gold.Chemscore.DG>
-9.9456

> <Gold.Chemscore.ZeroCoef>
-5.4800

> <Gold.Chemscore.Hbond>
1.8145

> <Gold.Chemscore.Metal>
0.0000

> <Gold.Chemscore.Lipo>
101.6156

> <Gold.Chemscore.Internal_Hbond>
0.0000

> <Gold.Chemscore.DEClash>
0.2072

> <Gold.Chemscore.DEInternal>
1.5677

> <Gold.Chemscore.Rot>
5.2672

> <Gold.Chemscore.Internal.Correction>
   9.000000E+99

> <Gold.Chemscore.Hbonds>
donor molecule, donor type, donor heavy atom, donor atom, acceptor molecule, acceptor atom, score
      L1  H     7    42       P1  8028  0.78
      L1  H    23    50       P1  7921  0.92

> <Gold.Chemscore.Hbond.Weighted>
-6.0605

> <Gold.Chemscore.Metal.Weighted>
-0.0000

> <Gold.Chemscore.Lipo.Weighted>
-11.8890

> <Gold.Chemscore.Internal_Hbond.Weighted>
0.0000

> <Gold.Chemscore.DEClash.Weighted>
0.2072

> <Gold.Chemscore.DEInternal.Weighted>
1.5677

> <Gold.Chemscore.Rot.Weighted>
13.4839

> <Gold.Chemscore.Internal.Correction.Weighted>
   9.000000E+99

> <Gold.Protein.RotatedTorsions>
[ 6907 6896 6895 6894 ] final  -50.55 input  -60.11 | X-H torsion
[ 7974 7965 7964 7962 ] final -127.55 input  175.53 | X-H torsion
[ 8008 7997 7996 7995 ] final   -1.42 input   59.86 | X-H torsion
[ 10167 10162 10161 10158 ] final -154.82 input  -65.29 | X-H torsion
[ 10718 10713 10712 10709 ] final   53.87 input   66.30 | X-H torsion
[ 10763 10752 10751 10750 ] final  -45.99 input  -60.55 | X-H torsion
[ 11005 11000 10999 10996 ] final -100.22 input  -57.11 | X-H torsion

> <Gold.Protein.ActiveResidues>
 VAL166  LYS551  ARG553  GLY616  TRP617  ASP618  TYR619  PRO620  LYS621  CYS622 
 ASP623  PHE694  ASN695  SER759  ASP760  ASP761  ALA762  ILE779  LEU786  VAL792 
 PHE793  MET794  SER795  GLU796  ALA797  LYS798  CYS799  TRP800  GLU811  SER814 

> <Gold.Protein.RotatedAtoms>
  150.8696  134.8067  159.7144 H   0  0  0  0  0  0  0  0  0  0  0  0  # atno 6907 bound_to 6896
  152.4705  134.4967  159.9722 H   0  0  0  0  0  0  0  0  0  0  0  0  # atno 6908 bound_to 6896
  151.5058  133.3456  159.2912 H   0  0  0  0  0  0  0  0  0  0  0  0  # atno 6909 bound_to 6896
  144.9759  140.7592  143.4642 H   0  0  0  0  0  0  0  0  0  0  0  0  # atno 7974 bound_to 7965
  154.6469  140.2559  155.7257 H   0  0  0  0  0  0  0  0  0  0  0  0  # atno 8008 bound_to 7997
  156.2556  140.2876  156.0808 H   0  0  0  0  0  0  0  0  0  0  0  0  # atno 8009 bound_to 7997
  155.1510  140.0382  157.2811 H   0  0  0  0  0  0  0  0  0  0  0  0  # atno 8010 bound_to 7997
  139.6982  143.9307  152.2416 H   0  0  0  0  0  0  0  0  0  0  0  0  # atno 10167 bound_to 10162
  157.5206  130.8562  149.8553 H   0  0  0  0  0  0  0  0  0  0  0  0  # atno 10718 bound_to 10713
  154.0377  135.6648  153.4787 H   0  0  0  0  0  0  0  0  0  0  0  0  # atno 10763 bound_to 10752
  153.0514  135.5082  154.7872 H   0  0  0  0  0  0  0  0  0  0  0  0  # atno 10764 bound_to 10752
  154.6838  135.3049  154.9542 H   0  0  0  0  0  0  0  0  0  0  0  0  # atno 10765 bound_to 10752
  141.1279  133.8382  157.1074 H   0  0  0  0  0  0  0  0  0  0  0  0  # atno 11005 bound_to 11000
  145.2490  139.2039  143.4952 LP  0  0  0  0  0  0  0  0  0  0  0  0  # atno 17320 bound_to 7965
  146.3395  140.2400  142.8595 LP  0  0  0  0  0  0  0  0  0  0  0  0  # atno 17321 bound_to 7965
  139.9142  144.6838  150.8529 LP  0  0  0  0  0  0  0  0  0  0  0  0  # atno 17342 bound_to 10162
  140.7702  143.3421  151.2186 LP  0  0  0  0  0  0  0  0  0  0  0  0  # atno 17343 bound_to 10162
  156.0350  130.3754  150.1583 LP  0  0  0  0  0  0  0  0  0  0  0  0  # atno 17370 bound_to 10713
  156.9771  130.9853  151.3446 LP  0  0  0  0  0  0  0  0  0  0  0  0  # atno 17371 bound_to 10713
  140.0296  134.9907  157.0754 LP  0  0  0  0  0  0  0  0  0  0  0  0  # atno 17394 bound_to 11000
  140.4307  134.1784  155.7168 LP  0  0  0  0  0  0  0  0  0  0  0  0  # atno 17395 bound_to 11000

$$$$
