AV-unprocessed.smi:2505|AV-procd|sdf|9856|dock5
  -GOLD-   2272013483D 1   1.00000     0.00000
 Structure written by MMmdl.
 48 52  0  0  0  0  0  0  0  0  1 V2000
  146.6058  136.7667  155.5649 O   0  0  0  0  0  0  0  0  0  0  0  0
  147.2661  136.5750  154.5470 C   0  0  0  0  0  0  0  0  0  0  0  0
  148.4698  137.1218  154.2912 N   0  0  0  0  0  0  0  0  0  0  0  0
  149.2499  138.0033  155.0862 C   0  0  0  0  0  0  0  0  0  0  0  0
  150.1206  138.9003  154.4328 C   0  0  0  0  0  0  0  0  0  0  0  0
  150.9035  139.7643  155.1127 N   0  0  0  0  0  0  0  0  0  0  0  0
  150.8110  139.7400  156.4448 C   0  0  0  0  0  0  0  0  0  0  0  0
  151.7101  140.6715  157.1970 C   0  0  0  0  0  0  0  0  0  0  0  0
  151.8114  140.6029  158.7072 C   0  0  0  0  0  0  0  0  0  0  0  0
  151.1340  141.7773  158.0577 C   0  0  0  0  0  0  0  0  0  0  0  0
  150.0381  138.9311  157.1744 N   0  0  0  0  0  0  0  0  0  0  0  0
  149.2512  138.0627  156.5023 C   0  0  0  0  0  0  0  0  0  0  0  0
  146.8116  135.7805  153.5623 N   0  0  0  0  0  0  0  0  0  0  0  0
  145.5482  135.0408  153.5259 C   0  0  1  0  0  0  0  0  0  0  0  0
  144.3743  135.9255  153.0748 C   0  0  2  0  0  0  0  0  0  0  0  0
  143.2569  136.2333  154.0346 C   0  0  0  0  0  0  0  0  0  0  0  0
  142.2043  135.1794  153.6808 C   0  0  0  0  0  0  0  0  0  0  0  0
  142.9398  134.1384  153.0421 O   0  0  0  0  0  0  0  0  0  0  0  0
  143.9251  134.7537  152.2156 C   0  0  2  0  0  0  0  0  0  0  0  0
  145.3475  134.1568  152.2701 C   0  0  0  0  0  0  0  0  0  0  0  0
  146.2092  134.3993  151.0276 C   0  0  0  0  0  0  0  0  0  0  0  0
  145.9650  133.2178  150.0866 C   0  0  0  0  0  0  0  0  0  0  0  0
  145.5153  132.0632  150.9878 C   0  0  0  0  0  0  0  0  0  0  0  0
  145.4579  132.6401  152.4061 C   0  0  0  0  0  0  0  0  0  0  0  0
  148.8729  136.8817  153.3971 H   0  0  0  0  0  0  0  0  0  0  0  0
  150.1932  138.9242  153.3552 H   0  0  0  0  0  0  0  0  0  0  0  0
  152.6176  140.8850  156.6355 H   0  0  0  0  0  0  0  0  0  0  0  0
  151.1797  139.8848  159.2266 H   0  0  0  0  0  0  0  0  0  0  0  0
  152.7905  140.7690  159.1516 H   0  0  0  0  0  0  0  0  0  0  0  0
  151.6591  142.7302  158.0659 H   0  0  0  0  0  0  0  0  0  0  0  0
  150.0511  141.8412  158.1459 H   0  0  0  0  0  0  0  0  0  0  0  0
  148.6426  137.4234  157.1212 H   0  0  0  0  0  0  0  0  0  0  0  0
  147.4027  135.6848  152.7491 H   0  0  0  0  0  0  0  0  0  0  0  0
  145.3133  134.5061  154.4492 H   0  0  0  0  0  0  0  0  0  0  0  0
  144.6943  136.7691  152.4604 H   0  0  0  0  0  0  0  0  0  0  0  0
  143.5881  136.1193  155.0671 H   0  0  0  0  0  0  0  0  0  0  0  0
  142.8677  137.2450  153.9175 H   0  0  0  0  0  0  0  0  0  0  0  0
  141.6643  134.8128  154.5540 H   0  0  0  0  0  0  0  0  0  0  0  0
  141.4781  135.5854  152.9749 H   0  0  0  0  0  0  0  0  0  0  0  0
  143.5550  135.0374  151.2292 H   0  0  0  0  0  0  0  0  0  0  0  0
  145.9889  135.3505  150.5420 H   0  0  0  0  0  0  0  0  0  0  0  0
  147.2670  134.4166  151.2927 H   0  0  0  0  0  0  0  0  0  0  0  0
  145.1736  133.4615  149.3768 H   0  0  0  0  0  0  0  0  0  0  0  0
  146.8578  132.9692  149.5119 H   0  0  0  0  0  0  0  0  0  0  0  0
  144.5292  131.7143  150.6788 H   0  0  0  0  0  0  0  0  0  0  0  0
  146.1964  131.2133  150.9328 H   0  0  0  0  0  0  0  0  0  0  0  0
  146.3754  132.3805  152.9349 H   0  0  0  0  0  0  0  0  0  0  0  0
  144.6379  132.2057  152.9783 H   0  0  0  0  0  0  0  0  0  0  0  0
  1  2  2  0  0  0  0
  2  3  1  0  0  0  0
  2 13  1  0  0  0  0
  3  4  1  0  0  0  0
  3 25  1  0  0  0  0
  4 12  1  0  0  0  0
  4  5  2  0  0  0  0
  5  6  1  0  0  0  0
  5 26  1  0  0  0  0
  6  7  2  0  0  0  0
  7  8  1  0  0  0  0
  7 11  1  0  0  0  0
  8 10  1  0  0  0  0
  8  9  1  0  0  0  0
  8 27  1  0  0  0  0
  9 10  1  0  0  0  0
  9 28  1  0  0  0  0
  9 29  1  0  0  0  0
 10 30  1  0  0  0  0
 10 31  1  0  0  0  0
 11 12  2  0  0  0  0
 12 32  1  0  0  0  0
 13 14  1  0  0  0  0
 13 33  1  0  0  0  0
 14 20  1  0  0  0  0
 14 15  1  0  0  0  0
 14 34  1  0  0  0  0
 15 19  1  0  0  0  0
 15 16  1  0  0  0  0
 15 35  1  0  0  0  0
 16 17  1  0  0  0  0
 16 36  1  0  0  0  0
 16 37  1  0  0  0  0
 17 18  1  0  0  0  0
 17 38  1  0  0  0  0
 17 39  1  0  0  0  0
 18 19  1  0  0  0  0
 19 20  1  0  0  0  0
 19 40  1  0  0  0  0
 20 24  1  0  0  0  0
 20 21  1  0  0  0  0
 21 22  1  0  0  0  0
 21 41  1  0  0  0  0
 21 42  1  0  0  0  0
 22 23  1  0  0  0  0
 22 43  1  0  0  0  0
 22 44  1  0  0  0  0
 23 24  1  0  0  0  0
 23 45  1  0  0  0  0
 23 46  1  0  0  0  0
 24 47  1  0  0  0  0
 24 48  1  0  0  0  0
M  END
> <s_m_source_file>
AV-unprocessed.smi

> <i_m_source_file_index>
2505

> <i_lp_mmshare_version>
43012

> <i_f3d_flags>
0

> <s_epik_input>
W0NIMl0xW0NIMl1bQ0hdMWMobltjSF0yKW5bY0hdYzJbTkhdQyg9TylbTkhdW0NAQEhdM1tDQEBIXShbQ0gyXVtDSDJdTzQpW0NASF00QzM1W0NIMl1bQ0gyXVtDSDJdW0NIMl01

> <s_epik_cmdline>
J2VwaWtfcHl0aG9uJywgJy1waCcsICc3LjAnLCAnLXRuJywgJzgnLCAnLW1hJywgJzIwMCcsICctbWV0YWxfYmluZGluZycsICctaW1hZScsICc8aW5maWxlLm1hZT4nLCAnLW9tYWUnLCAnPG91dGZpbGUubWFlPic=

> <r_lp_tautomer_probability>
1

> <r_epik_Ionization_Penalty>
2.6075e-05

> <r_epik_Ionization_Penalty_Charging>
0

> <r_epik_Ionization_Penalty_Neutral>
2.6075e-05

> <r_epik_State_Penalty>
-0

> <r_epik_Charging_Adjusted_Penalty>
0

> <i_epik_Tot_Q>
0

> <i_epik_Tot_abs_Q>
0

> <r_epik_Metal_State_Penalty>
-0

> <b_epik_Metal_Only>
0

> <s_lp_Force_Field>
OPLS_2005

> <r_lp_Energy>
62.9039

> <b_lp_Chiralities_Consistent>
1

> <s_lp_Variant>
AV-unprocessed.smi:2505-4

> <Gold.Version>
5.8.1

> <Gold.Id.Protein>
6NUR|6NUR_protein|mol2

> <Gold.PLP.Fitness>
44.2944

> <Gold.PLP.PLP>
-33.1054

> <Gold.PLP.part.hbond>
-3.0000

> <Gold.PLP.part.metal>
0.0000

> <Gold.PLP.part.buried>
-5.5565

> <Gold.PLP.part.nonpolar>
-24.2432

> <Gold.PLP.part.repulsive>
0.3065

> <Gold.PLP.ligand.clash>
0.0000

> <Gold.PLP.ligand.torsion>
0.4011

> <Gold.PLP.Chemscore.Hbond>
2.8960

> <Gold.PLP.Chemscore.CHOScore>
1.0000

> <Gold.PLP.Chemscore.Metal>
0.0000

> <Gold.Chemscore.Hbonds>
donor molecule, donor type, donor heavy atom, donor atom, acceptor molecule, acceptor atom, score
      L1  H     3    25       P1  7948  1.00
      L1  H    13    33       P1  7948  0.96
      P1  H  7989  7998       L1     6  0.82
      L1  C     5    26       P1  7957  1.00

> <Gold.PLP.Chemscore.Internal.Correction>
0.3032

> <Gold.Rescore>
     Score         DG    S(hbond)    S(metal)    S(lipo)     H(rot)  DE(clash)    DE(int)     intcor
     19.46     -20.14       2.40        0.00      82.57       1.17       0.14       0.54       ----

> <Gold.Chemscore.Fitness>
19.4573

> <Gold.Chemscore.DG>
-20.1430

> <Gold.Chemscore.ZeroCoef>
-5.4800

> <Gold.Chemscore.Hbond>
2.3978

> <Gold.Chemscore.Metal>
0.0000

> <Gold.Chemscore.Lipo>
82.5721

> <Gold.Chemscore.Internal_Hbond>
0.0000

> <Gold.Chemscore.DEClash>
0.1450

> <Gold.Chemscore.DEInternal>
0.5408

> <Gold.Chemscore.Rot>
1.1744

> <Gold.Chemscore.Internal.Correction>
   9.000000E+99

> <Gold.Chemscore.Hbonds>
donor molecule, donor type, donor heavy atom, donor atom, acceptor molecule, acceptor atom, score
      L1  H     3    25       P1  7948  0.99
      L1  H    13    33       P1  7948  0.92
      P1  H  7989  7998       L1     6  0.18

> <Gold.Chemscore.Hbond.Weighted>
-8.0085

> <Gold.Chemscore.Metal.Weighted>
-0.0000

> <Gold.Chemscore.Lipo.Weighted>
-9.6609

> <Gold.Chemscore.Internal_Hbond.Weighted>
0.0000

> <Gold.Chemscore.DEClash.Weighted>
0.1450

> <Gold.Chemscore.DEInternal.Weighted>
0.5408

> <Gold.Chemscore.Rot.Weighted>
3.0064

> <Gold.Chemscore.Internal.Correction.Weighted>
   9.000000E+99

> <Gold.Protein.RotatedTorsions>
[ 6907 6896 6895 6894 ] final  176.53 input  -60.11 | X-H torsion
[ 7974 7965 7964 7962 ] final  169.44 input  175.53 | X-H torsion
[ 8008 7997 7996 7995 ] final   12.32 input   59.86 | X-H torsion
[ 10167 10162 10161 10158 ] final   14.55 input  -65.29 | X-H torsion
[ 10718 10713 10712 10709 ] final  112.19 input   66.30 | X-H torsion
[ 10763 10752 10751 10750 ] final -107.49 input  -60.55 | X-H torsion
[ 11005 11000 10999 10996 ] final   35.77 input  -57.11 | X-H torsion

> <Gold.Protein.ActiveResidues>
 VAL166  LYS551  ARG553  GLY616  TRP617  ASP618  TYR619  PRO620  LYS621  CYS622 
 ASP623  PHE694  ASN695  SER759  ASP760  ASP761  ALA762  ILE779  LEU786  VAL792 
 PHE793  MET794  SER795  GLU796  ALA797  LYS798  CYS799  TRP800  GLU811  SER814 

> <Gold.Protein.RotatedAtoms>
  151.7186  133.3314  159.3309 H   0  0  0  0  0  0  0  0  0  0  0  0  # atno 6907 bound_to 6896
  150.7662  134.6468  159.6276 H   0  0  0  0  0  0  0  0  0  0  0  0  # atno 6908 bound_to 6896
  152.3666  134.6797  160.0241 H   0  0  0  0  0  0  0  0  0  0  0  0  # atno 6909 bound_to 6896
  144.7355  139.9055  143.6412 H   0  0  0  0  0  0  0  0  0  0  0  0  # atno 7974 bound_to 7965
  154.8190  140.2880  155.5800 H   0  0  0  0  0  0  0  0  0  0  0  0  # atno 8008 bound_to 7997
  156.2996  140.2554  156.3023 H   0  0  0  0  0  0  0  0  0  0  0  0  # atno 8009 bound_to 7997
  154.9360  140.0382  157.2062 H   0  0  0  0  0  0  0  0  0  0  0  0  # atno 8010 bound_to 7997
  140.5928  143.8761  150.6890 H   0  0  0  0  0  0  0  0  0  0  0  0  # atno 10167 bound_to 10162
  157.6406  131.0963  150.6859 H   0  0  0  0  0  0  0  0  0  0  0  0  # atno 10718 bound_to 10713
  154.8078  135.4673  154.0437 H   0  0  0  0  0  0  0  0  0  0  0  0  # atno 10763 bound_to 10752
  153.1892  135.6852  153.8381 H   0  0  0  0  0  0  0  0  0  0  0  0  # atno 10764 bound_to 10752
  153.7905  135.3244  155.3355 H   0  0  0  0  0  0  0  0  0  0  0  0  # atno 10765 bound_to 10752
  140.2393  134.3434  155.7932 H   0  0  0  0  0  0  0  0  0  0  0  0  # atno 11005 bound_to 11000
  146.1040  139.4038  143.0329 LP  0  0  0  0  0  0  0  0  0  0  0  0  # atno 17320 bound_to 7965
  145.7538  140.9962  143.1236 LP  0  0  0  0  0  0  0  0  0  0  0  0  # atno 17321 bound_to 7965
  140.2288  143.3752  152.1583 LP  0  0  0  0  0  0  0  0  0  0  0  0  # atno 17342 bound_to 10162
  139.5238  144.7076  151.5305 LP  0  0  0  0  0  0  0  0  0  0  0  0  # atno 17343 bound_to 10162
  156.7183  130.4673  149.5529 LP  0  0  0  0  0  0  0  0  0  0  0  0  # atno 17370 bound_to 10713
  156.1683  130.6420  151.0805 LP  0  0  0  0  0  0  0  0  0  0  0  0  # atno 17371 bound_to 10713
  141.2212  133.7289  156.8858 LP  0  0  0  0  0  0  0  0  0  0  0  0  # atno 17394 bound_to 11000
  140.1670  134.9126  157.2786 LP  0  0  0  0  0  0  0  0  0  0  0  0  # atno 17395 bound_to 11000

$$$$
