#       Name:                AV-unprocessed.smi:2241
#       Creating user name   scv26
#       Creation time:       Fri Mar 27 12:26:30 2020


#       File generated by GOLD software.
#

@<TRIPOS>MOLECULE
AV-unprocessed.smi:2241
    52    54     1
SMALL
NO_CHARGES


@<TRIPOS>ATOM
      1 ****        -5.1652  -0.2312   0.0009 C.3            1 S1                 0.0000
      2 ****        -4.3467   0.9243  -0.5379 C.ar           1 S1                 0.0000
      3 ****        -4.8345   2.2425  -0.4462 C.ar           1 S1                 0.0000
      4 ****        -4.0689   3.3106  -0.9478 C.ar           1 S1                 0.0000
      5 ****        -2.8151   3.0663  -1.5409 C.ar           1 S1                 0.0000
      6 ****        -1.8964   4.3972  -2.1482 Cl             1 S1                 0.0000
      7 ****        -2.3102   1.7506  -1.6385 C.ar           1 S1                 0.0000
      8 ****        -1.0746   1.5881  -2.2305 O.3            1 S1                 0.0000
      9 ****        -0.5248   0.2799  -2.3027 C.3            1 S1                 0.0000
     10 ****         0.8639   0.3649  -2.9613 C.3            1 S1                 0.0000
     11 ****         0.6848   0.4523  -4.3597 O.3            1 S1                 0.0000
     12 ****         1.7597  -0.8672  -2.6928 C.3            1 S1                 0.0000
     13 ****         2.1744  -0.9850  -1.2833 N.am           1 S1                 0.0000
     14 ****         1.5404  -1.9824  -0.5162 C.2            1 S1                 0.0000
     15 ****         1.8226  -2.1641   0.7344 N.2            1 S1                 0.0000
     16 ****         2.7848  -1.3591   1.3549 C.2            1 S1                 0.0000
     17 ****         3.0477  -1.5897   2.8367 C.3            1 S1                 0.0000
     18 ****         1.8277  -1.9722   3.6922 C.3            1 S1                 0.0000
     19 ****         2.4075  -1.0846   4.7993 C.3            1 S1                 0.0000
     20 ****         3.1623  -0.3246   3.7029 C.3            1 S1                 0.0000
     21 ****         3.4284  -0.3934   0.6568 C.2            1 S1                 0.0000
     22 ****         3.1389  -0.1729  -0.7599 C.2            1 S1                 0.0000
     23 ****         3.7181   0.6834  -1.4285 O.2            1 S1                 0.0000
     24 ****        -3.0901   0.6804  -1.1292 C.ar           1 S1                 0.0000
     25 ****        -6.2123   0.0489   0.1210 H              1 S1                 0.0000
     26 ****        -4.7801  -0.5445   0.9715 H              1 S1                 0.0000
     27 ****        -5.1202  -1.0831  -0.6782 H              1 S1                 0.0000
     28 ****        -5.7948   2.4391   0.0077 H              1 S1                 0.0000
     29 ****        -4.4452   4.3205  -0.8766 H              1 S1                 0.0000
     30 ****        -0.4299  -0.0963  -1.2843 H              1 S1                 0.0000
     31 ****        -1.1742  -0.4034  -2.8529 H              1 S1                 0.0000
     32 ****         1.3738   1.2692  -2.6277 H              1 S1                 0.0000
     33 ****         0.1763   1.2268  -4.5470 H              1 S1                 0.0000
     34 ****         1.2517  -1.7693  -3.0401 H              1 S1                 0.0000
     35 ****         2.6581  -0.8040  -3.3103 H              1 S1                 0.0000
     36 ****         0.7963  -2.5811  -1.0443 H              1 S1                 0.0000
     37 ****         3.8862  -2.2697   2.9976 H              1 S1                 0.0000
     38 ****         0.8824  -1.5866   3.3055 H              1 S1                 0.0000
     39 ****         1.7595  -3.0311   3.9429 H              1 S1                 0.0000
     40 ****         1.6716  -0.4916   5.3436 H              1 S1                 0.0000
     41 ****         3.0721  -1.6270   5.4739 H              1 S1                 0.0000
     42 ****         4.1821  -0.0395   3.9632 H              1 S1                 0.0000
     43 ****         2.5918   0.5221   3.3157 H              1 S1                 0.0000
     44 ****         4.1650   0.2286   1.1444 H              1 S1                 0.0000
     45 ****        -2.7441  -0.3407  -1.1815 H              1 S1                 0.0000
     46 ****        -0.4262   2.1532  -1.7204 LP             1 S1                 0.0000
     47 ****        -1.1489   1.9293  -3.1675 LP             1 S1                 0.0000
     48 ****         0.2003  -0.3580  -4.6895 LP             1 S1                 0.0000
     49 ****         1.5749   0.5152  -4.8110 LP             1 S1                 0.0000
     50 ****         1.3543  -2.8777   1.2555 LP             1 S1                 0.0000
     51 ****         3.4875   0.8044  -2.3940 LP             1 S1                 0.0000
     52 ****         4.4191   1.2579  -1.0060 LP             1 S1                 0.0000
@<TRIPOS>BOND
    1    1    2 1     
    2    1   25 1     
    3    1   26 1     
    4    1   27 1     
    5    2   24 ar    
    6    2    3 ar    
    7    3    4 ar    
    8    3   28 1     
    9    4    5 ar    
   10    4   29 1     
   11    5    6 1     
   12    5    7 ar    
   13    7    8 1     
   14    7   24 ar    
   15    8    9 1     
   16    9   10 1     
   17    9   30 1     
   18    9   31 1     
   19   10   11 1     
   20   10   12 1     
   21   10   32 1     
   22   11   33 1     
   23   12   13 1     
   24   12   34 1     
   25   12   35 1     
   26   13   22 am    
   27   13   14 1     
   28   14   15 2     
   29   14   36 1     
   30   15   16 1     
   31   16   17 1     
   32   16   21 2     
   33   17   20 1     
   34   17   18 1     
   35   17   37 1     
   36   18   19 1     
   37   18   38 1     
   38   18   39 1     
   39   19   20 1     
   40   19   40 1     
   41   19   41 1     
   42   20   42 1     
   43   20   43 1     
   44   21   22 1     
   45   21   44 1     
   46   22   23 2     
   47   24   45 1     
   48    8   46 1     
   49    8   47 1     
   50   11   48 1     
   51   11   49 1     
   52   15   50 1     
   53   23   51 1     
   54   23   52 1     
@<TRIPOS>SUBSTRUCTURE
      1 S1             1
@<TRIPOS>SET
LONE_PAIRS      STATIC     ATOMS    <user>   **** ""
7 46 47 48 49 50 51 52
DONOR_HYDROGENS      STATIC     ATOMS    <user>   **** ""
1 33
ATOM$BLUE        STATIC     ATOMS    COLORGROUP SYSTEM
7 46 47 48 49 50 51 52
ATOM$RED        STATIC     ATOMS    COLORGROUP SYSTEM
1 33
