AV-unprocessed.smi:2924|AV-procd|sdf|11221|dock4
  -GOLD-   2272016113D 1   1.00000     0.00000
 Structure written by MMmdl.
 29 31  0  0  0  0  0  0  0  0  1 V2000
  154.3241  141.4166  161.5378 N   0  0  0  0  0  0  0  0  0  0  0  0
  153.6241  142.0119  160.8348 C   0  0  0  0  0  0  0  0  0  0  0  0
  152.7424  142.7622  159.9488 C   0  0  0  0  0  0  0  0  0  0  0  0
  152.5410  144.1375  160.1908 C   0  0  0  0  0  0  0  0  0  0  0  0
  151.6933  144.8672  159.3380 C   0  0  0  0  0  0  0  0  0  0  0  0
  151.0767  144.1880  158.2717 C   0  0  0  0  0  0  0  0  0  0  0  0
  151.2603  142.8737  158.0291 N   0  0  0  0  0  0  0  0  0  0  0  0
  152.0776  142.1634  158.8449 C   0  0  0  0  0  0  0  0  0  0  0  0
  152.2476  140.7946  158.5669 N   0  0  0  0  0  0  0  0  0  0  0  0
  151.4424  140.1144  157.5576 C   0  0  1  0  0  0  0  0  0  0  0  0
  151.5309  140.7714  156.1738 C   0  0  0  0  0  0  0  0  0  0  0  0
  151.9987  139.6032  155.2972 C   0  0  2  0  0  0  0  0  0  0  0  0
  150.9159  138.5279  155.1341 C   0  0  0  0  0  0  0  0  0  0  0  0
  150.9224  137.8670  156.5121 C   0  0  0  0  0  0  0  0  0  0  0  0
  151.9720  138.7017  157.2585 C   0  0  1  0  0  0  0  0  0  0  0  0
  152.8795  138.9561  156.1982 O   0  0  0  0  0  0  0  0  0  0  0  0
  153.0286  144.6323  161.0186 H   0  0  0  0  0  0  0  0  0  0  0  0
  151.5200  145.9213  159.4971 H   0  0  0  0  0  0  0  0  0  0  0  0
  150.4184  144.7131  157.5956 H   0  0  0  0  0  0  0  0  0  0  0  0
  153.0687  140.3210  158.9160 H   0  0  0  0  0  0  0  0  0  0  0  0
  150.4103  140.0519  157.9051 H   0  0  0  0  0  0  0  0  0  0  0  0
  150.5774  141.1845  155.8439 H   0  0  0  0  0  0  0  0  0  0  0  0
  152.2701  141.5737  156.1549 H   0  0  0  0  0  0  0  0  0  0  0  0
  152.4618  139.9124  154.3600 H   0  0  0  0  0  0  0  0  0  0  0  0
  149.9471  138.9544  154.8725 H   0  0  0  0  0  0  0  0  0  0  0  0
  151.1932  137.8077  154.3634 H   0  0  0  0  0  0  0  0  0  0  0  0
  149.9467  137.8891  156.9982 H   0  0  0  0  0  0  0  0  0  0  0  0
  151.2414  136.8270  156.4346 H   0  0  0  0  0  0  0  0  0  0  0  0
  152.4063  138.1881  158.1171 H   0  0  0  0  0  0  0  0  0  0  0  0
  1  2  3  0  0  0  0
  2  3  1  0  0  0  0
  3  8  1  0  0  0  0
  3  4  2  0  0  0  0
  4  5  1  0  0  0  0
  4 17  1  0  0  0  0
  5  6  2  0  0  0  0
  5 18  1  0  0  0  0
  6  7  1  0  0  0  0
  6 19  1  0  0  0  0
  7  8  2  0  0  0  0
  8  9  1  0  0  0  0
  9 10  1  0  0  0  0
  9 20  1  0  0  0  0
 10 15  1  0  0  0  0
 10 11  1  0  0  0  0
 10 21  1  0  0  0  0
 11 12  1  0  0  0  0
 11 22  1  0  0  0  0
 11 23  1  0  0  0  0
 12 16  1  0  0  0  0
 12 13  1  0  0  0  0
 12 24  1  0  0  0  0
 13 14  1  0  0  0  0
 13 25  1  0  0  0  0
 13 26  1  0  0  0  0
 14 15  1  0  0  0  0
 14 27  1  0  0  0  0
 14 28  1  0  0  0  0
 15 16  1  0  0  0  0
 15 29  1  0  0  0  0
M  END
> <s_m_source_file>
AV-unprocessed.smi

> <i_m_source_file_index>
2924

> <i_lp_mmshare_version>
43012

> <i_f3d_flags>
0

> <s_epik_input>
TiNDYzFbY0hdW2NIXVtjSF1uYzFbTkhdW0NASF0oW0NIMl1bQ0BASF0yMylbQ0BASF0oTzMpW0NIMl1bQ0gyXTI=

> <s_epik_cmdline>
J2VwaWtfcHl0aG9uJywgJy1waCcsICc3LjAnLCAnLXRuJywgJzgnLCAnLW1hJywgJzIwMCcsICctbWV0YWxfYmluZGluZycsICctaW1hZScsICc8aW5maWxlLm1hZT4nLCAnLW9tYWUnLCAnPG91dGZpbGUubWFlPic=

> <r_lp_tautomer_probability>
1

> <r_epik_Ionization_Penalty>
2.11559e-05

> <r_epik_Ionization_Penalty_Charging>
0

> <r_epik_Ionization_Penalty_Neutral>
2.11559e-05

> <r_epik_State_Penalty>
-0

> <r_epik_Charging_Adjusted_Penalty>
0

> <i_epik_Tot_Q>
0

> <i_epik_Tot_abs_Q>
0

> <r_epik_Metal_State_Penalty>
-0

> <b_epik_Metal_Only>
0

> <s_lp_Force_Field>
OPLS_2005

> <r_lp_Energy>
42.1946

> <b_lp_Chiralities_Consistent>
1

> <s_lp_Variant>
AV-unprocessed.smi:2924-4

> <Gold.Version>
5.8.1

> <Gold.Id.Protein>
6NUR|6NUR_protein|mol2

> <Gold.PLP.Fitness>
40.3655

> <Gold.PLP.PLP>
-34.3287

> <Gold.PLP.part.hbond>
-1.9329

> <Gold.PLP.part.metal>
0.0000

> <Gold.PLP.part.buried>
-4.9213

> <Gold.PLP.part.nonpolar>
-27.7347

> <Gold.PLP.part.repulsive>
0.1903

> <Gold.PLP.ligand.clash>
0.0000

> <Gold.PLP.ligand.torsion>
0.0698

> <Gold.PLP.Chemscore.Hbond>
1.0000

> <Gold.PLP.Chemscore.CHOScore>
1.0522

> <Gold.PLP.Chemscore.Metal>
0.0000

> <Gold.Chemscore.Hbonds>
donor molecule, donor type, donor heavy atom, donor atom, acceptor molecule, acceptor atom, score
      P1  H  7997  8008       L1    16  1.00
      L1  C     6    19       P1  8028  1.00
      L1  C     6    19       P1  8029  0.05

> <Gold.PLP.Chemscore.Internal.Correction>
0.0197

> <Gold.Rescore>
     Score         DG    S(hbond)    S(metal)    S(lipo)     H(rot)  DE(clash)    DE(int)     intcor
     13.21     -16.11       0.93        0.00      86.24       1.00       1.18       1.72       ----

> <Gold.Chemscore.Fitness>
13.2056

> <Gold.Chemscore.DG>
-16.1081

> <Gold.Chemscore.ZeroCoef>
-5.4800

> <Gold.Chemscore.Hbond>
0.9276

> <Gold.Chemscore.Metal>
0.0000

> <Gold.Chemscore.Lipo>
86.2385

> <Gold.Chemscore.Internal_Hbond>
0.0000

> <Gold.Chemscore.DEClash>
1.1804

> <Gold.Chemscore.DEInternal>
1.7221

> <Gold.Chemscore.Rot>
1.0000

> <Gold.Chemscore.Internal.Correction>
   9.000000E+99

> <Gold.Chemscore.Hbonds>
donor molecule, donor type, donor heavy atom, donor atom, acceptor molecule, acceptor atom, score
      P1  H  7997  8008       L1    16  0.39

> <Gold.Chemscore.Hbond.Weighted>
-3.0982

> <Gold.Chemscore.Metal.Weighted>
-0.0000

> <Gold.Chemscore.Lipo.Weighted>
-10.0899

> <Gold.Chemscore.Internal_Hbond.Weighted>
0.0000

> <Gold.Chemscore.DEClash.Weighted>
1.1804

> <Gold.Chemscore.DEInternal.Weighted>
1.7221

> <Gold.Chemscore.Rot.Weighted>
2.5600

> <Gold.Chemscore.Internal.Correction.Weighted>
   9.000000E+99

> <Gold.Protein.RotatedTorsions>
[ 6907 6896 6895 6894 ] final  179.17 input  -60.11 | X-H torsion
[ 7974 7965 7964 7962 ] final   74.01 input  175.53 | X-H torsion
[ 8008 7997 7996 7995 ] final  -36.92 input   59.86 | X-H torsion
[ 10167 10162 10161 10158 ] final   15.88 input  -65.29 | X-H torsion
[ 10718 10713 10712 10709 ] final  -76.43 input   66.30 | X-H torsion
[ 10763 10752 10751 10750 ] final  136.44 input  -60.55 | X-H torsion
[ 11005 11000 10999 10996 ] final  160.20 input  -57.11 | X-H torsion

> <Gold.Protein.ActiveResidues>
 VAL166  LYS551  ARG553  GLY616  TRP617  ASP618  TYR619  PRO620  LYS621  CYS622 
 ASP623  PHE694  ASN695  SER759  ASP760  ASP761  ALA762  ILE779  LEU786  VAL792 
 PHE793  MET794  SER795  GLU796  ALA797  LYS798  CYS799  TRP800  GLU811  SER814 

> <Gold.Protein.RotatedAtoms>
  151.6760  133.3313  159.3207 H   0  0  0  0  0  0  0  0  0  0  0  0  # atno 6907 bound_to 6896
  150.7845  134.6822  159.6459 H   0  0  0  0  0  0  0  0  0  0  0  0  # atno 6908 bound_to 6896
  152.3911  134.6443  160.0159 H   0  0  0  0  0  0  0  0  0  0  0  0  # atno 6909 bound_to 6896
  145.7337  139.2693  143.1526 H   0  0  0  0  0  0  0  0  0  0  0  0  # atno 7974 bound_to 7965
  154.4063  140.1618  156.2452 H   0  0  0  0  0  0  0  0  0  0  0  0  # atno 8008 bound_to 7997
  155.9167  140.3424  155.6118 H   0  0  0  0  0  0  0  0  0  0  0  0  # atno 8009 bound_to 7997
  155.7271  140.0775  157.2296 H   0  0  0  0  0  0  0  0  0  0  0  0  # atno 8010 bound_to 7997
  140.5836  143.8933  150.6811 H   0  0  0  0  0  0  0  0  0  0  0  0  # atno 10167 bound_to 10162
  156.0175  130.4465  150.3192 H   0  0  0  0  0  0  0  0  0  0  0  0  # atno 10718 bound_to 10713
  153.8566  135.3072  155.3435 H   0  0  0  0  0  0  0  0  0  0  0  0  # atno 10763 bound_to 10752
  154.7868  135.4805  153.9966 H   0  0  0  0  0  0  0  0  0  0  0  0  # atno 10764 bound_to 10752
  153.1487  135.6838  153.9010 H   0  0  0  0  0  0  0  0  0  0  0  0  # atno 10765 bound_to 10752
  140.2036  134.8319  157.3045 H   0  0  0  0  0  0  0  0  0  0  0  0  # atno 11005 bound_to 11000
  146.0513  140.8066  142.9780 LP  0  0  0  0  0  0  0  0  0  0  0  0  # atno 17320 bound_to 7965
  144.6887  140.3057  143.7256 LP  0  0  0  0  0  0  0  0  0  0  0  0  # atno 17321 bound_to 7965
  140.2438  143.3643  152.1464 LP  0  0  0  0  0  0  0  0  0  0  0  0  # atno 17342 bound_to 10162
  139.5184  144.7005  151.5506 LP  0  0  0  0  0  0  0  0  0  0  0  0  # atno 17343 bound_to 10162
  157.1292  131.0267  151.2976 LP  0  0  0  0  0  0  0  0  0  0  0  0  # atno 17370 bound_to 10713
  157.4564  130.7628  149.7197 LP  0  0  0  0  0  0  0  0  0  0  0  0  # atno 17371 bound_to 10713
  140.2027  134.4235  155.7654 LP  0  0  0  0  0  0  0  0  0  0  0  0  # atno 17394 bound_to 11000
  141.2227  133.7080  156.8210 LP  0  0  0  0  0  0  0  0  0  0  0  0  # atno 17395 bound_to 11000

$$$$
