AV-unprocessed.smi:408|AV-procd|sdf|2504|dock4
  -GOLD-   2262022453D 1   1.00000     0.00000
 Structure written by MMmdl.
 40 41  0  0  0  0  0  0  0  0  2 V2000
  152.6845  143.0452  160.4727 C   0  0  0  0  0  0  0  0  0  0  0  0
  152.6504  143.6459  159.0577 C   0  0  0  0  0  0  0  0  0  0  0  0
  152.1756  145.1056  159.1075 C   0  0  0  0  0  0  0  0  0  0  0  0
  151.7710  142.8152  158.0962 C   0  0  0  0  0  0  0  0  0  0  0  0
  152.1881  141.3414  157.9232 C   0  0  0  0  0  0  0  0  0  0  0  0
  151.2397  140.6175  157.0846 N   0  0  0  0  0  0  0  0  0  0  0  0
  151.5332  139.5968  156.2634 C   0  0  0  0  0  0  0  0  0  0  0  0
  152.6455  139.0745  156.1942 O   0  0  0  0  0  0  0  0  0  0  0  0
  150.3977  139.1111  155.3603 C   0  0  0  0  0  0  0  0  0  0  0  0
  149.9640  137.7426  155.7993 C   0  0  0  0  0  0  0  0  0  0  0  0
  149.8717  136.6161  155.0225 C   0  0  0  0  0  0  0  0  0  0  0  0
  149.4180  135.2233  155.9605 S   0  0  0  0  0  0  0  0  0  0  0  0
  149.3514  136.2315  157.4058 C   0  0  0  0  0  0  0  0  0  0  0  0
  149.0507  135.7793  158.6366 N   0  5  0  0  0  0  0  0  0  0  0  0
  148.1581  136.3963  159.4603 C   0  0  0  0  0  0  0  0  0  0  0  0
  148.0500  137.6132  159.6022 O   0  0  0  0  0  0  0  0  0  0  0  0
  147.2674  135.4690  160.2403 C   0  0  0  0  0  0  0  0  0  0  0  0
  146.0757  136.0540  160.9745 C   0  0  0  0  0  0  0  0  0  0  0  0
  147.2911  135.6142  161.7488 C   0  0  0  0  0  0  0  0  0  0  0  0
  149.6280  137.5126  157.1354 N   0  0  0  0  0  0  0  0  0  0  0  0
  151.6811  142.9538  160.8895 H   0  0  0  0  0  0  0  0  0  0  0  0
  153.2663  143.6701  161.1504 H   0  0  0  0  0  0  0  0  0  0  0  0
  153.1416  142.0560  160.4771 H   0  0  0  0  0  0  0  0  0  0  0  0
  153.6710  143.6642  158.6748 H   0  0  0  0  0  0  0  0  0  0  0  0
  151.1483  145.1772  159.4653 H   0  0  0  0  0  0  0  0  0  0  0  0
  152.2194  145.5664  158.1204 H   0  0  0  0  0  0  0  0  0  0  0  0
  152.8025  145.7005  159.7724 H   0  0  0  0  0  0  0  0  0  0  0  0
  150.7352  142.8530  158.4360 H   0  0  0  0  0  0  0  0  0  0  0  0
  151.7744  143.2869  157.1124 H   0  0  0  0  0  0  0  0  0  0  0  0
  153.2074  141.2647  157.5433 H   0  0  0  0  0  0  0  0  0  0  0  0
  152.1974  140.8559  158.8991 H   0  0  0  0  0  0  0  0  0  0  0  0
  150.2940  140.9705  157.0684 H   0  0  0  0  0  0  0  0  0  0  0  0
  149.5677  139.8173  155.4064 H   0  0  0  0  0  0  0  0  0  0  0  0
  150.7376  139.0972  154.3241 H   0  0  0  0  0  0  0  0  0  0  0  0
  150.0677  136.5150  153.9658 H   0  0  0  0  0  0  0  0  0  0  0  0
  147.1296  134.4701  159.8298 H   0  0  0  0  0  0  0  0  0  0  0  0
  145.8909  137.1247  160.9106 H   0  0  0  0  0  0  0  0  0  0  0  0
  145.1821  135.4362  161.0332 H   0  0  0  0  0  0  0  0  0  0  0  0
  147.2388  134.6973  162.3301 H   0  0  0  0  0  0  0  0  0  0  0  0
  147.9219  136.3918  162.1763 H   0  0  0  0  0  0  0  0  0  0  0  0
  1  2  1  0  0  0  0
  1 21  1  0  0  0  0
  1 22  1  0  0  0  0
  1 23  1  0  0  0  0
  2  3  1  0  0  0  0
  2  4  1  0  0  0  0
  2 24  1  0  0  0  0
  3 25  1  0  0  0  0
  3 26  1  0  0  0  0
  3 27  1  0  0  0  0
  4  5  1  0  0  0  0
  4 28  1  0  0  0  0
  4 29  1  0  0  0  0
  5  6  1  0  0  0  0
  5 30  1  0  0  0  0
  5 31  1  0  0  0  0
  6  7  1  0  0  0  0
  6 32  1  0  0  0  0
  7  8  2  0  0  0  0
  7  9  1  0  0  0  0
  9 10  1  0  0  0  0
  9 33  1  0  0  0  0
  9 34  1  0  0  0  0
 10 20  1  0  0  0  0
 10 11  2  0  0  0  0
 11 12  1  0  0  0  0
 11 35  1  0  0  0  0
 12 13  1  0  0  0  0
 13 14  1  0  0  0  0
 13 20  2  0  0  0  0
 14 15  1  0  0  0  0
 15 16  2  0  0  0  0
 15 17  1  0  0  0  0
 17 19  1  0  0  0  0
 17 18  1  0  0  0  0
 17 36  1  0  0  0  0
 18 19  1  0  0  0  0
 18 37  1  0  0  0  0
 18 38  1  0  0  0  0
 19 39  1  0  0  0  0
 19 40  1  0  0  0  0
M  CHG  1  14  -1
M  END
> <s_m_source_file>
AV-unprocessed.smi

> <i_m_source_file_index>
408

> <i_lp_mmshare_version>
43012

> <i_f3d_flags>
0

> <s_epik_input>
W0NIM11bQ0hdKFtDSDNdKVtDSDJdW0NIMl1bTkhdQyg9TylbQ0gyXWMxW2NIXXNjKG4xKVtOSF1DKD1PKVtDSF0yW0NIMl1bQ0gyXTI=

> <s_epik_cmdline>
J2VwaWtfcHl0aG9uJywgJy1waCcsICc3LjAnLCAnLXRuJywgJzgnLCAnLW1hJywgJzIwMCcsICctbWV0YWxfYmluZGluZycsICctaW1hZScsICc8aW5maWxlLm1hZT4nLCAnLW9tYWUnLCAnPG91dGZpbGUubWFlPic=

> <r_lp_tautomer_probability>
1

> <r_epik_Ionization_Penalty>
5.55111

> <r_epik_Ionization_Penalty_Charging>
5.01898

> <r_epik_Ionization_Penalty_Neutral>
0.532133

> <r_epik_State_Penalty>
5.01885

> <r_epik_Charging_Adjusted_Penalty>
10.0378

> <i_epik_Tot_Q>
-1

> <i_epik_Tot_abs_Q>
1

> <r_epik_Metal_State_Penalty>
1.13336

> <b_epik_Metal_Only>
1

> <s_lp_Force_Field>
OPLS_2005

> <r_lp_Energy>
8.36317

> <b_lp_Chiralities_Consistent>
1

> <s_lp_Variant>
AV-unprocessed.smi:408-2

> <Gold.Version>
5.8.1

> <Gold.Id.Protein>
6NUR|6NUR_protein|mol2

> <Gold.PLP.Fitness>
47.1559

> <Gold.PLP.PLP>
-35.4244

> <Gold.PLP.part.hbond>
-4.0000

> <Gold.PLP.part.metal>
0.0000

> <Gold.PLP.part.buried>
-5.0404

> <Gold.PLP.part.nonpolar>
-26.2631

> <Gold.PLP.part.repulsive>
0.0676

> <Gold.PLP.ligand.clash>
0.0000

> <Gold.PLP.ligand.torsion>
1.1743

> <Gold.PLP.Chemscore.Hbond>
3.6646

> <Gold.PLP.Chemscore.CHOScore>
0.9894

> <Gold.PLP.Chemscore.Metal>
0.0000

> <Gold.Chemscore.Hbonds>
donor molecule, donor type, donor heavy atom, donor atom, acceptor molecule, acceptor atom, score
      P1  H  6896  6909       L1    14  0.88
      P1  H  6934  6947       L1    16  0.44
      P1  H  7997  8008       L1     8  1.00
      L1  C    11    35       P1  7948  0.97
      L1  C    11    35       P1  7949  0.03

> <Gold.PLP.Chemscore.Internal.Correction>
0.1184

> <Gold.Rescore>
     Score         DG    S(hbond)    S(metal)    S(lipo)     H(rot)  DE(clash)    DE(int)     intcor
     19.04     -21.34       2.89        0.00      95.20       1.92       0.03       2.27       ----

> <Gold.Chemscore.Fitness>
19.0435

> <Gold.Chemscore.DG>
-21.3441

> <Gold.Chemscore.ZeroCoef>
-5.4800

> <Gold.Chemscore.Hbond>
2.8864

> <Gold.Chemscore.Metal>
0.0000

> <Gold.Chemscore.Lipo>
95.1981

> <Gold.Chemscore.Internal_Hbond>
0.0000

> <Gold.Chemscore.DEClash>
0.0313

> <Gold.Chemscore.DEInternal>
2.2693

> <Gold.Chemscore.Rot>
1.9198

> <Gold.Chemscore.Internal.Correction>
   9.000000E+99

> <Gold.Chemscore.Hbonds>
donor molecule, donor type, donor heavy atom, donor atom, acceptor molecule, acceptor atom, score
      P1  H  6896  6909       L1    14  0.36
      P1  H  6934  6947       L1    16  0.42
      P1  H  7997  8008       L1     8  0.94

> <Gold.Chemscore.Hbond.Weighted>
-9.6407

> <Gold.Chemscore.Metal.Weighted>
-0.0000

> <Gold.Chemscore.Lipo.Weighted>
-11.1382

> <Gold.Chemscore.Internal_Hbond.Weighted>
0.0000

> <Gold.Chemscore.DEClash.Weighted>
0.0313

> <Gold.Chemscore.DEInternal.Weighted>
2.2693

> <Gold.Chemscore.Rot.Weighted>
4.9148

> <Gold.Chemscore.Internal.Correction.Weighted>
   9.000000E+99

> <Gold.Protein.RotatedTorsions>
[ 6907 6896 6895 6894 ] final   38.36 input  -60.11 | X-H torsion
[ 7974 7965 7964 7962 ] final  -15.86 input  175.53 | X-H torsion
[ 8008 7997 7996 7995 ] final  -33.46 input   59.86 | X-H torsion
[ 10167 10162 10161 10158 ] final  107.01 input  -65.29 | X-H torsion
[ 10718 10713 10712 10709 ] final   61.19 input   66.30 | X-H torsion
[ 10763 10752 10751 10750 ] final   17.60 input  -60.55 | X-H torsion
[ 11005 11000 10999 10996 ] final  -33.57 input  -57.11 | X-H torsion

> <Gold.Protein.ActiveResidues>
 VAL166  LYS551  ARG553  GLY616  TRP617  ASP618  TYR619  PRO620  LYS621  CYS622 
 ASP623  PHE694  ASN695  SER759  ASP760  ASP761  ALA762  ILE779  LEU786  VAL792 
 PHE793  MET794  SER795  GLU796  ALA797  LYS798  CYS799  TRP800  GLU811  SER814 

> <Gold.Protein.RotatedAtoms>
  152.1553  134.8955  160.0545 H   0  0  0  0  0  0  0  0  0  0  0  0  # atno 6907 bound_to 6896
  151.9971  133.3807  159.4175 H   0  0  0  0  0  0  0  0  0  0  0  0  # atno 6908 bound_to 6896
  150.6881  134.3796  159.5072 H   0  0  0  0  0  0  0  0  0  0  0  0  # atno 6909 bound_to 6896
  146.2013  140.3553  142.8422 H   0  0  0  0  0  0  0  0  0  0  0  0  # atno 7974 bound_to 7965
  154.4148  140.1710  156.1892 H   0  0  0  0  0  0  0  0  0  0  0  0  # atno 8008 bound_to 7997
  155.9618  140.3393  155.6473 H   0  0  0  0  0  0  0  0  0  0  0  0  # atno 8009 bound_to 7997
  155.6739  140.0715  157.2500 H   0  0  0  0  0  0  0  0  0  0  0  0  # atno 8010 bound_to 7997
  139.6962  144.7101  151.1263 H   0  0  0  0  0  0  0  0  0  0  0  0  # atno 10167 bound_to 10162
  157.5809  130.8980  149.9429 H   0  0  0  0  0  0  0  0  0  0  0  0  # atno 10718 bound_to 10713
  153.1324  135.6743  153.9156 H   0  0  0  0  0  0  0  0  0  0  0  0  # atno 10763 bound_to 10752
  153.8638  135.3078  155.3440 H   0  0  0  0  0  0  0  0  0  0  0  0  # atno 10764 bound_to 10752
  154.7719  135.4935  153.9748 H   0  0  0  0  0  0  0  0  0  0  0  0  # atno 10765 bound_to 10752
  140.9645  133.7145  156.1423 H   0  0  0  0  0  0  0  0  0  0  0  0  # atno 11005 bound_to 11000
  144.8691  140.7247  143.6058 LP  0  0  0  0  0  0  0  0  0  0  0  0  # atno 17320 bound_to 7965
  145.3473  139.1716  143.4453 LP  0  0  0  0  0  0  0  0  0  0  0  0  # atno 17321 bound_to 7965
  140.7697  143.5488  150.9228 LP  0  0  0  0  0  0  0  0  0  0  0  0  # atno 17342 bound_to 10162
  139.9168  143.6654  152.3105 LP  0  0  0  0  0  0  0  0  0  0  0  0  # atno 17343 bound_to 10162
  156.0855  130.3668  150.0496 LP  0  0  0  0  0  0  0  0  0  0  0  0  # atno 17370 bound_to 10713
  156.8635  130.9500  151.3616 LP  0  0  0  0  0  0  0  0  0  0  0  0  # atno 17371 bound_to 10713
  140.7419  134.4141  157.5553 LP  0  0  0  0  0  0  0  0  0  0  0  0  # atno 17394 bound_to 11000
  139.8890  134.8842  156.2446 LP  0  0  0  0  0  0  0  0  0  0  0  0  # atno 17395 bound_to 11000

$$$$
