AV-unprocessed.smi:37|AV-procd|sdf|310|dock10
  -GOLD-   2262016123D 1   1.00000     0.00000
 Structure written by MMmdl.
 44 45  0  0  0  0  0  0  0  0  1 V2000
  147.4237  134.2531  162.7451 C   0  0  0  0  0  0  0  0  0  0  0  0
  147.0134  134.8382  161.3868 C   0  0  0  0  0  0  0  0  0  0  0  0
  147.7271  136.1541  161.0859 C   0  0  0  0  0  0  0  0  0  0  0  0
  147.6095  137.1318  161.8247 O   0  0  0  0  0  0  0  0  0  0  0  0
  148.4684  136.0972  159.9683 O   0  0  0  0  0  0  0  0  0  0  0  0
  149.6391  136.8893  159.8634 C   0  0  0  0  0  0  0  0  0  0  0  0
  149.8840  137.2321  158.3886 C   0  0  1  0  0  0  0  0  0  0  0  0
  149.3144  138.4908  158.0474 O   0  0  0  0  0  0  0  0  0  0  0  0
  150.0003  139.0453  156.9623 C   0  0  2  0  0  0  0  0  0  0  0  0
  149.0794  139.1386  155.7664 N   0  0  0  0  0  0  0  0  0  0  0  0
  147.7591  138.7061  155.8109 C   0  0  0  0  0  0  0  0  0  0  0  0
  146.9260  138.7797  154.7459 C   0  0  0  0  0  0  0  0  0  0  0  0
  145.6620  138.3383  154.8614 F   0  0  0  0  0  0  0  0  0  0  0  0
  147.3878  139.3293  153.4743 C   0  0  0  0  0  0  0  0  0  0  0  0
  146.7079  139.4377  152.4557 O   0  0  0  0  0  0  0  0  0  0  0  0
  148.7218  139.7479  153.4764 N   0  0  0  0  0  0  0  0  0  0  0  0
  149.5916  139.6761  154.5656 C   0  0  0  0  0  0  0  0  0  0  0  0
  150.7542  140.0636  154.4559 O   0  0  0  0  0  0  0  0  0  0  0  0
  151.2457  138.1689  156.7013 C   0  0  2  0  0  0  0  0  0  0  0  0
  151.0031  136.8539  155.2138 Br  0  0  0  0  0  0  0  0  0  0  0  0
  151.3557  137.3908  158.0013 C   0  0  1  0  0  0  0  0  0  0  0  0
  152.0402  138.1511  158.9919 O   0  0  0  0  0  0  0  0  0  0  0  0
  153.1653  138.8196  158.6809 C   0  0  0  0  0  0  0  0  0  0  0  0
  153.8475  138.6532  157.6699 O   0  0  0  0  0  0  0  0  0  0  0  0
  153.5368  139.8651  159.7299 C   0  0  0  0  0  0  0  0  0  0  0  0
  152.4583  140.9473  159.8777 C   0  0  0  0  0  0  0  0  0  0  0  0
  149.0867  140.1309  152.6166 H   0  0  0  0  0  0  0  0  0  0  0  0
  146.9085  133.3101  162.9276 H   0  0  0  0  0  0  0  0  0  0  0  0
  147.1746  134.9282  163.5648 H   0  0  0  0  0  0  0  0  0  0  0  0
  148.4958  134.0564  162.7833 H   0  0  0  0  0  0  0  0  0  0  0  0
  147.2369  134.1249  160.5932 H   0  0  0  0  0  0  0  0  0  0  0  0
  145.9369  135.0095  161.3641 H   0  0  0  0  0  0  0  0  0  0  0  0
  149.5456  137.7973  160.4607 H   0  0  0  0  0  0  0  0  0  0  0  0
  150.4842  136.3215  160.2555 H   0  0  0  0  0  0  0  0  0  0  0  0
  149.4385  136.4644  157.7537 H   0  0  0  0  0  0  0  0  0  0  0  0
  150.2479  140.0731  157.2356 H   0  0  0  0  0  0  0  0  0  0  0  0
  147.3607  138.2824  156.7208 H   0  0  0  0  0  0  0  0  0  0  0  0
  152.1182  138.7814  156.4709 H   0  0  0  0  0  0  0  0  0  0  0  0
  151.8365  136.4207  157.8664 H   0  0  0  0  0  0  0  0  0  0  0  0
  153.6916  139.3650  160.6864 H   0  0  0  0  0  0  0  0  0  0  0  0
  154.4879  140.3201  159.4526 H   0  0  0  0  0  0  0  0  0  0  0  0
  152.7315  141.6565  160.6591 H   0  0  0  0  0  0  0  0  0  0  0  0
  151.4952  140.5130  160.1484 H   0  0  0  0  0  0  0  0  0  0  0  0
  152.3258  141.5111  158.9536 H   0  0  0  0  0  0  0  0  0  0  0  0
  1  2  1  0  0  0  0
  1 28  1  0  0  0  0
  1 29  1  0  0  0  0
  1 30  1  0  0  0  0
  2  3  1  0  0  0  0
  2 31  1  0  0  0  0
  2 32  1  0  0  0  0
  3  4  2  0  0  0  0
  3  5  1  0  0  0  0
  5  6  1  0  0  0  0
  6  7  1  0  0  0  0
  6 33  1  0  0  0  0
  6 34  1  0  0  0  0
  7 21  1  0  0  0  0
  7  8  1  0  0  0  0
  7 35  1  0  0  0  0
  8  9  1  0  0  0  0
  9 10  1  0  0  0  0
  9 19  1  0  0  0  0
  9 36  1  0  0  0  0
 10 17  1  0  0  0  0
 10 11  1  0  0  0  0
 11 12  2  0  0  0  0
 11 37  1  0  0  0  0
 12 13  1  0  0  0  0
 12 14  1  0  0  0  0
 14 15  2  0  0  0  0
 14 16  1  0  0  0  0
 16 27  1  0  0  0  0
 16 17  1  0  0  0  0
 17 18  2  0  0  0  0
 19 20  1  0  0  0  0
 19 21  1  0  0  0  0
 19 38  1  0  0  0  0
 21 22  1  0  0  0  0
 21 39  1  0  0  0  0
 22 23  1  0  0  0  0
 23 24  2  0  0  0  0
 23 25  1  0  0  0  0
 25 26  1  0  0  0  0
 25 40  1  0  0  0  0
 25 41  1  0  0  0  0
 26 42  1  0  0  0  0
 26 43  1  0  0  0  0
 26 44  1  0  0  0  0
M  END
> <s_m_source_file>
AV-unprocessed.smi

> <i_m_source_file_index>
37

> <i_lp_mmshare_version>
43012

> <i_f3d_flags>
0

> <s_epik_input>
W0NIM11bQ0gyXUMoPU8pT1tDSDJdW0NAQEhdMU9bQ0BASF0objJbY0hdYyhGKWMoPU8pW25IXWMyPU8pW0NAQEhdKEJyKVtDQEhdMU9DKD1PKVtDSDJdW0NIM10=

> <s_epik_cmdline>
J2VwaWtfcHl0aG9uJywgJy1waCcsICc3LjAnLCAnLXRuJywgJzgnLCAnLW1hJywgJzIwMCcsICctbWV0YWxfYmluZGluZycsICctaW1hZScsICc8aW5maWxlLm1hZT4nLCAnLW9tYWUnLCAnPG91dGZpbGUubWFlPic=

> <r_lp_tautomer_probability>
0.999537

> <r_epik_Ionization_Penalty>
0.104106

> <r_epik_Ionization_Penalty_Charging>
0.104106

> <r_epik_Ionization_Penalty_Neutral>
3.94675e-16

> <r_epik_State_Penalty>
0.0940182

> <r_epik_Charging_Adjusted_Penalty>
0.198124

> <i_epik_Tot_Q>
0

> <i_epik_Tot_abs_Q>
0

> <r_epik_Metal_State_Penalty>
3.05314

> <b_epik_Metal_Only>
0

> <s_epik_Chemistry_Notes>
This compound has an ester and may undergo hydrolysis at high or low pH. This compound contains an acetal/aminal-like group ( X-CH(R)-Y where X, Y are N, S, or O) that may be acid/base labile, releasing an aldehyde.

> <s_lp_Force_Field>
OPLS_2005

> <r_lp_Energy>
24.0333

> <b_lp_Chiralities_Consistent>
1

> <s_lp_Variant>
AV-unprocessed.smi:37-8

> <Gold.Version>
5.8.1

> <Gold.Id.Protein>
6NUR|6NUR_protein|mol2

> <Gold.PLP.Fitness>
43.6616

> <Gold.PLP.PLP>
-32.3750

> <Gold.PLP.part.hbond>
-4.8271

> <Gold.PLP.part.metal>
0.0000

> <Gold.PLP.part.buried>
-6.1202

> <Gold.PLP.part.nonpolar>
-22.9251

> <Gold.PLP.part.repulsive>
0.5272

> <Gold.PLP.ligand.clash>
0.0000

> <Gold.PLP.ligand.torsion>
1.3708

> <Gold.PLP.Chemscore.Hbond>
4.6254

> <Gold.PLP.Chemscore.CHOScore>
0.0000

> <Gold.PLP.Chemscore.Metal>
0.0000

> <Gold.Chemscore.Hbonds>
donor molecule, donor type, donor heavy atom, donor atom, acceptor molecule, acceptor atom, score
      L1  H    16    27       P1  7957  1.00
      P1  H  6931  6943       L1     4  1.00
      P1  H  6934  6947       L1     4  0.55
      P1  H  7989  7998       L1    18  0.99
      P1  H  7997  8010       L1    24  1.00

> <Gold.PLP.Chemscore.Internal.Correction>
0.1520

> <Gold.Rescore>
     Score         DG    S(hbond)    S(metal)    S(lipo)     H(rot)  DE(clash)    DE(int)     intcor
     14.10     -18.19       4.36        0.00      56.94       3.33       0.17       3.92       ----

> <Gold.Chemscore.Fitness>
14.0956

> <Gold.Chemscore.DG>
-18.1879

> <Gold.Chemscore.ZeroCoef>
-5.4800

> <Gold.Chemscore.Hbond>
4.3626

> <Gold.Chemscore.Metal>
0.0000

> <Gold.Chemscore.Lipo>
56.9424

> <Gold.Chemscore.Internal_Hbond>
0.0000

> <Gold.Chemscore.DEClash>
0.1729

> <Gold.Chemscore.DEInternal>
3.9194

> <Gold.Chemscore.Rot>
3.3303

> <Gold.Chemscore.Internal.Correction>
   9.000000E+99

> <Gold.Chemscore.Hbonds>
donor molecule, donor type, donor heavy atom, donor atom, acceptor molecule, acceptor atom, score
      L1  H    16    27       P1  7957  0.93
      P1  H  6931  6943       L1     4  0.90
      P1  H  6934  6947       L1     4  0.52
      P1  H  7989  7998       L1    18  0.92
      P1  H  7997  8010       L1    24  0.93

> <Gold.Chemscore.Hbond.Weighted>
-14.5712

> <Gold.Chemscore.Metal.Weighted>
-0.0000

> <Gold.Chemscore.Lipo.Weighted>
-6.6623

> <Gold.Chemscore.Internal_Hbond.Weighted>
0.0000

> <Gold.Chemscore.DEClash.Weighted>
0.1729

> <Gold.Chemscore.DEInternal.Weighted>
3.9194

> <Gold.Chemscore.Rot.Weighted>
8.5256

> <Gold.Chemscore.Internal.Correction.Weighted>
   9.000000E+99

> <Gold.Protein.RotatedTorsions>
[ 6907 6896 6895 6894 ] final  -68.86 input  -60.11 | X-H torsion
[ 7974 7965 7964 7962 ] final   10.45 input  175.53 | X-H torsion
[ 8008 7997 7996 7995 ] final   37.03 input   59.86 | X-H torsion
[ 10167 10162 10161 10158 ] final -136.99 input  -65.29 | X-H torsion
[ 10718 10713 10712 10709 ] final   51.34 input   66.30 | X-H torsion
[ 10763 10752 10751 10750 ] final  101.65 input  -60.55 | X-H torsion
[ 11005 11000 10999 10996 ] final -107.96 input  -57.11 | X-H torsion

> <Gold.Protein.ActiveResidues>
 VAL166  LYS551  ARG553  GLY616  TRP617  ASP618  TYR619  PRO620  LYS621  CYS622 
 ASP623  PHE694  ASN695  SER759  ASP760  ASP761  ALA762  ILE779  LEU786  VAL792 
 PHE793  MET794  SER795  GLU796  ALA797  LYS798  CYS799  TRP800  GLU811  SER814 

> <Gold.Protein.RotatedAtoms>
  150.7335  134.5679  159.5875 H   0  0  0  0  0  0  0  0  0  0  0  0  # atno 6907 bound_to 6896
  152.3126  134.7476  160.0342 H   0  0  0  0  0  0  0  0  0  0  0  0  # atno 6908 bound_to 6896
  151.8019  133.3335  159.3566 H   0  0  0  0  0  0  0  0  0  0  0  0  # atno 6909 bound_to 6896
  146.2388  139.9633  142.8456 H   0  0  0  0  0  0  0  0  0  0  0  0  # atno 7974 bound_to 7965
  155.1971  140.3313  155.4349 H   0  0  0  0  0  0  0  0  0  0  0  0  # atno 8008 bound_to 7997
  156.2420  140.1900  156.7011 H   0  0  0  0  0  0  0  0  0  0  0  0  # atno 8009 bound_to 7997
  154.6166  140.0601  156.9548 H   0  0  0  0  0  0  0  0  0  0  0  0  # atno 8010 bound_to 7997
  139.8623  143.7062  152.2649 H   0  0  0  0  0  0  0  0  0  0  0  0  # atno 10167 bound_to 10162
  157.4971  130.8414  149.8272 H   0  0  0  0  0  0  0  0  0  0  0  0  # atno 10718 bound_to 10713
  153.3294  135.4037  155.1483 H   0  0  0  0  0  0  0  0  0  0  0  0  # atno 10763 bound_to 10752
  154.8619  135.3607  154.5491 H   0  0  0  0  0  0  0  0  0  0  0  0  # atno 10764 bound_to 10752
  153.5929  135.7073  153.5475 H   0  0  0  0  0  0  0  0  0  0  0  0  # atno 10765 bound_to 10752
  141.0927  133.9026  157.2037 H   0  0  0  0  0  0  0  0  0  0  0  0  # atno 11005 bound_to 11000
  145.1750  140.9739  143.4299 LP  0  0  0  0  0  0  0  0  0  0  0  0  # atno 17320 bound_to 7965
  144.9993  139.3613  143.6175 LP  0  0  0  0  0  0  0  0  0  0  0  0  # atno 17321 bound_to 7965
  139.7362  144.7570  151.0724 LP  0  0  0  0  0  0  0  0  0  0  0  0  # atno 17342 bound_to 10162
  140.7773  143.5027  150.9751 LP  0  0  0  0  0  0  0  0  0  0  0  0  # atno 17343 bound_to 10162
  156.0207  130.3796  150.1971 LP  0  0  0  0  0  0  0  0  0  0  0  0  # atno 17370 bound_to 10713
  157.0160  130.9965  151.3353 LP  0  0  0  0  0  0  0  0  0  0  0  0  # atno 17371 bound_to 10713
  139.9756  135.0115  156.9623 LP  0  0  0  0  0  0  0  0  0  0  0  0  # atno 17394 bound_to 11000
  140.5214  134.0904  155.7293 LP  0  0  0  0  0  0  0  0  0  0  0  0  # atno 17395 bound_to 11000

$$$$
