AV-unprocessed.smi:2944|AV-procd|sdf|11274|dock1
  -GOLD-   2272016163D 1   1.00000     0.00000
 Structure written by MMmdl.
 45 47  0  0  0  0  0  0  0  0  2 V2000
  150.6689  135.2815  154.9514 C   0  0  0  0  0  0  0  0  0  0  0  0
  151.3819  136.4927  154.7744 O   0  0  0  0  0  0  0  0  0  0  0  0
  150.5710  137.6379  154.9832 C   0  0  0  0  0  0  0  0  0  0  0  0
  151.4018  138.9146  154.7892 C   0  0  0  0  0  0  0  0  0  0  0  0
  150.5866  140.1373  154.8570 N   0  0  0  0  0  0  0  0  0  0  0  0
  150.7535  141.2680  155.5975 C   0  0  0  0  0  0  0  0  0  0  0  0
  152.0815  141.6152  156.7046 S   0  0  0  0  0  0  0  0  0  0  0  0
  152.1723  140.1877  157.8306 C   0  0  2  0  0  0  0  0  0  0  0  0
  150.7672  139.8326  158.3441 C   0  0  0  0  0  0  0  0  0  0  0  0
  153.1451  140.4489  159.0016 C   0  0  0  0  0  0  0  0  0  0  0  0
  154.0755  139.6522  159.1484 O   0  0  0  0  0  0  0  0  0  0  0  0
  152.9173  141.4980  159.8425 N   0  0  0  0  0  0  0  0  0  0  0  0
  151.8596  142.4923  159.6547 C   0  0  0  0  0  0  0  0  0  0  0  0
  151.9819  143.4211  160.8549 C   0  0  0  0  0  0  0  0  0  0  0  0
  153.1025  142.8508  161.5571 N   0  0  0  0  0  0  0  0  0  0  0  0
  153.6180  141.7677  160.9710 C   0  0  0  0  0  0  0  0  0  0  0  0
  154.5705  141.1387  161.4331 O   0  0  0  0  0  0  0  0  0  0  0  0
  149.7230  142.1095  155.3099 N   0  3  0  0  0  0  0  0  0  0  0  0
  148.8980  141.5234  154.3501 C   0  0  0  0  0  0  0  0  0  0  0  0
  147.7457  141.9969  153.7309 C   0  0  0  0  0  0  0  0  0  0  0  0
  147.1416  141.1447  152.7835 C   0  0  0  0  0  0  0  0  0  0  0  0
  147.6838  139.8781  152.4838 C   0  0  0  0  0  0  0  0  0  0  0  0
  148.8524  139.4085  153.1188 C   0  0  0  0  0  0  0  0  0  0  0  0
  149.4447  140.2563  154.0547 C   0  0  0  0  0  0  0  0  0  0  0  0
  151.3398  134.4366  154.7968 H   0  0  0  0  0  0  0  0  0  0  0  0
  149.8501  135.1984  154.2356 H   0  0  0  0  0  0  0  0  0  0  0  0
  150.2610  135.2063  155.9601 H   0  0  0  0  0  0  0  0  0  0  0  0
  149.7336  137.6346  154.2841 H   0  0  0  0  0  0  0  0  0  0  0  0
  150.1518  137.6186  155.9899 H   0  0  0  0  0  0  0  0  0  0  0  0
  152.1999  138.9758  155.5288 H   0  0  0  0  0  0  0  0  0  0  0  0
  151.8907  138.8956  153.8149 H   0  0  0  0  0  0  0  0  0  0  0  0
  152.4969  139.3409  157.2308 H   0  0  0  0  0  0  0  0  0  0  0  0
  150.7982  138.9875  159.0330 H   0  0  0  0  0  0  0  0  0  0  0  0
  150.1116  139.5556  157.5182 H   0  0  0  0  0  0  0  0  0  0  0  0
  150.3022  140.6711  158.8641 H   0  0  0  0  0  0  0  0  0  0  0  0
  152.0018  143.0429  158.7235 H   0  0  0  0  0  0  0  0  0  0  0  0
  150.8770  142.0241  159.6387 H   0  0  0  0  0  0  0  0  0  0  0  0
  152.1918  144.4499  160.5604 H   0  0  0  0  0  0  0  0  0  0  0  0
  151.0878  143.4030  161.4795 H   0  0  0  0  0  0  0  0  0  0  0  0
  153.4600  143.2471  162.4145 H   0  0  0  0  0  0  0  0  0  0  0  0
  147.3298  142.9679  153.9574 H   0  0  0  0  0  0  0  0  0  0  0  0
  146.2452  141.4694  152.2754 H   0  0  0  0  0  0  0  0  0  0  0  0
  147.1941  139.2535  151.7506 H   0  0  0  0  0  0  0  0  0  0  0  0
  149.2621  138.4393  152.8756 H   0  0  0  0  0  0  0  0  0  0  0  0
  149.6062  143.0242  155.7275 H   0  0  0  0  0  0  0  0  0  0  0  0
  1  2  1  0  0  0  0
  1 25  1  0  0  0  0
  1 26  1  0  0  0  0
  1 27  1  0  0  0  0
  2  3  1  0  0  0  0
  3  4  1  0  0  0  0
  3 28  1  0  0  0  0
  3 29  1  0  0  0  0
  4  5  1  0  0  0  0
  4 30  1  0  0  0  0
  4 31  1  0  0  0  0
  5 24  1  0  0  0  0
  5  6  1  0  0  0  0
  6  7  1  0  0  0  0
  6 18  2  0  0  0  0
  7  8  1  0  0  0  0
  8  9  1  0  0  0  0
  8 10  1  0  0  0  0
  8 32  1  0  0  0  0
  9 33  1  0  0  0  0
  9 34  1  0  0  0  0
  9 35  1  0  0  0  0
 10 11  2  0  0  0  0
 10 12  1  0  0  0  0
 12 16  1  0  0  0  0
 12 13  1  0  0  0  0
 13 14  1  0  0  0  0
 13 36  1  0  0  0  0
 13 37  1  0  0  0  0
 14 15  1  0  0  0  0
 14 38  1  0  0  0  0
 14 39  1  0  0  0  0
 15 16  1  0  0  0  0
 15 40  1  0  0  0  0
 16 17  2  0  0  0  0
 18 19  1  0  0  0  0
 18 45  1  0  0  0  0
 19 24  2  0  0  0  0
 19 20  1  0  0  0  0
 20 21  2  0  0  0  0
 20 41  1  0  0  0  0
 21 22  1  0  0  0  0
 21 42  1  0  0  0  0
 22 23  2  0  0  0  0
 22 43  1  0  0  0  0
 23 24  1  0  0  0  0
 23 44  1  0  0  0  0
M  CHG  1  18   1
M  END
> <s_m_source_file>
AV-unprocessed.smi

> <i_m_source_file_index>
2944

> <i_lp_mmshare_version>
43012

> <i_f3d_flags>
0

> <s_epik_input>
W2NIXTFbY0hdW2NIXVtjSF1jKGMxMiluKFtDSDJdW0NIMl1PW0NIM10pYyhuMilTW0NASF0oW0NIM10pQyg9TylOM1tDSDJdW0NIMl1bTkhdQzM9Tw==

> <s_epik_cmdline>
J2VwaWtfcHl0aG9uJywgJy1waCcsICc3LjAnLCAnLXRuJywgJzgnLCAnLW1hJywgJzIwMCcsICctbWV0YWxfYmluZGluZycsICctaW1hZScsICc8aW5maWxlLm1hZT4nLCAnLW9tYWUnLCAnPG91dGZpbGUubWFlPic=

> <r_lp_tautomer_probability>
0.9999

> <r_epik_Ionization_Penalty>
1.88808

> <r_epik_Ionization_Penalty_Charging>
1.88806

> <r_epik_Ionization_Penalty_Neutral>
2.68145e-05

> <r_epik_State_Penalty>
2.00836

> <r_epik_Charging_Adjusted_Penalty>
3.89641

> <i_epik_Tot_Q>
1

> <i_epik_Tot_abs_Q>
1

> <r_epik_Metal_State_Penalty>
2.03272

> <b_epik_Metal_Only>
0

> <s_lp_Force_Field>
OPLS_2005

> <r_lp_Energy>
42.6194

> <b_lp_Chiralities_Consistent>
1

> <s_lp_Variant>
AV-unprocessed.smi:2944-3

> <Gold.Version>
5.8.1

> <Gold.Id.Protein>
6NUR|6NUR_protein|mol2

> <Gold.PLP.Fitness>
53.7969

> <Gold.PLP.PLP>
-42.1252

> <Gold.PLP.part.hbond>
-3.9726

> <Gold.PLP.part.metal>
0.0000

> <Gold.PLP.part.buried>
1.7223

> <Gold.PLP.part.nonpolar>
-40.5345

> <Gold.PLP.part.repulsive>
0.3476

> <Gold.PLP.ligand.clash>
0.0000

> <Gold.PLP.ligand.torsion>
0.2433

> <Gold.PLP.Chemscore.Hbond>
4.0000

> <Gold.PLP.Chemscore.CHOScore>
0.0000

> <Gold.PLP.Chemscore.Metal>
0.0000

> <Gold.Chemscore.Hbonds>
donor molecule, donor type, donor heavy atom, donor atom, acceptor molecule, acceptor atom, score
      L1  H    18    45       P1  8028  1.95
      P1  H  7997  8010       L1    11  0.68
      P1  H 10752 10765       L1     2  0.60

> <Gold.PLP.Chemscore.Internal.Correction>
0.1583

> <Gold.Rescore>
     Score         DG    S(hbond)    S(metal)    S(lipo)     H(rot)  DE(clash)    DE(int)     intcor
     10.61     -14.94       1.36        0.00      92.30       2.30       2.60       1.73       ----

> <Gold.Chemscore.Fitness>
10.6094

> <Gold.Chemscore.DG>
-14.9421

> <Gold.Chemscore.ZeroCoef>
-5.4800

> <Gold.Chemscore.Hbond>
1.3618

> <Gold.Chemscore.Metal>
0.0000

> <Gold.Chemscore.Lipo>
92.2953

> <Gold.Chemscore.Internal_Hbond>
0.0000

> <Gold.Chemscore.DEClash>
2.5994

> <Gold.Chemscore.DEInternal>
1.7332

> <Gold.Chemscore.Rot>
2.2988

> <Gold.Chemscore.Internal.Correction>
   9.000000E+99

> <Gold.Chemscore.Hbonds>
donor molecule, donor type, donor heavy atom, donor atom, acceptor molecule, acceptor atom, score
      L1  H    18    45       P1  8028  0.93
      P1  H  7997  8010       L1    11  0.10
      P1  H 10752 10765       L1     2  0.04

> <Gold.Chemscore.Hbond.Weighted>
-4.5485

> <Gold.Chemscore.Metal.Weighted>
-0.0000

> <Gold.Chemscore.Lipo.Weighted>
-10.7986

> <Gold.Chemscore.Internal_Hbond.Weighted>
0.0000

> <Gold.Chemscore.DEClash.Weighted>
2.5994

> <Gold.Chemscore.DEInternal.Weighted>
1.7332

> <Gold.Chemscore.Rot.Weighted>
5.8850

> <Gold.Chemscore.Internal.Correction.Weighted>
   9.000000E+99

> <Gold.Protein.RotatedTorsions>
[ 6907 6896 6895 6894 ] final  -36.39 input  -60.11 | X-H torsion
[ 7974 7965 7964 7962 ] final  -32.76 input  175.53 | X-H torsion
[ 8008 7997 7996 7995 ] final    6.22 input   59.86 | X-H torsion
[ 10167 10162 10161 10158 ] final  115.86 input  -65.29 | X-H torsion
[ 10718 10713 10712 10709 ] final   62.39 input   66.30 | X-H torsion
[ 10763 10752 10751 10750 ] final  177.59 input  -60.55 | X-H torsion
[ 11005 11000 10999 10996 ] final  -49.24 input  -57.11 | X-H torsion

> <Gold.Protein.ActiveResidues>
 VAL166  LYS551  ARG553  GLY616  TRP617  ASP618  TYR619  PRO620  LYS621  CYS622 
 ASP623  PHE694  ASN695  SER759  ASP760  ASP761  ALA762  ILE779  LEU786  VAL792 
 PHE793  MET794  SER795  GLU796  ALA797  LYS798  CYS799  TRP800  GLU811  SER814 

> <Gold.Protein.RotatedAtoms>
  151.0277  134.9516  159.8094 H   0  0  0  0  0  0  0  0  0  0  0  0  # atno 6907 bound_to 6896
  152.5339  134.2820  159.9021 H   0  0  0  0  0  0  0  0  0  0  0  0  # atno 6908 bound_to 6896
  151.2829  133.4159  159.2662 H   0  0  0  0  0  0  0  0  0  0  0  0  # atno 6909 bound_to 6896
  146.0964  140.5832  142.8841 H   0  0  0  0  0  0  0  0  0  0  0  0  # atno 7974 bound_to 7965
  154.7382  140.2744  155.6396 H   0  0  0  0  0  0  0  0  0  0  0  0  # atno 8008 bound_to 7997
  156.2867  140.2702  156.2028 H   0  0  0  0  0  0  0  0  0  0  0  0  # atno 8009 bound_to 7997
  155.0292  140.0371  157.2457 H   0  0  0  0  0  0  0  0  0  0  0  0  # atno 8010 bound_to 7997
  139.6287  144.7112  151.2477 H   0  0  0  0  0  0  0  0  0  0  0  0  # atno 10167 bound_to 10162
  157.5897  130.9047  149.9582 H   0  0  0  0  0  0  0  0  0  0  0  0  # atno 10718 bound_to 10713
  154.4965  135.2781  155.1455 H   0  0  0  0  0  0  0  0  0  0  0  0  # atno 10763 bound_to 10752
  154.3106  135.6230  153.5467 H   0  0  0  0  0  0  0  0  0  0  0  0  # atno 10764 bound_to 10752
  152.9895  135.5719  154.5398 H   0  0  0  0  0  0  0  0  0  0  0  0  # atno 10765 bound_to 10752
  141.0748  133.6669  156.3557 H   0  0  0  0  0  0  0  0  0  0  0  0  # atno 11005 bound_to 11000
  144.7399  140.4913  143.6877 LP  0  0  0  0  0  0  0  0  0  0  0  0  # atno 17320 bound_to 7965
  145.5939  139.1498  143.3167 LP  0  0  0  0  0  0  0  0  0  0  0  0  # atno 17321 bound_to 7965
  140.7426  143.6519  150.8241 LP  0  0  0  0  0  0  0  0  0  0  0  0  # atno 17342 bound_to 10162
  140.0141  143.5611  152.2827 LP  0  0  0  0  0  0  0  0  0  0  0  0  # atno 17343 bound_to 10162
  156.0950  130.3660  150.0323 LP  0  0  0  0  0  0  0  0  0  0  0  0  # atno 17370 bound_to 10713
  156.8448  130.9438  151.3629 LP  0  0  0  0  0  0  0  0  0  0  0  0  # atno 17371 bound_to 10713
  140.5598  134.5946  157.5430 LP  0  0  0  0  0  0  0  0  0  0  0  0  # atno 17394 bound_to 11000
  139.9560  134.7534  156.0341 LP  0  0  0  0  0  0  0  0  0  0  0  0  # atno 17395 bound_to 11000

$$$$
