#       Name:                AV-unprocessed.smi:47
#       Creating user name   scv26
#       Creation time:       Thu Mar 26 16:31:17 2020


#       File generated by GOLD software.
#

@<TRIPOS>MOLECULE
AV-unprocessed.smi:47
    36    38     1
SMALL
NO_CHARGES


@<TRIPOS>ATOM
      1 ****        -4.3075   1.1286  -2.8388 O.3            1 S1                 0.0000
      2 ****        -3.9187   0.8399  -1.5127 C.3            1 S1                 0.0000
      3 ****        -3.7398   2.0995  -0.6700 C.3            1 S1                 0.0000
      4 ****        -2.8478   1.7200   0.4228 N.3            1 S1                 0.0000
      5 ****        -2.1308   0.5011   0.0270 C.3            1 S1                 0.0000
      6 ****        -0.6255   0.5923   0.1955 C.2            1 S1                 0.0000
      7 ****         0.1109   1.7067   0.0092 N.2            1 S1                 0.0000
      8 ****         1.3662   1.3572   0.2183 N.pl3          1 S1                -1.0000
      9 ****         1.3808   0.0484   0.5133 C.2            1 S1                 0.0000
     10 ****         2.6330  -0.6814   0.8008 C.ar           1 S1                 0.0000
     11 ****         2.6106  -2.0749   1.0415 C.ar           1 S1                 0.0000
     12 ****         3.7962  -2.7842   1.3162 C.ar           1 S1                 0.0000
     13 ****         5.0284  -2.1072   1.3555 C.ar           1 S1                 0.0000
     14 ****         5.0698  -0.7212   1.1196 C.ar           1 S1                 0.0000
     15 ****         3.8815  -0.0166   0.8447 C.ar           1 S1                 0.0000
     16 ****         0.1552  -0.4564   0.4993 N.2            1 S1                 0.0000
     17 ****        -2.5411   0.2006  -1.4202 C.3            1 S1                 0.0000
     18 ****        -4.6619   0.1873  -1.0521 H              1 S1                 0.0000
     19 ****        -2.4828  -0.3173   0.6560 H              1 S1                 0.0000
     20 ****        -4.3465   0.3179  -3.3226 H              1 S1                 0.0000
     21 ****        -3.2616   2.8762  -1.2683 H              1 S1                 0.0000
     22 ****        -4.6857   2.4998  -0.3050 H              1 S1                 0.0000
     23 ****        -3.4089   1.5067   1.2406 H              1 S1                 0.0000
     24 ****         1.6741  -2.6124   1.0155 H              1 S1                 0.0000
     25 ****         3.7583  -3.8483   1.4965 H              1 S1                 0.0000
     26 ****         5.9386  -2.6492   1.5661 H              1 S1                 0.0000
     27 ****         6.0133  -0.1964   1.1490 H              1 S1                 0.0000
     28 ****         3.9373   1.0473   0.6672 H              1 S1                 0.0000
     29 ****        -2.5343  -0.8644  -1.6538 H              1 S1                 0.0000
     30 ****        -1.8603   0.7003  -2.1123 H              1 S1                 0.0000
     31 ****        -3.6393   1.7414  -3.2605 LP             1 S1                 0.0000
     32 ****        -5.2071   1.5654  -2.8392 LP             1 S1                 0.0000
     33 ****        -2.2068   2.4608   0.6235 LP             1 S1                 0.0000
     34 ****        -0.2265   2.6151  -0.2377 LP             1 S1                 0.0000
     35 ****         2.1629   1.9593   0.1663 LP             1 S1                 0.0000
     36 ****        -0.1235  -1.4007   0.6747 LP             1 S1                 0.0000
@<TRIPOS>BOND
    1    1    2 1     
    2    1   20 1     
    3    2   18 1     
    4    2   17 1     
    5    2    3 1     
    6    3    4 1     
    7    3   21 1     
    8    3   22 1     
    9    4    5 1     
   10    4   23 1     
   11    5   19 1     
   12    5    6 1     
   13    5   17 1     
   14    6   16 1     
   15    6    7 2     
   16    7    8 1     
   17    8    9 1     
   18    9   10 1     
   19    9   16 2     
   20   10   15 ar    
   21   10   11 ar    
   22   11   12 ar    
   23   11   24 1     
   24   12   13 ar    
   25   12   25 1     
   26   13   14 ar    
   27   13   26 1     
   28   14   15 ar    
   29   14   27 1     
   30   15   28 1     
   31   17   29 1     
   32   17   30 1     
   33    1   31 1     
   34    1   32 1     
   35    4   33 1     
   36    7   34 1     
   37    8   35 1     
   38   16   36 1     
@<TRIPOS>SUBSTRUCTURE
      1 S1             1
@<TRIPOS>SET
LONE_PAIRS      STATIC     ATOMS    <user>   **** ""
6 31 32 33 34 35 36
DONOR_HYDROGENS      STATIC     ATOMS    <user>   **** ""
2 20 23
ATOM$BLUE        STATIC     ATOMS    COLORGROUP SYSTEM
6 31 32 33 34 35 36
ATOM$RED        STATIC     ATOMS    COLORGROUP SYSTEM
2 20 23
