#       Name:                AV-unprocessed.smi:21
#       Creating user name   scv26
#       Creation time:       Thu Mar 26 15:40:25 2020


#       File generated by GOLD software.
#

@<TRIPOS>MOLECULE
AV-unprocessed.smi:21
    71    74     1
SMALL
NO_CHARGES


@<TRIPOS>ATOM
      1 ****        -3.7479  -4.8856  -0.8527 C.3            1 S1                 0.0000
      2 ****        -3.3156  -3.5610  -0.5858 O.3            1 S1                 0.0000
      3 ****        -3.4121  -3.1995   0.7848 C.3            1 S1                 0.0000
      4 ****        -2.7209  -1.8493   1.0330 C.3            1 S1                 0.0000
      5 ****        -3.8452  -0.9194   1.5172 C.3            1 S1                 0.0000
      6 ****        -3.3549   0.2148   2.4430 C.3            1 S1                 0.0000
      7 ****        -2.4976   1.1770   1.7443 N.pl3          1 S1                 0.0000
      8 ****        -3.1383   2.1075   0.8230 C.3            1 S1                 0.0000
      9 ****        -1.1383   1.0463   1.7545 C.ar           1 S1                 0.0000
     10 ****        -0.5705   0.2893   2.7319 N.ar           1 S1                 0.0000
     11 ****         0.7521   0.1225   2.7965 C.ar           1 S1                 0.0000
     12 ****         1.6930   0.6194   1.9951 N.ar           1 S1                 0.0000
     13 ****         1.1442   1.3846   1.0103 C.ar           1 S1                 0.0000
     14 ****        -0.2441   1.6502   0.8144 C.ar           1 S1                 0.0000
     15 ****        -0.3979   2.4660  -0.3037 N.2            1 S1                 0.0000
     16 ****         0.8157   2.6704  -0.7350 C.2            1 S1                 0.0000
     17 ****         1.8036   2.0528  -0.0065 N.pl3          1 S1                 0.0000
     18 ****         3.2329   2.1124  -0.2618 C.3            1 S1                 0.0000
     19 ****         3.6724   1.2943  -1.5025 C.3            1 S1                 0.0000
     20 ****         3.2746  -0.1977  -1.3597 C.3            1 S1                 0.0000
     21 ****         3.2672  -0.8601  -2.6069 O.3            1 S1                 0.0000
     22 ****         5.1951   1.4785  -1.7525 C.3            1 S1                 0.0000
     23 ****         5.7402   0.8429  -3.0204 C.3            1 S1                 0.0000
     24 ****         7.0662   1.5701  -3.2065 C.3            1 S1                 0.0000
     25 ****         6.8483   2.8866  -2.7157 O.3            1 S1                 0.0000
     26 ****         5.6370   2.9319  -1.9681 C.3            1 S1                 0.0000
     27 ****        -4.8233  -1.8123   2.1179 N.3            1 S1                 0.0000
     28 ****        -6.1371  -1.2098   2.3022 C.3            1 S1                 0.0000
     29 ****        -4.8641  -2.9414   1.2100 C.3            1 S1                 0.0000
     30 ****        -2.9503  -3.9585   1.4192 H              1 S1                 0.0000
     31 ****        -4.2988  -0.4694   0.6319 H              1 S1                 0.0000
     32 ****        -3.6358  -5.0979  -1.9159 H              1 S1                 0.0000
     33 ****        -4.7978  -5.0258  -0.5940 H              1 S1                 0.0000
     34 ****        -3.1515  -5.6137  -0.3015 H              1 S1                 0.0000
     35 ****        -1.9604  -1.9722   1.8047 H              1 S1                 0.0000
     36 ****        -2.2268  -1.4560   0.1437 H              1 S1                 0.0000
     37 ****        -4.2112   0.7722   2.8216 H              1 S1                 0.0000
     38 ****        -2.8808  -0.2021   3.3312 H              1 S1                 0.0000
     39 ****        -2.7196   3.1087   0.9282 H              1 S1                 0.0000
     40 ****        -4.2081   2.1774   1.0210 H              1 S1                 0.0000
     41 ****        -3.0137   1.7755  -0.2081 H              1 S1                 0.0000
     42 ****         1.1057  -0.4982   3.6064 H              1 S1                 0.0000
     43 ****         1.0250   3.2777  -1.6037 H              1 S1                 0.0000
     44 ****         3.4903   3.1649  -0.3797 H              1 S1                 0.0000
     45 ****         3.7641   1.7651   0.6250 H              1 S1                 0.0000
     46 ****         3.1351   1.7020  -2.3603 H              1 S1                 0.0000
     47 ****         3.9460  -0.7142  -0.6729 H              1 S1                 0.0000
     48 ****         2.2693  -0.3098  -0.9565 H              1 S1                 0.0000
     49 ****         3.0120  -1.7596  -2.4683 H              1 S1                 0.0000
     50 ****         5.7492   1.0740  -0.9036 H              1 S1                 0.0000
     51 ****         5.8728  -0.2361  -2.9408 H              1 S1                 0.0000
     52 ****         5.0803   1.0472  -3.8647 H              1 S1                 0.0000
     53 ****         7.8455   1.0994  -2.6060 H              1 S1                 0.0000
     54 ****         7.3966   1.5791  -4.2453 H              1 S1                 0.0000
     55 ****         4.8970   3.4784  -2.5545 H              1 S1                 0.0000
     56 ****         5.7838   3.4661  -1.0291 H              1 S1                 0.0000
     57 ****        -6.8422  -1.9425   2.6960 H              1 S1                 0.0000
     58 ****        -6.5349  -0.8297   1.3604 H              1 S1                 0.0000
     59 ****        -6.0937  -0.3837   3.0116 H              1 S1                 0.0000
     60 ****        -5.4575  -2.6847   0.3305 H              1 S1                 0.0000
     61 ****        -5.3230  -3.8148   1.6747 H              1 S1                 0.0000
     62 ****        -3.8787  -2.9304  -1.1200 LP             1 S1                 0.0000
     63 ****        -2.3603  -3.4765  -0.8691 LP             1 S1                 0.0000
     64 ****        -1.1547  -0.1501   3.4143 LP             1 S1                 0.0000
     65 ****         2.6732   0.4527   2.1021 LP             1 S1                 0.0000
     66 ****        -1.2506   2.8174  -0.6904 LP             1 S1                 0.0000
     67 ****         4.1812  -0.8275  -3.0113 LP             1 S1                 0.0000
     68 ****         2.6150  -0.4155  -3.2209 LP             1 S1                 0.0000
     69 ****         6.7863   3.5214  -3.4859 LP             1 S1                 0.0000
     70 ****         7.6116   3.1511  -2.1263 LP             1 S1                 0.0000
     71 ****        -4.5610  -2.0657   3.0490 LP             1 S1                 0.0000
@<TRIPOS>BOND
    1    1    2 1     
    2    1   32 1     
    3    1   33 1     
    4    1   34 1     
    5    2    3 1     
    6    3   30 1     
    7    3   29 1     
    8    3    4 1     
    9    4    5 1     
   10    4   35 1     
   11    4   36 1     
   12    5   31 1     
   13    5    6 1     
   14    5   27 1     
   15    6    7 1     
   16    6   37 1     
   17    6   38 1     
   18    7    8 1     
   19    7    9 1     
   20    8   39 1     
   21    8   40 1     
   22    8   41 1     
   23    9   14 ar    
   24    9   10 ar    
   25   10   11 ar    
   26   11   12 ar    
   27   11   42 1     
   28   12   13 ar    
   29   13   17 1     
   30   13   14 ar    
   31   14   15 1     
   32   15   16 2     
   33   16   17 1     
   34   16   43 1     
   35   17   18 1     
   36   18   19 1     
   37   18   44 1     
   38   18   45 1     
   39   19   20 1     
   40   19   22 1     
   41   19   46 1     
   42   20   21 1     
   43   20   47 1     
   44   20   48 1     
   45   21   49 1     
   46   22   26 1     
   47   22   23 1     
   48   22   50 1     
   49   23   24 1     
   50   23   51 1     
   51   23   52 1     
   52   24   25 1     
   53   24   53 1     
   54   24   54 1     
   55   25   26 1     
   56   26   55 1     
   57   26   56 1     
   58   27   28 1     
   59   27   29 1     
   60   28   57 1     
   61   28   58 1     
   62   28   59 1     
   63   29   60 1     
   64   29   61 1     
   65    2   62 1     
   66    2   63 1     
   67   10   64 1     
   68   12   65 1     
   69   15   66 1     
   70   21   67 1     
   71   21   68 1     
   72   25   69 1     
   73   25   70 1     
   74   27   71 1     
@<TRIPOS>SUBSTRUCTURE
      1 S1             1
@<TRIPOS>SET
LONE_PAIRS      STATIC     ATOMS    <user>   **** ""
10 62 63 64 65 66 67 68 69 70 71
DONOR_HYDROGENS      STATIC     ATOMS    <user>   **** ""
1 49
ATOM$BLUE        STATIC     ATOMS    COLORGROUP SYSTEM
10 62 63 64 65 66 67 68 69 70 71
ATOM$RED        STATIC     ATOMS    COLORGROUP SYSTEM
1 49
