AV-unprocessed.smi:1740|AV-procd|sdf|7014|dock3
  -GOLD-   22720 8233D 1   1.00000     0.00000
 Structure written by MMmdl.
 52 54  0  0  0  0  0  0  0  0  4 V2000
  146.0702  130.7707  151.0451 N   0  5  0  0  0  0  0  0  0  0  0  0
  145.3954  131.7870  150.4708 C   0  0  0  0  0  0  0  0  0  0  0  0
  145.5812  132.2872  149.3641 O   0  0  0  0  0  0  0  0  0  0  0  0
  144.2777  132.3272  151.3697 C   0  0  0  0  0  0  0  0  0  0  0  0
  144.5740  133.7159  151.8054 N   0  3  2  0  0  0  0  0  0  0  0  0
  143.6089  134.2347  152.8121 C   0  0  0  0  0  0  0  0  0  0  0  0
  144.0297  135.6225  153.3247 C   0  0  0  0  0  0  0  0  0  0  0  0
  144.1909  136.6179  152.1615 C   0  0  1  0  0  0  0  0  0  0  0  0
  144.6762  137.9091  152.6405 N   0  0  0  0  0  0  0  0  0  0  0  0
  145.8416  138.1098  153.2721 C   0  0  0  0  0  0  0  0  0  0  0  0
  146.6553  137.2153  153.5016 O   0  0  0  0  0  0  0  0  0  0  0  0
  146.0034  139.4032  153.5978 N   0  0  0  0  0  0  0  0  0  0  0  0
  147.1143  140.0115  154.2491 C   0  0  0  0  0  0  0  0  0  0  0  0
  148.3050  139.2833  154.5052 C   0  0  0  0  0  0  0  0  0  0  0  0
  149.3594  139.8866  155.2160 C   0  0  0  0  0  0  0  0  0  0  0  0
  149.2027  141.2051  155.6760 C   0  0  0  0  0  0  0  0  0  0  0  0
  148.0542  141.8673  155.4276 N   0  3  0  0  0  0  0  0  0  0  0  0
  147.0092  141.3471  154.7361 C   0  0  0  0  0  0  0  0  0  0  0  0
  145.8728  142.1656  154.5439 N   0  0  0  0  0  0  0  0  0  0  0  0
  145.0558  142.5755  155.6804 C   0  0  0  0  0  0  0  0  0  0  0  0
  144.1782  143.7059  155.1495 C   0  0  0  0  0  0  0  0  0  0  0  0
  145.1045  144.4012  154.1564 C   0  0  0  0  0  0  0  0  0  0  0  0
  145.9377  143.2547  153.5743 C   0  0  0  0  0  0  0  0  0  0  0  0
  145.1717  136.0415  151.1284 C   0  0  0  0  0  0  0  0  0  0  0  0
  144.7264  134.6465  150.6586 C   0  0  0  0  0  0  0  0  0  0  0  0
  147.0411  130.5998  150.7564 H   0  0  0  0  0  0  0  0  0  0  0  0
  143.3476  132.2977  150.7993 H   0  0  0  0  0  0  0  0  0  0  0  0
  144.1315  131.6797  152.2357 H   0  0  0  0  0  0  0  0  0  0  0  0
  142.6130  134.2863  152.3694 H   0  0  0  0  0  0  0  0  0  0  0  0
  143.5417  133.5491  153.6574 H   0  0  0  0  0  0  0  0  0  0  0  0
  143.2885  135.9887  154.0361 H   0  0  0  0  0  0  0  0  0  0  0  0
  144.9689  135.5358  153.8733 H   0  0  0  0  0  0  0  0  0  0  0  0
  143.2236  136.7572  151.6741 H   0  0  0  0  0  0  0  0  0  0  0  0
  144.0734  138.7045  152.4884 H   0  0  0  0  0  0  0  0  0  0  0  0
  145.2964  140.0392  153.2589 H   0  0  0  0  0  0  0  0  0  0  0  0
  148.4191  138.2579  154.1878 H   0  0  0  0  0  0  0  0  0  0  0  0
  150.2693  139.3399  155.4167 H   0  0  0  0  0  0  0  0  0  0  0  0
  149.9526  141.7454  156.2355 H   0  0  0  0  0  0  0  0  0  0  0  0
  144.4601  141.7463  156.0636 H   0  0  0  0  0  0  0  0  0  0  0  0
  145.6853  142.9504  156.4886 H   0  0  0  0  0  0  0  0  0  0  0  0
  143.3135  143.2947  154.6265 H   0  0  0  0  0  0  0  0  0  0  0  0
  143.8168  144.3698  155.9353 H   0  0  0  0  0  0  0  0  0  0  0  0
  144.5667  144.9647  153.3935 H   0  0  0  0  0  0  0  0  0  0  0  0
  145.7560  145.0953  154.6891 H   0  0  0  0  0  0  0  0  0  0  0  0
  146.9626  143.5706  153.3750 H   0  0  0  0  0  0  0  0  0  0  0  0
  145.4979  142.9146  152.6366 H   0  0  0  0  0  0  0  0  0  0  0  0
  145.2494  136.7107  150.2706 H   0  0  0  0  0  0  0  0  0  0  0  0
  146.1716  135.9743  151.5605 H   0  0  0  0  0  0  0  0  0  0  0  0
  145.4669  134.2519  149.9617 H   0  0  0  0  0  0  0  0  0  0  0  0
  143.7823  134.7137  150.1158 H   0  0  0  0  0  0  0  0  0  0  0  0
  145.4768  133.6650  152.2571 H   0  0  0  0  0  0  0  0  0  0  0  0
  147.9703  142.8223  155.7761 H   0  0  0  0  0  0  0  0  0  0  0  0
  1  2  1  0  0  0  0
  1 26  1  0  0  0  0
  2  3  2  0  0  0  0
  2  4  1  0  0  0  0
  4  5  1  0  0  0  0
  4 27  1  0  0  0  0
  4 28  1  0  0  0  0
  5 25  1  0  0  0  0
  5  6  1  0  0  0  0
  5 51  1  0  0  0  0
  6  7  1  0  0  0  0
  6 29  1  0  0  0  0
  6 30  1  0  0  0  0
  7  8  1  0  0  0  0
  7 31  1  0  0  0  0
  7 32  1  0  0  0  0
  8  9  1  0  0  0  0
  8 24  1  0  0  0  0
  8 33  1  0  0  0  0
  9 10  1  0  0  0  0
  9 34  1  0  0  0  0
 10 11  2  0  0  0  0
 10 12  1  0  0  0  0
 12 13  1  0  0  0  0
 12 35  1  0  0  0  0
 13 18  1  0  0  0  0
 13 14  2  0  0  0  0
 14 15  1  0  0  0  0
 14 36  1  0  0  0  0
 15 16  2  0  0  0  0
 15 37  1  0  0  0  0
 16 17  1  0  0  0  0
 16 38  1  0  0  0  0
 17 18  2  0  0  0  0
 17 52  1  0  0  0  0
 18 19  1  0  0  0  0
 19 23  1  0  0  0  0
 19 20  1  0  0  0  0
 20 21  1  0  0  0  0
 20 39  1  0  0  0  0
 20 40  1  0  0  0  0
 21 22  1  0  0  0  0
 21 41  1  0  0  0  0
 21 42  1  0  0  0  0
 22 23  1  0  0  0  0
 22 43  1  0  0  0  0
 22 44  1  0  0  0  0
 23 45  1  0  0  0  0
 23 46  1  0  0  0  0
 24 25  1  0  0  0  0
 24 47  1  0  0  0  0
 24 48  1  0  0  0  0
 25 49  1  0  0  0  0
 25 50  1  0  0  0  0
M  CHG  1   1  -1
M  CHG  1   5   1
M  CHG  1  17   1
M  END
> <s_m_source_file>
AV-unprocessed.smi

> <i_m_source_file_index>
1740

> <i_lp_mmshare_version>
43012

> <i_f3d_flags>
0

> <s_epik_input>
W05IMl1DKD1PKVtDSDJdTjFbQ0gyXVtDSDJdW0NIXShbQ0gyXVtDSDJdMSlbTkhdQyg9TylbTkhdYzJbY0hdW2NIXVtjSF1uYzJOM1tDSDJdW0NIMl1bQ0gyXVtDSDJdMw==

> <s_epik_cmdline>
J2VwaWtfcHl0aG9uJywgJy1waCcsICc3LjAnLCAnLXRuJywgJzgnLCAnLW1hJywgJzIwMCcsICctbWV0YWxfYmluZGluZycsICctaW1hZScsICc8aW5maWxlLm1hZT4nLCAnLW9tYWUnLCAnPG91dGZpbGUubWFlPic=

> <r_lp_tautomer_probability>
0.999994

> <r_epik_Ionization_Penalty>
6.97817

> <r_epik_Ionization_Penalty_Charging>
6.97815

> <r_epik_Ionization_Penalty_Neutral>
1.88285e-05

> <r_epik_State_Penalty>
7.80985

> <r_epik_Charging_Adjusted_Penalty>
14.788

> <i_epik_Tot_Q>
1

> <i_epik_Tot_abs_Q>
3

> <r_epik_Metal_State_Penalty>
3.85728

> <b_epik_Metal_Only>
1

> <s_lp_Force_Field>
OPLS_2005

> <r_lp_Energy>
44.3343

> <b_lp_Chiralities_Consistent>
1

> <s_lp_Variant>
AV-unprocessed.smi:1740-9

> <Gold.Version>
5.8.1

> <Gold.Id.Protein>
6NUR|6NUR_protein|mol2

> <Gold.PLP.Fitness>
54.3652

> <Gold.PLP.PLP>
-39.4823

> <Gold.PLP.part.hbond>
-5.0000

> <Gold.PLP.part.metal>
0.0000

> <Gold.PLP.part.buried>
-7.3125

> <Gold.PLP.part.nonpolar>
-30.3850

> <Gold.PLP.part.repulsive>
2.9864

> <Gold.PLP.ligand.clash>
0.0000

> <Gold.PLP.ligand.torsion>
0.2860

> <Gold.PLP.Chemscore.Hbond>
5.0000

> <Gold.PLP.Chemscore.CHOScore>
0.0000

> <Gold.PLP.Chemscore.Metal>
0.0000

> <Gold.Chemscore.Hbonds>
donor molecule, donor type, donor heavy atom, donor atom, acceptor molecule, acceptor atom, score
      L1  H     1    26       P1 10747  1.00
      L1  H     9    34       P1 10175  1.00
      L1  H    12    35       P1 10175  1.00
      L1  H    17    52       P1  8028  1.43

> <Gold.PLP.Chemscore.Internal.Correction>
0.4548

> <Gold.Rescore>
     Score         DG    S(hbond)    S(metal)    S(lipo)     H(rot)  DE(clash)    DE(int)     intcor
     16.71     -21.39       3.72        0.00      77.42       2.18       1.56       3.12       ----

> <Gold.Chemscore.Fitness>
16.7145

> <Gold.Chemscore.DG>
-21.3901

> <Gold.Chemscore.ZeroCoef>
-5.4800

> <Gold.Chemscore.Hbond>
3.7248

> <Gold.Chemscore.Metal>
0.0000

> <Gold.Chemscore.Lipo>
77.4216

> <Gold.Chemscore.Internal_Hbond>
0.0000

> <Gold.Chemscore.DEClash>
1.5596

> <Gold.Chemscore.DEInternal>
3.1160

> <Gold.Chemscore.Rot>
2.1832

> <Gold.Chemscore.Internal.Correction>
   9.000000E+99

> <Gold.Chemscore.Hbonds>
donor molecule, donor type, donor heavy atom, donor atom, acceptor molecule, acceptor atom, score
      L1  H     1    26       P1 10747  0.96
      L1  H     9    34       P1 10175  0.99
      L1  H    12    35       P1 10175  0.98
      L1  H    17    52       P1  8028  0.56

> <Gold.Chemscore.Hbond.Weighted>
-12.4409

> <Gold.Chemscore.Metal.Weighted>
-0.0000

> <Gold.Chemscore.Lipo.Weighted>
-9.0583

> <Gold.Chemscore.Internal_Hbond.Weighted>
0.0000

> <Gold.Chemscore.DEClash.Weighted>
1.5596

> <Gold.Chemscore.DEInternal.Weighted>
3.1160

> <Gold.Chemscore.Rot.Weighted>
5.5891

> <Gold.Chemscore.Internal.Correction.Weighted>
   9.000000E+99

> <Gold.Protein.RotatedTorsions>
[ 6907 6896 6895 6894 ] final  139.29 input  -60.11 | X-H torsion
[ 7974 7965 7964 7962 ] final   85.58 input  175.53 | X-H torsion
[ 8008 7997 7996 7995 ] final  -90.70 input   59.86 | X-H torsion
[ 10167 10162 10161 10158 ] final   78.44 input  -65.29 | X-H torsion
[ 10718 10713 10712 10709 ] final  -27.13 input   66.30 | X-H torsion
[ 10763 10752 10751 10750 ] final   44.82 input  -60.55 | X-H torsion
[ 11005 11000 10999 10996 ] final -110.75 input  -57.11 | X-H torsion

> <Gold.Protein.ActiveResidues>
 VAL166  LYS551  ARG553  GLY616  TRP617  ASP618  TYR619  PRO620  LYS621  CYS622 
 ASP623  PHE694  ASN695  SER759  ASP760  ASP761  ALA762  ILE779  LEU786  VAL792 
 PHE793  MET794  SER795  GLU796  ALA797  LYS798  CYS799  TRP800  GLU811  SER814 

> <Gold.Protein.RotatedAtoms>
  152.2566  133.5261  159.5356 H   0  0  0  0  0  0  0  0  0  0  0  0  # atno 6907 bound_to 6896
  150.7111  134.0887  159.3933 H   0  0  0  0  0  0  0  0  0  0  0  0  # atno 6908 bound_to 6896
  151.8805  135.0455  160.0539 H   0  0  0  0  0  0  0  0  0  0  0  0  # atno 6909 bound_to 6896
  145.5837  139.2328  143.2338 H   0  0  0  0  0  0  0  0  0  0  0  0  # atno 7974 bound_to 7965
  154.7017  140.0527  157.0465 H   0  0  0  0  0  0  0  0  0  0  0  0  # atno 8008 bound_to 7997
  155.0675  140.3196  155.4622 H   0  0  0  0  0  0  0  0  0  0  0  0  # atno 8009 bound_to 7997
  156.2762  140.2088  156.5803 H   0  0  0  0  0  0  0  0  0  0  0  0  # atno 8010 bound_to 7997
  139.9709  144.5895  150.7986 H   0  0  0  0  0  0  0  0  0  0  0  0  # atno 10167 bound_to 10162
  156.4422  130.4466  149.7045 H   0  0  0  0  0  0  0  0  0  0  0  0  # atno 10718 bound_to 10713
  152.9834  135.6059  154.3336 H   0  0  0  0  0  0  0  0  0  0  0  0  # atno 10763 bound_to 10752
  154.3038  135.2772  155.2600 H   0  0  0  0  0  0  0  0  0  0  0  0  # atno 10764 bound_to 10752
  154.4841  135.5909  153.6467 H   0  0  0  0  0  0  0  0  0  0  0  0  # atno 10765 bound_to 10752
  141.0774  133.9278  157.2361 H   0  0  0  0  0  0  0  0  0  0  0  0  # atno 11005 bound_to 11000
  146.1698  140.6663  142.9238 LP  0  0  0  0  0  0  0  0  0  0  0  0  # atno 17320 bound_to 7965
  144.7382  140.4869  143.6888 LP  0  0  0  0  0  0  0  0  0  0  0  0  # atno 17321 bound_to 7965
  140.7522  143.2986  151.3139 LP  0  0  0  0  0  0  0  0  0  0  0  0  # atno 17342 bound_to 10162
  139.6482  144.0412  152.2606 LP  0  0  0  0  0  0  0  0  0  0  0  0  # atno 17343 bound_to 10162
  156.3905  130.7625  151.2625 LP  0  0  0  0  0  0  0  0  0  0  0  0  # atno 17370 bound_to 10713
  157.7506  131.0269  150.3983 LP  0  0  0  0  0  0  0  0  0  0  0  0  # atno 17371 bound_to 10713
  139.9586  135.0159  156.9199 LP  0  0  0  0  0  0  0  0  0  0  0  0  # atno 17394 bound_to 11000
  140.5544  134.0596  155.7379 LP  0  0  0  0  0  0  0  0  0  0  0  0  # atno 17395 bound_to 11000

$$$$
