#       Name:                AV-unprocessed.smi:3350
#       Creating user name   scv26
#       Creation time:       Fri Mar 27 19:37:32 2020


#       File generated by GOLD software.
#

@<TRIPOS>MOLECULE
AV-unprocessed.smi:3350
    46    47     1
SMALL
NO_CHARGES


@<TRIPOS>ATOM
      1 ****        -3.0440  -2.6138   2.3230 C.3            1 S1                 0.0000
      2 ****        -2.5521  -1.5866   1.2944 C.3            1 S1                 0.0000
      3 ****        -2.9189  -2.0098  -0.1442 C.3            1 S1                 0.0000
      4 ****        -2.5433  -1.0147  -1.1345 N.pl3          1 S1                 0.0000
      5 ****        -3.1315   0.2062  -1.3891 C.2            1 S1                 0.0000
      6 ****        -2.4204   0.7985  -2.3931 C.2            1 S1                 0.0000
      7 ****        -1.4063  -0.1526  -2.6950 C.2            1 S1                 0.0000
      8 ****        -1.4832  -1.2375  -1.9419 N.2            1 S1                 0.0000
      9 ****        -1.1051  -1.4253   1.4325 N.am           1 S1                 0.0000
     10 ****        -0.4475  -0.2571   1.3986 C.2            1 S1                 0.0000
     11 ****        -0.9954   0.8432   1.3257 O.2            1 S1                 0.0000
     12 ****         0.8805  -0.4363   1.4176 N.am           1 S1                 0.0000
     13 ****         1.8784   0.6236   1.2961 C.3            1 S1                 0.0000
     14 ****         3.1080   0.2316   2.1298 C.3            1 S1                 0.0000
     15 ****         2.2291   0.8514  -0.1909 C.3            1 S1                 0.0000
     16 ****         3.2369   1.9756  -0.4470 C.3            1 S1                 0.0000
     17 ****         2.8866   2.4824  -1.8394 C.3            1 S1                 0.0000
     18 ****         1.5696   1.7810  -2.1717 C.3            1 S1                 0.0000
     19 ****         1.0984   1.3002  -0.9234 O.3            1 S1                 0.0000
     20 ****        -4.1256  -2.7385   2.2647 H              1 S1                 0.0000
     21 ****        -2.8045  -2.2987   3.3392 H              1 S1                 0.0000
     22 ****        -2.5870  -3.5906   2.1595 H              1 S1                 0.0000
     23 ****        -3.0544  -0.6435   1.5166 H              1 S1                 0.0000
     24 ****        -2.4465  -2.9614  -0.3949 H              1 S1                 0.0000
     25 ****        -3.9952  -2.1676  -0.2241 H              1 S1                 0.0000
     26 ****        -3.9916   0.5510  -0.8344 H              1 S1                 0.0000
     27 ****        -2.5957   1.7648  -2.8416 H              1 S1                 0.0000
     28 ****        -0.6202  -0.0862  -3.4326 H              1 S1                 0.0000
     29 ****        -0.5597  -2.2723   1.4942 H              1 S1                 0.0000
     30 ****         1.2292  -1.3819   1.4728 H              1 S1                 0.0000
     31 ****         1.4766   1.5493   1.7125 H              1 S1                 0.0000
     32 ****         3.8621   1.0188   2.1216 H              1 S1                 0.0000
     33 ****         3.5729  -0.6783   1.7488 H              1 S1                 0.0000
     34 ****         2.8355   0.0557   3.1707 H              1 S1                 0.0000
     35 ****         2.5893  -0.0759  -0.6414 H              1 S1                 0.0000
     36 ****         3.0998   2.7808   0.2761 H              1 S1                 0.0000
     37 ****         4.2690   1.6318  -0.3729 H              1 S1                 0.0000
     38 ****         2.7648   3.5660  -1.8302 H              1 S1                 0.0000
     39 ****         3.6564   2.2369  -2.5715 H              1 S1                 0.0000
     40 ****         0.8439   2.4444  -2.6424 H              1 S1                 0.0000
     41 ****         1.7418   0.9350  -2.8385 H              1 S1                 0.0000
     42 ****        -0.8898  -2.0420  -1.9650 LP             1 S1                 0.0000
     43 ****        -1.9929   0.9035   1.2878 LP             1 S1                 0.0000
     44 ****        -0.4429   1.6765   1.3045 LP             1 S1                 0.0000
     45 ****         0.6374   2.0348  -0.4255 LP             1 S1                 0.0000
     46 ****         0.4607   0.5433  -1.0666 LP             1 S1                 0.0000
@<TRIPOS>BOND
    1    1    2 1     
    2    1   20 1     
    3    1   21 1     
    4    1   22 1     
    5    2    3 1     
    6    2    9 1     
    7    2   23 1     
    8    3    4 1     
    9    3   24 1     
   10    3   25 1     
   11    4    8 1     
   12    4    5 1     
   13    5    6 2     
   14    5   26 1     
   15    6    7 1     
   16    6   27 1     
   17    7    8 2     
   18    7   28 1     
   19    9   10 am    
   20    9   29 1     
   21   10   11 2     
   22   10   12 am    
   23   12   13 1     
   24   12   30 1     
   25   13   14 1     
   26   13   15 1     
   27   13   31 1     
   28   14   32 1     
   29   14   33 1     
   30   14   34 1     
   31   15   19 1     
   32   15   16 1     
   33   15   35 1     
   34   16   17 1     
   35   16   36 1     
   36   16   37 1     
   37   17   18 1     
   38   17   38 1     
   39   17   39 1     
   40   18   19 1     
   41   18   40 1     
   42   18   41 1     
   43    8   42 1     
   44   11   43 1     
   45   11   44 1     
   46   19   45 1     
   47   19   46 1     
@<TRIPOS>SUBSTRUCTURE
      1 S1             1
@<TRIPOS>SET
LONE_PAIRS      STATIC     ATOMS    <user>   **** ""
5 42 43 44 45 46
DONOR_HYDROGENS      STATIC     ATOMS    <user>   **** ""
2 29 30
ATOM$BLUE        STATIC     ATOMS    COLORGROUP SYSTEM
5 42 43 44 45 46
ATOM$RED        STATIC     ATOMS    COLORGROUP SYSTEM
2 29 30
