AV-unprocessed.smi:1569|AV-procd|sdf|6311|dock1
  -GOLD-   22720 6513D 1   1.00000     0.00000
 Structure written by MMmdl.
 33 34  0  0  0  0  0  0  0  0  1 V2000
  152.7048  144.6907  157.7297 C   0  0  0  0  0  0  0  0  0  0  0  0
  152.6324  144.3143  159.1694 C   0  0  0  0  0  0  0  0  0  0  0  0
  153.1513  143.1883  159.6657 N   0  0  0  0  0  0  0  0  0  0  0  0
  152.9283  143.0530  161.0394 C   0  0  0  0  0  0  0  0  0  0  0  0
  153.4029  141.8235  161.7597 C   0  0  0  0  0  0  0  0  0  0  0  0
  154.2969  140.9065  160.9006 C   0  0  0  0  0  0  0  0  0  0  0  0
  153.5402  140.2117  159.8605 N   0  0  0  0  0  0  0  0  0  0  0  0
  154.0693  139.4298  158.9061 C   0  0  0  0  0  0  0  0  0  0  0  0
  155.2699  139.1614  158.8426 O   0  0  0  0  0  0  0  0  0  0  0  0
  153.0856  138.8829  157.8642 C   0  0  0  0  0  0  0  0  0  0  0  0
  152.3055  139.9405  157.2162 N   0  0  0  0  0  0  0  0  0  0  0  0
  151.2154  140.5578  157.9642 C   0  0  0  0  0  0  0  0  0  0  0  0
  150.7551  142.0629  157.0701 S   0  0  0  0  0  0  0  0  0  0  0  0
  151.6016  141.5350  155.5707 C   0  0  0  0  0  0  0  0  0  0  0  0
  152.5321  140.4041  155.9747 C   0  0  0  0  0  0  0  0  0  0  0  0
  153.4004  139.9845  155.2104 O   0  0  0  0  0  0  0  0  0  0  0  0
  152.2474  144.1137  161.5839 C   0  0  0  0  0  0  0  0  0  0  0  0
  151.8417  145.3100  160.3847 S   0  0  0  0  0  0  0  0  0  0  0  0
  153.4690  144.1052  157.2176 H   0  0  0  0  0  0  0  0  0  0  0  0
  152.9509  145.7480  157.6309 H   0  0  0  0  0  0  0  0  0  0  0  0
  151.7428  144.5078  157.2505 H   0  0  0  0  0  0  0  0  0  0  0  0
  153.9470  142.1087  162.6607 H   0  0  0  0  0  0  0  0  0  0  0  0
  152.5428  141.2504  162.1073 H   0  0  0  0  0  0  0  0  0  0  0  0
  155.1082  141.4885  160.4604 H   0  0  0  0  0  0  0  0  0  0  0  0
  154.7737  140.1600  161.5361 H   0  0  0  0  0  0  0  0  0  0  0  0
  152.5432  140.3700  159.8419 H   0  0  0  0  0  0  0  0  0  0  0  0
  153.6392  138.3016  157.1251 H   0  0  0  0  0  0  0  0  0  0  0  0
  152.3994  138.1863  158.3484 H   0  0  0  0  0  0  0  0  0  0  0  0
  150.3645  139.8776  158.0080 H   0  0  0  0  0  0  0  0  0  0  0  0
  151.5172  140.8021  158.9826 H   0  0  0  0  0  0  0  0  0  0  0  0
  150.8774  141.1719  154.8415 H   0  0  0  0  0  0  0  0  0  0  0  0
  152.1555  142.3649  155.1309 H   0  0  0  0  0  0  0  0  0  0  0  0
  151.9483  144.2561  162.6115 H   0  0  0  0  0  0  0  0  0  0  0  0
  1  2  1  0  0  0  0
  1 19  1  0  0  0  0
  1 20  1  0  0  0  0
  1 21  1  0  0  0  0
  2 18  1  0  0  0  0
  2  3  2  0  0  0  0
  3  4  1  0  0  0  0
  4  5  1  0  0  0  0
  4 17  2  0  0  0  0
  5  6  1  0  0  0  0
  5 22  1  0  0  0  0
  5 23  1  0  0  0  0
  6  7  1  0  0  0  0
  6 24  1  0  0  0  0
  6 25  1  0  0  0  0
  7  8  1  0  0  0  0
  7 26  1  0  0  0  0
  8  9  2  0  0  0  0
  8 10  1  0  0  0  0
 10 11  1  0  0  0  0
 10 27  1  0  0  0  0
 10 28  1  0  0  0  0
 11 15  1  0  0  0  0
 11 12  1  0  0  0  0
 12 13  1  0  0  0  0
 12 29  1  0  0  0  0
 12 30  1  0  0  0  0
 13 14  1  0  0  0  0
 14 15  1  0  0  0  0
 14 31  1  0  0  0  0
 14 32  1  0  0  0  0
 15 16  2  0  0  0  0
 17 18  1  0  0  0  0
 17 33  1  0  0  0  0
M  END
> <s_m_source_file>
AV-unprocessed.smi

> <i_m_source_file_index>
1569

> <i_lp_mmshare_version>
43012

> <i_f3d_flags>
0

> <s_epik_input>
W0NIM11jMW5jKFtjSF1zMSlbQ0gyXVtDSDJdW05IXUMoPU8pW0NIMl1OMltDSDJdU1tDSDJdQzI9Tw==

> <s_epik_cmdline>
J2VwaWtfcHl0aG9uJywgJy1waCcsICc3LjAnLCAnLXRuJywgJzgnLCAnLW1hJywgJzIwMCcsICctbWV0YWxfYmluZGluZycsICctaW1hZScsICc8aW5maWxlLm1hZT4nLCAnLW9tYWUnLCAnPG91dGZpbGUubWFlPic=

> <r_epik_Ionization_Penalty>
0.00098942

> <r_epik_Ionization_Penalty_Charging>
0

> <r_epik_Ionization_Penalty_Neutral>
0.00098942

> <r_epik_State_Penalty>
0.00064447

> <r_epik_Charging_Adjusted_Penalty>
0.00064447

> <i_epik_Tot_Q>
0

> <i_epik_Tot_abs_Q>
0

> <r_epik_Metal_State_Penalty>
-0

> <b_epik_Metal_Only>
0

> <s_epik_Chemistry_Notes>
This compound contains an acetal/aminal-like group ( X-CH(R)-Y where X, Y are N, S, or O) that may be acid/base labile, releasing an aldehyde.

> <s_lp_Force_Field>
OPLS_2005

> <r_lp_Energy>
2.37506

> <b_lp_Chiralities_Consistent>
1

> <s_lp_Variant>
AV-unprocessed.smi:1569-1

> <Gold.Version>
5.8.1

> <Gold.Id.Protein>
6NUR|6NUR_protein|mol2

> <Gold.PLP.Fitness>
49.5662

> <Gold.PLP.PLP>
-44.1659

> <Gold.PLP.part.hbond>
-2.1726

> <Gold.PLP.part.metal>
0.0000

> <Gold.PLP.part.buried>
-5.3432

> <Gold.PLP.part.nonpolar>
-36.4026

> <Gold.PLP.part.repulsive>
0.0825

> <Gold.PLP.ligand.clash>
0.0000

> <Gold.PLP.ligand.torsion>
0.3476

> <Gold.PLP.Chemscore.Hbond>
2.0000

> <Gold.PLP.Chemscore.CHOScore>
0.0000

> <Gold.PLP.Chemscore.Metal>
0.0000

> <Gold.Chemscore.Hbonds>
donor molecule, donor type, donor heavy atom, donor atom, acceptor molecule, acceptor atom, score
      P1  H  7997  8008       L1     9  0.45
      P1  H  7997  8009       L1    16  0.34

> <Gold.PLP.Chemscore.Internal.Correction>
0.0954

> <Gold.Rescore>
     Score         DG    S(hbond)    S(metal)    S(lipo)     H(rot)  DE(clash)    DE(int)     intcor
     16.75     -18.43       1.69        0.00     104.50       1.92       0.40       1.27       ----

> <Gold.Chemscore.Fitness>
16.7478

> <Gold.Chemscore.DG>
-18.4253

> <Gold.Chemscore.ZeroCoef>
-5.4800

> <Gold.Chemscore.Hbond>
1.6878

> <Gold.Chemscore.Metal>
0.0000

> <Gold.Chemscore.Lipo>
104.5044

> <Gold.Chemscore.Internal_Hbond>
0.0000

> <Gold.Chemscore.DEClash>
0.4027

> <Gold.Chemscore.DEInternal>
1.2748

> <Gold.Chemscore.Rot>
1.9215

> <Gold.Chemscore.Internal.Correction>
   9.000000E+99

> <Gold.Chemscore.Hbonds>
donor molecule, donor type, donor heavy atom, donor atom, acceptor molecule, acceptor atom, score
      P1  H  7997  8008       L1     9  0.02
      P1  H  7997  8009       L1    16  0.11

> <Gold.Chemscore.Hbond.Weighted>
-5.6372

> <Gold.Chemscore.Metal.Weighted>
-0.0000

> <Gold.Chemscore.Lipo.Weighted>
-12.2270

> <Gold.Chemscore.Internal_Hbond.Weighted>
0.0000

> <Gold.Chemscore.DEClash.Weighted>
0.4027

> <Gold.Chemscore.DEInternal.Weighted>
1.2748

> <Gold.Chemscore.Rot.Weighted>
4.9190

> <Gold.Chemscore.Internal.Correction.Weighted>
   9.000000E+99

> <Gold.Protein.RotatedTorsions>
[ 6907 6896 6895 6894 ] final   57.40 input  -60.11 | X-H torsion
[ 7974 7965 7964 7962 ] final  172.45 input  175.53 | X-H torsion
[ 8008 7997 7996 7995 ] final -134.62 input   59.86 | X-H torsion
[ 10167 10162 10161 10158 ] final  -86.48 input  -65.29 | X-H torsion
[ 10718 10713 10712 10709 ] final  142.56 input   66.30 | X-H torsion
[ 10763 10752 10751 10750 ] final   90.98 input  -60.55 | X-H torsion
[ 11005 11000 10999 10996 ] final   75.87 input  -57.11 | X-H torsion

> <Gold.Protein.ActiveResidues>
 VAL166  LYS551  ARG553  GLY616  TRP617  ASP618  TYR619  PRO620  LYS621  CYS622 
 ASP623  PHE694  ASN695  SER759  ASP760  ASP761  ALA762  ILE779  LEU786  VAL792 
 PHE793  MET794  SER795  GLU796  ALA797  LYS798  CYS799  TRP800  GLU811  SER814 

> <Gold.Protein.RotatedAtoms>
  152.3728  134.6708  160.0169 H   0  0  0  0  0  0  0  0  0  0  0  0  # atno 6907 bound_to 6896
  151.6996  133.3305  159.3271 H   0  0  0  0  0  0  0  0  0  0  0  0  # atno 6908 bound_to 6896
  150.7686  134.6562  159.6360 H   0  0  0  0  0  0  0  0  0  0  0  0  # atno 6909 bound_to 6896
  144.7268  139.9500  143.6431 H   0  0  0  0  0  0  0  0  0  0  0  0  # atno 7974 bound_to 7965
  155.3650  140.0485  157.3046 H   0  0  0  0  0  0  0  0  0  0  0  0  # atno 8008 bound_to 7997
  154.5158  140.2208  155.9031 H   0  0  0  0  0  0  0  0  0  0  0  0  # atno 8009 bound_to 7997
  156.1635  140.3111  155.8854 H   0  0  0  0  0  0  0  0  0  0  0  0  # atno 8010 bound_to 7997
  140.3937  143.2693  151.9231 H   0  0  0  0  0  0  0  0  0  0  0  0  # atno 10167 bound_to 10162
  157.3791  131.0989  151.0756 H   0  0  0  0  0  0  0  0  0  0  0  0  # atno 10718 bound_to 10713
  153.2033  135.4414  155.0293 H   0  0  0  0  0  0  0  0  0  0  0  0  # atno 10763 bound_to 10752
  154.8159  135.3315  154.7179 H   0  0  0  0  0  0  0  0  0  0  0  0  # atno 10764 bound_to 10752
  153.7622  135.6990  153.4979 H   0  0  0  0  0  0  0  0  0  0  0  0  # atno 10765 bound_to 10752
  139.9324  134.7553  156.1324 H   0  0  0  0  0  0  0  0  0  0  0  0  # atno 11005 bound_to 11000
  146.0719  139.3707  143.0518 LP  0  0  0  0  0  0  0  0  0  0  0  0  # atno 17320 bound_to 7965
  145.7957  140.9794  143.1025 LP  0  0  0  0  0  0  0  0  0  0  0  0  # atno 17321 bound_to 7965
  139.4787  144.5702  151.8100 LP  0  0  0  0  0  0  0  0  0  0  0  0  # atno 17342 bound_to 10162
  140.4813  144.1446  150.5933 LP  0  0  0  0  0  0  0  0  0  0  0  0  # atno 17343 bound_to 10162
  157.1831  130.6318  149.5678 LP  0  0  0  0  0  0  0  0  0  0  0  0  # atno 17370 bound_to 10713
  155.9772  130.4747  150.6576 LP  0  0  0  0  0  0  0  0  0  0  0  0  # atno 17371 bound_to 10713
  141.0920  133.6710  156.2561 LP  0  0  0  0  0  0  0  0  0  0  0  0  # atno 17394 bound_to 11000
  140.6166  134.5404  157.5541 LP  0  0  0  0  0  0  0  0  0  0  0  0  # atno 17395 bound_to 11000

$$$$
