AV-unprocessed.smi:2936|AV-procd|sdf|11257|dock3
  -GOLD-   2272016153D 1   1.00000     0.00000
 Structure written by MMmdl.
 23 24  0  0  0  0  0  0  0  0  2 V2000
  151.2689  136.5193  154.5129 O   0  0  0  0  0  0  0  0  0  0  0  0
  151.5542  137.6334  154.9490 C   0  0  0  0  0  0  0  0  0  0  0  0
  152.8109  137.9402  155.3943 N   0  5  0  0  0  0  0  0  0  0  0  0
  153.1008  139.2648  155.8982 N   0  0  0  0  0  0  0  0  0  0  0  0
  152.1974  140.1627  155.9372 C   0  0  0  0  0  0  0  0  0  0  0  0
  150.8144  139.9150  155.4773 C   0  0  0  0  0  0  0  0  0  0  0  0
  149.8757  140.9335  155.5462 N   0  0  0  0  0  0  0  0  0  0  0  0
  149.5669  141.6578  156.7699 C   0  0  0  0  0  0  0  0  0  0  0  0
  148.0559  141.5983  157.0560 C   0  0  0  0  0  0  0  0  0  0  0  0
  147.3365  142.0886  155.9274 O   0  0  0  0  0  0  0  0  0  0  0  0
  147.5834  141.3171  154.7545 C   0  0  0  0  0  0  0  0  0  0  0  0
  149.0819  141.3711  154.4081 C   0  0  0  0  0  0  0  0  0  0  0  0
  150.5232  138.6775  154.9997 C   0  0  0  0  0  0  0  0  0  0  0  0
  148.9324  138.2885  154.4338 Cl  0  0  0  0  0  0  0  0  0  0  0  0
  152.3996  141.1683  156.3154 H   0  0  0  0  0  0  0  0  0  0  0  0
  150.1263  141.2361  157.6058 H   0  0  0  0  0  0  0  0  0  0  0  0
  149.8904  142.6933  156.6587 H   0  0  0  0  0  0  0  0  0  0  0  0
  147.7404  140.5802  157.2872 H   0  0  0  0  0  0  0  0  0  0  0  0
  147.8140  142.2102  157.9246 H   0  0  0  0  0  0  0  0  0  0  0  0
  147.2533  140.2888  154.9066 H   0  0  0  0  0  0  0  0  0  0  0  0
  146.9931  141.7218  153.9326 H   0  0  0  0  0  0  0  0  0  0  0  0
  149.3732  142.3882  154.1438 H   0  0  0  0  0  0  0  0  0  0  0  0
  149.2917  140.7429  153.5417 H   0  0  0  0  0  0  0  0  0  0  0  0
  1  2  2  0  0  0  0
  2 13  1  0  0  0  0
  2  3  1  0  0  0  0
  3  4  1  0  0  0  0
  4  5  2  0  0  0  0
  5  6  1  0  0  0  0
  5 15  1  0  0  0  0
  6  7  1  0  0  0  0
  6 13  2  0  0  0  0
  7 12  1  0  0  0  0
  7  8  1  0  0  0  0
  8  9  1  0  0  0  0
  8 16  1  0  0  0  0
  8 17  1  0  0  0  0
  9 10  1  0  0  0  0
  9 18  1  0  0  0  0
  9 19  1  0  0  0  0
 10 11  1  0  0  0  0
 11 12  1  0  0  0  0
 11 20  1  0  0  0  0
 11 21  1  0  0  0  0
 12 22  1  0  0  0  0
 12 23  1  0  0  0  0
 13 14  1  0  0  0  0
M  CHG  1   3  -1
M  END
> <s_m_source_file>
AV-unprocessed.smi

> <i_m_source_file_index>
2936

> <i_lp_mmshare_version>
43012

> <i_f3d_flags>
0

> <s_epik_input>
Tz1jMVtuSF1uW2NIXWMoYzFDbClOMltDSDJdW0NIMl1PW0NIMl1bQ0gyXTI=

> <s_epik_cmdline>
J2VwaWtfcHl0aG9uJywgJy1waCcsICc3LjAnLCAnLXRuJywgJzgnLCAnLW1hJywgJzIwMCcsICctbWV0YWxfYmluZGluZycsICctaW1hZScsICc8aW5maWxlLm1hZT4nLCAnLW9tYWUnLCAnPG91dGZpbGUubWFlPic=

> <r_lp_tautomer_probability>
1

> <r_epik_Ionization_Penalty>
2.40826

> <r_epik_Ionization_Penalty_Charging>
0.00182709

> <r_epik_Ionization_Penalty_Neutral>
2.40643

> <r_epik_State_Penalty>
0.0371983

> <r_epik_Charging_Adjusted_Penalty>
0.0390254

> <i_epik_Tot_Q>
-1

> <i_epik_Tot_abs_Q>
1

> <r_epik_Metal_State_Penalty>
0.000698467

> <b_epik_Metal_Only>
0

> <s_lp_Force_Field>
OPLS_2005

> <r_lp_Energy>
40.7518

> <b_lp_Chiralities_Consistent>
1

> <s_lp_Variant>
AV-unprocessed.smi:2936-1

> <Gold.Version>
5.8.1

> <Gold.Id.Protein>
6NUR|6NUR_protein|mol2

> <Gold.PLP.Fitness>
29.2107

> <Gold.PLP.PLP>
-23.5735

> <Gold.PLP.part.hbond>
-2.8399

> <Gold.PLP.part.metal>
0.0000

> <Gold.PLP.part.buried>
-2.6049

> <Gold.PLP.part.nonpolar>
-19.6028

> <Gold.PLP.part.repulsive>
1.8889

> <Gold.PLP.ligand.clash>
0.0000

> <Gold.PLP.ligand.torsion>
0.9848

> <Gold.PLP.Chemscore.Hbond>
2.0000

> <Gold.PLP.Chemscore.CHOScore>
0.0000

> <Gold.PLP.Chemscore.Metal>
0.0000

> <Gold.Chemscore.Hbonds>
donor molecule, donor type, donor heavy atom, donor atom, acceptor molecule, acceptor atom, score
      P1  H  7997  8008       L1     4  1.00
      P1  H 10752 10764       L1     1  1.00

> <Gold.PLP.Chemscore.Internal.Correction>
1.6069

> <Gold.Rescore>
     Score         DG    S(hbond)    S(metal)    S(lipo)     H(rot)  DE(clash)    DE(int)     intcor
     16.03     -17.15       1.86        0.00      46.53       0.00       0.10       1.01       ----

> <Gold.Chemscore.Fitness>
16.0319

> <Gold.Chemscore.DG>
-17.1457

> <Gold.Chemscore.ZeroCoef>
-5.4800

> <Gold.Chemscore.Hbond>
1.8629

> <Gold.Chemscore.Metal>
0.0000

> <Gold.Chemscore.Lipo>
46.5276

> <Gold.Chemscore.Internal_Hbond>
0.0000

> <Gold.Chemscore.DEClash>
0.1043

> <Gold.Chemscore.DEInternal>
1.0096

> <Gold.Chemscore.Rot>
0.0000

> <Gold.Chemscore.Internal.Correction>
   9.000000E+99

> <Gold.Chemscore.Hbonds>
donor molecule, donor type, donor heavy atom, donor atom, acceptor molecule, acceptor atom, score
      P1  H  7997  8008       L1     4  0.25
      P1  H 10752 10764       L1     1  0.45

> <Gold.Chemscore.Hbond.Weighted>
-6.2219

> <Gold.Chemscore.Metal.Weighted>
-0.0000

> <Gold.Chemscore.Lipo.Weighted>
-5.4437

> <Gold.Chemscore.Internal_Hbond.Weighted>
0.0000

> <Gold.Chemscore.DEClash.Weighted>
0.1043

> <Gold.Chemscore.DEInternal.Weighted>
1.0096

> <Gold.Chemscore.Rot.Weighted>
0.0000

> <Gold.Chemscore.Internal.Correction.Weighted>
   9.000000E+99

> <Gold.Protein.RotatedTorsions>
[ 6907 6896 6895 6894 ] final   59.02 input  -60.11 | X-H torsion
[ 7974 7965 7964 7962 ] final    7.27 input  175.53 | X-H torsion
[ 8008 7997 7996 7995 ] final  -43.38 input   59.86 | X-H torsion
[ 10167 10162 10161 10158 ] final  123.27 input  -65.29 | X-H torsion
[ 10718 10713 10712 10709 ] final  124.89 input   66.30 | X-H torsion
[ 10763 10752 10751 10750 ] final  -72.12 input  -60.55 | X-H torsion
[ 11005 11000 10999 10996 ] final  -44.75 input  -57.11 | X-H torsion

> <Gold.Protein.ActiveResidues>
 VAL166  LYS551  ARG553  GLY616  TRP617  ASP618  TYR619  PRO620  LYS621  CYS622 
 ASP623  PHE694  ASN695  SER759  ASP760  ASP761  ALA762  ILE779  LEU786  VAL792 
 PHE793  MET794  SER795  GLU796  ALA797  LYS798  CYS799  TRP800  GLU811  SER814 

> <Gold.Protein.RotatedAtoms>
  152.3877  134.6490  160.0118 H   0  0  0  0  0  0  0  0  0  0  0  0  # atno 6907 bound_to 6896
  151.6734  133.3308  159.3210 H   0  0  0  0  0  0  0  0  0  0  0  0  # atno 6908 bound_to 6896
  150.7800  134.6780  159.6473 H   0  0  0  0  0  0  0  0  0  0  0  0  # atno 6909 bound_to 6896
  146.2428  140.0108  142.8407 H   0  0  0  0  0  0  0  0  0  0  0  0  # atno 7974 bound_to 7965
  154.3997  140.1449  156.3510 H   0  0  0  0  0  0  0  0  0  0  0  0  # atno 8008 bound_to 7997
  155.8269  140.3467  155.5527 H   0  0  0  0  0  0  0  0  0  0  0  0  # atno 8009 bound_to 7997
  155.8229  140.0900  157.1828 H   0  0  0  0  0  0  0  0  0  0  0  0  # atno 8010 bound_to 7997
  139.5809  144.6985  151.3531 H   0  0  0  0  0  0  0  0  0  0  0  0  # atno 10167 bound_to 10162
  157.5548  131.1092  150.8640 H   0  0  0  0  0  0  0  0  0  0  0  0  # atno 10718 bound_to 10713
  154.4413  135.5940  153.6131 H   0  0  0  0  0  0  0  0  0  0  0  0  # atno 10763 bound_to 10752
  152.9806  135.5999  154.3719 H   0  0  0  0  0  0  0  0  0  0  0  0  # atno 10764 bound_to 10752
  154.3569  135.2841  155.2320 H   0  0  0  0  0  0  0  0  0  0  0  0  # atno 10765 bound_to 10752
  141.0471  133.6757  156.2916 H   0  0  0  0  0  0  0  0  0  0  0  0  # atno 11005 bound_to 11000
  145.1329  140.9528  143.4534 LP  0  0  0  0  0  0  0  0  0  0  0  0  # atno 17320 bound_to 7965
  145.0370  139.3292  143.5996 LP  0  0  0  0  0  0  0  0  0  0  0  0  # atno 17321 bound_to 7965
  140.7087  143.7447  150.7528 LP  0  0  0  0  0  0  0  0  0  0  0  0  # atno 17342 bound_to 10162
  140.0979  143.4816  152.2442 LP  0  0  0  0  0  0  0  0  0  0  0  0  # atno 17343 bound_to 10162
  156.9155  130.5296  149.5279 LP  0  0  0  0  0  0  0  0  0  0  0  0  # atno 17370 bound_to 10713
  156.0609  130.5662  150.9190 LP  0  0  0  0  0  0  0  0  0  0  0  0  # atno 17371 bound_to 10713
  140.6126  134.5443  157.5536 LP  0  0  0  0  0  0  0  0  0  0  0  0  # atno 17394 bound_to 11000
  139.9320  134.7945  156.0904 LP  0  0  0  0  0  0  0  0  0  0  0  0  # atno 17395 bound_to 11000

$$$$
