AV-unprocessed.smi:29|AV-procd|sdf|192|dock5
  -GOLD-   2262015463D 1   1.00000     0.00000
 Structure written by MMmdl.
 56 59  0  0  0  0  0  0  0  0  1 V2000
  149.4507  140.0180  157.9247 O   0  0  0  0  0  0  0  0  0  0  0  0
  150.3180  139.1597  158.0752 C   0  0  0  0  0  0  0  0  0  0  0  0
  150.0167  137.7266  157.5995 C   0  0  0  0  0  0  0  0  0  0  0  0
  148.8373  137.0875  158.2307 N   0  0  0  0  0  0  0  0  0  0  0  0
  147.6599  136.9323  157.4589 C   0  0  0  0  0  0  0  0  0  0  0  0
  147.5943  137.3497  156.3020 O   0  0  0  0  0  0  0  0  0  0  0  0
  146.5561  136.2541  158.1264 C   0  0  0  0  0  0  0  0  0  0  0  0
  145.4194  136.0107  157.4521 F   0  0  0  0  0  0  0  0  0  0  0  0
  146.6598  135.8556  159.4103 C   0  0  0  0  0  0  0  0  0  0  0  0
  147.7908  136.0761  160.1793 N   0  0  0  0  0  0  0  0  0  0  0  0
  147.9220  135.5773  161.6111 C   0  0  1  0  0  0  0  0  0  0  0  0
  146.8383  136.0968  162.5661 C   0  0  0  0  0  0  0  0  0  0  0  0
  145.8155  134.9644  162.5858 C   0  0  0  0  0  0  0  0  0  0  0  0
  146.4020  133.8907  161.6630 C   0  0  0  0  0  0  0  0  0  0  0  0
  147.7896  134.1917  161.6085 O   0  0  0  0  0  0  0  0  0  0  0  0
  148.9266  136.6646  159.5788 C   0  0  0  0  0  0  0  0  0  0  0  0
  149.9687  136.8193  160.2191 O   0  0  0  0  0  0  0  0  0  0  0  0
  151.5177  139.3776  158.6481 N   0  0  0  0  0  0  0  0  0  0  0  0
  152.0791  140.5616  159.2084 C   0  0  0  0  0  0  0  0  0  0  0  0
  151.6099  141.8646  158.9080 C   0  0  0  0  0  0  0  0  0  0  0  0
  152.2071  143.0019  159.4902 C   0  0  0  0  0  0  0  0  0  0  0  0
  151.6851  144.3894  159.1463 C   0  0  0  0  0  0  0  0  0  0  0  0
  152.1688  145.3146  159.9760 F   0  0  0  0  0  0  0  0  0  0  0  0
  152.0491  144.6987  157.9024 F   0  0  0  0  0  0  0  0  0  0  0  0
  150.3543  144.4147  159.2237 F   0  0  0  0  0  0  0  0  0  0  0  0
  153.2968  142.8377  160.3693 C   0  0  0  0  0  0  0  0  0  0  0  0
  153.7806  141.5508  160.6632 C   0  0  0  0  0  0  0  0  0  0  0  0
  153.1818  140.4080  160.0863 C   0  0  0  0  0  0  0  0  0  0  0  0
  153.6791  139.1245  160.3720 N   0  0  0  0  0  0  0  0  0  0  0  0
  154.3640  138.4996  159.2482 C   0  0  0  0  0  0  0  0  0  0  0  0
  154.7330  137.0498  159.6021 C   0  0  0  0  0  0  0  0  0  0  0  0
  155.5103  137.0296  160.7961 O   0  0  0  0  0  0  0  0  0  0  0  0
  154.8034  137.5765  161.9061 C   0  0  0  0  0  0  0  0  0  0  0  0
  154.4340  139.0414  161.6154 C   0  0  0  0  0  0  0  0  0  0  0  0
  149.9092  137.7461  156.5137 H   0  0  0  0  0  0  0  0  0  0  0  0
  150.9137  137.1260  157.7573 H   0  0  0  0  0  0  0  0  0  0  0  0
  145.8117  135.3387  159.8305 H   0  0  0  0  0  0  0  0  0  0  0  0
  148.9170  135.8870  161.9351 H   0  0  0  0  0  0  0  0  0  0  0  0
  147.2826  136.2050  163.5563 H   0  0  0  0  0  0  0  0  0  0  0  0
  146.4455  137.0708  162.2760 H   0  0  0  0  0  0  0  0  0  0  0  0
  145.7066  134.5793  163.6003 H   0  0  0  0  0  0  0  0  0  0  0  0
  144.8317  135.2889  162.2461 H   0  0  0  0  0  0  0  0  0  0  0  0
  146.2293  132.8805  162.0346 H   0  0  0  0  0  0  0  0  0  0  0  0
  145.9711  133.9575  160.6631 H   0  0  0  0  0  0  0  0  0  0  0  0
  152.0995  138.5576  158.7434 H   0  0  0  0  0  0  0  0  0  0  0  0
  150.7964  142.0257  158.2198 H   0  0  0  0  0  0  0  0  0  0  0  0
  153.7750  143.6959  160.8172 H   0  0  0  0  0  0  0  0  0  0  0  0
  154.6214  141.4468  161.3333 H   0  0  0  0  0  0  0  0  0  0  0  0
  153.7212  138.5173  158.3668 H   0  0  0  0  0  0  0  0  0  0  0  0
  155.2660  139.0618  159.0037 H   0  0  0  0  0  0  0  0  0  0  0  0
  153.8355  136.4467  159.7328 H   0  0  0  0  0  0  0  0  0  0  0  0
  155.3067  136.5969  158.7935 H   0  0  0  0  0  0  0  0  0  0  0  0
  153.9107  136.9838  162.1082 H   0  0  0  0  0  0  0  0  0  0  0  0
  155.4325  137.5164  162.7941 H   0  0  0  0  0  0  0  0  0  0  0  0
  155.3410  139.6423  161.5415 H   0  0  0  0  0  0  0  0  0  0  0  0
  153.8414  139.4480  162.4360 H   0  0  0  0  0  0  0  0  0  0  0  0
  1  2  2  0  0  0  0
  2  3  1  0  0  0  0
  2 18  1  0  0  0  0
  3  4  1  0  0  0  0
  3 35  1  0  0  0  0
  3 36  1  0  0  0  0
  4 16  1  0  0  0  0
  4  5  1  0  0  0  0
  5  6  2  0  0  0  0
  5  7  1  0  0  0  0
  7  8  1  0  0  0  0
  7  9  2  0  0  0  0
  9 10  1  0  0  0  0
  9 37  1  0  0  0  0
 10 11  1  0  0  0  0
 10 16  1  0  0  0  0
 11 15  1  0  0  0  0
 11 12  1  0  0  0  0
 11 38  1  0  0  0  0
 12 13  1  0  0  0  0
 12 39  1  0  0  0  0
 12 40  1  0  0  0  0
 13 14  1  0  0  0  0
 13 41  1  0  0  0  0
 13 42  1  0  0  0  0
 14 15  1  0  0  0  0
 14 43  1  0  0  0  0
 14 44  1  0  0  0  0
 16 17  2  0  0  0  0
 18 19  1  0  0  0  0
 18 45  1  0  0  0  0
 19 28  1  0  0  0  0
 19 20  2  0  0  0  0
 20 21  1  0  0  0  0
 20 46  1  0  0  0  0
 21 22  1  0  0  0  0
 21 26  2  0  0  0  0
 22 23  1  0  0  0  0
 22 24  1  0  0  0  0
 22 25  1  0  0  0  0
 26 27  1  0  0  0  0
 26 47  1  0  0  0  0
 27 28  2  0  0  0  0
 27 48  1  0  0  0  0
 28 29  1  0  0  0  0
 29 34  1  0  0  0  0
 29 30  1  0  0  0  0
 30 31  1  0  0  0  0
 30 49  1  0  0  0  0
 30 50  1  0  0  0  0
 31 32  1  0  0  0  0
 31 51  1  0  0  0  0
 31 52  1  0  0  0  0
 32 33  1  0  0  0  0
 33 34  1  0  0  0  0
 33 53  1  0  0  0  0
 33 54  1  0  0  0  0
 34 55  1  0  0  0  0
 34 56  1  0  0  0  0
M  END
> <s_m_source_file>
AV-unprocessed.smi

> <i_m_source_file_index>
29

> <i_lp_mmshare_version>
43012

> <i_f3d_flags>
0

> <s_epik_input>
TzFbQ0gyXVtDSDJdW0NIMl1bQ0BIXTFuKGMyPU8pW2NIXWMoRiljKD1PKW4yW0NIMl1DKD1PKVtOSF1jM1tjSF1jKEMoRikoRilGKVtjSF1bY0hdYzNONFtDSDJdW0NIMl1PW0NIMl1bQ0gyXTQ=

> <s_epik_cmdline>
J2VwaWtfcHl0aG9uJywgJy1waCcsICc3LjAnLCAnLXRuJywgJzgnLCAnLW1hJywgJzIwMCcsICctbWV0YWxfYmluZGluZycsICctaW1hZScsICc8aW5maWxlLm1hZT4nLCAnLW9tYWUnLCAnPG91dGZpbGUubWFlPic=

> <r_lp_tautomer_probability>
1

> <r_epik_Ionization_Penalty>
3.5967e-06

> <r_epik_Ionization_Penalty_Charging>
3.88729e-08

> <r_epik_Ionization_Penalty_Neutral>
3.55783e-06

> <r_epik_State_Penalty>
-0

> <r_epik_Charging_Adjusted_Penalty>
3.88729e-08

> <i_epik_Tot_Q>
0

> <i_epik_Tot_abs_Q>
0

> <r_epik_Metal_State_Penalty>
-0

> <b_epik_Metal_Only>
0

> <s_epik_Chemistry_Notes>
This compound contains an acetal/aminal-like group ( X-CH(R)-Y where X, Y are N, S, or O) that may be acid/base labile, releasing an aldehyde.

> <s_lp_Force_Field>
OPLS_2005

> <r_lp_Energy>
46.7793

> <b_lp_Chiralities_Consistent>
1

> <s_lp_Variant>
AV-unprocessed.smi:29-2

> <Gold.Version>
5.8.1

> <Gold.Id.Protein>
6NUR|6NUR_protein|mol2

> <Gold.PLP.Fitness>
56.2860

> <Gold.PLP.PLP>
-55.0892

> <Gold.PLP.part.hbond>
-1.8305

> <Gold.PLP.part.metal>
0.0000

> <Gold.PLP.part.buried>
-7.7471

> <Gold.PLP.part.nonpolar>
-45.8648

> <Gold.PLP.part.repulsive>
0.1324

> <Gold.PLP.ligand.clash>
0.0041

> <Gold.PLP.ligand.torsion>
1.1643

> <Gold.PLP.Chemscore.Hbond>
0.8818

> <Gold.PLP.Chemscore.CHOScore>
0.0000

> <Gold.PLP.Chemscore.Metal>
0.0000

> <Gold.Chemscore.Hbonds>
donor molecule, donor type, donor heavy atom, donor atom, acceptor molecule, acceptor atom, score
      P1  H  6896  6909       L1    17  0.81
      P1  H  6931  6943       L1    17  0.06

> <Gold.PLP.Chemscore.Internal.Correction>
0.8841

> <Gold.Rescore>
     Score         DG    S(hbond)    S(metal)    S(lipo)     H(rot)  DE(clash)    DE(int)     intcor
     13.61     -17.37       0.95        0.00     117.44       1.96       0.44       3.31       ----

> <Gold.Chemscore.Fitness>
13.6139

> <Gold.Chemscore.DG>
-17.3707

> <Gold.Chemscore.ZeroCoef>
-5.4800

> <Gold.Chemscore.Hbond>
0.9516

> <Gold.Chemscore.Metal>
0.0000

> <Gold.Chemscore.Lipo>
117.4373

> <Gold.Chemscore.Internal_Hbond>
0.0000

> <Gold.Chemscore.DEClash>
0.4425

> <Gold.Chemscore.DEInternal>
3.3143

> <Gold.Chemscore.Rot>
1.9641

> <Gold.Chemscore.Internal.Correction>
   9.000000E+99

> <Gold.Chemscore.Hbonds>
donor molecule, donor type, donor heavy atom, donor atom, acceptor molecule, acceptor atom, score
      P1  H  6896  6909       L1    17  0.40
      P1  H  6931  6943       L1    17  0.01

> <Gold.Chemscore.Hbond.Weighted>
-3.1785

> <Gold.Chemscore.Metal.Weighted>
-0.0000

> <Gold.Chemscore.Lipo.Weighted>
-13.7402

> <Gold.Chemscore.Internal_Hbond.Weighted>
0.0000

> <Gold.Chemscore.DEClash.Weighted>
0.4425

> <Gold.Chemscore.DEInternal.Weighted>
3.3143

> <Gold.Chemscore.Rot.Weighted>
5.0280

> <Gold.Chemscore.Internal.Correction.Weighted>
   9.000000E+99

> <Gold.Protein.RotatedTorsions>
[ 6907 6896 6895 6894 ] final   90.41 input  -60.11 | X-H torsion
[ 7974 7965 7964 7962 ] final   51.80 input  175.53 | X-H torsion
[ 8008 7997 7996 7995 ] final -167.69 input   59.86 | X-H torsion
[ 10167 10162 10161 10158 ] final  -28.68 input  -65.29 | X-H torsion
[ 10718 10713 10712 10709 ] final  119.24 input   66.30 | X-H torsion
[ 10763 10752 10751 10750 ] final  -43.63 input  -60.55 | X-H torsion
[ 11005 11000 10999 10996 ] final   30.97 input  -57.11 | X-H torsion

> <Gold.Protein.ActiveResidues>
 VAL166  LYS551  ARG553  GLY616  TRP617  ASP618  TYR619  PRO620  LYS621  CYS622 
 ASP623  PHE694  ASN695  SER759  ASP760  ASP761  ALA762  ILE779  LEU786  VAL792 
 PHE793  MET794  SER795  GLU796  ALA797  LYS798  CYS799  TRP800  GLU811  SER814 

> <Gold.Protein.RotatedAtoms>
  152.5444  134.1816  159.8637 H   0  0  0  0  0  0  0  0  0  0  0  0  # atno 6907 bound_to 6896
  151.1818  133.4713  159.2601 H   0  0  0  0  0  0  0  0  0  0  0  0  # atno 6908 bound_to 6896
  151.1171  135.0070  159.8576 H   0  0  0  0  0  0  0  0  0  0  0  0  # atno 6909 bound_to 6896
  145.9877  139.4307  143.0093 H   0  0  0  0  0  0  0  0  0  0  0  0  # atno 7974 bound_to 7965
  155.8811  140.1009  157.1484 H   0  0  0  0  0  0  0  0  0  0  0  0  # atno 8008 bound_to 7997
  154.4005  140.1329  156.4261 H   0  0  0  0  0  0  0  0  0  0  0  0  # atno 8009 bound_to 7997
  155.7642  140.3462  155.5216 H   0  0  0  0  0  0  0  0  0  0  0  0  # atno 8010 bound_to 7997
  140.7267  143.3990  151.1298 H   0  0  0  0  0  0  0  0  0  0  0  0  # atno 10167 bound_to 10162
  157.5975  131.1056  150.7868 H   0  0  0  0  0  0  0  0  0  0  0  0  # atno 10718 bound_to 10713
  153.9987  135.6696  153.4758 H   0  0  0  0  0  0  0  0  0  0  0  0  # atno 10763 bound_to 10752
  153.0672  135.4994  154.8222 H   0  0  0  0  0  0  0  0  0  0  0  0  # atno 10764 bound_to 10752
  154.7066  135.3089  154.9224 H   0  0  0  0  0  0  0  0  0  0  0  0  # atno 10765 bound_to 10752
  140.2888  134.2888  155.7781 H   0  0  0  0  0  0  0  0  0  0  0  0  # atno 11005 bound_to 11000
  145.7676  140.9910  143.1167 LP  0  0  0  0  0  0  0  0  0  0  0  0  # atno 17320 bound_to 7965
  144.6879  139.9407  143.7475 LP  0  0  0  0  0  0  0  0  0  0  0  0  # atno 17321 bound_to 7965
  139.7607  143.8640  152.3099 LP  0  0  0  0  0  0  0  0  0  0  0  0  # atno 17342 bound_to 10162
  139.8525  144.7157  150.9197 LP  0  0  0  0  0  0  0  0  0  0  0  0  # atno 17343 bound_to 10162
  156.8275  130.5004  149.5335 LP  0  0  0  0  0  0  0  0  0  0  0  0  # atno 17370 bound_to 10713
  156.1041  130.5991  150.9942 LP  0  0  0  0  0  0  0  0  0  0  0  0  # atno 17371 bound_to 10713
  141.2150  133.7572  156.9593 LP  0  0  0  0  0  0  0  0  0  0  0  0  # atno 17394 bound_to 11000
  140.1214  134.9414  157.2209 LP  0  0  0  0  0  0  0  0  0  0  0  0  # atno 17395 bound_to 11000

$$$$
