AV-unprocessed.smi:3345|AV-procd|sdf|12906|dock1
  -GOLD-   2272019323D 1   1.00000     0.00000
 Structure written by MMmdl.
 41 42  0  0  0  0  0  0  0  0  2 V2000
  147.5146  140.6894  153.1585 C   0  0  0  0  0  0  0  0  0  0  0  0
  147.3982  139.1703  153.3411 C   0  0  1  0  0  0  0  0  0  0  0  0
  146.5760  138.5206  152.2046 C   0  0  0  0  0  0  0  0  0  0  0  0
  146.3700  137.0612  152.3931 N   0  3  0  0  0  0  0  0  0  0  0  0
  146.0903  136.6761  153.7972 C   0  0  0  0  0  0  0  0  0  0  0  0
  145.9825  135.1470  153.9118 C   0  0  0  0  0  0  0  0  0  0  0  0
  144.9568  134.6797  153.0440 O   0  0  0  0  0  0  0  0  0  0  0  0
  145.2337  134.9765  151.6806 C   0  0  0  0  0  0  0  0  0  0  0  0
  145.3403  136.4991  151.4882 C   0  0  0  0  0  0  0  0  0  0  0  0
  148.7368  138.5838  153.4065 N   0  0  0  0  0  0  0  0  0  0  0  0
  149.2822  137.9832  154.4771 C   0  0  0  0  0  0  0  0  0  0  0  0
  148.7344  137.9371  155.5786 O   0  0  0  0  0  0  0  0  0  0  0  0
  150.6297  137.2859  154.2452 C   0  0  1  0  0  0  0  0  0  0  0  0
  151.8244  138.1145  154.7588 C   0  0  0  0  0  0  0  0  0  0  0  0
  150.5898  135.9498  154.8281 N   0  0  0  0  0  0  0  0  0  0  0  0
  149.6981  134.9698  154.6656 C   0  0  0  0  0  0  0  0  0  0  0  0
  149.9366  133.8963  155.4056 N   0  0  0  0  0  0  0  0  0  0  0  0
  151.0715  134.3069  156.0452 C   0  0  0  0  0  0  0  0  0  0  0  0
  151.4898  135.5387  155.7565 N   0  0  0  0  0  0  0  0  0  0  0  0
  146.5296  141.1563  153.1282 H   0  0  0  0  0  0  0  0  0  0  0  0
  148.0312  140.9422  152.2319 H   0  0  0  0  0  0  0  0  0  0  0  0
  148.0676  141.1426  153.9820 H   0  0  0  0  0  0  0  0  0  0  0  0
  146.8775  139.0064  154.2855 H   0  0  0  0  0  0  0  0  0  0  0  0
  145.6134  139.0207  152.0877 H   0  0  0  0  0  0  0  0  0  0  0  0
  147.1151  138.6764  151.2687 H   0  0  0  0  0  0  0  0  0  0  0  0
  146.8796  137.0342  154.4568 H   0  0  0  0  0  0  0  0  0  0  0  0
  145.1618  137.1428  154.1295 H   0  0  0  0  0  0  0  0  0  0  0  0
  146.9330  134.6699  153.6660 H   0  0  0  0  0  0  0  0  0  0  0  0
  145.7370  134.8626  154.9350 H   0  0  0  0  0  0  0  0  0  0  0  0
  146.1534  134.4805  151.3705 H   0  0  0  0  0  0  0  0  0  0  0  0
  144.4321  134.5744  151.0609 H   0  0  0  0  0  0  0  0  0  0  0  0
  144.3775  136.9717  151.6893 H   0  0  0  0  0  0  0  0  0  0  0  0
  145.5972  136.7179  150.4511 H   0  0  0  0  0  0  0  0  0  0  0  0
  149.2715  138.5875  152.5498 H   0  0  0  0  0  0  0  0  0  0  0  0
  150.7591  137.1640  153.1684 H   0  0  0  0  0  0  0  0  0  0  0  0
  151.8609  139.0911  154.2751 H   0  0  0  0  0  0  0  0  0  0  0  0
  152.7667  137.6097  154.5448 H   0  0  0  0  0  0  0  0  0  0  0  0
  151.7782  138.2823  155.8357 H   0  0  0  0  0  0  0  0  0  0  0  0
  148.8515  135.0468  153.9991 H   0  0  0  0  0  0  0  0  0  0  0  0
  151.5917  133.6885  156.7619 H   0  0  0  0  0  0  0  0  0  0  0  0
  147.2405  136.6170  152.1377 H   0  0  0  0  0  0  0  0  0  0  0  0
  1  2  1  0  0  0  0
  1 20  1  0  0  0  0
  1 21  1  0  0  0  0
  1 22  1  0  0  0  0
  2  3  1  0  0  0  0
  2 10  1  0  0  0  0
  2 23  1  0  0  0  0
  3  4  1  0  0  0  0
  3 24  1  0  0  0  0
  3 25  1  0  0  0  0
  4  9  1  0  0  0  0
  4  5  1  0  0  0  0
  4 41  1  0  0  0  0
  5  6  1  0  0  0  0
  5 26  1  0  0  0  0
  5 27  1  0  0  0  0
  6  7  1  0  0  0  0
  6 28  1  0  0  0  0
  6 29  1  0  0  0  0
  7  8  1  0  0  0  0
  8  9  1  0  0  0  0
  8 30  1  0  0  0  0
  8 31  1  0  0  0  0
  9 32  1  0  0  0  0
  9 33  1  0  0  0  0
 10 11  1  0  0  0  0
 10 34  1  0  0  0  0
 11 12  2  0  0  0  0
 11 13  1  0  0  0  0
 13 14  1  0  0  0  0
 13 15  1  0  0  0  0
 13 35  1  0  0  0  0
 14 36  1  0  0  0  0
 14 37  1  0  0  0  0
 14 38  1  0  0  0  0
 15 19  1  0  0  0  0
 15 16  1  0  0  0  0
 16 17  2  0  0  0  0
 16 39  1  0  0  0  0
 17 18  1  0  0  0  0
 18 19  2  0  0  0  0
 18 40  1  0  0  0  0
M  CHG  1   4   1
M  END
> <s_m_source_file>
AV-unprocessed.smi

> <i_m_source_file_index>
3345

> <i_lp_mmshare_version>
43012

> <i_f3d_flags>
0

> <s_epik_input>
W0NIMl0xW0NIMl1PW0NIMl1bQ0gyXU4xW0NIMl1bQ0BASF0oW0NIM10pW05IXUMoPU8pW0NASF0oW0NIM10pbjJbY0hdbltjSF1uMg==

> <s_epik_cmdline>
J2VwaWtfcHl0aG9uJywgJy1waCcsICc3LjAnLCAnLXRuJywgJzgnLCAnLW1hJywgJzIwMCcsICctbWV0YWxfYmluZGluZycsICctaW1hZScsICc8aW5maWxlLm1hZT4nLCAnLW9tYWUnLCAnPG91dGZpbGUubWFlPic=

> <r_lp_tautomer_probability>
1

> <r_epik_Ionization_Penalty>
0.71326

> <r_epik_Ionization_Penalty_Charging>
0.713252

> <r_epik_Ionization_Penalty_Neutral>
8.27671e-06

> <r_epik_State_Penalty>
0.737017

> <r_epik_Charging_Adjusted_Penalty>
1.45027

> <i_epik_Tot_Q>
1

> <i_epik_Tot_abs_Q>
1

> <r_epik_Metal_State_Penalty>
0.73702

> <b_epik_Metal_Only>
0

> <s_lp_Force_Field>
OPLS_2005

> <r_lp_Energy>
25.9196

> <b_lp_Chiralities_Consistent>
1

> <s_lp_Variant>
AV-unprocessed.smi:3345-8

> <Gold.Version>
5.8.1

> <Gold.Id.Protein>
6NUR|6NUR_protein|mol2

> <Gold.PLP.Fitness>
42.1030

> <Gold.PLP.PLP>
-29.0985

> <Gold.PLP.part.hbond>
-4.0000

> <Gold.PLP.part.metal>
0.0000

> <Gold.PLP.part.buried>
-1.0811

> <Gold.PLP.part.nonpolar>
-25.0492

> <Gold.PLP.part.repulsive>
0.3142

> <Gold.PLP.ligand.clash>
0.0000

> <Gold.PLP.ligand.torsion>
0.6405

> <Gold.PLP.Chemscore.Hbond>
3.7180

> <Gold.PLP.Chemscore.CHOScore>
0.9780

> <Gold.PLP.Chemscore.Metal>
0.0000

> <Gold.Chemscore.Hbonds>
donor molecule, donor type, donor heavy atom, donor atom, acceptor molecule, acceptor atom, score
      L1  H     4    41       P1  7948  2.00
      L1  H    10    34       P1  7957  0.66
      P1  H 10752 10763       L1    19  1.00
      L1  C    16    39       P1  7948  0.84

> <Gold.PLP.Chemscore.Internal.Correction>
0.1975

> <Gold.Rescore>
     Score         DG    S(hbond)    S(metal)    S(lipo)     H(rot)  DE(clash)    DE(int)     intcor
     11.23     -11.97       1.96        0.00      56.59       2.61       0.10       0.65       ----

> <Gold.Chemscore.Fitness>
11.2256

> <Gold.Chemscore.DG>
-11.9672

> <Gold.Chemscore.ZeroCoef>
-5.4800

> <Gold.Chemscore.Hbond>
1.9632

> <Gold.Chemscore.Metal>
0.0000

> <Gold.Chemscore.Lipo>
56.5943

> <Gold.Chemscore.Internal_Hbond>
0.0000

> <Gold.Chemscore.DEClash>
0.0953

> <Gold.Chemscore.DEInternal>
0.6463

> <Gold.Chemscore.Rot>
2.6138

> <Gold.Chemscore.Internal.Correction>
   9.000000E+99

> <Gold.Chemscore.Hbonds>
donor molecule, donor type, donor heavy atom, donor atom, acceptor molecule, acceptor atom, score
      L1  H     4    41       P1  7948  1.00
      L1  H    10    34       P1  7957  0.49
      P1  H 10752 10763       L1    19  0.48

> <Gold.Chemscore.Hbond.Weighted>
-6.5569

> <Gold.Chemscore.Metal.Weighted>
-0.0000

> <Gold.Chemscore.Lipo.Weighted>
-6.6215

> <Gold.Chemscore.Internal_Hbond.Weighted>
0.0000

> <Gold.Chemscore.DEClash.Weighted>
0.0953

> <Gold.Chemscore.DEInternal.Weighted>
0.6463

> <Gold.Chemscore.Rot.Weighted>
6.6912

> <Gold.Chemscore.Internal.Correction.Weighted>
   9.000000E+99

> <Gold.Protein.RotatedTorsions>
[ 6907 6896 6895 6894 ] final   11.56 input  -60.11 | X-H torsion
[ 7974 7965 7964 7962 ] final -100.85 input  175.53 | X-H torsion
[ 8008 7997 7996 7995 ] final -104.90 input   59.86 | X-H torsion
[ 10167 10162 10161 10158 ] final  -49.17 input  -65.29 | X-H torsion
[ 10718 10713 10712 10709 ] final  150.00 input   66.30 | X-H torsion
[ 10763 10752 10751 10750 ] final   84.84 input  -60.55 | X-H torsion
[ 11005 11000 10999 10996 ] final   29.36 input  -57.11 | X-H torsion

> <Gold.Protein.ActiveResidues>
 VAL166  LYS551  ARG553  GLY616  TRP617  ASP618  TYR619  PRO620  LYS621  CYS622 
 ASP623  PHE694  ASN695  SER759  ASP760  ASP761  ALA762  ILE779  LEU786  VAL792 
 PHE793  MET794  SER795  GLU796  ALA797  LYS798  CYS799  TRP800  GLU811  SER814 

> <Gold.Protein.RotatedAtoms>
  151.7562  135.0821  160.0338 H   0  0  0  0  0  0  0  0  0  0  0  0  # atno 6907 bound_to 6896
  152.3384  133.6033  159.5867 H   0  0  0  0  0  0  0  0  0  0  0  0  # atno 6908 bound_to 6896
  150.7464  133.9677  159.3577 H   0  0  0  0  0  0  0  0  0  0  0  0  # atno 6909 bound_to 6896
  145.2892  140.9348  143.2887 H   0  0  0  0  0  0  0  0  0  0  0  0  # atno 7974 bound_to 7965
  154.8921  140.0415  157.1844 H   0  0  0  0  0  0  0  0  0  0  0  0  # atno 8008 bound_to 7997
  154.8530  140.2932  155.5565 H   0  0  0  0  0  0  0  0  0  0  0  0  # atno 8009 bound_to 7997
  156.2996  140.2461  156.3492 H   0  0  0  0  0  0  0  0  0  0  0  0  # atno 8010 bound_to 7997
  140.6697  143.2709  151.4176 H   0  0  0  0  0  0  0  0  0  0  0  0  # atno 10167 bound_to 10162
  157.2890  131.0849  151.1476 H   0  0  0  0  0  0  0  0  0  0  0  0  # atno 10718 bound_to 10713
  153.1419  135.4639  154.9508 H   0  0  0  0  0  0  0  0  0  0  0  0  # atno 10763 bound_to 10752
  154.7754  135.3171  154.8106 H   0  0  0  0  0  0  0  0  0  0  0  0  # atno 10764 bound_to 10752
  153.8627  135.6911  153.4835 H   0  0  0  0  0  0  0  0  0  0  0  0  # atno 10765 bound_to 10752
  140.3058  134.2705  155.7744 H   0  0  0  0  0  0  0  0  0  0  0  0  # atno 11005 bound_to 11000
  144.9187  139.4438  143.6552 LP  0  0  0  0  0  0  0  0  0  0  0  0  # atno 17320 bound_to 7965
  146.3190  139.8035  142.8960 LP  0  0  0  0  0  0  0  0  0  0  0  0  # atno 17321 bound_to 7965
  139.5961  144.1395  152.2145 LP  0  0  0  0  0  0  0  0  0  0  0  0  # atno 17342 bound_to 10162
  140.0764  144.5736  150.7154 LP  0  0  0  0  0  0  0  0  0  0  0  0  # atno 17343 bound_to 10162
  157.2880  130.6782  149.6099 LP  0  0  0  0  0  0  0  0  0  0  0  0  # atno 17370 bound_to 10713
  155.9666  130.4429  150.5401 LP  0  0  0  0  0  0  0  0  0  0  0  0  # atno 17371 bound_to 10713
  141.2118  133.7676  156.9834 LP  0  0  0  0  0  0  0  0  0  0  0  0  # atno 17394 bound_to 11000
  140.1068  134.9501  157.2006 LP  0  0  0  0  0  0  0  0  0  0  0  0  # atno 17395 bound_to 11000

$$$$
