AV-unprocessed.smi:388|AV-procd|sdf|2475|dock9
  -GOLD-   2262022413D 1   1.00000     0.00000
 Structure written by MMmdl.
 34 35  0  0  0  0  0  0  0  0  1 V2000
  147.8240  140.6209  153.7636 C   0  0  0  0  0  0  0  0  0  0  0  0
  148.4502  140.0764  154.9585 N   0  0  0  0  0  0  0  0  0  0  0  0
  149.7713  139.9102  155.1079 C   0  0  0  0  0  0  0  0  0  0  0  0
  150.5694  139.9623  154.1696 O   0  0  0  0  0  0  0  0  0  0  0  0
  150.0861  139.6813  156.3966 N   0  0  0  0  0  0  0  0  0  0  0  0
  151.3105  139.4690  156.9208 C   0  0  0  0  0  0  0  0  0  0  0  0
  152.3663  139.4691  156.2851 O   0  0  0  0  0  0  0  0  0  0  0  0
  151.3463  139.2076  158.4314 C   0  0  0  0  0  0  0  0  0  0  0  0
  151.9269  140.3100  159.1856 N   0  0  0  0  0  0  0  0  0  0  0  0
  152.9695  140.0150  160.1021 C   0  0  0  0  0  0  0  0  0  0  0  0
  153.3931  138.8684  160.2614 O   0  0  0  0  0  0  0  0  0  0  0  0
  153.4897  141.1757  160.8216 C   0  0  0  0  0  0  0  0  0  0  0  0
  154.5056  140.9360  161.7924 C   0  0  0  0  0  0  0  0  0  0  0  0
  155.3145  140.7337  162.5949 N   0  0  0  0  0  0  0  0  0  0  0  0
  153.0215  142.4179  160.5740 C   0  0  0  0  0  0  0  0  0  0  0  0
  152.0488  142.6760  159.6303 N   0  0  0  0  0  0  0  0  0  0  0  0
  151.4770  143.9850  159.4839 C   0  0  0  0  0  0  0  0  0  0  0  0
  152.3081  145.1274  158.9321 C   0  0  0  0  0  0  0  0  0  0  0  0
  151.9468  145.0967  160.3968 C   0  0  0  0  0  0  0  0  0  0  0  0
  151.4324  141.6135  158.9337 C   0  0  0  0  0  0  0  0  0  0  0  0
  150.5064  141.8177  158.1444 O   0  0  0  0  0  0  0  0  0  0  0  0
  146.7435  140.6694  153.8994 H   0  0  0  0  0  0  0  0  0  0  0  0
  148.0310  139.9920  152.8968 H   0  0  0  0  0  0  0  0  0  0  0  0
  148.1874  141.6286  153.5581 H   0  0  0  0  0  0  0  0  0  0  0  0
  147.8398  139.8068  155.7164 H   0  0  0  0  0  0  0  0  0  0  0  0
  149.3149  139.6554  157.0478 H   0  0  0  0  0  0  0  0  0  0  0  0
  150.3439  139.0238  158.8218 H   0  0  0  0  0  0  0  0  0  0  0  0
  151.9048  138.2994  158.6630 H   0  0  0  0  0  0  0  0  0  0  0  0
  153.4309  143.2488  161.1307 H   0  0  0  0  0  0  0  0  0  0  0  0
  150.4198  144.0018  159.2250 H   0  0  0  0  0  0  0  0  0  0  0  0
  153.3473  144.9326  158.6736 H   0  0  0  0  0  0  0  0  0  0  0  0
  151.8014  145.8565  158.3034 H   0  0  0  0  0  0  0  0  0  0  0  0
  151.2012  145.8083  160.7453 H   0  0  0  0  0  0  0  0  0  0  0  0
  152.7473  144.8788  161.1015 H   0  0  0  0  0  0  0  0  0  0  0  0
  1  2  1  0  0  0  0
  1 22  1  0  0  0  0
  1 23  1  0  0  0  0
  1 24  1  0  0  0  0
  2  3  1  0  0  0  0
  2 25  1  0  0  0  0
  3  4  2  0  0  0  0
  3  5  1  0  0  0  0
  5  6  1  0  0  0  0
  5 26  1  0  0  0  0
  6  7  2  0  0  0  0
  6  8  1  0  0  0  0
  8  9  1  0  0  0  0
  8 27  1  0  0  0  0
  8 28  1  0  0  0  0
  9 20  1  0  0  0  0
  9 10  1  0  0  0  0
 10 11  2  0  0  0  0
 10 12  1  0  0  0  0
 12 13  1  0  0  0  0
 12 15  2  0  0  0  0
 13 14  3  0  0  0  0
 15 16  1  0  0  0  0
 15 29  1  0  0  0  0
 16 17  1  0  0  0  0
 16 20  1  0  0  0  0
 17 19  1  0  0  0  0
 17 18  1  0  0  0  0
 17 30  1  0  0  0  0
 18 19  1  0  0  0  0
 18 31  1  0  0  0  0
 18 32  1  0  0  0  0
 19 33  1  0  0  0  0
 19 34  1  0  0  0  0
 20 21  2  0  0  0  0
M  END
> <s_m_source_file>
AV-unprocessed.smi

> <i_m_source_file_index>
388

> <i_lp_mmshare_version>
43012

> <i_f3d_flags>
0

> <s_epik_input>
W0NIM11bTkhdQyg9TylbTkhdQyg9TylbQ0gyXW4xYyg9TyljKEMjTilbY0hdbihjMT1PKVtDSF0yW0NIMl1bQ0gyXTI=

> <s_epik_cmdline>
J2VwaWtfcHl0aG9uJywgJy1waCcsICc3LjAnLCAnLXRuJywgJzgnLCAnLW1hJywgJzIwMCcsICctbWV0YWxfYmluZGluZycsICctaW1hZScsICc8aW5maWxlLm1hZT4nLCAnLW9tYWUnLCAnPG91dGZpbGUubWFlPic=

> <r_lp_tautomer_probability>
1

> <r_epik_Ionization_Penalty>
2.95777e-05

> <r_epik_Ionization_Penalty_Charging>
6.31124e-11

> <r_epik_Ionization_Penalty_Neutral>
2.95776e-05

> <r_epik_State_Penalty>
-0

> <r_epik_Charging_Adjusted_Penalty>
6.31124e-11

> <i_epik_Tot_Q>
0

> <i_epik_Tot_abs_Q>
0

> <r_epik_Metal_State_Penalty>
-0

> <b_epik_Metal_Only>
0

> <s_lp_Force_Field>
OPLS_2005

> <r_lp_Energy>
33.5858

> <b_lp_Chiralities_Consistent>
1

> <s_lp_Variant>
AV-unprocessed.smi:388-1

> <Gold.Version>
5.8.1

> <Gold.Id.Protein>
6NUR|6NUR_protein|mol2

> <Gold.PLP.Fitness>
47.2442

> <Gold.PLP.PLP>
-41.6975

> <Gold.PLP.part.hbond>
-2.8625

> <Gold.PLP.part.metal>
0.0000

> <Gold.PLP.part.buried>
-4.7583

> <Gold.PLP.part.nonpolar>
-35.1292

> <Gold.PLP.part.repulsive>
0.6786

> <Gold.PLP.ligand.clash>
0.0000

> <Gold.PLP.ligand.torsion>
0.3252

> <Gold.PLP.Chemscore.Hbond>
2.0000

> <Gold.PLP.Chemscore.CHOScore>
0.0000

> <Gold.PLP.Chemscore.Metal>
0.0000

> <Gold.Chemscore.Hbonds>
donor molecule, donor type, donor heavy atom, donor atom, acceptor molecule, acceptor atom, score
      P1  H  7989  7998       L1     4  1.00
      P1  H  7997  8008       L1     7  0.89

> <Gold.PLP.Chemscore.Internal.Correction>
0.1971

> <Gold.Rescore>
     Score         DG    S(hbond)    S(metal)    S(lipo)     H(rot)  DE(clash)    DE(int)     intcor
      9.52     -15.34       1.99        0.00      68.38       1.87       1.90       3.92       ----

> <Gold.Chemscore.Fitness>
9.5161

> <Gold.Chemscore.DG>
-15.3411

> <Gold.Chemscore.ZeroCoef>
-5.4800

> <Gold.Chemscore.Hbond>
1.9879

> <Gold.Chemscore.Metal>
0.0000

> <Gold.Chemscore.Lipo>
68.3766

> <Gold.Chemscore.Internal_Hbond>
0.0000

> <Gold.Chemscore.DEClash>
1.9026

> <Gold.Chemscore.DEInternal>
3.9223

> <Gold.Chemscore.Rot>
1.8667

> <Gold.Chemscore.Internal.Correction>
   9.000000E+99

> <Gold.Chemscore.Hbonds>
donor molecule, donor type, donor heavy atom, donor atom, acceptor molecule, acceptor atom, score
      P1  H  7989  7998       L1     4  0.94
      P1  H  7997  8008       L1     7  0.86

> <Gold.Chemscore.Hbond.Weighted>
-6.6397

> <Gold.Chemscore.Metal.Weighted>
-0.0000

> <Gold.Chemscore.Lipo.Weighted>
-8.0001

> <Gold.Chemscore.Internal_Hbond.Weighted>
0.0000

> <Gold.Chemscore.DEClash.Weighted>
1.9026

> <Gold.Chemscore.DEInternal.Weighted>
3.9223

> <Gold.Chemscore.Rot.Weighted>
4.7787

> <Gold.Chemscore.Internal.Correction.Weighted>
   9.000000E+99

> <Gold.Protein.RotatedTorsions>
[ 6907 6896 6895 6894 ] final  167.13 input  -60.11 | X-H torsion
[ 7974 7965 7964 7962 ] final   92.11 input  175.53 | X-H torsion
[ 8008 7997 7996 7995 ] final  -46.95 input   59.86 | X-H torsion
[ 10167 10162 10161 10158 ] final  115.34 input  -65.29 | X-H torsion
[ 10718 10713 10712 10709 ] final  103.93 input   66.30 | X-H torsion
[ 10763 10752 10751 10750 ] final -166.09 input  -60.55 | X-H torsion
[ 11005 11000 10999 10996 ] final   13.36 input  -57.11 | X-H torsion

> <Gold.Protein.ActiveResidues>
 VAL166  LYS551  ARG553  GLY616  TRP617  ASP618  TYR619  PRO620  LYS621  CYS622 
 ASP623  PHE694  ASN695  SER759  ASP760  ASP761  ALA762  ILE779  LEU786  VAL792 
 PHE793  MET794  SER795  GLU796  ALA797  LYS798  CYS799  TRP800  GLU811  SER814 

> <Gold.Protein.RotatedAtoms>
  151.8682  133.3470  159.3725 H   0  0  0  0  0  0  0  0  0  0  0  0  # atno 6907 bound_to 6896
  150.7160  134.5139  159.5630 H   0  0  0  0  0  0  0  0  0  0  0  0  # atno 6908 bound_to 6896
  152.2666  134.7978  160.0472 H   0  0  0  0  0  0  0  0  0  0  0  0  # atno 6909 bound_to 6896
  145.4967  139.2276  143.2800 H   0  0  0  0  0  0  0  0  0  0  0  0  # atno 7974 bound_to 7965
  154.4012  140.1358  156.4096 H   0  0  0  0  0  0  0  0  0  0  0  0  # atno 8008 bound_to 7997
  155.7746  140.3483  155.5245 H   0  0  0  0  0  0  0  0  0  0  0  0  # atno 8009 bound_to 7997
  155.8733  140.0975  157.1525 H   0  0  0  0  0  0  0  0  0  0  0  0  # atno 8010 bound_to 7997
  139.6324  144.7116  151.2405 H   0  0  0  0  0  0  0  0  0  0  0  0  # atno 10167 bound_to 10162
  157.6757  131.0791  150.5629 H   0  0  0  0  0  0  0  0  0  0  0  0  # atno 10718 bound_to 10713
  154.6867  135.2963  154.9537 H   0  0  0  0  0  0  0  0  0  0  0  0  # atno 10763 bound_to 10752
  154.0514  135.6644  153.4805 H   0  0  0  0  0  0  0  0  0  0  0  0  # atno 10764 bound_to 10752
  153.0584  135.5130  154.7938 H   0  0  0  0  0  0  0  0  0  0  0  0  # atno 10765 bound_to 10752
  140.4816  134.0929  155.7752 H   0  0  0  0  0  0  0  0  0  0  0  0  # atno 11005 bound_to 11000
  146.2251  140.5765  142.9000 LP  0  0  0  0  0  0  0  0  0  0  0  0  # atno 17320 bound_to 7965
  144.7803  140.5826  143.6610 LP  0  0  0  0  0  0  0  0  0  0  0  0  # atno 17321 bound_to 7965
  140.7446  143.6457  150.8294 LP  0  0  0  0  0  0  0  0  0  0  0  0  # atno 17342 bound_to 10162
  140.0083  143.5669  152.2849 LP  0  0  0  0  0  0  0  0  0  0  0  0  # atno 17343 bound_to 10162
  156.5932  130.4335  149.5928 LP  0  0  0  0  0  0  0  0  0  0  0  0  # atno 17370 bound_to 10713
  156.2566  130.6938  151.1693 LP  0  0  0  0  0  0  0  0  0  0  0  0  # atno 17371 bound_to 10713
  141.1528  133.8937  157.2054 LP  0  0  0  0  0  0  0  0  0  0  0  0  # atno 17394 bound_to 11000
  139.9823  135.0094  156.9779 LP  0  0  0  0  0  0  0  0  0  0  0  0  # atno 17395 bound_to 11000

$$$$
