AV-unprocessed.smi:1434|AV-procd|sdf|5854|dock3
  -GOLD-   22720 5523D 1   1.00000     0.00000
 Structure written by MMmdl.
 43 44  0  0  0  0  0  0  0  0  2 V2000
  151.6907  138.2185  156.6016 C   0  0  0  0  0  0  0  0  0  0  0  0
  152.2756  138.6360  154.9035 S   0  0  0  0  0  0  0  0  0  0  0  0
  153.7018  138.9819  155.0316 O   0  0  0  0  0  0  0  0  0  0  0  0
  151.9509  137.4555  154.0888 O   0  0  0  0  0  0  0  0  0  0  0  0
  151.3218  139.8959  154.5158 N   0  5  0  0  0  0  0  0  0  0  0  0
  149.8738  139.8116  154.6495 C   0  0  1  0  0  0  0  0  0  0  0  0
  149.2173  141.1944  154.3974 C   0  0  0  0  0  0  0  0  0  0  0  0
  147.6686  141.1344  154.2816 C   0  0  0  0  0  0  0  0  0  0  0  0
  147.1874  140.0389  153.3008 C   0  0  0  0  0  0  0  0  0  0  0  0
  147.8089  138.7676  153.7317 N   0  0  0  0  0  0  0  0  0  0  0  0
  147.1489  137.7059  154.2652 C   0  0  0  0  0  0  0  0  0  0  0  0
  145.9930  137.7721  154.6858 O   0  0  0  0  0  0  0  0  0  0  0  0
  147.8195  136.5419  154.1953 N   0  0  0  0  0  0  0  0  0  0  0  0
  147.2533  135.2181  154.4443 C   0  0  0  0  0  0  0  0  0  0  0  0
  147.3860  134.2956  153.2150 C   0  0  0  0  0  0  0  0  0  0  0  0
  146.3316  134.5407  152.1469 C   0  0  0  0  0  0  0  0  0  0  0  0
  145.8031  133.4679  151.3962 C   0  0  0  0  0  0  0  0  0  0  0  0
  144.8643  133.7529  150.3860 C   0  0  0  0  0  0  0  0  0  0  0  0
  144.4895  135.0922  150.1687 C   0  0  0  0  0  0  0  0  0  0  0  0
  145.0705  136.0904  150.9758 C   0  0  0  0  0  0  0  0  0  0  0  0
  145.9699  135.8281  151.9488 N   0  0  0  0  0  0  0  0  0  0  0  0
  149.2860  138.7961  153.6312 C   0  0  0  0  0  0  0  0  0  0  0  0
  152.2098  137.3265  156.9502 H   0  0  0  0  0  0  0  0  0  0  0  0
  150.6183  138.0268  156.5791 H   0  0  0  0  0  0  0  0  0  0  0  0
  151.8986  139.0431  157.2822 H   0  0  0  0  0  0  0  0  0  0  0  0
  149.5840  139.4747  155.6452 H   0  0  0  0  0  0  0  0  0  0  0  0
  149.4996  141.8915  155.1871 H   0  0  0  0  0  0  0  0  0  0  0  0
  149.6104  141.6124  153.4692 H   0  0  0  0  0  0  0  0  0  0  0  0
  147.2314  140.9534  155.2653 H   0  0  0  0  0  0  0  0  0  0  0  0
  147.2895  142.1052  153.9618 H   0  0  0  0  0  0  0  0  0  0  0  0
  146.0986  140.0155  153.2539 H   0  0  0  0  0  0  0  0  0  0  0  0
  147.5204  140.2720  152.2883 H   0  0  0  0  0  0  0  0  0  0  0  0
  148.7600  136.5696  153.8296 H   0  0  0  0  0  0  0  0  0  0  0  0
  147.7742  134.7751  155.2932 H   0  0  0  0  0  0  0  0  0  0  0  0
  146.2056  135.2949  154.7393 H   0  0  0  0  0  0  0  0  0  0  0  0
  148.3732  134.4257  152.7696 H   0  0  0  0  0  0  0  0  0  0  0  0
  147.3349  133.2528  153.5309 H   0  0  0  0  0  0  0  0  0  0  0  0
  146.1221  132.4519  151.5755 H   0  0  0  0  0  0  0  0  0  0  0  0
  144.4476  132.9603  149.7822 H   0  0  0  0  0  0  0  0  0  0  0  0
  143.7778  135.3479  149.3976 H   0  0  0  0  0  0  0  0  0  0  0  0
  144.8061  137.1278  150.8353 H   0  0  0  0  0  0  0  0  0  0  0  0
  149.5640  139.0772  152.6139 H   0  0  0  0  0  0  0  0  0  0  0  0
  149.7315  137.8137  153.7953 H   0  0  0  0  0  0  0  0  0  0  0  0
  1  2  1  0  0  0  0
  1 23  1  0  0  0  0
  1 24  1  0  0  0  0
  1 25  1  0  0  0  0
  2  3  2  0  0  0  0
  2  4  2  0  0  0  0
  2  5  1  0  0  0  0
  5  6  1  0  0  0  0
  6 22  1  0  0  0  0
  6  7  1  0  0  0  0
  6 26  1  0  0  0  0
  7  8  1  0  0  0  0
  7 27  1  0  0  0  0
  7 28  1  0  0  0  0
  8  9  1  0  0  0  0
  8 29  1  0  0  0  0
  8 30  1  0  0  0  0
  9 10  1  0  0  0  0
  9 31  1  0  0  0  0
  9 32  1  0  0  0  0
 10 11  1  0  0  0  0
 10 22  1  0  0  0  0
 11 12  2  0  0  0  0
 11 13  1  0  0  0  0
 13 14  1  0  0  0  0
 13 33  1  0  0  0  0
 14 15  1  0  0  0  0
 14 34  1  0  0  0  0
 14 35  1  0  0  0  0
 15 16  1  0  0  0  0
 15 36  1  0  0  0  0
 15 37  1  0  0  0  0
 16 21  1  0  0  0  0
 16 17  2  0  0  0  0
 17 18  1  0  0  0  0
 17 38  1  0  0  0  0
 18 19  2  0  0  0  0
 18 39  1  0  0  0  0
 19 20  1  0  0  0  0
 19 40  1  0  0  0  0
 20 21  2  0  0  0  0
 20 41  1  0  0  0  0
 22 42  1  0  0  0  0
 22 43  1  0  0  0  0
M  CHG  1   5  -1
M  END
> <s_m_source_file>
AV-unprocessed.smi

> <i_m_source_file_index>
1434

> <i_lp_mmshare_version>
43012

> <i_f3d_flags>
0

> <s_epik_input>
W0NIM11TKD1PKSg9TylbTkhdW0NAQEhdMVtDSDJdW0NIMl1bQ0gyXU4oW0NIMl0xKUMoPU8pW05IXVtDSDJdW0NIMl1jMltjSF1bY0hdW2NIXVtjSF1uMg==

> <s_epik_cmdline>
J2VwaWtfcHl0aG9uJywgJy1waCcsICc3LjAnLCAnLXRuJywgJzgnLCAnLW1hJywgJzIwMCcsICctbWV0YWxfYmluZGluZycsICctaW1hZScsICc8aW5maWxlLm1hZT4nLCAnLW9tYWUnLCAnPG91dGZpbGUubWFlPic=

> <r_epik_Ionization_Penalty>
6.57847

> <r_epik_Ionization_Penalty_Charging>
6.53351

> <r_epik_Ionization_Penalty_Neutral>
0.0449527

> <r_epik_State_Penalty>
6.57157

> <r_epik_Charging_Adjusted_Penalty>
13.1051

> <i_epik_Tot_Q>
-1

> <i_epik_Tot_abs_Q>
1

> <r_epik_Metal_State_Penalty>
2.53928

> <b_epik_Metal_Only>
1

> <s_lp_Force_Field>
OPLS_2005

> <r_lp_Energy>
21.2682

> <b_lp_Chiralities_Consistent>
1

> <s_lp_Variant>
AV-unprocessed.smi:1434-6

> <Gold.Version>
5.8.1

> <Gold.Id.Protein>
6NUR|6NUR_protein|mol2

> <Gold.PLP.Fitness>
43.8675

> <Gold.PLP.PLP>
-33.1662

> <Gold.PLP.part.hbond>
-4.0000

> <Gold.PLP.part.metal>
0.0000

> <Gold.PLP.part.buried>
-1.2140

> <Gold.PLP.part.nonpolar>
-28.0662

> <Gold.PLP.part.repulsive>
0.5738

> <Gold.PLP.ligand.clash>
0.0801

> <Gold.PLP.ligand.torsion>
1.1908

> <Gold.PLP.Chemscore.Hbond>
3.0491

> <Gold.PLP.Chemscore.CHOScore>
1.0000

> <Gold.PLP.Chemscore.Metal>
0.0000

> <Gold.Chemscore.Hbonds>
donor molecule, donor type, donor heavy atom, donor atom, acceptor molecule, acceptor atom, score
      L1  H    13    33       P1  7948  0.34
      P1  H  7989  7998       L1     5  0.76
      P1  H  7997  8009       L1     3  0.98
      P1  H 10752 10763       L1     4  0.87
      L1  C    20    41       P1 10171  0.95

> <Gold.PLP.Chemscore.Internal.Correction>
1.0155

> <Gold.Rescore>
     Score         DG    S(hbond)    S(metal)    S(lipo)     H(rot)  DE(clash)    DE(int)     intcor
     16.37     -19.45       2.91        0.00      73.06       1.68       0.81       2.27       ----

> <Gold.Chemscore.Fitness>
16.3737

> <Gold.Chemscore.DG>
-19.4528

> <Gold.Chemscore.ZeroCoef>
-5.4800

> <Gold.Chemscore.Hbond>
2.9128

> <Gold.Chemscore.Metal>
0.0000

> <Gold.Chemscore.Lipo>
73.0634

> <Gold.Chemscore.Internal_Hbond>
0.0000

> <Gold.Chemscore.DEClash>
0.8111

> <Gold.Chemscore.DEInternal>
2.2680

> <Gold.Chemscore.Rot>
1.6813

> <Gold.Chemscore.Internal.Correction>
   9.000000E+99

> <Gold.Chemscore.Hbonds>
donor molecule, donor type, donor heavy atom, donor atom, acceptor molecule, acceptor atom, score
      L1  H    13    33       P1  7948  0.33
      P1  H  7989  7998       L1     5  0.53
      P1  H  7997  8009       L1     3  0.93
      P1  H 10752 10763       L1     4  0.80

> <Gold.Chemscore.Hbond.Weighted>
-9.7287

> <Gold.Chemscore.Metal.Weighted>
-0.0000

> <Gold.Chemscore.Lipo.Weighted>
-8.5484

> <Gold.Chemscore.Internal_Hbond.Weighted>
0.0000

> <Gold.Chemscore.DEClash.Weighted>
0.8111

> <Gold.Chemscore.DEInternal.Weighted>
2.2680

> <Gold.Chemscore.Rot.Weighted>
4.3042

> <Gold.Chemscore.Internal.Correction.Weighted>
   9.000000E+99

> <Gold.Protein.RotatedTorsions>
[ 6907 6896 6895 6894 ] final  -31.58 input  -60.11 | X-H torsion
[ 7974 7965 7964 7962 ] final  130.59 input  175.53 | X-H torsion
[ 8008 7997 7996 7995 ] final -134.47 input   59.86 | X-H torsion
[ 10167 10162 10161 10158 ] final   88.85 input  -65.29 | X-H torsion
[ 10718 10713 10712 10709 ] final  172.78 input   66.30 | X-H torsion
[ 10763 10752 10751 10750 ] final   40.87 input  -60.55 | X-H torsion
[ 11005 11000 10999 10996 ] final -177.80 input  -57.11 | X-H torsion

> <Gold.Protein.ActiveResidues>
 VAL166  LYS551  ARG553  GLY616  TRP617  ASP618  TYR619  PRO620  LYS621  CYS622 
 ASP623  PHE694  ASN695  SER759  ASP760  ASP761  ALA762  ILE779  LEU786  VAL792 
 PHE793  MET794  SER795  GLU796  ALA797  LYS798  CYS799  TRP800  GLU811  SER814 

> <Gold.Protein.RotatedAtoms>
  151.0902  134.9911  159.8398 H   0  0  0  0  0  0  0  0  0  0  0  0  # atno 6907 bound_to 6896
  152.5428  134.2075  159.8747 H   0  0  0  0  0  0  0  0  0  0  0  0  # atno 6908 bound_to 6896
  151.2111  133.4511  159.2631 H   0  0  0  0  0  0  0  0  0  0  0  0  # atno 6909 bound_to 6896
  145.0163  139.4173  143.5219 H   0  0  0  0  0  0  0  0  0  0  0  0  # atno 7974 bound_to 7965
  155.3626  140.0483  157.3046 H   0  0  0  0  0  0  0  0  0  0  0  0  # atno 8008 bound_to 7997
  154.5170  140.2212  155.9010 H   0  0  0  0  0  0  0  0  0  0  0  0  # atno 8009 bound_to 7997
  156.1648  140.3109  155.8875 H   0  0  0  0  0  0  0  0  0  0  0  0  # atno 8010 bound_to 7997
  139.8632  144.6533  150.9034 H   0  0  0  0  0  0  0  0  0  0  0  0  # atno 10167 bound_to 10162
  156.9739  131.0098  151.2898 H   0  0  0  0  0  0  0  0  0  0  0  0  # atno 10718 bound_to 10713
  152.9924  135.6179  154.2695 H   0  0  0  0  0  0  0  0  0  0  0  0  # atno 10763 bound_to 10752
  154.2429  135.2788  155.2849 H   0  0  0  0  0  0  0  0  0  0  0  0  # atno 10764 bound_to 10752
  154.5354  135.5776  153.6852 H   0  0  0  0  0  0  0  0  0  0  0  0  # atno 10765 bound_to 10752
  140.4368  134.6468  157.4739 H   0  0  0  0  0  0  0  0  0  0  0  0  # atno 11005 bound_to 11000
  146.3478  139.9636  142.8714 LP  0  0  0  0  0  0  0  0  0  0  0  0  # atno 17320 bound_to 7965
  145.1955  140.9831  143.4186 LP  0  0  0  0  0  0  0  0  0  0  0  0  # atno 17321 bound_to 7965
  140.7772  143.3727  151.1620 LP  0  0  0  0  0  0  0  0  0  0  0  0  # atno 17342 bound_to 10162
  139.7354  143.9007  152.3033 LP  0  0  0  0  0  0  0  0  0  0  0  0  # atno 17343 bound_to 10162
  157.5573  130.8222  149.8221 LP  0  0  0  0  0  0  0  0  0  0  0  0  # atno 17370 bound_to 10713
  156.0271  130.3776  150.1791 LP  0  0  0  0  0  0  0  0  0  0  0  0  # atno 17371 bound_to 10713
  140.0096  134.6710  155.9401 LP  0  0  0  0  0  0  0  0  0  0  0  0  # atno 17394 bound_to 11000
  141.1722  133.6538  156.4695 LP  0  0  0  0  0  0  0  0  0  0  0  0  # atno 17395 bound_to 11000

$$$$
