AV-unprocessed.smi:2405|AV-procd|sdf|9512|dock6
  -GOLD-   2272013143D 1   1.00000     0.00000
 Structure written by MMmdl.
 36 37  0  0  0  0  0  0  0  0  2 V2000
  151.9181  144.4072  157.4289 C   0  0  0  0  0  0  0  0  0  0  0  0
  151.7818  144.8565  158.8876 C   0  0  0  0  0  0  0  0  0  0  0  0
  152.2926  143.8358  159.8479 C   0  0  0  0  0  0  0  0  0  0  0  0
  152.9040  142.7107  159.4693 N   0  0  0  0  0  0  0  0  0  0  0  0
  153.3434  141.9431  160.5533 C   0  0  0  0  0  0  0  0  0  0  0  0
  154.0721  140.6502  160.3159 C   0  0  0  0  0  0  0  0  0  0  0  0
  153.2320  139.7027  159.4548 C   0  0  0  0  0  0  0  0  0  0  0  0
  153.0185  138.5523  159.8367 O   0  0  0  0  0  0  0  0  0  0  0  0
  152.7629  140.1963  158.2977 N   0  0  0  0  0  0  0  0  0  0  0  0
  151.8930  139.4829  157.3685 C   0  0  2  0  0  0  0  0  0  0  0  0
  152.5715  138.1878  156.8842 C   0  0  0  0  0  0  0  0  0  0  0  0
  152.9083  138.4144  155.4070 C   0  0  0  0  0  0  0  0  0  0  0  0
  151.8317  139.3810  154.8988 C   0  0  1  0  0  0  0  0  0  0  0  0
  150.5629  138.6083  154.4840 C   0  0  0  0  0  0  0  0  0  0  0  0
  150.5630  137.3591  154.5597 O   0  0  0  0  0  0  0  0  0  0  0  0
  149.6007  139.2984  154.0812 O   0  5  0  0  0  0  0  0  0  0  0  0
  151.6146  140.3197  156.1007 C   0  0  0  0  0  0  0  0  0  0  0  0
  153.0433  142.5065  161.7694 C   0  0  0  0  0  0  0  0  0  0  0  0
  152.2195  144.0312  161.5951 S   0  0  0  0  0  0  0  0  0  0  0  0
  151.5382  145.1703  156.7495 H   0  0  0  0  0  0  0  0  0  0  0  0
  151.3577  143.4895  157.2463 H   0  0  0  0  0  0  0  0  0  0  0  0
  152.9607  144.2193  157.1710 H   0  0  0  0  0  0  0  0  0  0  0  0
  152.3285  145.7868  159.0432 H   0  0  0  0  0  0  0  0  0  0  0  0
  150.7363  145.0655  159.1171 H   0  0  0  0  0  0  0  0  0  0  0  0
  155.0242  140.8282  159.8147 H   0  0  0  0  0  0  0  0  0  0  0  0
  154.3084  140.1656  161.2643 H   0  0  0  0  0  0  0  0  0  0  0  0
  152.9901  141.1516  158.0635 H   0  0  0  0  0  0  0  0  0  0  0  0
  150.9554  139.2255  157.8649 H   0  0  0  0  0  0  0  0  0  0  0  0
  153.4534  137.9156  157.4656 H   0  0  0  0  0  0  0  0  0  0  0  0
  151.8665  137.3597  156.9697 H   0  0  0  0  0  0  0  0  0  0  0  0
  153.8872  138.8880  155.3215 H   0  0  0  0  0  0  0  0  0  0  0  0
  152.9541  137.4783  154.8483 H   0  0  0  0  0  0  0  0  0  0  0  0
  152.1838  139.9388  154.0301 H   0  0  0  0  0  0  0  0  0  0  0  0
  150.6268  140.7820  156.1241 H   0  0  0  0  0  0  0  0  0  0  0  0
  152.3287  141.1418  156.0239 H   0  0  0  0  0  0  0  0  0  0  0  0
  153.2686  142.1244  162.7539 H   0  0  0  0  0  0  0  0  0  0  0  0
  1  2  1  0  0  0  0
  1 20  1  0  0  0  0
  1 21  1  0  0  0  0
  1 22  1  0  0  0  0
  2  3  1  0  0  0  0
  2 23  1  0  0  0  0
  2 24  1  0  0  0  0
  3 19  1  0  0  0  0
  3  4  2  0  0  0  0
  4  5  1  0  0  0  0
  5  6  1  0  0  0  0
  5 18  2  0  0  0  0
  6  7  1  0  0  0  0
  6 25  1  0  0  0  0
  6 26  1  0  0  0  0
  7  8  2  0  0  0  0
  7  9  1  0  0  0  0
  9 10  1  0  0  0  0
  9 27  1  0  0  0  0
 10 17  1  0  0  0  0
 10 11  1  0  0  0  0
 10 28  1  0  0  0  0
 11 12  1  0  0  0  0
 11 29  1  0  0  0  0
 11 30  1  0  0  0  0
 12 13  1  0  0  0  0
 12 31  1  0  0  0  0
 12 32  1  0  0  0  0
 13 14  1  0  0  0  0
 13 17  1  0  0  0  0
 13 33  1  0  0  0  0
 14 15  2  0  0  0  0
 14 16  1  0  0  0  0
 17 34  1  0  0  0  0
 17 35  1  0  0  0  0
 18 19  1  0  0  0  0
 18 36  1  0  0  0  0
M  CHG  1  16  -1
M  END
> <s_m_source_file>
AV-unprocessed.smi

> <i_m_source_file_index>
2405

> <i_lp_mmshare_version>
43012

> <i_f3d_flags>
0

> <s_epik_input>
W0NIM11bQ0gyXWMxbmMoW2NIXXMxKVtDSDJdQyg9TylbTkhdW0NAQEhdMltDSDJdW0NIMl1bQ0BIXShbQ0gyXTIpQyg9TylbT0hd

> <s_epik_cmdline>
J2VwaWtfcHl0aG9uJywgJy1waCcsICc3LjAnLCAnLXRuJywgJzgnLCAnLW1hJywgJzIwMCcsICctbWV0YWxfYmluZGluZycsICctaW1hZScsICc8aW5maWxlLm1hZT4nLCAnLW9tYWUnLCAnPG91dGZpbGUubWFlPic=

> <r_epik_Ionization_Penalty>
0.000544611

> <r_epik_Ionization_Penalty_Charging>
0.000481685

> <r_epik_Ionization_Penalty_Neutral>
6.29266e-05

> <r_epik_State_Penalty>
0.00029893

> <r_epik_Charging_Adjusted_Penalty>
0.000780614

> <i_epik_Tot_Q>
-1

> <i_epik_Tot_abs_Q>
1

> <r_epik_Metal_State_Penalty>
-0

> <b_epik_Metal_Only>
0

> <s_lp_Force_Field>
OPLS_2005

> <r_lp_Energy>
8.39141

> <b_lp_Chiralities_Consistent>
1

> <s_lp_Variant>
AV-unprocessed.smi:2405-1

> <Gold.Version>
5.8.1

> <Gold.Id.Protein>
6NUR|6NUR_protein|mol2

> <Gold.PLP.Fitness>
45.2861

> <Gold.PLP.PLP>
-45.4461

> <Gold.PLP.part.hbond>
0.0000

> <Gold.PLP.part.metal>
0.0000

> <Gold.PLP.part.buried>
-5.5749

> <Gold.PLP.part.nonpolar>
-39.7493

> <Gold.PLP.part.repulsive>
1.0671

> <Gold.PLP.ligand.clash>
0.0000

> <Gold.PLP.ligand.torsion>
0.1055

> <Gold.PLP.Chemscore.Hbond>
0.0000

> <Gold.PLP.Chemscore.CHOScore>
0.0000

> <Gold.PLP.Chemscore.Metal>
0.0000

> <Gold.PLP.Chemscore.Internal.Correction>
0.0509

> <Gold.Rescore>
     Score         DG    S(hbond)    S(metal)    S(lipo)     H(rot)  DE(clash)    DE(int)     intcor
     13.58     -13.75       0.00        0.00     115.82       2.06       0.05       0.12       ----

> <Gold.Chemscore.Fitness>
13.5754

> <Gold.Chemscore.DG>
-13.7482

> <Gold.Chemscore.ZeroCoef>
-5.4800

> <Gold.Chemscore.Hbond>
0.0000

> <Gold.Chemscore.Metal>
0.0000

> <Gold.Chemscore.Lipo>
115.8177

> <Gold.Chemscore.Internal_Hbond>
0.0000

> <Gold.Chemscore.DEClash>
0.0521

> <Gold.Chemscore.DEInternal>
0.1208

> <Gold.Chemscore.Rot>
2.0635

> <Gold.Chemscore.Internal.Correction>
   9.000000E+99

> <Gold.Chemscore.Hbond.Weighted>
-0.0000

> <Gold.Chemscore.Metal.Weighted>
-0.0000

> <Gold.Chemscore.Lipo.Weighted>
-13.5507

> <Gold.Chemscore.Internal_Hbond.Weighted>
0.0000

> <Gold.Chemscore.DEClash.Weighted>
0.0521

> <Gold.Chemscore.DEInternal.Weighted>
0.1208

> <Gold.Chemscore.Rot.Weighted>
5.2825

> <Gold.Chemscore.Internal.Correction.Weighted>
   9.000000E+99

> <Gold.Protein.RotatedTorsions>
[ 6907 6896 6895 6894 ] final -150.84 input  -60.11 | X-H torsion
[ 7974 7965 7964 7962 ] final  -32.79 input  175.53 | X-H torsion
[ 8008 7997 7996 7995 ] final  -91.60 input   59.86 | X-H torsion
[ 10167 10162 10161 10158 ] final -151.16 input  -65.29 | X-H torsion
[ 10718 10713 10712 10709 ] final   61.54 input   66.30 | X-H torsion
[ 10763 10752 10751 10750 ] final -126.69 input  -60.55 | X-H torsion
[ 11005 11000 10999 10996 ] final   89.53 input  -57.11 | X-H torsion

> <Gold.Protein.ActiveResidues>
 VAL166  LYS551  ARG553  GLY616  TRP617  ASP618  TYR619  PRO620  LYS621  CYS622 
 ASP623  PHE694  ASN695  SER759  ASP760  ASP761  ALA762  ILE779  LEU786  VAL792 
 PHE793  MET794  SER795  GLU796  ALA797  LYS798  CYS799  TRP800  GLU811  SER814 

> <Gold.Protein.RotatedAtoms>
  151.2044  133.4592  159.2596 H   0  0  0  0  0  0  0  0  0  0  0  0  # atno 6907 bound_to 6896
  151.1038  134.9987  159.8471 H   0  0  0  0  0  0  0  0  0  0  0  0  # atno 6908 bound_to 6896
  152.5445  134.1968  159.8749 H   0  0  0  0  0  0  0  0  0  0  0  0  # atno 6909 bound_to 6896
  146.0962  140.5836  142.8841 H   0  0  0  0  0  0  0  0  0  0  0  0  # atno 7974 bound_to 7965
  154.7127  140.0518  157.0565 H   0  0  0  0  0  0  0  0  0  0  0  0  # atno 8008 bound_to 7997
  155.0533  140.3181  155.4666 H   0  0  0  0  0  0  0  0  0  0  0  0  # atno 8009 bound_to 7997
  156.2794  140.2112  156.5659 H   0  0  0  0  0  0  0  0  0  0  0  0  # atno 8010 bound_to 7997
  139.7291  143.8836  152.2529 H   0  0  0  0  0  0  0  0  0  0  0  0  # atno 10167 bound_to 10162
  157.5836  130.9000  149.9474 H   0  0  0  0  0  0  0  0  0  0  0  0  # atno 10718 bound_to 10713
  154.8747  135.3987  154.3471 H   0  0  0  0  0  0  0  0  0  0  0  0  # atno 10763 bound_to 10752
  153.4262  135.7024  153.6266 H   0  0  0  0  0  0  0  0  0  0  0  0  # atno 10764 bound_to 10752
  153.4907  135.3749  155.2460 H   0  0  0  0  0  0  0  0  0  0  0  0  # atno 10765 bound_to 10752
  139.8873  134.8557  156.3155 H   0  0  0  0  0  0  0  0  0  0  0  0  # atno 11005 bound_to 11000
  144.7397  140.4909  143.6878 LP  0  0  0  0  0  0  0  0  0  0  0  0  # atno 17320 bound_to 7965
  145.5943  139.1498  143.3165 LP  0  0  0  0  0  0  0  0  0  0  0  0  # atno 17321 bound_to 7965
  139.8754  144.7046  150.8939 LP  0  0  0  0  0  0  0  0  0  0  0  0  # atno 17342 bound_to 10162
  140.7768  143.3704  151.1660 LP  0  0  0  0  0  0  0  0  0  0  0  0  # atno 17343 bound_to 10162
  156.0883  130.3666  150.0444 LP  0  0  0  0  0  0  0  0  0  0  0  0  # atno 17370 bound_to 10713
  156.8579  130.9481  151.3620 LP  0  0  0  0  0  0  0  0  0  0  0  0  # atno 17371 bound_to 10713
  140.9822  133.7260  156.0689 LP  0  0  0  0  0  0  0  0  0  0  0  0  # atno 17394 bound_to 11000
  140.7735  134.3806  157.5503 LP  0  0  0  0  0  0  0  0  0  0  0  0  # atno 17395 bound_to 11000

$$$$
