#       Name:                AV-unprocessed.smi:693
#       Creating user name   scv26
#       Creation time:       Fri Mar 27 00:35:37 2020


#       File generated by GOLD software.
#

@<TRIPOS>MOLECULE
AV-unprocessed.smi:693
    51    52     1
SMALL
NO_CHARGES


@<TRIPOS>ATOM
      1 ****        -7.9450  -0.4832   0.5708 C.3            1 S1                 0.0000
      2 ****        -6.5107   0.0021   0.5671 C.ar           1 S1                 0.0000
      3 ****        -5.9876   0.7904   1.6140 C.ar           1 S1                 0.0000
      4 ****        -4.6423   1.2106   1.5544 C.ar           1 S1                 0.0000
      5 ****        -3.8480   0.8340   0.4493 C.ar           1 S1                 0.0000
      6 ****        -2.3955   1.2583   0.3573 C.3            1 S1                 0.0000
      7 ****        -1.4577   0.2549   1.0479 C.3            1 S1                 0.0000
      8 ****        -0.0584   0.6385   0.9022 N.am           1 S1                 0.0000
      9 ****         0.6962   0.4062  -0.1857 C.2            1 S1                 0.0000
     10 ****         0.2406  -0.1466  -1.1882 O.2            1 S1                 0.0000
     11 ****         1.9755   0.8514  -0.0986 N.am           1 S1                 0.0000
     12 ****         2.6494   1.3321   1.1183 C.3            1 S1                 0.0000
     13 ****         3.6128   0.2370   1.6050 C.3            1 S1                 0.0000
     14 ****         4.6148  -0.1505   0.5006 C.3            1 S1                 0.0000
     15 ****         3.9160  -0.4620  -0.8475 C.3            1 S1                 0.0000
     16 ****         4.9028  -0.7058  -2.0122 C.3            1 S1                 0.0000
     17 ****         5.7595  -1.9656  -1.8467 C.2            1 S1                 0.0000
     18 ****         5.4264  -3.0280  -2.5840 N.am           1 S1                 0.0000
     19 ****         6.7223  -1.9752  -1.0828 O.2            1 S1                 0.0000
     20 ****         2.9330   0.6778  -1.1984 C.3            1 S1                 0.0000
     21 ****        -4.4253   0.0456  -0.5690 C.ar           1 S1                 0.0000
     22 ****        -5.7179  -0.3357  -0.4751 N.pl3          1 S1                 1.0000
     23 ****        -8.1797  -0.9642   1.5207 H              1 S1                 0.0000
     24 ****        -8.1235  -1.2040  -0.2280 H              1 S1                 0.0000
     25 ****        -8.6271   0.3562   0.4337 H              1 S1                 0.0000
     26 ****        -6.6083   1.0691   2.4534 H              1 S1                 0.0000
     27 ****        -4.2268   1.8120   2.3499 H              1 S1                 0.0000
     28 ****        -2.1292   1.3649  -0.6953 H              1 S1                 0.0000
     29 ****        -2.2814   2.2470   0.8041 H              1 S1                 0.0000
     30 ****        -1.6882   0.2000   2.1124 H              1 S1                 0.0000
     31 ****        -1.6088  -0.7487   0.6463 H              1 S1                 0.0000
     32 ****         0.3743   1.1044   1.6867 H              1 S1                 0.0000
     33 ****         3.2071   2.2404   0.8851 H              1 S1                 0.0000
     34 ****         1.9687   1.6116   1.9220 H              1 S1                 0.0000
     35 ****         4.1493   0.5756   2.4918 H              1 S1                 0.0000
     36 ****         3.0421  -0.6427   1.9059 H              1 S1                 0.0000
     37 ****         5.3189   0.6704   0.3583 H              1 S1                 0.0000
     38 ****         5.2019  -1.0034   0.8406 H              1 S1                 0.0000
     39 ****         3.3262  -1.3711  -0.7153 H              1 S1                 0.0000
     40 ****         4.3504  -0.7820  -2.9501 H              1 S1                 0.0000
     41 ****         5.5653   0.1534  -2.1247 H              1 S1                 0.0000
     42 ****         5.9620  -3.8809  -2.5114 H              1 S1                 0.0000
     43 ****         4.6394  -2.9734  -3.2142 H              1 S1                 0.0000
     44 ****         2.4360   0.4706  -2.1475 H              1 S1                 0.0000
     45 ****         3.4777   1.6104  -1.3541 H              1 S1                 0.0000
     46 ****        -3.8954  -0.2923  -1.4479 H              1 S1                 0.0000
     47 ****        -6.1126  -0.9055  -1.2237 H              1 S1                 0.0000
     48 ****        -0.7163  -0.4365  -1.2081 LP             1 S1                 0.0000
     49 ****         0.8277  -0.3054  -1.9820 LP             1 S1                 0.0000
     50 ****         6.9544  -1.1546  -0.5605 LP             1 S1                 0.0000
     51 ****         7.2736  -2.8036  -0.9836 LP             1 S1                 0.0000
@<TRIPOS>BOND
    1    1    2 1     
    2    1   23 1     
    3    1   24 1     
    4    1   25 1     
    5    2   22 ar    
    6    2    3 ar    
    7    3    4 ar    
    8    3   26 1     
    9    4    5 ar    
   10    4   27 1     
   11    5    6 1     
   12    5   21 ar    
   13    6    7 1     
   14    6   28 1     
   15    6   29 1     
   16    7    8 1     
   17    7   30 1     
   18    7   31 1     
   19    8    9 am    
   20    8   32 1     
   21    9   10 2     
   22    9   11 am    
   23   11   20 1     
   24   11   12 1     
   25   12   13 1     
   26   12   33 1     
   27   12   34 1     
   28   13   14 1     
   29   13   35 1     
   30   13   36 1     
   31   14   15 1     
   32   14   37 1     
   33   14   38 1     
   34   15   16 1     
   35   15   20 1     
   36   15   39 1     
   37   16   17 1     
   38   16   40 1     
   39   16   41 1     
   40   17   18 am    
   41   17   19 2     
   42   18   42 1     
   43   18   43 1     
   44   20   44 1     
   45   20   45 1     
   46   21   22 ar    
   47   21   46 1     
   48   22   47 1     
   49   10   48 1     
   50   10   49 1     
   51   19   50 1     
   52   19   51 1     
@<TRIPOS>SUBSTRUCTURE
      1 S1             1
@<TRIPOS>SET
LONE_PAIRS      STATIC     ATOMS    <user>   **** ""
4 48 49 50 51
DONOR_HYDROGENS      STATIC     ATOMS    <user>   **** ""
4 32 42 43 47
ATOM$BLUE        STATIC     ATOMS    COLORGROUP SYSTEM
4 48 49 50 51
ATOM$RED        STATIC     ATOMS    COLORGROUP SYSTEM
4 32 42 43 47
