AV-unprocessed.smi:2017|AV-procd|sdf|8167|dock6
  -GOLD-   2272010413D 1   1.00000     0.00000
 Structure written by MMmdl.
 45 46  0  0  0  0  0  0  0  0  1 V2000
  151.4854  136.1573  154.8682 O   0  0  0  0  0  0  0  0  0  0  0  0
  150.3888  136.5951  155.2199 C   0  0  0  0  0  0  0  0  0  0  0  0
  149.2638  135.6502  155.6678 C   0  0  0  0  0  0  0  0  0  0  0  0
  149.5096  134.2427  155.3195 N   0  0  0  0  0  0  0  0  0  0  0  0
  149.2937  133.7965  154.0233 C   0  0  0  0  0  0  0  0  0  0  0  0
  149.5101  132.5195  153.6282 C   0  0  0  0  0  0  0  0  0  0  0  0
  149.9963  131.5249  154.5784 C   0  0  0  0  0  0  0  0  0  0  0  0
  150.2214  130.3454  154.3173 O   0  0  0  0  0  0  0  0  0  0  0  0
  150.2038  132.0129  155.8713 N   0  0  0  0  0  0  0  0  0  0  0  0
  149.9845  133.3279  156.2845 C   0  0  0  0  0  0  0  0  0  0  0  0
  150.2058  133.6547  157.4499 O   0  0  0  0  0  0  0  0  0  0  0  0
  150.0910  137.9033  155.2268 N   0  0  0  0  0  0  0  0  0  0  0  0
  151.0006  138.9730  154.8339 C   0  0  0  0  0  0  0  0  0  0  0  0
  150.7602  140.2544  155.6510 C   0  0  0  0  0  0  0  0  0  0  0  0
  151.1861  140.1076  157.1163 C   0  0  0  0  0  0  0  0  0  0  0  0
  150.4805  141.0567  157.9029 O   0  0  0  0  0  0  0  0  0  0  0  0
  151.2360  142.2092  158.2500 C   0  0  0  0  0  0  0  0  0  0  0  0
  152.1551  141.9115  159.4533 C   0  0  0  0  0  0  0  0  0  0  0  0
  152.8818  143.1798  159.9298 C   0  0  0  0  0  0  0  0  0  0  0  0
  151.8867  144.3032  160.2619 C   0  0  0  0  0  0  0  0  0  0  0  0
  150.9657  144.6005  159.0679 C   0  0  0  0  0  0  0  0  0  0  0  0
  150.2400  143.3300  158.5965 C   0  0  0  0  0  0  0  0  0  0  0  0
  150.5433  131.3607  156.5632 H   0  0  0  0  0  0  0  0  0  0  0  0
  149.1134  135.7554  156.7441 H   0  0  0  0  0  0  0  0  0  0  0  0
  148.3312  135.9891  155.2138 H   0  0  0  0  0  0  0  0  0  0  0  0
  148.9377  134.5003  153.2844 H   0  0  0  0  0  0  0  0  0  0  0  0
  149.3235  132.2326  152.6033 H   0  0  0  0  0  0  0  0  0  0  0  0
  149.1673  138.1782  155.5280 H   0  0  0  0  0  0  0  0  0  0  0  0
  152.0201  138.6187  154.9879 H   0  0  0  0  0  0  0  0  0  0  0  0
  150.9012  139.1749  153.7661 H   0  0  0  0  0  0  0  0  0  0  0  0
  151.3183  141.0790  155.2062 H   0  0  0  0  0  0  0  0  0  0  0  0
  149.7075  140.5359  155.6040 H   0  0  0  0  0  0  0  0  0  0  0  0
  150.9968  139.0894  157.4567 H   0  0  0  0  0  0  0  0  0  0  0  0
  152.2582  140.2868  157.2075 H   0  0  0  0  0  0  0  0  0  0  0  0
  151.8349  142.5356  157.3977 H   0  0  0  0  0  0  0  0  0  0  0  0
  151.5625  141.5031  160.2730 H   0  0  0  0  0  0  0  0  0  0  0  0
  152.8916  141.1502  159.1980 H   0  0  0  0  0  0  0  0  0  0  0  0
  153.4903  142.9521  160.8054 H   0  0  0  0  0  0  0  0  0  0  0  0
  153.5700  143.5184  159.1545 H   0  0  0  0  0  0  0  0  0  0  0  0
  151.2845  144.0140  161.1240 H   0  0  0  0  0  0  0  0  0  0  0  0
  152.4263  145.2057  160.5498 H   0  0  0  0  0  0  0  0  0  0  0  0
  150.2378  145.3648  159.3413 H   0  0  0  0  0  0  0  0  0  0  0  0
  151.5533  145.0121  158.2462 H   0  0  0  0  0  0  0  0  0  0  0  0
  149.6219  143.5587  157.7276 H   0  0  0  0  0  0  0  0  0  0  0  0
  149.5598  142.9890  159.3780 H   0  0  0  0  0  0  0  0  0  0  0  0
  1  2  2  0  0  0  0
  2  3  1  0  0  0  0
  2 12  1  0  0  0  0
  3  4  1  0  0  0  0
  3 24  1  0  0  0  0
  3 25  1  0  0  0  0
  4 10  1  0  0  0  0
  4  5  1  0  0  0  0
  5  6  2  0  0  0  0
  5 26  1  0  0  0  0
  6  7  1  0  0  0  0
  6 27  1  0  0  0  0
  7  8  2  0  0  0  0
  7  9  1  0  0  0  0
  9 23  1  0  0  0  0
  9 10  1  0  0  0  0
 10 11  2  0  0  0  0
 12 13  1  0  0  0  0
 12 28  1  0  0  0  0
 13 14  1  0  0  0  0
 13 29  1  0  0  0  0
 13 30  1  0  0  0  0
 14 15  1  0  0  0  0
 14 31  1  0  0  0  0
 14 32  1  0  0  0  0
 15 16  1  0  0  0  0
 15 33  1  0  0  0  0
 15 34  1  0  0  0  0
 16 17  1  0  0  0  0
 17 22  1  0  0  0  0
 17 18  1  0  0  0  0
 17 35  1  0  0  0  0
 18 19  1  0  0  0  0
 18 36  1  0  0  0  0
 18 37  1  0  0  0  0
 19 20  1  0  0  0  0
 19 38  1  0  0  0  0
 19 39  1  0  0  0  0
 20 21  1  0  0  0  0
 20 40  1  0  0  0  0
 20 41  1  0  0  0  0
 21 22  1  0  0  0  0
 21 42  1  0  0  0  0
 21 43  1  0  0  0  0
 22 44  1  0  0  0  0
 22 45  1  0  0  0  0
M  END
> <s_m_source_file>
AV-unprocessed.smi

> <i_m_source_file_index>
2017

> <i_lp_mmshare_version>
43012

> <i_f3d_flags>
0

> <s_epik_input>
Tz1jMVtuSF1jKD1PKVtjSF1bY0hdbjFbQ0gyXUMoPU8pW05IXVtDSDJdW0NIMl1bQ0gyXU9bQ0hdMltDSDJdW0NIMl1bQ0gyXVtDSDJdW0NIMl0y

> <s_epik_cmdline>
J2VwaWtfcHl0aG9uJywgJy1waCcsICc3LjAnLCAnLXRuJywgJzgnLCAnLW1hJywgJzIwMCcsICctbWV0YWxfYmluZGluZycsICctaW1hZScsICc8aW5maWxlLm1hZT4nLCAnLW9tYWUnLCAnPG91dGZpbGUubWFlPic=

> <r_lp_tautomer_probability>
0.999537

> <r_epik_Ionization_Penalty>
0.003299

> <r_epik_Ionization_Penalty_Charging>
0.00329898

> <r_epik_Ionization_Penalty_Neutral>
1.92812e-08

> <r_epik_State_Penalty>
0.00233129

> <r_epik_Charging_Adjusted_Penalty>
0.00563027

> <i_epik_Tot_Q>
0

> <i_epik_Tot_abs_Q>
0

> <r_epik_Metal_State_Penalty>
0.365405

> <b_epik_Metal_Only>
0

> <s_lp_Force_Field>
OPLS_2005

> <r_lp_Energy>
10.1374

> <b_lp_Chiralities_Consistent>
1

> <s_lp_Variant>
AV-unprocessed.smi:2017-1

> <Gold.Version>
5.8.1

> <Gold.Id.Protein>
6NUR|6NUR_protein|mol2

> <Gold.PLP.Fitness>
48.5375

> <Gold.PLP.PLP>
-41.9694

> <Gold.PLP.part.hbond>
-2.0000

> <Gold.PLP.part.metal>
0.0000

> <Gold.PLP.part.buried>
-4.3574

> <Gold.PLP.part.nonpolar>
-36.5917

> <Gold.PLP.part.repulsive>
0.2848

> <Gold.PLP.ligand.clash>
0.0000

> <Gold.PLP.ligand.torsion>
1.2664

> <Gold.PLP.Chemscore.Hbond>
2.0000

> <Gold.PLP.Chemscore.CHOScore>
0.9886

> <Gold.PLP.Chemscore.Metal>
0.0000

> <Gold.Chemscore.Hbonds>
donor molecule, donor type, donor heavy atom, donor atom, acceptor molecule, acceptor atom, score
      P1  H  6896  6908       L1    11  0.96
      P1  H 10752 10765       L1     1  1.00
      L1  C     5    26       P1  7948  0.74

> <Gold.PLP.Chemscore.Internal.Correction>
0.1349

> <Gold.Rescore>
     Score         DG    S(hbond)    S(metal)    S(lipo)     H(rot)  DE(clash)    DE(int)     intcor
     15.80     -17.06       1.98        0.00     102.40       2.74       0.12       1.14       ----

> <Gold.Chemscore.Fitness>
15.8023

> <Gold.Chemscore.DG>
-17.0623

> <Gold.Chemscore.ZeroCoef>
-5.4800

> <Gold.Chemscore.Hbond>
1.9794

> <Gold.Chemscore.Metal>
0.0000

> <Gold.Chemscore.Lipo>
102.4000

> <Gold.Chemscore.Internal_Hbond>
0.0000

> <Gold.Chemscore.DEClash>
0.1156

> <Gold.Chemscore.DEInternal>
1.1443

> <Gold.Chemscore.Rot>
2.7382

> <Gold.Chemscore.Internal.Correction>
   9.000000E+99

> <Gold.Chemscore.Hbonds>
donor molecule, donor type, donor heavy atom, donor atom, acceptor molecule, acceptor atom, score
      P1  H  6896  6908       L1    11  0.92
      P1  H 10752 10765       L1     1  0.99

> <Gold.Chemscore.Hbond.Weighted>
-6.6113

> <Gold.Chemscore.Metal.Weighted>
-0.0000

> <Gold.Chemscore.Lipo.Weighted>
-11.9808

> <Gold.Chemscore.Internal_Hbond.Weighted>
0.0000

> <Gold.Chemscore.DEClash.Weighted>
0.1156

> <Gold.Chemscore.DEInternal.Weighted>
1.1443

> <Gold.Chemscore.Rot.Weighted>
7.0098

> <Gold.Chemscore.Internal.Correction.Weighted>
   9.000000E+99

> <Gold.Protein.RotatedTorsions>
[ 6907 6896 6895 6894 ] final  123.65 input  -60.11 | X-H torsion
[ 7974 7965 7964 7962 ] final -100.81 input  175.53 | X-H torsion
[ 8008 7997 7996 7995 ] final  105.49 input   59.86 | X-H torsion
[ 10167 10162 10161 10158 ] final   80.07 input  -65.29 | X-H torsion
[ 10718 10713 10712 10709 ] final  108.05 input   66.30 | X-H torsion
[ 10763 10752 10751 10750 ] final  168.35 input  -60.55 | X-H torsion
[ 11005 11000 10999 10996 ] final -130.20 input  -57.11 | X-H torsion

> <Gold.Protein.ActiveResidues>
 VAL166  LYS551  ARG553  GLY616  TRP617  ASP618  TYR619  PRO620  LYS621  CYS622 
 ASP623  PHE694  ASN695  SER759  ASP760  ASP761  ALA762  ILE779  LEU786  VAL792 
 PHE793  MET794  SER795  GLU796  ALA797  LYS798  CYS799  TRP800  GLU811  SER814 

> <Gold.Protein.RotatedAtoms>
  152.4144  133.7014  159.6425 H   0  0  0  0  0  0  0  0  0  0  0  0  # atno 6907 bound_to 6896
  150.8022  133.8567  159.3229 H   0  0  0  0  0  0  0  0  0  0  0  0  # atno 6908 bound_to 6896
  151.6301  135.1025  160.0171 H   0  0  0  0  0  0  0  0  0  0  0  0  # atno 6909 bound_to 6896
  145.2897  140.9349  143.2884 H   0  0  0  0  0  0  0  0  0  0  0  0  # atno 7974 bound_to 7965
  156.1663  140.3129  155.8895 H   0  0  0  0  0  0  0  0  0  0  0  0  # atno 8008 bound_to 7997
  155.3679  140.0480  157.3063 H   0  0  0  0  0  0  0  0  0  0  0  0  # atno 8009 bound_to 7997
  154.5196  140.2193  155.9011 H   0  0  0  0  0  0  0  0  0  0  0  0  # atno 8010 bound_to 7997
  139.9537  144.6009  150.8137 H   0  0  0  0  0  0  0  0  0  0  0  0  # atno 10167 bound_to 10162
  157.6603  131.0885  150.6247 H   0  0  0  0  0  0  0  0  0  0  0  0  # atno 10718 bound_to 10713
  154.3672  135.2753  155.2287 H   0  0  0  0  0  0  0  0  0  0  0  0  # atno 10763 bound_to 10752
  154.4449  135.5945  153.6157 H   0  0  0  0  0  0  0  0  0  0  0  0  # atno 10764 bound_to 10752
  152.9840  135.6028  154.3899 H   0  0  0  0  0  0  0  0  0  0  0  0  # atno 10765 bound_to 10752
  140.9366  134.1249  157.4188 H   0  0  0  0  0  0  0  0  0  0  0  0  # atno 11005 bound_to 11000
  144.9183  139.4443  143.6553 LP  0  0  0  0  0  0  0  0  0  0  0  0  # atno 17320 bound_to 7965
  146.3189  139.8029  142.8961 LP  0  0  0  0  0  0  0  0  0  0  0  0  # atno 17321 bound_to 7965
  140.7575  143.3087  151.2897 LP  0  0  0  0  0  0  0  0  0  0  0  0  # atno 17342 bound_to 10162
  139.6608  144.0192  152.2691 LP  0  0  0  0  0  0  0  0  0  0  0  0  # atno 17343 bound_to 10162
  156.6550  130.4496  149.5706 LP  0  0  0  0  0  0  0  0  0  0  0  0  # atno 17370 bound_to 10713
  156.2109  130.6678  151.1268 LP  0  0  0  0  0  0  0  0  0  0  0  0  # atno 17371 bound_to 10713
  139.8809  135.0023  156.6117 LP  0  0  0  0  0  0  0  0  0  0  0  0  # atno 17394 bound_to 11000
  140.7791  133.8675  155.8553 LP  0  0  0  0  0  0  0  0  0  0  0  0  # atno 17395 bound_to 11000

$$$$
