#       Name:                AV-unprocessed.smi:72
#       Creating user name   scv26
#       Creation time:       Thu Mar 26 17:05:55 2020


#       File generated by GOLD software.
#

@<TRIPOS>MOLECULE
AV-unprocessed.smi:72
    41    42     1
SMALL
NO_CHARGES


@<TRIPOS>ATOM
      1 ****        -2.5566   4.4100   0.9425 N.2            1 S1                 0.0000
      2 ****        -2.1386   3.2748   0.5860 C.2            1 S1                 0.0000
      3 ****        -0.7194   2.9941   0.5859 N.2            1 S1                 0.0000
      4 ****        -0.3369   1.8138   0.2059 C.2            1 S1                 0.0000
      5 ****        -1.2887   0.7941  -0.2129 N.am           1 S1                 0.0000
      6 ****        -0.8189  -0.5825  -0.6448 C.3            1 S1                 0.0000
      7 ****         0.4230  -0.4634  -1.2746 O.3            1 S1                 0.0000
      8 ****         1.2766  -1.5240  -0.8579 C.3            1 S1                 0.0000
      9 ****         2.7576  -1.1642  -1.0710 C.3            1 S1                 0.0000
     10 ****         3.1356  -1.4294  -2.4053 O.3            1 S1                 0.0000
     11 ****         0.8575  -1.7651   0.5986 C.3            1 S1                 0.0000
     12 ****         1.4927  -0.8438   1.4703 O.3            1 S1                 0.0000
     13 ****        -0.6532  -1.5651   0.5352 C.3            1 S1                 0.0000
     14 ****        -1.2136  -1.1542   1.7708 O.3            1 S1                 0.0000
     15 ****        -2.6777   1.0917  -0.1877 C.2            1 S1                 0.0000
     16 ****        -3.4697   0.2075  -0.5143 O.2            1 S1                 0.0000
     17 ****        -3.0719   2.3349   0.2073 N.pl3          1 S1                -1.0000
     18 ****        -1.5341  -0.9356  -1.3888 H              1 S1                 0.0000
     19 ****         1.0205  -2.4161  -1.4331 H              1 S1                 0.0000
     20 ****         1.1144  -2.7721   0.9287 H              1 S1                 0.0000
     21 ****        -1.1224  -2.5041   0.2385 H              1 S1                 0.0000
     22 ****        -3.5625   4.4857   0.9025 H              1 S1                 0.0000
     23 ****         0.7107   1.5122   0.1794 H              1 S1                 0.0000
     24 ****         2.9528  -0.1205  -0.8221 H              1 S1                 0.0000
     25 ****         3.3890  -1.7769  -0.4271 H              1 S1                 0.0000
     26 ****         4.0471  -1.2030  -2.5098 H              1 S1                 0.0000
     27 ****         1.1453  -0.9716   2.3401 H              1 S1                 0.0000
     28 ****        -0.9125  -0.2773   1.9556 H              1 S1                 0.0000
     29 ****        -1.9562   5.1549   1.2336 LP             1 S1                 0.0000
     30 ****        -0.0556   3.6863   0.8692 LP             1 S1                 0.0000
     31 ****         0.8375   0.4128  -1.0289 LP             1 S1                 0.0000
     32 ****         0.2985  -0.5070  -2.2658 LP             1 S1                 0.0000
     33 ****         2.5784  -0.8813  -3.0289 LP             1 S1                 0.0000
     34 ****         3.0041  -2.4001  -2.6064 LP             1 S1                 0.0000
     35 ****         1.3091   0.0911   1.1666 LP             1 S1                 0.0000
     36 ****         2.4795  -1.0057   1.4730 LP             1 S1                 0.0000
     37 ****        -0.9189  -1.7735   2.4986 LP             1 S1                 0.0000
     38 ****        -2.2116  -1.1633   1.7093 LP             1 S1                 0.0000
     39 ****        -3.1296  -0.6922  -0.7879 LP             1 S1                 0.0000
     40 ****        -4.4530   0.3890  -0.5059 LP             1 S1                 0.0000
     41 ****        -4.0446   2.5663   0.2224 LP             1 S1                 0.0000
@<TRIPOS>BOND
    1    1    2 2     
    2    1   22 1     
    3    2   17 1     
    4    2    3 1     
    5    3    4 2     
    6    4    5 1     
    7    4   23 1     
    8    5    6 1     
    9    5   15 am    
   10    6   18 1     
   11    6   13 1     
   12    6    7 1     
   13    7    8 1     
   14    8   19 1     
   15    8    9 1     
   16    8   11 1     
   17    9   10 1     
   18    9   24 1     
   19    9   25 1     
   20   10   26 1     
   21   11   20 1     
   22   11   12 1     
   23   11   13 1     
   24   12   27 1     
   25   13   21 1     
   26   13   14 1     
   27   14   28 1     
   28   15   16 2     
   29   15   17 1     
   30    1   29 1     
   31    3   30 1     
   32    7   31 1     
   33    7   32 1     
   34   10   33 1     
   35   10   34 1     
   36   12   35 1     
   37   12   36 1     
   38   14   37 1     
   39   14   38 1     
   40   16   39 1     
   41   16   40 1     
   42   17   41 1     
@<TRIPOS>SUBSTRUCTURE
      1 S1             1
@<TRIPOS>SET
LONE_PAIRS      STATIC     ATOMS    <user>   **** ""
13 29 30 31 32 33 34 35 36 37 38 39 40 41
DONOR_HYDROGENS      STATIC     ATOMS    <user>   **** ""
4 22 26 27 28
ATOM$BLUE        STATIC     ATOMS    COLORGROUP SYSTEM
13 29 30 31 32 33 34 35 36 37 38 39 40 41
ATOM$RED        STATIC     ATOMS    COLORGROUP SYSTEM
4 22 26 27 28
