#       Name:                AV-unprocessed.smi:707
#       Creating user name   scv26
#       Creation time:       Fri Mar 27 00:43:57 2020


#       File generated by GOLD software.
#

@<TRIPOS>MOLECULE
AV-unprocessed.smi:707
    50    51     1
SMALL
NO_CHARGES


@<TRIPOS>ATOM
      1 ****        -4.9649   2.3420  -1.8129 C.3            1 S1                 0.0000
      2 ****        -5.4830   2.5091  -0.4213 C.2            1 S1                 0.0000
      3 ****        -6.7836   2.5851  -0.1151 N.2            1 S1                 0.0000
      4 ****        -6.8338   2.7329   1.2572 N.2            1 S1                 0.0000
      5 ****        -5.5578   2.7318   1.6416 C.2            1 S1                 0.0000
      6 ****        -4.6662   2.5965   0.6481 N.pl3          1 S1                 0.0000
      7 ****        -3.2182   2.5528   0.7316 C.3            1 S1                 0.0000
      8 ****        -2.7058   1.1134   0.8749 C.3            1 S1                 0.0000
      9 ****        -1.2517   1.0912   0.9443 N.am           1 S1                 0.0000
     10 ****        -0.5246  -0.0010   1.2198 C.2            1 S1                 0.0000
     11 ****        -1.0186  -1.1058   1.4436 O.2            1 S1                 0.0000
     12 ****         0.9910   0.1745   1.2390 C.3            1 S1                 0.0000
     13 ****         1.5049  -0.2842  -0.0023 O.3            1 S1                 0.0000
     14 ****         2.9186  -0.1877  -0.1360 C.3            1 S1                 0.0000
     15 ****         3.2513  -0.2480  -1.6376 C.3            1 S1                 0.0000
     16 ****         2.9438  -1.6309  -2.2365 C.3            1 S1                 0.0000
     17 ****         3.6606  -2.7493  -1.4642 C.3            1 S1                 0.0000
     18 ****         3.3169  -2.7101   0.0369 C.3            1 S1                 0.0000
     19 ****         4.0337  -3.8281   0.8071 C.3            1 S1                 0.0000
     20 ****         3.6413  -1.3220   0.6239 C.3            1 S1                 0.0000
     21 ****        -5.7908   2.2376  -2.5172 H              1 S1                 0.0000
     22 ****        -4.3401   1.4511  -1.8793 H              1 S1                 0.0000
     23 ****        -4.3725   3.2109  -2.1004 H              1 S1                 0.0000
     24 ****        -5.2662   2.8311   2.6771 H              1 S1                 0.0000
     25 ****        -2.7987   3.0253  -0.1572 H              1 S1                 0.0000
     26 ****        -2.9042   3.1542   1.5859 H              1 S1                 0.0000
     27 ****        -3.1229   0.6573   1.7743 H              1 S1                 0.0000
     28 ****        -3.0299   0.5085   0.0269 H              1 S1                 0.0000
     29 ****        -0.7652   1.9576   0.7639 H              1 S1                 0.0000
     30 ****         1.2483   1.2235   1.3961 H              1 S1                 0.0000
     31 ****         1.3977  -0.3950   2.0744 H              1 S1                 0.0000
     32 ****         3.2491   0.7793   0.2468 H              1 S1                 0.0000
     33 ****         2.6969   0.5225  -2.1744 H              1 S1                 0.0000
     34 ****         4.3084  -0.0217  -1.7823 H              1 S1                 0.0000
     35 ****         1.8677  -1.8075  -2.2188 H              1 S1                 0.0000
     36 ****         3.2421  -1.6552  -3.2849 H              1 S1                 0.0000
     37 ****         3.3861  -3.7170  -1.8855 H              1 S1                 0.0000
     38 ****         4.7386  -2.6491  -1.5984 H              1 S1                 0.0000
     39 ****         2.2440  -2.8788   0.1418 H              1 S1                 0.0000
     40 ****         5.1171  -3.7211   0.7450 H              1 S1                 0.0000
     41 ****         3.7719  -4.8087   0.4088 H              1 S1                 0.0000
     42 ****         3.7572  -3.8175   1.8617 H              1 S1                 0.0000
     43 ****         4.7175  -1.1525   0.5683 H              1 S1                 0.0000
     44 ****         3.3954  -1.2959   1.6848 H              1 S1                 0.0000
     45 ****        -7.5572   2.5435  -0.7475 LP             1 S1                 0.0000
     46 ****        -7.6462   2.8210   1.8336 LP             1 S1                 0.0000
     47 ****        -2.0116  -1.2225   1.4253 LP             1 S1                 0.0000
     48 ****        -0.4270  -1.8868   1.6438 LP             1 S1                 0.0000
     49 ****         1.0859   0.2570  -0.7314 LP             1 S1                 0.0000
     50 ****         1.2472  -1.2445  -0.1098 LP             1 S1                 0.0000
@<TRIPOS>BOND
    1    1    2 1     
    2    1   21 1     
    3    1   22 1     
    4    1   23 1     
    5    2    6 1     
    6    2    3 2     
    7    3    4 1     
    8    4    5 2     
    9    5    6 1     
   10    5   24 1     
   11    6    7 1     
   12    7    8 1     
   13    7   25 1     
   14    7   26 1     
   15    8    9 1     
   16    8   27 1     
   17    8   28 1     
   18    9   10 am    
   19    9   29 1     
   20   10   11 2     
   21   10   12 1     
   22   12   13 1     
   23   12   30 1     
   24   12   31 1     
   25   13   14 1     
   26   14   20 1     
   27   14   15 1     
   28   14   32 1     
   29   15   16 1     
   30   15   33 1     
   31   15   34 1     
   32   16   17 1     
   33   16   35 1     
   34   16   36 1     
   35   17   18 1     
   36   17   37 1     
   37   17   38 1     
   38   18   19 1     
   39   18   20 1     
   40   18   39 1     
   41   19   40 1     
   42   19   41 1     
   43   19   42 1     
   44   20   43 1     
   45   20   44 1     
   46    3   45 1     
   47    4   46 1     
   48   11   47 1     
   49   11   48 1     
   50   13   49 1     
   51   13   50 1     
@<TRIPOS>SUBSTRUCTURE
      1 S1             1
@<TRIPOS>SET
LONE_PAIRS      STATIC     ATOMS    <user>   **** ""
6 45 46 47 48 49 50
DONOR_HYDROGENS      STATIC     ATOMS    <user>   **** ""
1 29
ATOM$BLUE        STATIC     ATOMS    COLORGROUP SYSTEM
6 45 46 47 48 49 50
ATOM$RED        STATIC     ATOMS    COLORGROUP SYSTEM
1 29
