AV-unprocessed.smi:2299|AV-procd|sdf|9229|dock7
  -GOLD-   2272012453D 1   1.00000     0.00000
 Structure written by MMmdl.
 43 44  0  0  0  0  0  0  0  0  2 V2000
  146.4192  138.5027  151.9613 C   0  0  0  0  0  0  0  0  0  0  0  0
  146.6353  138.5529  153.4807 C   0  0  0  0  0  0  0  0  0  0  0  0
  145.4043  138.0315  154.2399 C   0  0  0  0  0  0  0  0  0  0  0  0
  147.0367  139.9320  153.9282 C   0  0  0  0  0  0  0  0  0  0  0  0
  146.3064  141.0424  153.7615 N   0  3  0  0  0  0  0  0  0  0  0  0
  146.9673  142.1332  154.2546 C   0  0  0  0  0  0  0  0  0  0  0  0
  148.1677  141.6747  154.7274 C   0  0  0  0  0  0  0  0  0  0  0  0
  148.1915  140.3210  154.5024 N   0  0  0  0  0  0  0  0  0  0  0  0
  149.2983  139.4171  154.8470 C   0  0  0  0  0  0  0  0  0  0  0  0
  150.4400  140.1812  155.5183 C   0  0  0  0  0  0  0  0  0  0  0  0
  151.5088  140.3366  154.9284 O   0  0  0  0  0  0  0  0  0  0  0  0
  150.2056  140.6356  156.7598 N   0  0  0  0  0  0  0  0  0  0  0  0
  151.1714  141.3397  157.6060 C   0  0  1  0  0  0  0  0  0  0  0  0
  150.4799  142.6201  158.1285 C   0  0  0  0  0  0  0  0  0  0  0  0
  151.4582  143.7182  158.5798 C   0  0  0  0  0  0  0  0  0  0  0  0
  152.3177  143.3565  159.8001 C   0  0  0  0  0  0  0  0  0  0  0  0
  153.2589  142.1644  159.5590 C   0  0  0  0  0  0  0  0  0  0  0  0
  152.5575  140.8889  159.6267 N   0  0  0  0  0  0  0  0  0  0  0  0
  151.5879  140.4566  158.8062 C   0  0  0  0  0  0  0  0  0  0  0  0
  151.0384  139.3735  159.0098 O   0  0  0  0  0  0  0  0  0  0  0  0
  147.3158  138.8103  151.4227 H   0  0  0  0  0  0  0  0  0  0  0  0
  145.6059  139.1615  151.6550 H   0  0  0  0  0  0  0  0  0  0  0  0
  146.1708  137.4929  151.6336 H   0  0  0  0  0  0  0  0  0  0  0  0
  147.4669  137.8958  153.7333 H   0  0  0  0  0  0  0  0  0  0  0  0
  145.5771  138.0353  155.3166 H   0  0  0  0  0  0  0  0  0  0  0  0
  145.1714  137.0067  153.9494 H   0  0  0  0  0  0  0  0  0  0  0  0
  144.5204  138.6383  154.0399 H   0  0  0  0  0  0  0  0  0  0  0  0
  146.5461  143.1277  154.2298 H   0  0  0  0  0  0  0  0  0  0  0  0
  148.9888  142.1984  155.1952 H   0  0  0  0  0  0  0  0  0  0  0  0
  148.9375  138.6210  155.4978 H   0  0  0  0  0  0  0  0  0  0  0  0
  149.6405  138.9411  153.9267 H   0  0  0  0  0  0  0  0  0  0  0  0
  149.2987  140.4571  157.1660 H   0  0  0  0  0  0  0  0  0  0  0  0
  152.0478  141.6001  157.0094 H   0  0  0  0  0  0  0  0  0  0  0  0
  149.8722  143.0462  157.3286 H   0  0  0  0  0  0  0  0  0  0  0  0
  149.7801  142.3856  158.9329 H   0  0  0  0  0  0  0  0  0  0  0  0
  152.1068  143.9912  157.7464 H   0  0  0  0  0  0  0  0  0  0  0  0
  150.8860  144.6160  158.8152 H   0  0  0  0  0  0  0  0  0  0  0  0
  152.9218  144.2270  160.0580 H   0  0  0  0  0  0  0  0  0  0  0  0
  151.6827  143.1668  160.6666 H   0  0  0  0  0  0  0  0  0  0  0  0
  153.7865  142.2618  158.6090 H   0  0  0  0  0  0  0  0  0  0  0  0
  154.0248  142.1506  160.3348 H   0  0  0  0  0  0  0  0  0  0  0  0
  152.8131  140.2826  160.3928 H   0  0  0  0  0  0  0  0  0  0  0  0
  145.3884  141.0652  153.3357 H   0  0  0  0  0  0  0  0  0  0  0  0
  1  2  1  0  0  0  0
  1 21  1  0  0  0  0
  1 22  1  0  0  0  0
  1 23  1  0  0  0  0
  2  3  1  0  0  0  0
  2  4  1  0  0  0  0
  2 24  1  0  0  0  0
  3 25  1  0  0  0  0
  3 26  1  0  0  0  0
  3 27  1  0  0  0  0
  4  8  1  0  0  0  0
  4  5  2  0  0  0  0
  5  6  1  0  0  0  0
  5 43  1  0  0  0  0
  6  7  2  0  0  0  0
  6 28  1  0  0  0  0
  7  8  1  0  0  0  0
  7 29  1  0  0  0  0
  8  9  1  0  0  0  0
  9 10  1  0  0  0  0
  9 30  1  0  0  0  0
  9 31  1  0  0  0  0
 10 11  2  0  0  0  0
 10 12  1  0  0  0  0
 12 13  1  0  0  0  0
 12 32  1  0  0  0  0
 13 19  1  0  0  0  0
 13 14  1  0  0  0  0
 13 33  1  0  0  0  0
 14 15  1  0  0  0  0
 14 34  1  0  0  0  0
 14 35  1  0  0  0  0
 15 16  1  0  0  0  0
 15 36  1  0  0  0  0
 15 37  1  0  0  0  0
 16 17  1  0  0  0  0
 16 38  1  0  0  0  0
 16 39  1  0  0  0  0
 17 18  1  0  0  0  0
 17 40  1  0  0  0  0
 17 41  1  0  0  0  0
 18 19  1  0  0  0  0
 18 42  1  0  0  0  0
 19 20  2  0  0  0  0
M  CHG  1   5   1
M  END
> <s_m_source_file>
AV-unprocessed.smi

> <i_m_source_file_index>
2299

> <i_lp_mmshare_version>
43012

> <i_f3d_flags>
0

> <s_epik_input>
W0NIM11bQ0hdKFtDSDNdKWMxbltjSF1bY0hdbjFbQ0gyXUMoPU8pW05IXVtDQEBIXTJbQ0gyXVtDSDJdW0NIMl1bQ0gyXVtOSF1DMj1P

> <s_epik_cmdline>
J2VwaWtfcHl0aG9uJywgJy1waCcsICc3LjAnLCAnLXRuJywgJzgnLCAnLW1hJywgJzIwMCcsICctbWV0YWxfYmluZGluZycsICctaW1hZScsICc8aW5maWxlLm1hZT4nLCAnLW9tYWUnLCAnPG91dGZpbGUubWFlPic=

> <r_lp_tautomer_probability>
1

> <r_epik_Ionization_Penalty>
0.292878

> <r_epik_Ionization_Penalty_Charging>
0

> <r_epik_Ionization_Penalty_Neutral>
0.292878

> <r_epik_State_Penalty>
0.286008

> <r_epik_Charging_Adjusted_Penalty>
0.286008

> <i_epik_Tot_Q>
1

> <i_epik_Tot_abs_Q>
1

> <r_epik_Metal_State_Penalty>
0.563502

> <b_epik_Metal_Only>
0

> <s_lp_Force_Field>
OPLS_2005

> <r_lp_Energy>
15.0936

> <b_lp_Chiralities_Consistent>
1

> <s_lp_Variant>
AV-unprocessed.smi:2299-2

> <Gold.Version>
5.8.1

> <Gold.Id.Protein>
6NUR|6NUR_protein|mol2

> <Gold.PLP.Fitness>
49.7443

> <Gold.PLP.PLP>
-38.9443

> <Gold.PLP.part.hbond>
-1.8021

> <Gold.PLP.part.metal>
0.0000

> <Gold.PLP.part.buried>
-5.9194

> <Gold.PLP.part.nonpolar>
-34.1881

> <Gold.PLP.part.repulsive>
0.2518

> <Gold.PLP.ligand.clash>
0.0000

> <Gold.PLP.ligand.torsion>
0.2009

> <Gold.PLP.Chemscore.Hbond>
2.9833

> <Gold.PLP.Chemscore.CHOScore>
0.7325

> <Gold.PLP.Chemscore.Metal>
0.0000

> <Gold.Chemscore.Hbonds>
donor molecule, donor type, donor heavy atom, donor atom, acceptor molecule, acceptor atom, score
      L1  H     5    43       P1 10175  2.00
      P1  H  7989  7998       L1    11  0.98
      L1  C     7    29       P1  8028  0.76

> <Gold.PLP.Chemscore.Internal.Correction>
0.0542

> <Gold.Rescore>
     Score         DG    S(hbond)    S(metal)    S(lipo)     H(rot)  DE(clash)    DE(int)     intcor
     16.36     -16.61       1.92        0.00      78.58       1.75       0.01       0.23       ----

> <Gold.Chemscore.Fitness>
16.3645

> <Gold.Chemscore.DG>
-16.6078

> <Gold.Chemscore.ZeroCoef>
-5.4800

> <Gold.Chemscore.Hbond>
1.9211

> <Gold.Chemscore.Metal>
0.0000

> <Gold.Chemscore.Lipo>
78.5753

> <Gold.Chemscore.Internal_Hbond>
0.0000

> <Gold.Chemscore.DEClash>
0.0085

> <Gold.Chemscore.DEInternal>
0.2348

> <Gold.Chemscore.Rot>
1.7508

> <Gold.Chemscore.Internal.Correction>
   9.000000E+99

> <Gold.Chemscore.Hbonds>
donor molecule, donor type, donor heavy atom, donor atom, acceptor molecule, acceptor atom, score
      L1  H     5    43       P1 10175  0.44
      P1  H  7989  7998       L1    11  0.87

> <Gold.Chemscore.Hbond.Weighted>
-6.4166

> <Gold.Chemscore.Metal.Weighted>
-0.0000

> <Gold.Chemscore.Lipo.Weighted>
-9.1933

> <Gold.Chemscore.Internal_Hbond.Weighted>
0.0000

> <Gold.Chemscore.DEClash.Weighted>
0.0085

> <Gold.Chemscore.DEInternal.Weighted>
0.2348

> <Gold.Chemscore.Rot.Weighted>
4.4821

> <Gold.Chemscore.Internal.Correction.Weighted>
   9.000000E+99

> <Gold.Protein.RotatedTorsions>
[ 6907 6896 6895 6894 ] final  -21.51 input  -60.11 | X-H torsion
[ 7974 7965 7964 7962 ] final -176.15 input  175.53 | X-H torsion
[ 8008 7997 7996 7995 ] final  -67.30 input   59.86 | X-H torsion
[ 10167 10162 10161 10158 ] final   50.56 input  -65.29 | X-H torsion
[ 10718 10713 10712 10709 ] final  -64.34 input   66.30 | X-H torsion
[ 10763 10752 10751 10750 ] final   50.04 input  -60.55 | X-H torsion
[ 11005 11000 10999 10996 ] final  117.47 input  -57.11 | X-H torsion

> <Gold.Protein.ActiveResidues>
 VAL166  LYS551  ARG553  GLY616  TRP617  ASP618  TYR619  PRO620  LYS621  CYS622 
 ASP623  PHE694  ASN695  SER759  ASP760  ASP761  ALA762  ILE779  LEU786  VAL792 
 PHE793  MET794  SER795  GLU796  ALA797  LYS798  CYS799  TRP800  GLU811  SER814 

> <Gold.Protein.RotatedAtoms>
  151.2323  135.0559  159.8992 H   0  0  0  0  0  0  0  0  0  0  0  0  # atno 6907 bound_to 6896
  152.5403  134.0524  159.8126 H   0  0  0  0  0  0  0  0  0  0  0  0  # atno 6908 bound_to 6896
  151.0705  133.5421  159.2659 H   0  0  0  0  0  0  0  0  0  0  0  0  # atno 6909 bound_to 6896
  144.7127  140.1213  143.6405 H   0  0  0  0  0  0  0  0  0  0  0  0  # atno 7974 bound_to 7965
  154.4791  140.0895  156.7333 H   0  0  0  0  0  0  0  0  0  0  0  0  # atno 8008 bound_to 7997
  155.4518  140.3457  155.4283 H   0  0  0  0  0  0  0  0  0  0  0  0  # atno 8009 bound_to 7997
  156.1163  140.1461  156.9257 H   0  0  0  0  0  0  0  0  0  0  0  0  # atno 8010 bound_to 7997
  140.2711  144.3264  150.6290 H   0  0  0  0  0  0  0  0  0  0  0  0  # atno 10167 bound_to 10162
  156.0735  130.4232  150.1406 H   0  0  0  0  0  0  0  0  0  0  0  0  # atno 10718 bound_to 10713
  152.9785  135.5892  154.4187 H   0  0  0  0  0  0  0  0  0  0  0  0  # atno 10763 bound_to 10752
  154.3814  135.2767  155.2211 H   0  0  0  0  0  0  0  0  0  0  0  0  # atno 10764 bound_to 10752
  154.4123  135.6078  153.6014 H   0  0  0  0  0  0  0  0  0  0  0  0  # atno 10765 bound_to 10752
  139.9075  134.9610  156.7355 H   0  0  0  0  0  0  0  0  0  0  0  0  # atno 11005 bound_to 11000
  145.9368  139.2642  143.1292 LP  0  0  0  0  0  0  0  0  0  0  0  0  # atno 17320 bound_to 7965
  145.9465  140.8940  143.0281 LP  0  0  0  0  0  0  0  0  0  0  0  0  # atno 17321 bound_to 7965
  140.5889  143.2169  151.7291 LP  0  0  0  0  0  0  0  0  0  0  0  0  # atno 17342 bound_to 10162
  139.4988  144.3970  152.0221 LP  0  0  0  0  0  0  0  0  0  0  0  0  # atno 17343 bound_to 10162
  156.9453  130.9757  151.3508 LP  0  0  0  0  0  0  0  0  0  0  0  0  # atno 17370 bound_to 10713
  157.5818  130.8382  149.8534 LP  0  0  0  0  0  0  0  0  0  0  0  0  # atno 17371 bound_to 10713
  140.6891  133.9406  155.7955 LP  0  0  0  0  0  0  0  0  0  0  0  0  # atno 17394 bound_to 11000
  141.0455  134.0560  157.3849 LP  0  0  0  0  0  0  0  0  0  0  0  0  # atno 17395 bound_to 11000

$$$$
