AV-unprocessed.smi:2340|AV-procd|sdf|9351|dock4
  -GOLD-   2272012573D 1   1.00000     0.00000
 Structure written by MMmdl.
 40 41  0  0  0  0  0  0  0  0  1 V2000
  145.6838  142.8363  156.0157 C   0  0  0  0  0  0  0  0  0  0  0  0
  146.4667  141.8990  155.1516 C   0  0  0  0  0  0  0  0  0  0  0  0
  147.7222  142.1009  154.6353 C   0  0  0  0  0  0  0  0  0  0  0  0
  148.2660  140.7364  153.6980 S   0  0  0  0  0  0  0  0  0  0  0  0
  146.7368  139.9307  154.0380 C   0  0  0  0  0  0  0  0  0  0  0  0
  146.4072  138.5393  153.5832 C   0  0  1  0  0  0  0  0  0  0  0  0
  145.1016  138.0216  154.2034 C   0  0  0  0  0  0  0  0  0  0  0  0
  146.4265  138.3879  152.0435 C   0  0  0  0  0  0  0  0  0  0  0  0
  146.5507  136.9996  151.6064 N   0  0  0  0  0  0  0  0  0  0  0  0
  145.5666  136.0915  151.6355 C   0  0  0  0  0  0  0  0  0  0  0  0
  144.4013  136.3454  151.9410 O   0  0  0  0  0  0  0  0  0  0  0  0
  146.0183  134.8663  151.3381 N   0  0  0  0  0  0  0  0  0  0  0  0
  145.2320  133.6408  151.4314 C   0  0  1  0  0  0  0  0  0  0  0  0
  144.2780  133.4951  150.2628 C   0  0  0  0  0  0  0  0  0  0  0  0
  144.0726  131.9831  150.1821 C   0  0  0  0  0  0  0  0  0  0  0  0
  145.2039  131.3843  150.8088 O   0  0  0  0  0  0  0  0  0  0  0  0
  146.1014  132.3892  151.2656 C   0  0  2  0  0  0  0  0  0  0  0  0
  146.8104  131.9267  152.5446 C   0  0  0  0  0  0  0  0  0  0  0  0
  145.9187  140.6636  154.7991 N   0  0  0  0  0  0  0  0  0  0  0  0
  146.2557  143.7342  156.2513 H   0  0  0  0  0  0  0  0  0  0  0  0
  145.4096  142.3641  156.9595 H   0  0  0  0  0  0  0  0  0  0  0  0
  144.7638  143.1505  155.5226 H   0  0  0  0  0  0  0  0  0  0  0  0
  148.3610  142.9634  154.7543 H   0  0  0  0  0  0  0  0  0  0  0  0
  147.1978  137.8954  153.9719 H   0  0  0  0  0  0  0  0  0  0  0  0
  145.1440  138.0577  155.2924 H   0  0  0  0  0  0  0  0  0  0  0  0
  144.9142  136.9871  153.9145 H   0  0  0  0  0  0  0  0  0  0  0  0
  144.2448  138.6149  153.8829 H   0  0  0  0  0  0  0  0  0  0  0  0
  145.5403  138.8440  151.5996 H   0  0  0  0  0  0  0  0  0  0  0  0
  147.2850  138.9235  151.6379 H   0  0  0  0  0  0  0  0  0  0  0  0
  147.4737  136.6897  151.3396 H   0  0  0  0  0  0  0  0  0  0  0  0
  146.9938  134.7637  151.0996 H   0  0  0  0  0  0  0  0  0  0  0  0
  144.6654  133.5929  152.3636 H   0  0  0  0  0  0  0  0  0  0  0  0
  143.3457  134.0439  150.3999 H   0  0  0  0  0  0  0  0  0  0  0  0
  144.7459  133.8475  149.3421 H   0  0  0  0  0  0  0  0  0  0  0  0
  143.1779  131.6868  150.7306 H   0  0  0  0  0  0  0  0  0  0  0  0
  143.9659  131.6406  149.1526 H   0  0  0  0  0  0  0  0  0  0  0  0
  146.8373  132.5519  150.4758 H   0  0  0  0  0  0  0  0  0  0  0  0
  147.5214  132.6750  152.8945 H   0  0  0  0  0  0  0  0  0  0  0  0
  147.3636  131.0038  152.3702 H   0  0  0  0  0  0  0  0  0  0  0  0
  146.0962  131.7417  153.3473 H   0  0  0  0  0  0  0  0  0  0  0  0
  1  2  1  0  0  0  0
  1 20  1  0  0  0  0
  1 21  1  0  0  0  0
  1 22  1  0  0  0  0
  2 19  1  0  0  0  0
  2  3  2  0  0  0  0
  3  4  1  0  0  0  0
  3 23  1  0  0  0  0
  4  5  1  0  0  0  0
  5  6  1  0  0  0  0
  5 19  2  0  0  0  0
  6  7  1  0  0  0  0
  6  8  1  0  0  0  0
  6 24  1  0  0  0  0
  7 25  1  0  0  0  0
  7 26  1  0  0  0  0
  7 27  1  0  0  0  0
  8  9  1  0  0  0  0
  8 28  1  0  0  0  0
  8 29  1  0  0  0  0
  9 10  1  0  0  0  0
  9 30  1  0  0  0  0
 10 11  2  0  0  0  0
 10 12  1  0  0  0  0
 12 13  1  0  0  0  0
 12 31  1  0  0  0  0
 13 17  1  0  0  0  0
 13 14  1  0  0  0  0
 13 32  1  0  0  0  0
 14 15  1  0  0  0  0
 14 33  1  0  0  0  0
 14 34  1  0  0  0  0
 15 16  1  0  0  0  0
 15 35  1  0  0  0  0
 15 36  1  0  0  0  0
 16 17  1  0  0  0  0
 17 18  1  0  0  0  0
 17 37  1  0  0  0  0
 18 38  1  0  0  0  0
 18 39  1  0  0  0  0
 18 40  1  0  0  0  0
M  END
> <s_m_source_file>
AV-unprocessed.smi

> <i_m_source_file_index>
2340

> <i_lp_mmshare_version>
43012

> <i_f3d_flags>
0

> <s_epik_input>
W0NIM11jMVtjSF1zYyhuMSlbQ0BIXShbQ0gzXSlbQ0gyXVtOSF1DKD1PKVtOSF1bQ0BASF0yW0NIMl1bQ0gyXU9bQ0BIXTJbQ0gzXQ==

> <s_epik_cmdline>
J2VwaWtfcHl0aG9uJywgJy1waCcsICc3LjAnLCAnLXRuJywgJzgnLCAnLW1hJywgJzIwMCcsICctbWV0YWxfYmluZGluZycsICctaW1hZScsICc8aW5maWxlLm1hZT4nLCAnLW9tYWUnLCAnPG91dGZpbGUubWFlPic=

> <r_epik_Ionization_Penalty>
0.00156622

> <r_epik_Ionization_Penalty_Charging>
0

> <r_epik_Ionization_Penalty_Neutral>
0.00156622

> <r_epik_State_Penalty>
0.00101902

> <r_epik_Charging_Adjusted_Penalty>
0.00101902

> <i_epik_Tot_Q>
0

> <i_epik_Tot_abs_Q>
0

> <r_epik_Metal_State_Penalty>
-0

> <b_epik_Metal_Only>
0

> <s_lp_Force_Field>
OPLS_2005

> <r_lp_Energy>
3.95119

> <b_lp_Chiralities_Consistent>
1

> <s_lp_Variant>
AV-unprocessed.smi:2340-8

> <Gold.Version>
5.8.1

> <Gold.Id.Protein>
6NUR|6NUR_protein|mol2

> <Gold.PLP.Fitness>
35.5747

> <Gold.PLP.PLP>
-30.4587

> <Gold.PLP.part.hbond>
-1.1807

> <Gold.PLP.part.metal>
0.0000

> <Gold.PLP.part.buried>
-2.4497

> <Gold.PLP.part.nonpolar>
-29.2015

> <Gold.PLP.part.repulsive>
0.8613

> <Gold.PLP.ligand.clash>
0.0000

> <Gold.PLP.ligand.torsion>
0.4346

> <Gold.PLP.Chemscore.Hbond>
0.9600

> <Gold.PLP.Chemscore.CHOScore>
0.9908

> <Gold.PLP.Chemscore.Metal>
0.0000

> <Gold.Chemscore.Hbonds>
donor molecule, donor type, donor heavy atom, donor atom, acceptor molecule, acceptor atom, score
      L1  H     9    30       P1  7948  0.96
      L1  C     3    23       P1  8028  0.97

> <Gold.PLP.Chemscore.Internal.Correction>
0.1329

> <Gold.Rescore>
     Score         DG    S(hbond)    S(metal)    S(lipo)     H(rot)  DE(clash)    DE(int)     intcor
     11.92     -13.62       0.96        0.00      75.84       1.53       0.08       1.62       ----

> <Gold.Chemscore.Fitness>
11.9227

> <Gold.Chemscore.DG>
-13.6236

> <Gold.Chemscore.ZeroCoef>
-5.4800

> <Gold.Chemscore.Hbond>
0.9560

> <Gold.Chemscore.Metal>
0.0000

> <Gold.Chemscore.Lipo>
75.8434

> <Gold.Chemscore.Internal_Hbond>
0.0000

> <Gold.Chemscore.DEClash>
0.0769

> <Gold.Chemscore.DEInternal>
1.6239

> <Gold.Chemscore.Rot>
1.5325

> <Gold.Chemscore.Internal.Correction>
   9.000000E+99

> <Gold.Chemscore.Hbonds>
donor molecule, donor type, donor heavy atom, donor atom, acceptor molecule, acceptor atom, score
      L1  H     9    30       P1  7948  0.91

> <Gold.Chemscore.Hbond.Weighted>
-3.1932

> <Gold.Chemscore.Metal.Weighted>
-0.0000

> <Gold.Chemscore.Lipo.Weighted>
-8.8737

> <Gold.Chemscore.Internal_Hbond.Weighted>
0.0000

> <Gold.Chemscore.DEClash.Weighted>
0.0769

> <Gold.Chemscore.DEInternal.Weighted>
1.6239

> <Gold.Chemscore.Rot.Weighted>
3.9233

> <Gold.Chemscore.Internal.Correction.Weighted>
   9.000000E+99

> <Gold.Protein.RotatedTorsions>
[ 6907 6896 6895 6894 ] final  159.42 input  -60.11 | X-H torsion
[ 7974 7965 7964 7962 ] final   56.69 input  175.53 | X-H torsion
[ 8008 7997 7996 7995 ] final   -7.31 input   59.86 | X-H torsion
[ 10167 10162 10161 10158 ] final  -60.24 input  -65.29 | X-H torsion
[ 10718 10713 10712 10709 ] final  -57.93 input   66.30 | X-H torsion
[ 10763 10752 10751 10750 ] final -176.03 input  -60.55 | X-H torsion
[ 11005 11000 10999 10996 ] final   15.73 input  -57.11 | X-H torsion

> <Gold.Protein.ActiveResidues>
 VAL166  LYS551  ARG553  GLY616  TRP617  ASP618  TYR619  PRO620  LYS621  CYS622 
 ASP623  PHE694  ASN695  SER759  ASP760  ASP761  ALA762  ILE779  LEU786  VAL792 
 PHE793  MET794  SER795  GLU796  ALA797  LYS798  CYS799  TRP800  GLU811  SER814 

> <Gold.Protein.RotatedAtoms>
  151.9859  133.3774  159.4125 H   0  0  0  0  0  0  0  0  0  0  0  0  # atno 6907 bound_to 6896
  150.6928  134.3989  159.5119 H   0  0  0  0  0  0  0  0  0  0  0  0  # atno 6908 bound_to 6896
  152.1715  134.8830  160.0584 H   0  0  0  0  0  0  0  0  0  0  0  0  # atno 6909 bound_to 6896
  145.9371  139.3856  143.0386 H   0  0  0  0  0  0  0  0  0  0  0  0  # atno 7974 bound_to 7965
  154.5851  140.2410  155.7999 H   0  0  0  0  0  0  0  0  0  0  0  0  # atno 8008 bound_to 7997
  156.2207  140.2998  155.9901 H   0  0  0  0  0  0  0  0  0  0  0  0  # atno 8009 bound_to 7997
  155.2473  140.0409  157.2973 H   0  0  0  0  0  0  0  0  0  0  0  0  # atno 8010 bound_to 7997
  140.6084  143.2380  151.5767 H   0  0  0  0  0  0  0  0  0  0  0  0  # atno 10167 bound_to 10162
  156.1173  130.4169  150.0507 H   0  0  0  0  0  0  0  0  0  0  0  0  # atno 10718 bound_to 10713
  154.5773  135.2833  155.0768 H   0  0  0  0  0  0  0  0  0  0  0  0  # atno 10763 bound_to 10752
  154.2117  135.6406  153.5121 H   0  0  0  0  0  0  0  0  0  0  0  0  # atno 10764 bound_to 10752
  153.0076  135.5493  154.6416 H   0  0  0  0  0  0  0  0  0  0  0  0  # atno 10765 bound_to 10752
  140.4550  134.1185  155.7708 H   0  0  0  0  0  0  0  0  0  0  0  0  # atno 11005 bound_to 11000
  145.8349  140.9611  143.0829 LP  0  0  0  0  0  0  0  0  0  0  0  0  # atno 17320 bound_to 7965
  144.6773  140.0210  143.7483 LP  0  0  0  0  0  0  0  0  0  0  0  0  # atno 17321 bound_to 7965
  139.5342  144.2828  152.1215 LP  0  0  0  0  0  0  0  0  0  0  0  0  # atno 17342 bound_to 10162
  140.2022  144.4646  150.6426 LP  0  0  0  0  0  0  0  0  0  0  0  0  # atno 17343 bound_to 10162
  156.8455  130.9440  151.3629 LP  0  0  0  0  0  0  0  0  0  0  0  0  # atno 17370 bound_to 10713
  157.6357  130.8765  149.9354 LP  0  0  0  0  0  0  0  0  0  0  0  0  # atno 17371 bound_to 10713
  141.1647  133.8726  157.1749 LP  0  0  0  0  0  0  0  0  0  0  0  0  # atno 17394 bound_to 11000
  139.9982  135.0038  157.0130 LP  0  0  0  0  0  0  0  0  0  0  0  0  # atno 17395 bound_to 11000

$$$$
