#       Name:                AV-unprocessed.smi:282
#       Creating user name   scv26
#       Creation time:       Thu Mar 26 21:41:39 2020


#       File generated by GOLD software.
#

@<TRIPOS>MOLECULE
AV-unprocessed.smi:282
    73    77     1
SMALL
NO_CHARGES


@<TRIPOS>ATOM
      1 ****        -2.2716  -0.1320   3.2710 C.3            1 S1                 0.0000
      2 ****        -2.0229   0.6564   1.9777 C.3            1 S1                 0.0000
      3 ****        -2.4030  -0.1094   0.6824 C.3            1 S1                 0.0000
      4 ****        -3.9204  -0.4070   0.6398 C.3            1 S1                 0.0000
      5 ****        -4.3297  -1.0775  -0.6194 N.4            1 S1                 1.0000
      6 ****        -5.7794  -1.4038  -0.6273 C.3            1 S1                 0.0000
      7 ****        -6.1705  -2.1880  -1.8896 C.3            1 S1                 0.0000
      8 ****        -5.7791  -1.4144  -3.1538 C.3            1 S1                 0.0000
      9 ****        -4.2835  -1.0777  -3.1152 C.3            1 S1                 0.0000
     10 ****        -3.9112  -0.3146  -1.8283 C.3            1 S1                 0.0000
     11 ****        -2.4011  -0.0293  -1.7848 C.3            1 S1                 0.0000
     12 ****        -2.0133   0.6151  -0.5350 N.3            1 S1                 0.0000
     13 ****        -0.7313   1.0395  -0.6016 C.ar           1 S1                 0.0000
     14 ****        -0.5303   2.3642  -0.8039 N.ar           1 S1                 0.0000
     15 ****         0.7142   2.8463  -0.8730 C.ar           1 S1                 0.0000
     16 ****         1.8710   2.1888  -0.7686 N.ar           1 S1                 0.0000
     17 ****         1.6709   0.8543  -0.5689 C.ar           1 S1                 0.0000
     18 ****         0.4110   0.1987  -0.4813 C.ar           1 S1                 0.0000
     19 ****         0.5969  -1.1651  -0.2952 N.2            1 S1                 0.0000
     20 ****         1.8939  -1.3070  -0.2721 C.2            1 S1                 0.0000
     21 ****         2.6178  -0.1430  -0.4077 N.pl3          1 S1                 0.0000
     22 ****         4.0690  -0.0161  -0.4171 C.3            1 S1                 0.0000
     23 ****         4.7254   0.1788   0.9869 C.3            1 S1                 0.0000
     24 ****         4.3384  -0.9751   1.9503 C.3            1 S1                 0.0000
     25 ****         4.7200  -2.2415   1.4506 O.3            1 S1                 0.0000
     26 ****         6.2681   0.2315   0.8528 C.3            1 S1                 0.0000
     27 ****         6.7690   1.5332   0.2008 C.3            1 S1                 0.0000
     28 ****         6.2994   2.6566   0.9344 O.3            1 S1                 0.0000
     29 ****         4.8809   2.7476   0.9518 C.3            1 S1                 0.0000
     30 ****         4.2856   1.5099   1.6475 C.3            1 S1                 0.0000
     31 ****        -1.8940   0.4187   4.1330 H              1 S1                 0.0000
     32 ****        -1.7642  -1.0967   3.2479 H              1 S1                 0.0000
     33 ****        -3.3325  -0.3099   3.4434 H              1 S1                 0.0000
     34 ****        -2.5603   1.6046   2.0190 H              1 S1                 0.0000
     35 ****        -0.9637   0.9136   1.9700 H              1 S1                 0.0000
     36 ****        -1.8776  -1.0648   0.6820 H              1 S1                 0.0000
     37 ****        -4.2016  -1.0487   1.4745 H              1 S1                 0.0000
     38 ****        -4.4837   0.5216   0.7485 H              1 S1                 0.0000
     39 ****        -6.0261  -1.9937   0.2563 H              1 S1                 0.0000
     40 ****        -6.3608  -0.4824  -0.5651 H              1 S1                 0.0000
     41 ****        -5.6780  -3.1613  -1.8858 H              1 S1                 0.0000
     42 ****        -7.2433  -2.3832  -1.8900 H              1 S1                 0.0000
     43 ****        -6.0111  -2.0015  -4.0428 H              1 S1                 0.0000
     44 ****        -6.3638  -0.4961  -3.2230 H              1 S1                 0.0000
     45 ****        -3.7036  -1.9996  -3.1802 H              1 S1                 0.0000
     46 ****        -4.0182  -0.4851  -3.9913 H              1 S1                 0.0000
     47 ****        -4.4422   0.6393  -1.8233 H              1 S1                 0.0000
     48 ****        -1.8455  -0.9623  -1.8925 H              1 S1                 0.0000
     49 ****        -2.1242   0.6037  -2.6297 H              1 S1                 0.0000
     50 ****         0.7953   3.9114  -1.0324 H              1 S1                 0.0000
     51 ****         2.3625  -2.2726  -0.1489 H              1 S1                 0.0000
     52 ****         4.4730  -0.9093  -0.8950 H              1 S1                 0.0000
     53 ****         4.3233   0.8033  -1.0879 H              1 S1                 0.0000
     54 ****         4.8213  -0.8417   2.9190 H              1 S1                 0.0000
     55 ****         3.2663  -0.9825   2.1469 H              1 S1                 0.0000
     56 ****         4.5160  -2.8950   2.1019 H              1 S1                 0.0000
     57 ****         6.7233   0.1530   1.8410 H              1 S1                 0.0000
     58 ****         6.6326  -0.6259   0.2859 H              1 S1                 0.0000
     59 ****         7.8589   1.5504   0.2019 H              1 S1                 0.0000
     60 ****         6.4587   1.6061  -0.8418 H              1 S1                 0.0000
     61 ****         4.5976   3.6489   1.4956 H              1 S1                 0.0000
     62 ****         4.5010   2.8647  -0.0630 H              1 S1                 0.0000
     63 ****         3.1996   1.5876   1.6890 H              1 S1                 0.0000
     64 ****         4.6174   1.5249   2.6866 H              1 S1                 0.0000
     65 ****        -3.8341  -1.9570  -0.6502 H              1 S1                 0.0000
     66 ****        -2.5679   1.4408  -0.4320 LP             1 S1                 0.0000
     67 ****        -1.3121   2.9801  -0.9014 LP             1 S1                 0.0000
     68 ****         2.7711   2.6202  -0.8292 LP             1 S1                 0.0000
     69 ****        -0.1017  -1.8744  -0.2008 LP             1 S1                 0.0000
     70 ****         5.7021  -2.2479   1.2625 LP             1 S1                 0.0000
     71 ****         4.2180  -2.4369   0.6080 LP             1 S1                 0.0000
     72 ****         6.6680   3.4875   0.5175 LP             1 S1                 0.0000
     73 ****         6.6266   2.5828   1.8764 LP             1 S1                 0.0000
@<TRIPOS>BOND
    1    1    2 1     
    2    1   31 1     
    3    1   32 1     
    4    1   33 1     
    5    2    3 1     
    6    2   34 1     
    7    2   35 1     
    8    3   12 1     
    9    3    4 1     
   10    3   36 1     
   11    4    5 1     
   12    4   37 1     
   13    4   38 1     
   14    5   10 1     
   15    5    6 1     
   16    5   65 1     
   17    6    7 1     
   18    6   39 1     
   19    6   40 1     
   20    7    8 1     
   21    7   41 1     
   22    7   42 1     
   23    8    9 1     
   24    8   43 1     
   25    8   44 1     
   26    9   10 1     
   27    9   45 1     
   28    9   46 1     
   29   10   11 1     
   30   10   47 1     
   31   11   12 1     
   32   11   48 1     
   33   11   49 1     
   34   12   13 1     
   35   13   18 ar    
   36   13   14 ar    
   37   14   15 ar    
   38   15   16 ar    
   39   15   50 1     
   40   16   17 ar    
   41   17   21 1     
   42   17   18 ar    
   43   18   19 1     
   44   19   20 2     
   45   20   21 1     
   46   20   51 1     
   47   21   22 1     
   48   22   23 1     
   49   22   52 1     
   50   22   53 1     
   51   23   30 1     
   52   23   24 1     
   53   23   26 1     
   54   24   25 1     
   55   24   54 1     
   56   24   55 1     
   57   25   56 1     
   58   26   27 1     
   59   26   57 1     
   60   26   58 1     
   61   27   28 1     
   62   27   59 1     
   63   27   60 1     
   64   28   29 1     
   65   29   30 1     
   66   29   61 1     
   67   29   62 1     
   68   30   63 1     
   69   30   64 1     
   70   12   66 1     
   71   14   67 1     
   72   16   68 1     
   73   19   69 1     
   74   25   70 1     
   75   25   71 1     
   76   28   72 1     
   77   28   73 1     
@<TRIPOS>SUBSTRUCTURE
      1 S1             1
@<TRIPOS>SET
LONE_PAIRS      STATIC     ATOMS    <user>   **** ""
8 66 67 68 69 70 71 72 73
DONOR_HYDROGENS      STATIC     ATOMS    <user>   **** ""
2 65 56
ATOM$BLUE        STATIC     ATOMS    COLORGROUP SYSTEM
8 66 67 68 69 70 71 72 73
ATOM$RED        STATIC     ATOMS    COLORGROUP SYSTEM
2 65 56
