AV-unprocessed.smi:1764|AV-procd|sdf|7132|dock2
  -GOLD-   22720 8363D 1   1.00000     0.00000
 Structure written by MMmdl.
 31 32  0  0  0  0  0  0  0  0  1 V2000
  151.6851  141.5810  157.1380 O   0  0  0  0  0  0  0  0  0  0  0  0
  150.9365  142.4880  156.7731 C   0  0  0  0  0  0  0  0  0  0  0  0
  151.0483  143.7554  157.1970 N   0  0  0  0  0  0  0  0  0  0  0  0
  152.0448  144.2379  158.1470 C   0  0  0  0  0  0  0  0  0  0  0  0
  151.6833  143.8481  159.5898 C   0  0  2  0  0  0  0  0  0  0  0  0
  151.7263  145.0173  160.5728 C   0  0  0  0  0  0  0  0  0  0  0  0
  152.0121  144.3553  161.9127 C   0  0  0  0  0  0  0  0  0  0  0  0
  152.4320  142.9297  161.5447 C   0  0  0  0  0  0  0  0  0  0  0  0
  152.6430  142.9604  160.1410 O   0  0  0  0  0  0  0  0  0  0  0  0
  149.9123  142.3522  155.9123 N   0  0  0  0  0  0  0  0  0  0  0  0
  149.4829  141.1790  155.2358 C   0  0  0  0  0  0  0  0  0  0  0  0
  148.1561  141.2196  154.7505 C   0  0  0  0  0  0  0  0  0  0  0  0
  147.6349  140.1065  154.0630 C   0  0  0  0  0  0  0  0  0  0  0  0
  148.4552  138.9796  153.8772 C   0  0  0  0  0  0  0  0  0  0  0  0
  149.7644  139.0206  154.3914 C   0  0  0  0  0  0  0  0  0  0  0  0
  150.2656  140.0865  155.0508 N   0  0  0  0  0  0  0  0  0  0  0  0
  150.3919  144.4359  156.8436 H   0  0  0  0  0  0  0  0  0  0  0  0
  153.0412  143.8769  157.8856 H   0  0  0  0  0  0  0  0  0  0  0  0
  152.0796  145.3242  158.0624 H   0  0  0  0  0  0  0  0  0  0  0  0
  150.6999  143.3751  159.6225 H   0  0  0  0  0  0  0  0  0  0  0  0
  152.5450  145.6930  160.3208 H   0  0  0  0  0  0  0  0  0  0  0  0
  150.8025  145.5966  160.5741 H   0  0  0  0  0  0  0  0  0  0  0  0
  152.8069  144.8825  162.4415 H   0  0  0  0  0  0  0  0  0  0  0  0
  151.1306  144.3451  162.5549 H   0  0  0  0  0  0  0  0  0  0  0  0
  153.3306  142.6073  162.0711 H   0  0  0  0  0  0  0  0  0  0  0  0
  151.6317  142.2236  161.7709 H   0  0  0  0  0  0  0  0  0  0  0  0
  149.3803  143.1864  155.7140 H   0  0  0  0  0  0  0  0  0  0  0  0
  147.5394  142.0939  154.9013 H   0  0  0  0  0  0  0  0  0  0  0  0
  146.6233  140.1180  153.6847 H   0  0  0  0  0  0  0  0  0  0  0  0
  148.0916  138.1071  153.3548 H   0  0  0  0  0  0  0  0  0  0  0  0
  150.4271  138.1765  154.2701 H   0  0  0  0  0  0  0  0  0  0  0  0
  1  2  2  0  0  0  0
  2  3  1  0  0  0  0
  2 10  1  0  0  0  0
  3  4  1  0  0  0  0
  3 17  1  0  0  0  0
  4  5  1  0  0  0  0
  4 18  1  0  0  0  0
  4 19  1  0  0  0  0
  5  9  1  0  0  0  0
  5  6  1  0  0  0  0
  5 20  1  0  0  0  0
  6  7  1  0  0  0  0
  6 21  1  0  0  0  0
  6 22  1  0  0  0  0
  7  8  1  0  0  0  0
  7 23  1  0  0  0  0
  7 24  1  0  0  0  0
  8  9  1  0  0  0  0
  8 25  1  0  0  0  0
  8 26  1  0  0  0  0
 10 11  1  0  0  0  0
 10 27  1  0  0  0  0
 11 16  1  0  0  0  0
 11 12  2  0  0  0  0
 12 13  1  0  0  0  0
 12 28  1  0  0  0  0
 13 14  2  0  0  0  0
 13 29  1  0  0  0  0
 14 15  1  0  0  0  0
 14 30  1  0  0  0  0
 15 16  2  0  0  0  0
 15 31  1  0  0  0  0
M  END
> <s_m_source_file>
AV-unprocessed.smi

> <i_m_source_file_index>
1764

> <i_lp_mmshare_version>
43012

> <i_f3d_flags>
0

> <s_epik_input>
bjFbY0hdW2NIXVtjSF1bY0hdYzFbTkhdQyg9TylbTkhdW0NIMl1bQ0BASF0yW0NIMl1bQ0gyXVtDSDJdTzI=

> <s_epik_cmdline>
J2VwaWtfcHl0aG9uJywgJy1waCcsICc3LjAnLCAnLXRuJywgJzgnLCAnLW1hJywgJzIwMCcsICctbWV0YWxfYmluZGluZycsICctaW1hZScsICc8aW5maWxlLm1hZT4nLCAnLW9tYWUnLCAnPG91dGZpbGUubWFlPic=

> <r_lp_tautomer_probability>
1

> <r_epik_Ionization_Penalty>
4.47751e-05

> <r_epik_Ionization_Penalty_Charging>
0

> <r_epik_Ionization_Penalty_Neutral>
4.47751e-05

> <r_epik_State_Penalty>
-0

> <r_epik_Charging_Adjusted_Penalty>
0

> <i_epik_Tot_Q>
0

> <i_epik_Tot_abs_Q>
0

> <r_epik_Metal_State_Penalty>
-0

> <b_epik_Metal_Only>
0

> <s_lp_Force_Field>
OPLS_2005

> <r_lp_Energy>
19.1165

> <b_lp_Chiralities_Consistent>
1

> <s_lp_Variant>
AV-unprocessed.smi:1764-1

> <Gold.Version>
5.8.1

> <Gold.Id.Protein>
6NUR|6NUR_protein|mol2

> <Gold.PLP.Fitness>
42.0967

> <Gold.PLP.PLP>
-35.1897

> <Gold.PLP.part.hbond>
-3.0000

> <Gold.PLP.part.metal>
0.0000

> <Gold.PLP.part.buried>
-1.5293

> <Gold.PLP.part.nonpolar>
-31.5515

> <Gold.PLP.part.repulsive>
0.2275

> <Gold.PLP.ligand.clash>
0.0000

> <Gold.PLP.ligand.torsion>
0.9199

> <Gold.PLP.Chemscore.Hbond>
2.9120

> <Gold.PLP.Chemscore.CHOScore>
0.0000

> <Gold.PLP.Chemscore.Metal>
0.0000

> <Gold.Chemscore.Hbonds>
donor molecule, donor type, donor heavy atom, donor atom, acceptor molecule, acceptor atom, score
      L1  H     3    17       P1  8028  0.93
      L1  H    10    27       P1  8028  1.00
      P1  H  7989  7998       L1    16  0.52

> <Gold.PLP.Chemscore.Internal.Correction>
0.0108

> <Gold.Rescore>
     Score         DG    S(hbond)    S(metal)    S(lipo)     H(rot)  DE(clash)    DE(int)     intcor
     16.17     -19.91       2.37        0.00      83.38       1.27       1.59       2.14       ----

> <Gold.Chemscore.Fitness>
16.1710

> <Gold.Chemscore.DG>
-19.9075

> <Gold.Chemscore.ZeroCoef>
-5.4800

> <Gold.Chemscore.Hbond>
2.3707

> <Gold.Chemscore.Metal>
0.0000

> <Gold.Chemscore.Lipo>
83.3753

> <Gold.Chemscore.Internal_Hbond>
0.0000

> <Gold.Chemscore.DEClash>
1.5936

> <Gold.Chemscore.DEInternal>
2.1429

> <Gold.Chemscore.Rot>
1.2678

> <Gold.Chemscore.Internal.Correction>
   9.000000E+99

> <Gold.Chemscore.Hbonds>
donor molecule, donor type, donor heavy atom, donor atom, acceptor molecule, acceptor atom, score
      L1  H     3    17       P1  8028  0.84
      L1  H    10    27       P1  8028  0.99
      P1  H  7989  7998       L1    16  0.03

> <Gold.Chemscore.Hbond.Weighted>
-7.9181

> <Gold.Chemscore.Metal.Weighted>
-0.0000

> <Gold.Chemscore.Lipo.Weighted>
-9.7549

> <Gold.Chemscore.Internal_Hbond.Weighted>
0.0000

> <Gold.Chemscore.DEClash.Weighted>
1.5936

> <Gold.Chemscore.DEInternal.Weighted>
2.1429

> <Gold.Chemscore.Rot.Weighted>
3.2455

> <Gold.Chemscore.Internal.Correction.Weighted>
   9.000000E+99

> <Gold.Protein.RotatedTorsions>
[ 6907 6896 6895 6894 ] final -152.98 input  -60.11 | X-H torsion
[ 7974 7965 7964 7962 ] final -117.92 input  175.53 | X-H torsion
[ 8008 7997 7996 7995 ] final   -9.76 input   59.86 | X-H torsion
[ 10167 10162 10161 10158 ] final  -72.86 input  -65.29 | X-H torsion
[ 10718 10713 10712 10709 ] final    0.50 input   66.30 | X-H torsion
[ 10763 10752 10751 10750 ] final -123.27 input  -60.55 | X-H torsion
[ 11005 11000 10999 10996 ] final -100.17 input  -57.11 | X-H torsion

> <Gold.Protein.ActiveResidues>
 VAL166  LYS551  ARG553  GLY616  TRP617  ASP618  TYR619  PRO620  LYS621  CYS622 
 ASP623  PHE694  ASN695  SER759  ASP760  ASP761  ALA762  ILE779  LEU786  VAL792 
 PHE793  MET794  SER795  GLU796  ALA797  LYS798  CYS799  TRP800  GLU811  SER814 

> <Gold.Protein.RotatedAtoms>
  151.2358  133.4425  159.2605 H   0  0  0  0  0  0  0  0  0  0  0  0  # atno 6907 bound_to 6896
  151.0751  134.9823  159.8338 H   0  0  0  0  0  0  0  0  0  0  0  0  # atno 6908 bound_to 6896
  152.5417  134.2301  159.8874 H   0  0  0  0  0  0  0  0  0  0  0  0  # atno 6909 bound_to 6896
  145.0797  140.8417  143.4046 H   0  0  0  0  0  0  0  0  0  0  0  0  # atno 7974 bound_to 7965
  154.5616  140.2346  155.8326 H   0  0  0  0  0  0  0  0  0  0  0  0  # atno 8008 bound_to 7997
  156.2034  140.3046  155.9535 H   0  0  0  0  0  0  0  0  0  0  0  0  # atno 8009 bound_to 7997
  155.2877  140.0425  157.3011 H   0  0  0  0  0  0  0  0  0  0  0  0  # atno 8010 bound_to 7997
  140.5158  143.2338  151.7515 H   0  0  0  0  0  0  0  0  0  0  0  0  # atno 10167 bound_to 10162
  156.8343  130.5499  149.5684 H   0  0  0  0  0  0  0  0  0  0  0  0  # atno 10718 bound_to 10713
  154.8705  135.4104  154.2916 H   0  0  0  0  0  0  0  0  0  0  0  0  # atno 10763 bound_to 10752
  153.3791  135.7010  153.6585 H   0  0  0  0  0  0  0  0  0  0  0  0  # atno 10764 bound_to 10752
  153.5415  135.3647  155.2692 H   0  0  0  0  0  0  0  0  0  0  0  0  # atno 10765 bound_to 10752
  141.1281  133.8378  157.1067 H   0  0  0  0  0  0  0  0  0  0  0  0  # atno 11005 bound_to 11000
  145.1193  139.2704  143.5597 LP  0  0  0  0  0  0  0  0  0  0  0  0  # atno 17320 bound_to 7965
  146.3531  140.0812  142.8617 LP  0  0  0  0  0  0  0  0  0  0  0  0  # atno 17321 bound_to 7965
  139.4909  144.4326  151.9855 LP  0  0  0  0  0  0  0  0  0  0  0  0  # atno 17342 bound_to 10162
  140.3420  144.3192  150.5965 LP  0  0  0  0  0  0  0  0  0  0  0  0  # atno 17343 bound_to 10162
  156.0916  130.5900  150.9743 LP  0  0  0  0  0  0  0  0  0  0  0  0  # atno 17370 bound_to 10713
  157.6390  131.0912  150.8290 LP  0  0  0  0  0  0  0  0  0  0  0  0  # atno 17371 bound_to 10713
  140.0300  134.9906  157.0761 LP  0  0  0  0  0  0  0  0  0  0  0  0  # atno 17394 bound_to 11000
  140.4301  134.1790  155.7168 LP  0  0  0  0  0  0  0  0  0  0  0  0  # atno 17395 bound_to 11000

$$$$
