#       Name:                AV-unprocessed.smi:178
#       Creating user name   scv26
#       Creation time:       Thu Mar 26 19:23:33 2020


#       File generated by GOLD software.
#

@<TRIPOS>MOLECULE
AV-unprocessed.smi:178
    60    62     1
SMALL
NO_CHARGES


@<TRIPOS>ATOM
      1 ****        -3.9285  -5.2726  -0.4760 C.3            1 S1                 0.0000
      2 ****        -4.5518  -4.1394  -1.0605 O.3            1 S1                 0.0000
      3 ****        -3.7329  -2.9793  -1.0773 C.3            1 S1                 0.0000
      4 ****        -3.6940  -2.2976   0.3049 C.3            1 S1                 0.0000
      5 ****        -2.9138  -1.0565   0.3006 N.pl3          1 S1                 0.0000
      6 ****        -3.6473   0.2091   0.3060 C.3            1 S1                 0.0000
      7 ****        -4.3526   0.5039  -1.0283 C.3            1 S1                 0.0000
      8 ****        -3.4583   0.5477  -2.1961 C.1            1 S1                 0.0000
      9 ****        -2.7571   0.5801  -3.1160 N.1            1 S1                 0.0000
     10 ****        -1.5485  -1.1091   0.2238 C.ar           1 S1                 0.0000
     11 ****        -0.9455  -2.2996   0.4922 N.ar           1 S1                 0.0000
     12 ****         0.3799  -2.4361   0.4253 C.ar           1 S1                 0.0000
     13 ****         1.2942  -1.5203   0.1132 N.ar           1 S1                 0.0000
     14 ****         0.7142  -0.3159  -0.1523 C.ar           1 S1                 0.0000
     15 ****        -0.6825  -0.0224  -0.1230 C.ar           1 S1                 0.0000
     16 ****        -0.8679   1.3113  -0.4731 N.2            1 S1                 0.0000
     17 ****         0.3315   1.7713  -0.6919 C.2            1 S1                 0.0000
     18 ****         1.3479   0.8643  -0.5075 N.pl3          1 S1                 0.0000
     19 ****         2.7788   1.0872  -0.6808 C.3            1 S1                 0.0000
     20 ****         3.5267   1.4931   0.6184 C.3            1 S1                 0.0000
     21 ****         3.1953   0.5578   1.6315 O.3            1 S1                 0.0000
     22 ****         5.0375   1.5140   0.4609 C.3            1 S1                 0.0000
     23 ****         5.4991   2.3884   1.6251 C.3            1 S1                 0.0000
     24 ****         4.3819   3.1958   1.9914 O.3            1 S1                 0.0000
     25 ****         3.2448   2.9021   1.1810 C.3            1 S1                 0.0000
     26 ****         3.1831   4.0394   0.1438 C.3            1 S1                 0.0000
     27 ****        -4.6004  -6.1283  -0.5385 H              1 S1                 0.0000
     28 ****        -3.6954  -5.1116   0.5763 H              1 S1                 0.0000
     29 ****        -3.0089  -5.5321  -1.0017 H              1 S1                 0.0000
     30 ****        -2.7325  -3.2231  -1.4373 H              1 S1                 0.0000
     31 ****        -4.1591  -2.2930  -1.8083 H              1 S1                 0.0000
     32 ****        -4.7154  -2.0716   0.6122 H              1 S1                 0.0000
     33 ****        -3.3077  -2.9725   1.0681 H              1 S1                 0.0000
     34 ****        -4.4073   0.1437   1.0851 H              1 S1                 0.0000
     35 ****        -3.0252   1.0450   0.6143 H              1 S1                 0.0000
     36 ****        -5.1194  -0.2445  -1.2270 H              1 S1                 0.0000
     37 ****        -4.8635   1.4649  -0.9703 H              1 S1                 0.0000
     38 ****         0.7616  -3.4204   0.6530 H              1 S1                 0.0000
     39 ****         0.4935   2.7901  -1.0054 H              1 S1                 0.0000
     40 ****         3.2091   0.1630  -1.0690 H              1 S1                 0.0000
     41 ****         2.9246   1.8276  -1.4675 H              1 S1                 0.0000
     42 ****         3.6369   0.8111   2.4278 H              1 S1                 0.0000
     43 ****         5.4903   0.5217   0.4681 H              1 S1                 0.0000
     44 ****         5.3084   1.9905  -0.4821 H              1 S1                 0.0000
     45 ****         5.7793   1.7748   2.4818 H              1 S1                 0.0000
     46 ****         6.3579   3.0040   1.3564 H              1 S1                 0.0000
     47 ****         2.3355   2.9209   1.7835 H              1 S1                 0.0000
     48 ****         2.3326   3.9423  -0.5252 H              1 S1                 0.0000
     49 ****         4.0832   4.0776  -0.4695 H              1 S1                 0.0000
     50 ****         3.0879   5.0044   0.6417 H              1 S1                 0.0000
     51 ****        -5.3808  -3.9326  -0.5409 LP             1 S1                 0.0000
     52 ****        -4.7971  -4.3658  -2.0032 LP             1 S1                 0.0000
     53 ****        -2.1511   0.6081  -3.9110 LP             1 S1                 0.0000
     54 ****        -1.5072  -3.0876   0.7445 LP             1 S1                 0.0000
     55 ****         2.2785  -1.6935   0.0781 LP             1 S1                 0.0000
     56 ****        -1.7329   1.8084  -0.5419 LP             1 S1                 0.0000
     57 ****         3.4923  -0.3568   1.3569 LP             1 S1                 0.0000
     58 ****         2.2063   0.5566   1.7795 LP             1 S1                 0.0000
     59 ****         4.6241   4.1592   1.8765 LP             1 S1                 0.0000
     60 ****         4.1536   3.0214   2.9492 LP             1 S1                 0.0000
@<TRIPOS>BOND
    1    1    2 1     
    2    1   27 1     
    3    1   28 1     
    4    1   29 1     
    5    2    3 1     
    6    3    4 1     
    7    3   30 1     
    8    3   31 1     
    9    4    5 1     
   10    4   32 1     
   11    4   33 1     
   12    5    6 1     
   13    5   10 1     
   14    6    7 1     
   15    6   34 1     
   16    6   35 1     
   17    7    8 1     
   18    7   36 1     
   19    7   37 1     
   20    8    9 3     
   21   10   15 ar    
   22   10   11 ar    
   23   11   12 ar    
   24   12   13 ar    
   25   12   38 1     
   26   13   14 ar    
   27   14   18 1     
   28   14   15 ar    
   29   15   16 1     
   30   16   17 2     
   31   17   18 1     
   32   17   39 1     
   33   18   19 1     
   34   19   20 1     
   35   19   40 1     
   36   19   41 1     
   37   20   25 1     
   38   20   21 1     
   39   20   22 1     
   40   21   42 1     
   41   22   23 1     
   42   22   43 1     
   43   22   44 1     
   44   23   24 1     
   45   23   45 1     
   46   23   46 1     
   47   24   25 1     
   48   25   26 1     
   49   25   47 1     
   50   26   48 1     
   51   26   49 1     
   52   26   50 1     
   53    2   51 1     
   54    2   52 1     
   55    9   53 1     
   56   11   54 1     
   57   13   55 1     
   58   16   56 1     
   59   21   57 1     
   60   21   58 1     
   61   24   59 1     
   62   24   60 1     
@<TRIPOS>SUBSTRUCTURE
      1 S1             1
@<TRIPOS>SET
LONE_PAIRS      STATIC     ATOMS    <user>   **** ""
10 51 52 53 54 55 56 57 58 59 60
DONOR_HYDROGENS      STATIC     ATOMS    <user>   **** ""
1 42
ATOM$BLUE        STATIC     ATOMS    COLORGROUP SYSTEM
10 51 52 53 54 55 56 57 58 59 60
ATOM$RED        STATIC     ATOMS    COLORGROUP SYSTEM
1 42
