#       Name:                AV-unprocessed.smi:3279
#       Creating user name   scv26
#       Creation time:       Fri Mar 27 18:46:36 2020


#       File generated by GOLD software.
#

@<TRIPOS>MOLECULE
AV-unprocessed.smi:3279
    43    43     1
SMALL
NO_CHARGES


@<TRIPOS>ATOM
      1 ****        -4.9124   0.9563   0.8264 C.3            1 S1                 0.0000
      2 ****        -3.3804   0.8822   0.9229 C.3            1 S1                 0.0000
      3 ****        -2.8627  -0.5692   1.0217 C.3            1 S1                 0.0000
      4 ****        -1.4072  -0.6181   1.1455 N.am           1 S1                 0.0000
      5 ****        -0.5576  -1.1113   0.2308 C.2            1 S1                 0.0000
      6 ****        -0.9192  -1.6652  -0.8079 O.2            1 S1                 0.0000
      7 ****         0.9303  -0.9462   0.5371 C.3            1 S1                 0.0000
      8 ****         1.6300  -0.7588  -0.6897 O.3            1 S1                 0.0000
      9 ****         3.0515  -0.6151  -0.6450 C.3            1 S1                 0.0000
     10 ****         3.4663   0.6003   0.2081 C.3            1 S1                 0.0000
     11 ****         3.4534  -0.3748  -2.1091 C.3            1 S1                 0.0000
     12 ****         3.7152  -1.9089  -0.1335 C.3            1 S1                 0.0000
     13 ****        -2.7181   1.6618  -0.1801 C.2            1 S1                 0.0000
     14 ****        -1.8941   2.6951   0.0522 N.2            1 S1                 0.0000
     15 ****        -1.5061   3.0690  -1.1743 N.2            1 S1                 0.0000
     16 ****        -2.0829   2.2825  -2.0906 N.2            1 S1                 0.0000
     17 ****        -2.8613   1.3763  -1.4844 N.pl3          1 S1                -1.0000
     18 ****        -5.2558   1.9911   0.8419 H              1 S1                 0.0000
     19 ****        -5.3839   0.4389   1.6621 H              1 S1                 0.0000
     20 ****        -5.2757   0.4983  -0.0941 H              1 S1                 0.0000
     21 ****        -3.1324   1.3444   1.8801 H              1 S1                 0.0000
     22 ****        -3.2950  -1.0583   1.8949 H              1 S1                 0.0000
     23 ****        -3.2019  -1.1401   0.1557 H              1 S1                 0.0000
     24 ****        -1.0100  -0.1807   1.9642 H              1 S1                 0.0000
     25 ****         1.0661  -0.0899   1.1983 H              1 S1                 0.0000
     26 ****         1.2710  -1.8386   1.0609 H              1 S1                 0.0000
     27 ****         4.5354   0.7947   0.1179 H              1 S1                 0.0000
     28 ****         3.2609   0.4468   1.2674 H              1 S1                 0.0000
     29 ****         2.9391   1.5013  -0.1074 H              1 S1                 0.0000
     30 ****         2.9801   0.5247  -2.5049 H              1 S1                 0.0000
     31 ****         3.1517  -1.2089  -2.7435 H              1 S1                 0.0000
     32 ****         4.5322  -0.2537  -2.2124 H              1 S1                 0.0000
     33 ****         4.7993  -1.8602  -0.2402 H              1 S1                 0.0000
     34 ****         3.3676  -2.7779  -0.6930 H              1 S1                 0.0000
     35 ****         3.5083  -2.0867   0.9216 H              1 S1                 0.0000
     36 ****        -1.8939  -1.7672  -1.0070 LP             1 S1                 0.0000
     37 ****        -0.2382  -2.0131  -1.4523 LP             1 S1                 0.0000
     38 ****         1.2623   0.0673  -1.1168 LP             1 S1                 0.0000
     39 ****         1.4306  -1.5500  -1.2679 LP             1 S1                 0.0000
     40 ****        -1.6320   3.0918   0.9319 LP             1 S1                 0.0000
     41 ****        -0.8799   3.8223  -1.3749 LP             1 S1                 0.0000
     42 ****        -1.9525   2.3596  -3.0790 LP             1 S1                 0.0000
     43 ****        -3.4169   0.6581  -1.9035 LP             1 S1                 0.0000
@<TRIPOS>BOND
    1    1    2 1     
    2    1   18 1     
    3    1   19 1     
    4    1   20 1     
    5    2    3 1     
    6    2   13 1     
    7    2   21 1     
    8    3    4 1     
    9    3   22 1     
   10    3   23 1     
   11    4    5 am    
   12    4   24 1     
   13    5    6 2     
   14    5    7 1     
   15    7    8 1     
   16    7   25 1     
   17    7   26 1     
   18    8    9 1     
   19    9   10 1     
   20    9   11 1     
   21    9   12 1     
   22   10   27 1     
   23   10   28 1     
   24   10   29 1     
   25   11   30 1     
   26   11   31 1     
   27   11   32 1     
   28   12   33 1     
   29   12   34 1     
   30   12   35 1     
   31   13   17 1     
   32   13   14 2     
   33   14   15 1     
   34   15   16 2     
   35   16   17 1     
   36    6   36 1     
   37    6   37 1     
   38    8   38 1     
   39    8   39 1     
   40   14   40 1     
   41   15   41 1     
   42   16   42 1     
   43   17   43 1     
@<TRIPOS>SUBSTRUCTURE
      1 S1             1
@<TRIPOS>SET
LONE_PAIRS      STATIC     ATOMS    <user>   **** ""
8 36 37 38 39 40 41 42 43
DONOR_HYDROGENS      STATIC     ATOMS    <user>   **** ""
1 24
ATOM$BLUE        STATIC     ATOMS    COLORGROUP SYSTEM
8 36 37 38 39 40 41 42 43
ATOM$RED        STATIC     ATOMS    COLORGROUP SYSTEM
1 24
