AV-unprocessed.smi:1658|AV-procd|sdf|6649|dock8
  -GOLD-   22720 7353D 1   1.00000     0.00000
 Structure written by MMmdl.
 47 48  0  0  0  0  0  0  0  0  2 V2000
  152.1322  140.3443  158.1750 C   0  0  0  0  0  0  0  0  0  0  0  0
  152.1551  140.3320  156.7518 O   0  0  0  0  0  0  0  0  0  0  0  0
  151.6216  139.2407  156.0972 C   0  0  0  0  0  0  0  0  0  0  0  0
  151.6695  137.9841  156.7327 C   0  0  0  0  0  0  0  0  0  0  0  0
  151.1301  136.8671  156.0675 C   0  0  0  0  0  0  0  0  0  0  0  0
  150.5503  137.0380  154.7943 C   0  0  0  0  0  0  0  0  0  0  0  0
  150.0366  135.8892  154.1347 N   0  0  0  0  0  0  0  0  0  0  0  0
  150.1164  134.6026  154.5145 C   0  0  0  0  0  0  0  0  0  0  0  0
  150.7336  134.1861  155.4944 O   0  0  0  0  0  0  0  0  0  0  0  0
  149.4408  133.8074  153.6724 N   0  0  0  0  0  0  0  0  0  0  0  0
  149.3225  132.3526  153.7774 C   0  0  0  0  0  0  0  0  0  0  0  0
  147.8534  131.8288  153.8469 C   0  0  0  0  0  0  0  0  0  0  0  0
  147.8090  130.3871  154.4108 C   0  0  0  0  0  0  0  0  0  0  0  0
  147.0714  132.7445  154.8265 C   0  0  0  0  0  0  0  0  0  0  0  0
  147.2559  131.8859  152.4606 N   0  3  0  0  0  0  0  0  0  0  0  0
  146.0135  131.0831  152.2655 C   0  0  0  0  0  0  0  0  0  0  0  0
  145.6032  131.0624  150.7849 C   0  0  0  0  0  0  0  0  0  0  0  0
  145.3956  132.3931  150.3359 O   0  0  0  0  0  0  0  0  0  0  0  0
  146.5850  133.1634  150.4219 C   0  0  0  0  0  0  0  0  0  0  0  0
  147.0574  133.2477  151.8840 C   0  0  0  0  0  0  0  0  0  0  0  0
  150.5594  138.3392  154.2355 C   0  0  0  0  0  0  0  0  0  0  0  0
  151.0776  139.4142  154.8673 N   0  0  0  0  0  0  0  0  0  0  0  0
  152.5796  141.2707  158.5346 H   0  0  0  0  0  0  0  0  0  0  0  0
  152.7073  139.5157  158.5905 H   0  0  0  0  0  0  0  0  0  0  0  0
  151.1118  140.3002  158.5587 H   0  0  0  0  0  0  0  0  0  0  0  0
  152.1145  137.8785  157.7111 H   0  0  0  0  0  0  0  0  0  0  0  0
  151.1601  135.8929  156.5335 H   0  0  0  0  0  0  0  0  0  0  0  0
  149.5793  136.0662  153.2523 H   0  0  0  0  0  0  0  0  0  0  0  0
  148.9697  134.2424  152.8925 H   0  0  0  0  0  0  0  0  0  0  0  0
  149.8168  131.9278  152.9028 H   0  0  0  0  0  0  0  0  0  0  0  0
  149.9117  132.0248  154.6325 H   0  0  0  0  0  0  0  0  0  0  0  0
  148.1148  130.3583  155.4568 H   0  0  0  0  0  0  0  0  0  0  0  0
  148.4757  129.7146  153.8705 H   0  0  0  0  0  0  0  0  0  0  0  0
  146.8051  129.9652  154.3690 H   0  0  0  0  0  0  0  0  0  0  0  0
  147.5470  132.8003  155.8057 H   0  0  0  0  0  0  0  0  0  0  0  0
  146.0639  132.3763  155.0203 H   0  0  0  0  0  0  0  0  0  0  0  0
  146.9937  133.7636  154.4461 H   0  0  0  0  0  0  0  0  0  0  0  0
  146.1398  130.0543  152.5940 H   0  0  0  0  0  0  0  0  0  0  0  0
  145.1963  131.5062  152.8506 H   0  0  0  0  0  0  0  0  0  0  0  0
  146.3596  130.5669  150.1741 H   0  0  0  0  0  0  0  0  0  0  0  0
  144.6762  130.5021  150.6604 H   0  0  0  0  0  0  0  0  0  0  0  0
  147.3596  132.7289  149.7877 H   0  0  0  0  0  0  0  0  0  0  0  0
  146.3845  134.1632  150.0362 H   0  0  0  0  0  0  0  0  0  0  0  0
  146.3300  133.8025  152.4770 H   0  0  0  0  0  0  0  0  0  0  0  0
  147.9816  133.8228  151.8809 H   0  0  0  0  0  0  0  0  0  0  0  0
  150.1684  138.5408  153.2504 H   0  0  0  0  0  0  0  0  0  0  0  0
  147.9507  131.4561  151.8665 H   0  0  0  0  0  0  0  0  0  0  0  0
  1  2  1  0  0  0  0
  1 23  1  0  0  0  0
  1 24  1  0  0  0  0
  1 25  1  0  0  0  0
  2  3  1  0  0  0  0
  3 22  1  0  0  0  0
  3  4  2  0  0  0  0
  4  5  1  0  0  0  0
  4 26  1  0  0  0  0
  5  6  2  0  0  0  0
  5 27  1  0  0  0  0
  6  7  1  0  0  0  0
  6 21  1  0  0  0  0
  7  8  1  0  0  0  0
  7 28  1  0  0  0  0
  8  9  2  0  0  0  0
  8 10  1  0  0  0  0
 10 11  1  0  0  0  0
 10 29  1  0  0  0  0
 11 12  1  0  0  0  0
 11 30  1  0  0  0  0
 11 31  1  0  0  0  0
 12 13  1  0  0  0  0
 12 14  1  0  0  0  0
 12 15  1  0  0  0  0
 13 32  1  0  0  0  0
 13 33  1  0  0  0  0
 13 34  1  0  0  0  0
 14 35  1  0  0  0  0
 14 36  1  0  0  0  0
 14 37  1  0  0  0  0
 15 20  1  0  0  0  0
 15 16  1  0  0  0  0
 15 47  1  0  0  0  0
 16 17  1  0  0  0  0
 16 38  1  0  0  0  0
 16 39  1  0  0  0  0
 17 18  1  0  0  0  0
 17 40  1  0  0  0  0
 17 41  1  0  0  0  0
 18 19  1  0  0  0  0
 19 20  1  0  0  0  0
 19 42  1  0  0  0  0
 19 43  1  0  0  0  0
 20 44  1  0  0  0  0
 20 45  1  0  0  0  0
 21 22  2  0  0  0  0
 21 46  1  0  0  0  0
M  CHG  1  15   1
M  END
> <s_m_source_file>
AV-unprocessed.smi

> <i_m_source_file_index>
1658

> <i_lp_mmshare_version>
43012

> <i_f3d_flags>
0

> <s_epik_input>
W0NIM11PYzFbY0hdW2NIXWMoW2NIXW4xKVtOSF1DKD1PKVtOSF1bQ0gyXUMoW0NIM10pKFtDSDNdKU4yW0NIMl1bQ0gyXU9bQ0gyXVtDSDJdMg==

> <s_epik_cmdline>
J2VwaWtfcHl0aG9uJywgJy1waCcsICc3LjAnLCAnLXRuJywgJzgnLCAnLW1hJywgJzIwMCcsICctbWV0YWxfYmluZGluZycsICctaW1hZScsICc8aW5maWxlLm1hZT4nLCAnLW9tYWUnLCAnPG91dGZpbGUubWFlPic=

> <r_lp_tautomer_probability>
1

> <r_epik_Ionization_Penalty>
0.602608

> <r_epik_Ionization_Penalty_Charging>
0.602531

> <r_epik_Ionization_Penalty_Neutral>
7.74737e-05

> <r_epik_State_Penalty>
0.617039

> <r_epik_Charging_Adjusted_Penalty>
1.21957

> <i_epik_Tot_Q>
1

> <i_epik_Tot_abs_Q>
1

> <r_epik_Metal_State_Penalty>
0.617043

> <b_epik_Metal_Only>
0

> <s_lp_Force_Field>
OPLS_2005

> <r_lp_Energy>
28.7753

> <b_lp_Chiralities_Consistent>
1

> <s_lp_Variant>
AV-unprocessed.smi:1658-2

> <Gold.Version>
5.8.1

> <Gold.Id.Protein>
6NUR|6NUR_protein|mol2

> <Gold.PLP.Fitness>
43.8824

> <Gold.PLP.PLP>
-31.4670

> <Gold.PLP.part.hbond>
-5.6212

> <Gold.PLP.part.metal>
0.0000

> <Gold.PLP.part.buried>
-1.7555

> <Gold.PLP.part.nonpolar>
-23.6148

> <Gold.PLP.part.repulsive>
0.3152

> <Gold.PLP.ligand.clash>
0.0000

> <Gold.PLP.ligand.torsion>
0.8715

> <Gold.PLP.Chemscore.Hbond>
3.8936

> <Gold.PLP.Chemscore.CHOScore>
0.7936

> <Gold.PLP.Chemscore.Metal>
0.0000

> <Gold.Chemscore.Hbonds>
donor molecule, donor type, donor heavy atom, donor atom, acceptor molecule, acceptor atom, score
      L1  H     7    28       P1  7948  0.86
      L1  H    10    29       P1  7948  0.17
      L1  H    15    47       P1 10747  1.00
      P1  H  7989  7998       L1    22  0.89
      P1  H  7997  8010       L1     2  0.55
      L1  C    21    46       P1  7948  0.04
      L1  C    21    46       P1  7957  0.79

> <Gold.PLP.Chemscore.Internal.Correction>
0.0968

> <Gold.Rescore>
     Score         DG    S(hbond)    S(metal)    S(lipo)     H(rot)  DE(clash)    DE(int)     intcor
     13.29     -16.80       1.96        0.00      79.23       1.76       1.17       2.34       ----

> <Gold.Chemscore.Fitness>
13.2914

> <Gold.Chemscore.DG>
-16.8031

> <Gold.Chemscore.ZeroCoef>
-5.4800

> <Gold.Chemscore.Hbond>
1.9618

> <Gold.Chemscore.Metal>
0.0000

> <Gold.Chemscore.Lipo>
79.2348

> <Gold.Chemscore.Internal_Hbond>
0.0000

> <Gold.Chemscore.DEClash>
1.1697

> <Gold.Chemscore.DEInternal>
2.3420

> <Gold.Chemscore.Rot>
1.7577

> <Gold.Chemscore.Internal.Correction>
   9.000000E+99

> <Gold.Chemscore.Hbonds>
donor molecule, donor type, donor heavy atom, donor atom, acceptor molecule, acceptor atom, score
      L1  H     7    28       P1  7948  0.19
      L1  H    15    47       P1 10747  0.97
      P1  H  7989  7998       L1    22  0.65
      P1  H  7997  8010       L1     2  0.06

> <Gold.Chemscore.Hbond.Weighted>
-6.5523

> <Gold.Chemscore.Metal.Weighted>
-0.0000

> <Gold.Chemscore.Lipo.Weighted>
-9.2705

> <Gold.Chemscore.Internal_Hbond.Weighted>
0.0000

> <Gold.Chemscore.DEClash.Weighted>
1.1697

> <Gold.Chemscore.DEInternal.Weighted>
2.3420

> <Gold.Chemscore.Rot.Weighted>
4.4997

> <Gold.Chemscore.Internal.Correction.Weighted>
   9.000000E+99

> <Gold.Protein.RotatedTorsions>
[ 6907 6896 6895 6894 ] final -179.16 input  -60.11 | X-H torsion
[ 7974 7965 7964 7962 ] final   85.10 input  175.53 | X-H torsion
[ 8008 7997 7996 7995 ] final   73.04 input   59.86 | X-H torsion
[ 10167 10162 10161 10158 ] final -136.43 input  -65.29 | X-H torsion
[ 10718 10713 10712 10709 ] final   59.80 input   66.30 | X-H torsion
[ 10763 10752 10751 10750 ] final   68.69 input  -60.55 | X-H torsion
[ 11005 11000 10999 10996 ] final   75.50 input  -57.11 | X-H torsion

> <Gold.Protein.ActiveResidues>
 VAL166  LYS551  ARG553  GLY616  TRP617  ASP618  TYR619  PRO620  LYS621  CYS622 
 ASP623  PHE694  ASN695  SER759  ASP760  ASP761  ALA762  ILE779  LEU786  VAL792 
 PHE793  MET794  SER795  GLU796  ALA797  LYS798  CYS799  TRP800  GLU811  SER814 

> <Gold.Protein.RotatedAtoms>
  151.6489  133.3322  159.3147 H   0  0  0  0  0  0  0  0  0  0  0  0  # atno 6907 bound_to 6896
  150.7970  134.7040  159.6576 H   0  0  0  0  0  0  0  0  0  0  0  0  # atno 6908 bound_to 6896
  152.4058  134.6213  160.0103 H   0  0  0  0  0  0  0  0  0  0  0  0  # atno 6909 bound_to 6896
  145.5900  139.2337  143.2304 H   0  0  0  0  0  0  0  0  0  0  0  0  # atno 7974 bound_to 7965
  155.7777  140.3482  155.5280 H   0  0  0  0  0  0  0  0  0  0  0  0  # atno 8008 bound_to 7997
  155.8759  140.0994  157.1539 H   0  0  0  0  0  0  0  0  0  0  0  0  # atno 8009 bound_to 7997
  154.4021  140.1331  156.4123 H   0  0  0  0  0  0  0  0  0  0  0  0  # atno 8010 bound_to 7997
  139.8679  143.6995  152.2643 H   0  0  0  0  0  0  0  0  0  0  0  0  # atno 10167 bound_to 10162
  157.5704  130.8903  149.9257 H   0  0  0  0  0  0  0  0  0  0  0  0  # atno 10718 bound_to 10713
  153.0248  135.5238  154.7174 H   0  0  0  0  0  0  0  0  0  0  0  0  # atno 10763 bound_to 10752
  154.6239  135.2892  155.0297 H   0  0  0  0  0  0  0  0  0  0  0  0  # atno 10764 bound_to 10752
  154.1273  135.6598  153.4967 H   0  0  0  0  0  0  0  0  0  0  0  0  # atno 10765 bound_to 10752
  139.9341  134.7522  156.1278 H   0  0  0  0  0  0  0  0  0  0  0  0  # atno 11005 bound_to 11000
  146.1654  140.6726  142.9258 LP  0  0  0  0  0  0  0  0  0  0  0  0  # atno 17320 bound_to 7965
  144.7355  140.4797  143.6906 LP  0  0  0  0  0  0  0  0  0  0  0  0  # atno 17321 bound_to 7965
  139.7312  144.7582  151.0799 LP  0  0  0  0  0  0  0  0  0  0  0  0  # atno 17342 bound_to 10162
  140.7765  143.5086  150.9681 LP  0  0  0  0  0  0  0  0  0  0  0  0  # atno 17343 bound_to 10162
  156.0749  130.3680  150.0697 LP  0  0  0  0  0  0  0  0  0  0  0  0  # atno 17370 bound_to 10713
  156.8851  130.9569  151.3595 LP  0  0  0  0  0  0  0  0  0  0  0  0  # atno 17371 bound_to 10713
  141.0946  133.6701  156.2615 LP  0  0  0  0  0  0  0  0  0  0  0  0  # atno 17394 bound_to 11000
  140.6123  134.5446  157.5535 LP  0  0  0  0  0  0  0  0  0  0  0  0  # atno 17395 bound_to 11000

$$$$
