AV-unprocessed.smi:2898|AV-procd|sdf|11142|dock9
  -GOLD-   2272016 23D 1   1.00000     0.00000
 Structure written by MMmdl.
 44 45  0  0  0  0  0  0  0  0  1 V2000
  149.4030  139.4882  154.1055 C   0  0  0  0  0  0  0  0  0  0  0  0
  150.5315  139.5659  155.0939 C   0  0  0  0  0  0  0  0  0  0  0  0
  151.7569  139.8141  154.6652 N   0  0  0  0  0  0  0  0  0  0  0  0
  152.5632  139.8306  155.8060 O   0  0  0  0  0  0  0  0  0  0  0  0
  151.7833  139.5906  156.8908 C   0  0  0  0  0  0  0  0  0  0  0  0
  152.4829  139.5780  158.2090 C   0  0  0  0  0  0  0  0  0  0  0  0
  150.4796  139.4063  156.5092 C   0  0  0  0  0  0  0  0  0  0  0  0
  149.2517  139.1173  157.3422 C   0  0  1  0  0  0  0  0  0  0  0  0
  148.2046  140.2386  157.2128 C   0  0  0  0  0  0  0  0  0  0  0  0
  148.6820  137.7245  156.9979 C   0  0  0  0  0  0  0  0  0  0  0  0
  147.9763  137.1173  158.1211 N   0  0  0  0  0  0  0  0  0  0  0  0
  148.5617  136.5737  159.2019 C   0  0  0  0  0  0  0  0  0  0  0  0
  149.7863  136.5207  159.3292 O   0  0  0  0  0  0  0  0  0  0  0  0
  147.6464  136.0099  160.3125 C   0  0  0  0  0  0  0  0  0  0  0  0
  146.2188  136.2233  159.9931 C   0  0  0  0  0  0  0  0  0  0  0  0
  145.1007  136.3901  159.7430 N   0  0  0  0  0  0  0  0  0  0  0  0
  147.9161  134.4922  160.4732 C   0  0  0  0  0  0  0  0  0  0  0  0
  147.1288  133.8810  161.6460 C   0  0  0  0  0  0  0  0  0  0  0  0
  147.4432  134.6108  162.9605 C   0  0  0  0  0  0  0  0  0  0  0  0
  147.1954  136.1216  162.8350 C   0  0  0  0  0  0  0  0  0  0  0  0
  147.9825  136.7132  161.6521 C   0  0  0  0  0  0  0  0  0  0  0  0
  148.6111  140.1914  154.3644 H   0  0  0  0  0  0  0  0  0  0  0  0
  148.9675  138.4891  154.0906 H   0  0  0  0  0  0  0  0  0  0  0  0
  149.7331  139.7206  153.0924 H   0  0  0  0  0  0  0  0  0  0  0  0
  151.8631  140.0217  158.9872 H   0  0  0  0  0  0  0  0  0  0  0  0
  153.4134  140.1440  158.1624 H   0  0  0  0  0  0  0  0  0  0  0  0
  152.7235  138.5579  158.5078 H   0  0  0  0  0  0  0  0  0  0  0  0
  149.5423  139.0951  158.3930 H   0  0  0  0  0  0  0  0  0  0  0  0
  148.6384  141.2070  157.4634 H   0  0  0  0  0  0  0  0  0  0  0  0
  147.3638  140.0784  157.8879 H   0  0  0  0  0  0  0  0  0  0  0  0
  147.8031  140.3045  156.2023 H   0  0  0  0  0  0  0  0  0  0  0  0
  147.9848  137.7958  156.1632 H   0  0  0  0  0  0  0  0  0  0  0  0
  149.4827  137.0593  156.6697 H   0  0  0  0  0  0  0  0  0  0  0  0
  146.9670  137.1254  158.0810 H   0  0  0  0  0  0  0  0  0  0  0  0
  147.6530  133.9681  159.5532 H   0  0  0  0  0  0  0  0  0  0  0  0
  148.9798  134.3081  160.6336 H   0  0  0  0  0  0  0  0  0  0  0  0
  146.0584  133.9324  161.4444 H   0  0  0  0  0  0  0  0  0  0  0  0
  147.3711  132.8225  161.7431 H   0  0  0  0  0  0  0  0  0  0  0  0
  146.8375  134.1998  163.7688 H   0  0  0  0  0  0  0  0  0  0  0  0
  148.4842  134.4340  163.2340 H   0  0  0  0  0  0  0  0  0  0  0  0
  146.1291  136.3100  162.7063 H   0  0  0  0  0  0  0  0  0  0  0  0
  147.4849  136.6217  163.7594 H   0  0  0  0  0  0  0  0  0  0  0  0
  149.0490  136.6320  161.8690 H   0  0  0  0  0  0  0  0  0  0  0  0
  147.7695  137.7806  161.5763 H   0  0  0  0  0  0  0  0  0  0  0  0
  1  2  1  0  0  0  0
  1 22  1  0  0  0  0
  1 23  1  0  0  0  0
  1 24  1  0  0  0  0
  2  7  1  0  0  0  0
  2  3  2  0  0  0  0
  3  4  1  0  0  0  0
  4  5  1  0  0  0  0
  5  6  1  0  0  0  0
  5  7  2  0  0  0  0
  6 25  1  0  0  0  0
  6 26  1  0  0  0  0
  6 27  1  0  0  0  0
  7  8  1  0  0  0  0
  8  9  1  0  0  0  0
  8 10  1  0  0  0  0
  8 28  1  0  0  0  0
  9 29  1  0  0  0  0
  9 30  1  0  0  0  0
  9 31  1  0  0  0  0
 10 11  1  0  0  0  0
 10 32  1  0  0  0  0
 10 33  1  0  0  0  0
 11 12  1  0  0  0  0
 11 34  1  0  0  0  0
 12 13  2  0  0  0  0
 12 14  1  0  0  0  0
 14 21  1  0  0  0  0
 14 15  1  0  0  0  0
 14 17  1  0  0  0  0
 15 16  3  0  0  0  0
 17 18  1  0  0  0  0
 17 35  1  0  0  0  0
 17 36  1  0  0  0  0
 18 19  1  0  0  0  0
 18 37  1  0  0  0  0
 18 38  1  0  0  0  0
 19 20  1  0  0  0  0
 19 39  1  0  0  0  0
 19 40  1  0  0  0  0
 20 21  1  0  0  0  0
 20 41  1  0  0  0  0
 20 42  1  0  0  0  0
 21 43  1  0  0  0  0
 21 44  1  0  0  0  0
M  END
> <s_m_source_file>
AV-unprocessed.smi

> <i_m_source_file_index>
2898

> <i_lp_mmshare_version>
43012

> <i_f3d_flags>
0

> <s_epik_input>
W0NIM11jMW5vYyhbQ0gzXSljMVtDQEhdKFtDSDNdKVtDSDJdW05IXUMoPU8pQzIoQyNOKVtDSDJdW0NIMl1bQ0gyXVtDSDJdW0NIMl0y

> <s_epik_cmdline>
J2VwaWtfcHl0aG9uJywgJy1waCcsICc3LjAnLCAnLXRuJywgJzgnLCAnLW1hJywgJzIwMCcsICctbWV0YWxfYmluZGluZycsICctaW1hZScsICc8aW5maWxlLm1hZT4nLCAnLW9tYWUnLCAnPG91dGZpbGUubWFlPic=

> <r_lp_tautomer_probability>
1

> <r_epik_Ionization_Penalty>
4.33734e-07

> <r_epik_Ionization_Penalty_Charging>
0

> <r_epik_Ionization_Penalty_Neutral>
4.33734e-07

> <r_epik_State_Penalty>
-0

> <r_epik_Charging_Adjusted_Penalty>
0

> <i_epik_Tot_Q>
0

> <i_epik_Tot_abs_Q>
0

> <r_epik_Metal_State_Penalty>
-0

> <b_epik_Metal_Only>
0

> <s_lp_Force_Field>
OPLS_2005

> <r_lp_Energy>
8.6026

> <b_lp_Chiralities_Consistent>
1

> <s_lp_Variant>
AV-unprocessed.smi:2898-2

> <Gold.Version>
5.8.1

> <Gold.Id.Protein>
6NUR|6NUR_protein|mol2

> <Gold.PLP.Fitness>
40.0260

> <Gold.PLP.PLP>
-33.0579

> <Gold.PLP.part.hbond>
-3.0000

> <Gold.PLP.part.metal>
0.0000

> <Gold.PLP.part.buried>
-3.2004

> <Gold.PLP.part.nonpolar>
-26.8776

> <Gold.PLP.part.repulsive>
0.1418

> <Gold.PLP.ligand.clash>
1.1226

> <Gold.PLP.ligand.torsion>
0.4227

> <Gold.PLP.Chemscore.Hbond>
2.9600

> <Gold.PLP.Chemscore.CHOScore>
0.0000

> <Gold.PLP.Chemscore.Metal>
0.0000

> <Gold.Chemscore.Hbonds>
donor molecule, donor type, donor heavy atom, donor atom, acceptor molecule, acceptor atom, score
      P1  H  6896  6907       L1    13  0.76
      P1  H  7989  7998       L1     3  1.00
      P1  H  7997  8008       L1     4  1.00

> <Gold.PLP.Chemscore.Internal.Correction>
0.0561

> <Gold.Rescore>
     Score         DG    S(hbond)    S(metal)    S(lipo)     H(rot)  DE(clash)    DE(int)     intcor
     19.39     -19.88       2.85        0.00      75.08       1.52       0.12       0.37       ----

> <Gold.Chemscore.Fitness>
19.3932

> <Gold.Chemscore.DG>
-19.8836

> <Gold.Chemscore.ZeroCoef>
-5.4800

> <Gold.Chemscore.Hbond>
2.8508

> <Gold.Chemscore.Metal>
0.0000

> <Gold.Chemscore.Lipo>
75.0785

> <Gold.Chemscore.Internal_Hbond>
0.0000

> <Gold.Chemscore.DEClash>
0.1183

> <Gold.Chemscore.DEInternal>
0.3721

> <Gold.Chemscore.Rot>
1.5243

> <Gold.Chemscore.Internal.Correction>
   9.000000E+99

> <Gold.Chemscore.Hbonds>
donor molecule, donor type, donor heavy atom, donor atom, acceptor molecule, acceptor atom, score
      P1  H  6896  6907       L1    13  0.70
      P1  H  7989  7998       L1     3  0.61
      P1  H  7997  8008       L1     4  0.74

> <Gold.Chemscore.Hbond.Weighted>
-9.5217

> <Gold.Chemscore.Metal.Weighted>
-0.0000

> <Gold.Chemscore.Lipo.Weighted>
-8.7842

> <Gold.Chemscore.Internal_Hbond.Weighted>
0.0000

> <Gold.Chemscore.DEClash.Weighted>
0.1183

> <Gold.Chemscore.DEInternal.Weighted>
0.3721

> <Gold.Chemscore.Rot.Weighted>
3.9022

> <Gold.Chemscore.Internal.Correction.Weighted>
   9.000000E+99

> <Gold.Protein.RotatedTorsions>
[ 6907 6896 6895 6894 ] final  -67.36 input  -60.11 | X-H torsion
[ 7974 7965 7964 7962 ] final -114.27 input  175.53 | X-H torsion
[ 8008 7997 7996 7995 ] final  -44.58 input   59.86 | X-H torsion
[ 10167 10162 10161 10158 ] final  -62.56 input  -65.29 | X-H torsion
[ 10718 10713 10712 10709 ] final   27.37 input   66.30 | X-H torsion
[ 10763 10752 10751 10750 ] final  -97.33 input  -60.55 | X-H torsion
[ 11005 11000 10999 10996 ] final   85.70 input  -57.11 | X-H torsion

> <Gold.Protein.ActiveResidues>
 VAL166  LYS551  ARG553  GLY616  TRP617  ASP618  TYR619  PRO620  LYS621  CYS622 
 ASP623  PHE694  ASN695  SER759  ASP760  ASP761  ALA762  ILE779  LEU786  VAL792 
 PHE793  MET794  SER795  GLU796  ALA797  LYS798  CYS799  TRP800  GLU811  SER814 

> <Gold.Protein.RotatedAtoms>
  150.7413  134.5891  159.5977 H   0  0  0  0  0  0  0  0  0  0  0  0  # atno 6907 bound_to 6896
  152.3284  134.7288  160.0305 H   0  0  0  0  0  0  0  0  0  0  0  0  # atno 6908 bound_to 6896
  151.7781  133.3311  159.3500 H   0  0  0  0  0  0  0  0  0  0  0  0  # atno 6909 bound_to 6896
  145.1221  140.8675  143.3808 H   0  0  0  0  0  0  0  0  0  0  0  0  # atno 7974 bound_to 7965
  154.3998  140.1418  156.3706 H   0  0  0  0  0  0  0  0  0  0  0  0  # atno 8008 bound_to 7997
  155.8096  140.3473  155.5429 H   0  0  0  0  0  0  0  0  0  0  0  0  # atno 8009 bound_to 7997
  155.8400  140.0925  157.1731 H   0  0  0  0  0  0  0  0  0  0  0  0  # atno 8010 bound_to 7997
  140.5931  143.2345  151.6096 H   0  0  0  0  0  0  0  0  0  0  0  0  # atno 10167 bound_to 10162
  157.2192  130.6971  149.6262 H   0  0  0  0  0  0  0  0  0  0  0  0  # atno 10718 bound_to 10713
  154.7319  135.5050  153.8977 H   0  0  0  0  0  0  0  0  0  0  0  0  # atno 10763 bound_to 10752
  153.0958  135.6671  153.9775 H   0  0  0  0  0  0  0  0  0  0  0  0  # atno 10764 bound_to 10752
  153.9574  135.3051  155.3414 H   0  0  0  0  0  0  0  0  0  0  0  0  # atno 10765 bound_to 10752
  139.8964  134.8305  156.2619 H   0  0  0  0  0  0  0  0  0  0  0  0  # atno 11005 bound_to 11000
  145.0729  139.3018  143.5823 LP  0  0  0  0  0  0  0  0  0  0  0  0  # atno 17320 bound_to 7965
  146.3520  140.0209  142.8658 LP  0  0  0  0  0  0  0  0  0  0  0  0  # atno 17321 bound_to 7965
  139.5240  144.3116  152.0988 LP  0  0  0  0  0  0  0  0  0  0  0  0  # atno 17342 bound_to 10162
  140.2283  144.4394  150.6311 LP  0  0  0  0  0  0  0  0  0  0  0  0  # atno 17343 bound_to 10162
  155.9683  130.4525  150.5777 LP  0  0  0  0  0  0  0  0  0  0  0  0  # atno 17370 bound_to 10713
  157.3593  131.0747  151.1650 LP  0  0  0  0  0  0  0  0  0  0  0  0  # atno 17371 bound_to 10713
  141.0157  133.7070  156.1185 LP  0  0  0  0  0  0  0  0  0  0  0  0  # atno 17394 bound_to 11000
  140.7305  134.4260  157.5566 LP  0  0  0  0  0  0  0  0  0  0  0  0  # atno 17395 bound_to 11000

$$$$
