AV-unprocessed.smi:133|AV-procd|sdf|1166|dock4
  -GOLD-   2262018303D 1   1.00000     0.00000
 Structure written by MMmdl.
 47 50  0  0  0  0  0  0  0  0  1 V2000
  152.2291  139.0158  157.6161 O   0  0  0  0  0  0  0  0  0  0  0  0
  151.8998  139.7340  156.6732 C   0  0  0  0  0  0  0  0  0  0  0  0
  151.7632  139.0904  155.2810 C   0  0  0  0  0  0  0  0  0  0  0  0
  150.6115  138.1728  155.1167 N   0  0  0  0  0  0  0  0  0  0  0  0
  150.8251  136.7797  155.2688 C   0  0  0  0  0  0  0  0  0  0  0  0
  151.9422  136.3303  155.5280 O   0  0  0  0  0  0  0  0  0  0  0  0
  149.6487  135.9371  155.0839 C   0  0  0  0  0  0  0  0  0  0  0  0
  149.7605  134.6031  155.1993 F   0  0  0  0  0  0  0  0  0  0  0  0
  148.4478  136.4768  154.7913 C   0  0  0  0  0  0  0  0  0  0  0  0
  148.2533  137.8382  154.6511 N   0  0  0  0  0  0  0  0  0  0  0  0
  146.8916  138.3981  154.3107 C   0  0  1  0  0  0  0  0  0  0  0  0
  146.9727  139.2633  153.0470 C   0  0  0  0  0  0  0  0  0  0  0  0
  146.4723  138.3147  151.9781 C   0  0  0  0  0  0  0  0  0  0  0  0
  145.4508  137.4915  152.7527 C   0  0  0  0  0  0  0  0  0  0  0  0
  146.0200  137.3358  154.0483 O   0  0  0  0  0  0  0  0  0  0  0  0
  149.3464  138.7200  154.7947 C   0  0  0  0  0  0  0  0  0  0  0  0
  149.2047  139.9334  154.6291 O   0  0  0  0  0  0  0  0  0  0  0  0
  151.6704  141.0584  156.7769 N   0  0  0  0  0  0  0  0  0  0  0  0
  151.7425  141.8862  157.9286 C   0  0  0  0  0  0  0  0  0  0  0  0
  151.2267  143.2117  157.9723 C   0  0  0  0  0  0  0  0  0  0  0  0
  151.3392  143.9913  159.1445 C   0  0  0  0  0  0  0  0  0  0  0  0
  151.9818  143.4299  160.2603 C   0  0  0  0  0  0  0  0  0  0  0  0
  152.5038  142.1441  160.2180 C   0  0  0  0  0  0  0  0  0  0  0  0
  152.4023  141.3534  159.0605 C   0  0  0  0  0  0  0  0  0  0  0  0
  153.1475  141.7642  161.5233 C   0  0  0  0  0  0  0  0  0  0  0  0
  153.1169  143.0735  162.3487 C   0  0  0  0  0  0  0  0  0  0  0  0
  152.2062  144.0764  161.5997 C   0  0  0  0  0  0  0  0  0  0  0  0
  151.7238  139.8931  154.5430 H   0  0  0  0  0  0  0  0  0  0  0  0
  152.7003  138.5795  155.0539 H   0  0  0  0  0  0  0  0  0  0  0  0
  147.6113  135.8067  154.6577 H   0  0  0  0  0  0  0  0  0  0  0  0
  146.5443  138.9392  155.1921 H   0  0  0  0  0  0  0  0  0  0  0  0
  146.2904  140.1066  153.1593 H   0  0  0  0  0  0  0  0  0  0  0  0
  147.9787  139.6449  152.8669 H   0  0  0  0  0  0  0  0  0  0  0  0
  146.0423  138.8277  151.1175 H   0  0  0  0  0  0  0  0  0  0  0  0
  147.2845  137.6770  151.6268 H   0  0  0  0  0  0  0  0  0  0  0  0
  144.5106  138.0376  152.8429 H   0  0  0  0  0  0  0  0  0  0  0  0
  145.2432  136.5281  152.2864 H   0  0  0  0  0  0  0  0  0  0  0  0
  151.4968  141.5417  155.9080 H   0  0  0  0  0  0  0  0  0  0  0  0
  150.7505  143.6557  157.1118 H   0  0  0  0  0  0  0  0  0  0  0  0
  150.9441  144.9959  159.1796 H   0  0  0  0  0  0  0  0  0  0  0  0
  152.8138  140.3544  159.0440 H   0  0  0  0  0  0  0  0  0  0  0  0
  152.5598  140.9805  162.0023 H   0  0  0  0  0  0  0  0  0  0  0  0
  154.1631  141.3969  161.3731 H   0  0  0  0  0  0  0  0  0  0  0  0
  152.8047  142.9124  163.3809 H   0  0  0  0  0  0  0  0  0  0  0  0
  154.1270  143.4836  162.3828 H   0  0  0  0  0  0  0  0  0  0  0  0
  152.6725  145.0565  161.4945 H   0  0  0  0  0  0  0  0  0  0  0  0
  151.2489  144.1977  162.1077 H   0  0  0  0  0  0  0  0  0  0  0  0
  1  2  2  0  0  0  0
  2  3  1  0  0  0  0
  2 18  1  0  0  0  0
  3  4  1  0  0  0  0
  3 28  1  0  0  0  0
  3 29  1  0  0  0  0
  4 16  1  0  0  0  0
  4  5  1  0  0  0  0
  5  6  2  0  0  0  0
  5  7  1  0  0  0  0
  7  8  1  0  0  0  0
  7  9  2  0  0  0  0
  9 10  1  0  0  0  0
  9 30  1  0  0  0  0
 10 11  1  0  0  0  0
 10 16  1  0  0  0  0
 11 15  1  0  0  0  0
 11 12  1  0  0  0  0
 11 31  1  0  0  0  0
 12 13  1  0  0  0  0
 12 32  1  0  0  0  0
 12 33  1  0  0  0  0
 13 14  1  0  0  0  0
 13 34  1  0  0  0  0
 13 35  1  0  0  0  0
 14 15  1  0  0  0  0
 14 36  1  0  0  0  0
 14 37  1  0  0  0  0
 16 17  2  0  0  0  0
 18 19  1  0  0  0  0
 18 38  1  0  0  0  0
 19 24  1  0  0  0  0
 19 20  2  0  0  0  0
 20 21  1  0  0  0  0
 20 39  1  0  0  0  0
 21 22  2  0  0  0  0
 21 40  1  0  0  0  0
 22 27  1  0  0  0  0
 22 23  1  0  0  0  0
 23 24  2  0  0  0  0
 23 25  1  0  0  0  0
 24 41  1  0  0  0  0
 25 26  1  0  0  0  0
 25 42  1  0  0  0  0
 25 43  1  0  0  0  0
 26 27  1  0  0  0  0
 26 44  1  0  0  0  0
 26 45  1  0  0  0  0
 27 46  1  0  0  0  0
 27 47  1  0  0  0  0
M  END
> <s_m_source_file>
AV-unprocessed.smi

> <i_m_source_file_index>
133

> <i_lp_mmshare_version>
43012

> <i_f3d_flags>
0

> <s_epik_input>
W0NIMl0xW0NIMl1bQ0gyXWMoYzEyKVtjSF1jKFtjSF1bY0hdMilbTkhdQyg9TylbQ0gyXW4zYyg9TyljKEYpW2NIXW4oYzM9TylbQ0BASF00W0NIMl1bQ0gyXVtDSDJdTzQ=

> <s_epik_cmdline>
J2VwaWtfcHl0aG9uJywgJy1waCcsICc3LjAnLCAnLXRuJywgJzgnLCAnLW1hJywgJzIwMCcsICctbWV0YWxfYmluZGluZycsICctaW1hZScsICc8aW5maWxlLm1hZT4nLCAnLW9tYWUnLCAnPG91dGZpbGUubWFlPic=

> <r_lp_tautomer_probability>
1

> <r_epik_Ionization_Penalty>
4.05675e-06

> <r_epik_Ionization_Penalty_Charging>
3.88729e-08

> <r_epik_Ionization_Penalty_Neutral>
4.01788e-06

> <r_epik_State_Penalty>
-0

> <r_epik_Charging_Adjusted_Penalty>
3.88729e-08

> <i_epik_Tot_Q>
0

> <i_epik_Tot_abs_Q>
0

> <r_epik_Metal_State_Penalty>
-0

> <b_epik_Metal_Only>
0

> <s_epik_Chemistry_Notes>
This compound contains an acetal/aminal-like group ( X-CH(R)-Y where X, Y are N, S, or O) that may be acid/base labile, releasing an aldehyde.

> <s_lp_Force_Field>
OPLS_2005

> <r_lp_Energy>
47.0615

> <b_lp_Chiralities_Consistent>
1

> <s_lp_Variant>
AV-unprocessed.smi:133-2

> <Gold.Version>
5.8.1

> <Gold.Id.Protein>
6NUR|6NUR_protein|mol2

> <Gold.PLP.Fitness>
51.0700

> <Gold.PLP.PLP>
-49.1255

> <Gold.PLP.part.hbond>
-0.9930

> <Gold.PLP.part.metal>
0.0000

> <Gold.PLP.part.buried>
-3.2069

> <Gold.PLP.part.nonpolar>
-45.9265

> <Gold.PLP.part.repulsive>
0.4054

> <Gold.PLP.ligand.clash>
0.0000

> <Gold.PLP.ligand.torsion>
0.5420

> <Gold.PLP.Chemscore.Hbond>
1.0000

> <Gold.PLP.Chemscore.CHOScore>
0.0000

> <Gold.PLP.Chemscore.Metal>
0.0000

> <Gold.Chemscore.Hbonds>
donor molecule, donor type, donor heavy atom, donor atom, acceptor molecule, acceptor atom, score
      P1  H 10752 10763       L1     6  1.00

> <Gold.PLP.Chemscore.Internal.Correction>
0.0284

> <Gold.Rescore>
     Score         DG    S(hbond)    S(metal)    S(lipo)     H(rot)  DE(clash)    DE(int)     intcor
     16.51     -19.83       0.97        0.00     129.75       1.59       0.20       3.12       ----

> <Gold.Chemscore.Fitness>
16.5104

> <Gold.Chemscore.DG>
-19.8337

> <Gold.Chemscore.ZeroCoef>
-5.4800

> <Gold.Chemscore.Hbond>
0.9685

> <Gold.Chemscore.Metal>
0.0000

> <Gold.Chemscore.Lipo>
129.7546

> <Gold.Chemscore.Internal_Hbond>
0.0000

> <Gold.Chemscore.DEClash>
0.2016

> <Gold.Chemscore.DEInternal>
3.1217

> <Gold.Chemscore.Rot>
1.5869

> <Gold.Chemscore.Internal.Correction>
   9.000000E+99

> <Gold.Chemscore.Hbonds>
donor molecule, donor type, donor heavy atom, donor atom, acceptor molecule, acceptor atom, score
      P1  H 10752 10763       L1     6  0.92

> <Gold.Chemscore.Hbond.Weighted>
-3.2348

> <Gold.Chemscore.Metal.Weighted>
-0.0000

> <Gold.Chemscore.Lipo.Weighted>
-15.1813

> <Gold.Chemscore.Internal_Hbond.Weighted>
0.0000

> <Gold.Chemscore.DEClash.Weighted>
0.2016

> <Gold.Chemscore.DEInternal.Weighted>
3.1217

> <Gold.Chemscore.Rot.Weighted>
4.0624

> <Gold.Chemscore.Internal.Correction.Weighted>
   9.000000E+99

> <Gold.Protein.RotatedTorsions>
[ 6907 6896 6895 6894 ] final    0.39 input  -60.11 | X-H torsion
[ 7974 7965 7964 7962 ] final  -32.83 input  175.53 | X-H torsion
[ 8008 7997 7996 7995 ] final   75.40 input   59.86 | X-H torsion
[ 10167 10162 10161 10158 ] final  -35.52 input  -65.29 | X-H torsion
[ 10718 10713 10712 10709 ] final  108.00 input   66.30 | X-H torsion
[ 10763 10752 10751 10750 ] final   61.23 input  -60.55 | X-H torsion
[ 11005 11000 10999 10996 ] final -177.86 input  -57.11 | X-H torsion

> <Gold.Protein.ActiveResidues>
 VAL166  LYS551  ARG553  GLY616  TRP617  ASP618  TYR619  PRO620  LYS621  CYS622 
 ASP623  PHE694  ASN695  SER759  ASP760  ASP761  ALA762  ILE779  LEU786  VAL792 
 PHE793  MET794  SER795  GLU796  ALA797  LYS798  CYS799  TRP800  GLU811  SER814 

> <Gold.Protein.RotatedAtoms>
  151.5756  135.1060  160.0005 H   0  0  0  0  0  0  0  0  0  0  0  0  # atno 6907 bound_to 6896
  152.4379  133.7390  159.6641 H   0  0  0  0  0  0  0  0  0  0  0  0  # atno 6908 bound_to 6896
  150.8280  133.8070  159.3134 H   0  0  0  0  0  0  0  0  0  0  0  0  # atno 6909 bound_to 6896
  146.0958  140.5842  142.8843 H   0  0  0  0  0  0  0  0  0  0  0  0  # atno 7974 bound_to 7965
  155.8124  140.3472  155.5465 H   0  0  0  0  0  0  0  0  0  0  0  0  # atno 8008 bound_to 7997
  155.8427  140.0944  157.1744 H   0  0  0  0  0  0  0  0  0  0  0  0  # atno 8009 bound_to 7997
  154.4005  140.1391  156.3736 H   0  0  0  0  0  0  0  0  0  0  0  0  # atno 8010 bound_to 7997
  140.7163  143.3472  151.2232 H   0  0  0  0  0  0  0  0  0  0  0  0  # atno 10167 bound_to 10162
  157.6605  131.0884  150.6240 H   0  0  0  0  0  0  0  0  0  0  0  0  # atno 10718 bound_to 10713
  152.9944  135.5508  154.6000 H   0  0  0  0  0  0  0  0  0  0  0  0  # atno 10763 bound_to 10752
  154.5344  135.2815  155.1154 H   0  0  0  0  0  0  0  0  0  0  0  0  # atno 10764 bound_to 10752
  154.2456  135.6408  153.5275 H   0  0  0  0  0  0  0  0  0  0  0  0  # atno 10765 bound_to 10752
  140.4362  134.6474  157.4735 H   0  0  0  0  0  0  0  0  0  0  0  0  # atno 11005 bound_to 11000
  144.7394  140.4901  143.6880 LP  0  0  0  0  0  0  0  0  0  0  0  0  # atno 17320 bound_to 7965
  145.5950  139.1499  143.3161 LP  0  0  0  0  0  0  0  0  0  0  0  0  # atno 17321 bound_to 7965
  139.6994  143.9558  152.2898 LP  0  0  0  0  0  0  0  0  0  0  0  0  # atno 17342 bound_to 10162
  139.9246  144.6778  150.8425 LP  0  0  0  0  0  0  0  0  0  0  0  0  # atno 17343 bound_to 10162
  156.6543  130.4494  149.5709 LP  0  0  0  0  0  0  0  0  0  0  0  0  # atno 17370 bound_to 10713
  156.2114  130.6681  151.1273 LP  0  0  0  0  0  0  0  0  0  0  0  0  # atno 17371 bound_to 10713
  140.0101  134.6704  155.9394 LP  0  0  0  0  0  0  0  0  0  0  0  0  # atno 17394 bound_to 11000
  141.1725  133.6538  156.4704 LP  0  0  0  0  0  0  0  0  0  0  0  0  # atno 17395 bound_to 11000

$$$$
