AV-unprocessed.smi:2473|AV-procd|sdf|9750|dock7
  -GOLD-   2272013393D 1   1.00000     0.00000
 Structure written by MMmdl.
 47 48  0  0  0  0  0  0  0  0  1 V2000
  154.2616  141.3856  160.1438 C   0  0  0  0  0  0  0  0  0  0  0  0
  153.1468  142.0257  159.3041 C   0  0  1  0  0  0  0  0  0  0  0  0
  151.8529  141.1908  159.3765 C   0  0  0  0  0  0  0  0  0  0  0  0
  150.6757  141.8050  158.5866 C   0  0  2  0  0  0  0  0  0  0  0  0
  150.7199  141.5200  157.0740 C   0  0  0  0  0  0  0  0  0  0  0  0
  151.5882  140.7963  156.5866 O   0  0  0  0  0  0  0  0  0  0  0  0
  149.7249  142.0533  156.3470 N   0  0  0  0  0  0  0  0  0  0  0  0
  149.5099  141.8466  154.9171 C   0  0  0  0  0  0  0  0  0  0  0  0
  148.9415  140.4490  154.6003 C   0  0  0  0  0  0  0  0  0  0  0  0
  149.9797  139.3674  154.5382 C   0  0  0  0  0  0  0  0  0  0  0  0
  151.2735  139.6079  154.3475 N   0  0  0  0  0  0  0  0  0  0  0  0
  151.8786  138.3570  154.3908 C   0  0  0  0  0  0  0  0  0  0  0  0
  150.9213  137.3950  154.6029 C   0  0  0  0  0  0  0  0  0  0  0  0
  149.7040  138.0567  154.6942 N   0  0  0  0  0  0  0  0  0  0  0  0
  148.4146  137.4306  154.9156 C   0  0  0  0  0  0  0  0  0  0  0  0
  150.4797  143.3020  158.9337 C   0  0  0  0  0  0  0  0  0  0  0  0
  151.7592  144.1831  158.9454 C   0  0  0  0  0  0  0  0  0  0  0  0
  152.2394  144.5333  157.5198 C   0  0  0  0  0  0  0  0  0  0  0  0
  151.4203  145.5151  159.6456 C   0  0  0  0  0  0  0  0  0  0  0  0
  152.8763  143.4759  159.7512 C   0  0  0  0  0  0  0  0  0  0  0  0
  153.9883  141.3391  161.1985 H   0  0  0  0  0  0  0  0  0  0  0  0
  155.1886  141.9538  160.0649 H   0  0  0  0  0  0  0  0  0  0  0  0
  154.4695  140.3691  159.8088 H   0  0  0  0  0  0  0  0  0  0  0  0
  153.5029  142.0402  158.2749 H   0  0  0  0  0  0  0  0  0  0  0  0
  152.0471  140.1747  159.0284 H   0  0  0  0  0  0  0  0  0  0  0  0
  151.5540  141.0899  160.4207 H   0  0  0  0  0  0  0  0  0  0  0  0
  149.7811  141.2854  158.9346 H   0  0  0  0  0  0  0  0  0  0  0  0
  149.0477  142.6273  156.8279 H   0  0  0  0  0  0  0  0  0  0  0  0
  148.8081  142.6066  154.5742 H   0  0  0  0  0  0  0  0  0  0  0  0
  150.4331  142.0135  154.3596 H   0  0  0  0  0  0  0  0  0  0  0  0
  148.1752  140.1848  155.3289 H   0  0  0  0  0  0  0  0  0  0  0  0
  148.4328  140.4817  153.6363 H   0  0  0  0  0  0  0  0  0  0  0  0
  152.9458  138.2474  154.2673 H   0  0  0  0  0  0  0  0  0  0  0  0
  151.0045  136.3222  154.6952 H   0  0  0  0  0  0  0  0  0  0  0  0
  148.5414  136.3622  155.0928 H   0  0  0  0  0  0  0  0  0  0  0  0
  147.7825  137.5700  154.0385 H   0  0  0  0  0  0  0  0  0  0  0  0
  147.9276  137.8723  155.7842 H   0  0  0  0  0  0  0  0  0  0  0  0
  149.7318  143.7466  158.2755 H   0  0  0  0  0  0  0  0  0  0  0  0
  150.0322  143.3363  159.9281 H   0  0  0  0  0  0  0  0  0  0  0  0
  153.0705  145.2387  157.5483 H   0  0  0  0  0  0  0  0  0  0  0  0
  151.4425  144.9948  156.9361 H   0  0  0  0  0  0  0  0  0  0  0  0
  152.5891  143.6677  156.9638 H   0  0  0  0  0  0  0  0  0  0  0  0
  152.2886  146.1734  159.6921 H   0  0  0  0  0  0  0  0  0  0  0  0
  151.0794  145.3568  160.6694 H   0  0  0  0  0  0  0  0  0  0  0  0
  150.6305  146.0511  159.1183 H   0  0  0  0  0  0  0  0  0  0  0  0
  152.6031  143.4637  160.8075 H   0  0  0  0  0  0  0  0  0  0  0  0
  153.7975  144.0569  159.6899 H   0  0  0  0  0  0  0  0  0  0  0  0
  1  2  1  0  0  0  0
  1 21  1  0  0  0  0
  1 22  1  0  0  0  0
  1 23  1  0  0  0  0
  2 20  1  0  0  0  0
  2  3  1  0  0  0  0
  2 24  1  0  0  0  0
  3  4  1  0  0  0  0
  3 25  1  0  0  0  0
  3 26  1  0  0  0  0
  4  5  1  0  0  0  0
  4 16  1  0  0  0  0
  4 27  1  0  0  0  0
  5  6  2  0  0  0  0
  5  7  1  0  0  0  0
  7  8  1  0  0  0  0
  7 28  1  0  0  0  0
  8  9  1  0  0  0  0
  8 29  1  0  0  0  0
  8 30  1  0  0  0  0
  9 10  1  0  0  0  0
  9 31  1  0  0  0  0
  9 32  1  0  0  0  0
 10 14  1  0  0  0  0
 10 11  2  0  0  0  0
 11 12  1  0  0  0  0
 12 13  2  0  0  0  0
 12 33  1  0  0  0  0
 13 14  1  0  0  0  0
 13 34  1  0  0  0  0
 14 15  1  0  0  0  0
 15 35  1  0  0  0  0
 15 36  1  0  0  0  0
 15 37  1  0  0  0  0
 16 17  1  0  0  0  0
 16 38  1  0  0  0  0
 16 39  1  0  0  0  0
 17 18  1  0  0  0  0
 17 19  1  0  0  0  0
 17 20  1  0  0  0  0
 18 40  1  0  0  0  0
 18 41  1  0  0  0  0
 18 42  1  0  0  0  0
 19 43  1  0  0  0  0
 19 44  1  0  0  0  0
 19 45  1  0  0  0  0
 20 46  1  0  0  0  0
 20 47  1  0  0  0  0
M  END
> <s_m_source_file>
AV-unprocessed.smi

> <i_m_source_file_index>
2473

> <i_lp_mmshare_version>
43012

> <i_f3d_flags>
0

> <s_epik_input>
W0NIM11bQ0BASF0oW0NIMl0xKVtDSDJdW0NASF0oW0NIMl1DMShbQ0gzXSlbQ0gzXSlDKD1PKVtOSF1bQ0gyXVtDSDJdYzJuW2NIXVtjSF1uMltDSDNd

> <s_epik_cmdline>
J2VwaWtfcHl0aG9uJywgJy1waCcsICc3LjAnLCAnLXRuJywgJzgnLCAnLW1hJywgJzIwMCcsICctbWV0YWxfYmluZGluZycsICctaW1hZScsICc8aW5maWxlLm1hZT4nLCAnLW9tYWUnLCAnPG91dGZpbGUubWFlPic=

> <r_lp_tautomer_probability>
1

> <r_epik_Ionization_Penalty>
1.22858

> <r_epik_Ionization_Penalty_Charging>
1.22858

> <r_epik_Ionization_Penalty_Neutral>
2.12671e-08

> <r_epik_State_Penalty>
1.2965

> <r_epik_Charging_Adjusted_Penalty>
2.52508

> <i_epik_Tot_Q>
0

> <i_epik_Tot_abs_Q>
0

> <r_epik_Metal_State_Penalty>
0.411461

> <b_epik_Metal_Only>
0

> <s_lp_Force_Field>
OPLS_2005

> <r_lp_Energy>
14.2462

> <b_lp_Chiralities_Consistent>
1

> <s_lp_Variant>
AV-unprocessed.smi:2473-8

> <Gold.Version>
5.8.1

> <Gold.Id.Protein>
6NUR|6NUR_protein|mol2

> <Gold.PLP.Fitness>
49.2503

> <Gold.PLP.PLP>
-47.4088

> <Gold.PLP.part.hbond>
-2.0000

> <Gold.PLP.part.metal>
0.0000

> <Gold.PLP.part.buried>
-3.5307

> <Gold.PLP.part.nonpolar>
-41.0665

> <Gold.PLP.part.repulsive>
0.1876

> <Gold.PLP.ligand.clash>
0.0000

> <Gold.PLP.ligand.torsion>
0.6318

> <Gold.PLP.Chemscore.Hbond>
1.0000

> <Gold.PLP.Chemscore.CHOScore>
0.0000

> <Gold.PLP.Chemscore.Metal>
0.0000

> <Gold.Chemscore.Hbonds>
donor molecule, donor type, donor heavy atom, donor atom, acceptor molecule, acceptor atom, score
      L1  H     7    28       P1  8028  0.01
      P1  H  7989  7998       L1    11  1.00

> <Gold.PLP.Chemscore.Internal.Correction>
0.1051

> <Gold.Rescore>
     Score         DG    S(hbond)    S(metal)    S(lipo)     H(rot)  DE(clash)    DE(int)     intcor
     17.00     -19.19       0.94        0.00     123.42       1.51       0.02       2.18       ----

> <Gold.Chemscore.Fitness>
16.9972

> <Gold.Chemscore.DG>
-19.1949

> <Gold.Chemscore.ZeroCoef>
-5.4800

> <Gold.Chemscore.Hbond>
0.9410

> <Gold.Chemscore.Metal>
0.0000

> <Gold.Chemscore.Lipo>
123.4172

> <Gold.Chemscore.Internal_Hbond>
0.0000

> <Gold.Chemscore.DEClash>
0.0202

> <Gold.Chemscore.DEInternal>
2.1774

> <Gold.Chemscore.Rot>
1.5109

> <Gold.Chemscore.Internal.Correction>
   9.000000E+99

> <Gold.Chemscore.Hbonds>
donor molecule, donor type, donor heavy atom, donor atom, acceptor molecule, acceptor atom, score
      L1  H     7    28       P1  8028  0.02
      P1  H  7989  7998       L1    11  0.91

> <Gold.Chemscore.Hbond.Weighted>
-3.1431

> <Gold.Chemscore.Metal.Weighted>
-0.0000

> <Gold.Chemscore.Lipo.Weighted>
-14.4398

> <Gold.Chemscore.Internal_Hbond.Weighted>
0.0000

> <Gold.Chemscore.DEClash.Weighted>
0.0202

> <Gold.Chemscore.DEInternal.Weighted>
2.1774

> <Gold.Chemscore.Rot.Weighted>
3.8680

> <Gold.Chemscore.Internal.Correction.Weighted>
   9.000000E+99

> <Gold.Protein.RotatedTorsions>
[ 6907 6896 6895 6894 ] final  176.17 input  -60.11 | X-H torsion
[ 7974 7965 7964 7962 ] final  -80.63 input  175.53 | X-H torsion
[ 8008 7997 7996 7995 ] final -164.77 input   59.86 | X-H torsion
[ 10167 10162 10161 10158 ] final -156.98 input  -65.29 | X-H torsion
[ 10718 10713 10712 10709 ] final -121.30 input   66.30 | X-H torsion
[ 10763 10752 10751 10750 ] final  -46.04 input  -60.55 | X-H torsion
[ 11005 11000 10999 10996 ] final   92.98 input  -57.11 | X-H torsion

> <Gold.Protein.ActiveResidues>
 VAL166  LYS551  ARG553  GLY616  TRP617  ASP618  TYR619  PRO620  LYS621  CYS622 
 ASP623  PHE694  ASN695  SER759  ASP760  ASP761  ALA762  ILE779  LEU786  VAL792 
 PHE793  MET794  SER795  GLU796  ALA797  LYS798  CYS799  TRP800  GLU811  SER814 

> <Gold.Protein.RotatedAtoms>
  151.7244  133.3315  159.3323 H   0  0  0  0  0  0  0  0  0  0  0  0  # atno 6907 bound_to 6896
  150.7639  134.6419  159.6251 H   0  0  0  0  0  0  0  0  0  0  0  0  # atno 6908 bound_to 6896
  152.3632  134.6845  160.0252 H   0  0  0  0  0  0  0  0  0  0  0  0  # atno 6909 bound_to 6896
  145.5574  140.9487  143.1466 H   0  0  0  0  0  0  0  0  0  0  0  0  # atno 7974 bound_to 7965
  155.8403  140.0947  157.1738 H   0  0  0  0  0  0  0  0  0  0  0  0  # atno 8008 bound_to 7997
  154.3982  140.1402  156.3782 H   0  0  0  0  0  0  0  0  0  0  0  0  # atno 8009 bound_to 7997
  155.8071  140.3451  155.5439 H   0  0  0  0  0  0  0  0  0  0  0  0  # atno 8010 bound_to 7997
  139.6807  143.9586  152.2335 H   0  0  0  0  0  0  0  0  0  0  0  0  # atno 10167 bound_to 10162
  156.1326  130.6407  150.9645 H   0  0  0  0  0  0  0  0  0  0  0  0  # atno 10718 bound_to 10713
  154.0385  135.6647  153.4787 H   0  0  0  0  0  0  0  0  0  0  0  0  # atno 10763 bound_to 10752
  153.0511  135.5084  154.7865 H   0  0  0  0  0  0  0  0  0  0  0  0  # atno 10764 bound_to 10752
  154.6833  135.3049  154.9548 H   0  0  0  0  0  0  0  0  0  0  0  0  # atno 10765 bound_to 10752
  139.8816  134.8764  156.3651 H   0  0  0  0  0  0  0  0  0  0  0  0  # atno 11005 bound_to 11000
  144.7499  139.7220  143.7277 LP  0  0  0  0  0  0  0  0  0  0  0  0  # atno 17320 bound_to 7965
  146.1875  139.5098  142.9827 LP  0  0  0  0  0  0  0  0  0  0  0  0  # atno 17321 bound_to 7965
  139.9376  144.6702  150.8299 LP  0  0  0  0  0  0  0  0  0  0  0  0  # atno 17342 bound_to 10162
  140.7651  143.3266  151.2502 LP  0  0  0  0  0  0  0  0  0  0  0  0  # atno 17343 bound_to 10162
  157.6502  131.0898  150.8067 LP  0  0  0  0  0  0  0  0  0  0  0  0  # atno 17370 bound_to 10713
  156.8150  130.4965  149.5350 LP  0  0  0  0  0  0  0  0  0  0  0  0  # atno 17371 bound_to 10713
  140.9502  133.7456  156.0262 LP  0  0  0  0  0  0  0  0  0  0  0  0  # atno 17394 bound_to 11000
  140.8114  134.3395  157.5410 LP  0  0  0  0  0  0  0  0  0  0  0  0  # atno 17395 bound_to 11000

$$$$
