AV-unprocessed.smi:1718|AV-procd|sdf|6923|dock1
  -GOLD-   22720 8123D 1   1.00000     0.00000
 Structure written by MMmdl.
 40 41  0  0  0  0  0  0  0  0  1 V2000
  149.2692  136.5042  156.1993 C   0  0  0  0  0  0  0  0  0  0  0  0
  148.6570  137.1342  157.4595 C   0  0  1  0  0  0  0  0  0  0  0  0
  148.5727  136.1134  158.4505 O   0  0  0  0  0  0  0  0  0  0  0  0
  147.5451  136.2839  159.4203 C   0  0  0  0  0  0  0  0  0  0  0  0
  148.1204  135.9744  160.8074 C   0  0  2  0  0  0  0  0  0  0  0  0
  147.3819  134.8722  161.5621 C   0  0  0  0  0  0  0  0  0  0  0  0
  147.7769  135.1713  162.9906 C   0  0  0  0  0  0  0  0  0  0  0  0
  147.8157  136.6991  163.0066 C   0  0  0  0  0  0  0  0  0  0  0  0
  148.0170  137.1122  161.6562 O   0  0  0  0  0  0  0  0  0  0  0  0
  149.5081  138.3077  157.9720 C   0  0  0  0  0  0  0  0  0  0  0  0
  150.0709  138.2166  159.0630 O   0  0  0  0  0  0  0  0  0  0  0  0
  149.5716  139.3767  157.1535 N   0  0  0  0  0  0  0  0  0  0  0  0
  150.2099  140.6127  157.3499 C   0  0  0  0  0  0  0  0  0  0  0  0
  151.1816  140.8466  158.2705 C   0  0  0  0  0  0  0  0  0  0  0  0
  151.7902  142.1561  158.4342 C   0  0  0  0  0  0  0  0  0  0  0  0
  152.9323  142.3862  159.4117 C   0  0  0  0  0  0  0  0  0  0  0  0
  154.0154  142.8540  158.7897 F   0  0  0  0  0  0  0  0  0  0  0  0
  152.5662  143.2757  160.3335 F   0  0  0  0  0  0  0  0  0  0  0  0
  153.2635  141.2552  160.0352 F   0  0  0  0  0  0  0  0  0  0  0  0
  151.3466  143.1304  157.6183 C   0  0  0  0  0  0  0  0  0  0  0  0
  150.3323  142.9040  156.6853 N   0  0  0  0  0  0  0  0  0  0  0  0
  149.7275  141.7100  156.4949 C   0  0  0  0  0  0  0  0  0  0  0  0
  148.8381  141.5914  155.6527 O   0  0  0  0  0  0  0  0  0  0  0  0
  150.0429  143.6907  156.1221 H   0  0  0  0  0  0  0  0  0  0  0  0
  149.3731  137.2384  155.3996 H   0  0  0  0  0  0  0  0  0  0  0  0
  148.6377  135.6978  155.8257 H   0  0  0  0  0  0  0  0  0  0  0  0
  150.2550  136.0824  156.3988 H   0  0  0  0  0  0  0  0  0  0  0  0
  147.6518  137.4821  157.2128 H   0  0  0  0  0  0  0  0  0  0  0  0
  147.1727  137.3086  159.4084 H   0  0  0  0  0  0  0  0  0  0  0  0
  146.7010  135.6270  159.2047 H   0  0  0  0  0  0  0  0  0  0  0  0
  149.1779  135.7173  160.7249 H   0  0  0  0  0  0  0  0  0  0  0  0
  146.3027  134.9776  161.4419 H   0  0  0  0  0  0  0  0  0  0  0  0
  147.6677  133.8707  161.2393 H   0  0  0  0  0  0  0  0  0  0  0  0
  147.0859  134.7544  163.7237 H   0  0  0  0  0  0  0  0  0  0  0  0
  148.7708  134.7691  163.1919 H   0  0  0  0  0  0  0  0  0  0  0  0
  146.8665  137.1062  163.3560 H   0  0  0  0  0  0  0  0  0  0  0  0
  148.6049  137.0788  163.6560 H   0  0  0  0  0  0  0  0  0  0  0  0
  149.1206  139.2762  156.2552 H   0  0  0  0  0  0  0  0  0  0  0  0
  151.5191  140.0658  158.9322 H   0  0  0  0  0  0  0  0  0  0  0  0
  151.7292  144.1404  157.6127 H   0  0  0  0  0  0  0  0  0  0  0  0
  1  2  1  0  0  0  0
  1 25  1  0  0  0  0
  1 26  1  0  0  0  0
  1 27  1  0  0  0  0
  2  3  1  0  0  0  0
  2 10  1  0  0  0  0
  2 28  1  0  0  0  0
  3  4  1  0  0  0  0
  4  5  1  0  0  0  0
  4 29  1  0  0  0  0
  4 30  1  0  0  0  0
  5  9  1  0  0  0  0
  5  6  1  0  0  0  0
  5 31  1  0  0  0  0
  6  7  1  0  0  0  0
  6 32  1  0  0  0  0
  6 33  1  0  0  0  0
  7  8  1  0  0  0  0
  7 34  1  0  0  0  0
  7 35  1  0  0  0  0
  8  9  1  0  0  0  0
  8 36  1  0  0  0  0
  8 37  1  0  0  0  0
 10 11  2  0  0  0  0
 10 12  1  0  0  0  0
 12 13  1  0  0  0  0
 12 38  1  0  0  0  0
 13 22  1  0  0  0  0
 13 14  2  0  0  0  0
 14 15  1  0  0  0  0
 14 39  1  0  0  0  0
 15 16  1  0  0  0  0
 15 20  2  0  0  0  0
 16 17  1  0  0  0  0
 16 18  1  0  0  0  0
 16 19  1  0  0  0  0
 20 21  1  0  0  0  0
 20 40  1  0  0  0  0
 21 24  1  0  0  0  0
 21 22  1  0  0  0  0
 22 23  2  0  0  0  0
M  END
> <s_m_source_file>
AV-unprocessed.smi

> <i_m_source_file_index>
1718

> <i_lp_mmshare_version>
43012

> <i_f3d_flags>
0

> <s_epik_input>
TzFbQ0gyXVtDSDJdW0NIMl1bQ0BIXTFbQ0gyXU9bQ0BASF0oW0NIM10pQyg9TylbTkhdYzJbY0hdYyhDKEYpKEYpRilbY0hdW25IXWMyPU8=

> <s_epik_cmdline>
J2VwaWtfcHl0aG9uJywgJy1waCcsICc3LjAnLCAnLXRuJywgJzgnLCAnLW1hJywgJzIwMCcsICctbWV0YWxfYmluZGluZycsICctaW1hZScsICc8aW5maWxlLm1hZT4nLCAnLW9tYWUnLCAnPG91dGZpbGUubWFlPic=

> <r_lp_tautomer_probability>
0.999

> <r_epik_Ionization_Penalty>
0.00894336

> <r_epik_Ionization_Penalty_Charging>
0.00894326

> <r_epik_Ionization_Penalty_Neutral>
1.00145e-07

> <r_epik_State_Penalty>
0.00676626

> <r_epik_Charging_Adjusted_Penalty>
0.0157095

> <i_epik_Tot_Q>
0

> <i_epik_Tot_abs_Q>
0

> <r_epik_Metal_State_Penalty>
0.321145

> <b_epik_Metal_Only>
0

> <s_lp_Force_Field>
OPLS_2005

> <r_lp_Energy>
34.2201

> <b_lp_Chiralities_Consistent>
1

> <s_lp_Variant>
AV-unprocessed.smi:1718-2

> <Gold.Version>
5.8.1

> <Gold.Id.Protein>
6NUR|6NUR_protein|mol2

> <Gold.PLP.Fitness>
49.3100

> <Gold.PLP.PLP>
-44.8036

> <Gold.PLP.part.hbond>
-4.0000

> <Gold.PLP.part.metal>
0.0000

> <Gold.PLP.part.buried>
-6.8871

> <Gold.PLP.part.nonpolar>
-33.7016

> <Gold.PLP.part.repulsive>
0.1996

> <Gold.PLP.ligand.clash>
0.0000

> <Gold.PLP.ligand.torsion>
1.5370

> <Gold.PLP.Chemscore.Hbond>
2.4840

> <Gold.PLP.Chemscore.CHOScore>
0.0000

> <Gold.PLP.Chemscore.Metal>
0.0000

> <Gold.Chemscore.Hbonds>
donor molecule, donor type, donor heavy atom, donor atom, acceptor molecule, acceptor atom, score
      L1  H    21    24       P1  8028  1.00
      P1  H  6931  6943       L1     9  0.90
      P1  H  6934  6947       L1     9  0.37

> <Gold.PLP.Chemscore.Internal.Correction>
0.1284

> <Gold.Rescore>
     Score         DG    S(hbond)    S(metal)    S(lipo)     H(rot)  DE(clash)    DE(int)     intcor
     14.00     -17.30       2.06        0.00      83.28       1.88       0.76       2.54       ----

> <Gold.Chemscore.Fitness>
14.0011

> <Gold.Chemscore.DG>
-17.2956

> <Gold.Chemscore.ZeroCoef>
-5.4800

> <Gold.Chemscore.Hbond>
2.0606

> <Gold.Chemscore.Metal>
0.0000

> <Gold.Chemscore.Lipo>
83.2770

> <Gold.Chemscore.Internal_Hbond>
0.0000

> <Gold.Chemscore.DEClash>
0.7551

> <Gold.Chemscore.DEInternal>
2.5394

> <Gold.Chemscore.Rot>
1.8790

> <Gold.Chemscore.Internal.Correction>
   9.000000E+99

> <Gold.Chemscore.Hbonds>
donor molecule, donor type, donor heavy atom, donor atom, acceptor molecule, acceptor atom, score
      L1  H    21    24       P1  8028  0.93
      P1  H  6931  6943       L1     9  0.17
      P1  H  6934  6947       L1     9  0.35

> <Gold.Chemscore.Hbond.Weighted>
-6.8824

> <Gold.Chemscore.Metal.Weighted>
-0.0000

> <Gold.Chemscore.Lipo.Weighted>
-9.7434

> <Gold.Chemscore.Internal_Hbond.Weighted>
0.0000

> <Gold.Chemscore.DEClash.Weighted>
0.7551

> <Gold.Chemscore.DEInternal.Weighted>
2.5394

> <Gold.Chemscore.Rot.Weighted>
4.8102

> <Gold.Chemscore.Internal.Correction.Weighted>
   9.000000E+99

> <Gold.Protein.RotatedTorsions>
[ 6907 6896 6895 6894 ] final   -1.91 input  -60.11 | X-H torsion
[ 7974 7965 7964 7962 ] final  -86.54 input  175.53 | X-H torsion
[ 8008 7997 7996 7995 ] final -101.83 input   59.86 | X-H torsion
[ 10167 10162 10161 10158 ] final   76.60 input  -65.29 | X-H torsion
[ 10718 10713 10712 10709 ] final -111.80 input   66.30 | X-H torsion
[ 10763 10752 10751 10750 ] final  128.45 input  -60.55 | X-H torsion
[ 11005 11000 10999 10996 ] final -109.79 input  -57.11 | X-H torsion

> <Gold.Protein.ActiveResidues>
 VAL166  LYS551  ARG553  GLY616  TRP617  ASP618  TYR619  PRO620  LYS621  CYS622 
 ASP623  PHE694  ASN695  SER759  ASP760  ASP761  ALA762  ILE779  LEU786  VAL792 
 PHE793  MET794  SER795  GLU796  ALA797  LYS798  CYS799  TRP800  GLU811  SER814 

> <Gold.Protein.RotatedAtoms>
  151.5384  135.1068  159.9919 H   0  0  0  0  0  0  0  0  0  0  0  0  # atno 6907 bound_to 6896
  152.4546  133.7694  159.6801 H   0  0  0  0  0  0  0  0  0  0  0  0  # atno 6908 bound_to 6896
  150.8486  133.7757  159.3058 H   0  0  0  0  0  0  0  0  0  0  0  0  # atno 6909 bound_to 6896
  145.4785  140.9557  143.1877 H   0  0  0  0  0  0  0  0  0  0  0  0  # atno 7974 bound_to 7965
  154.8481  140.0432  157.1586 H   0  0  0  0  0  0  0  0  0  0  0  0  # atno 8008 bound_to 7997
  154.8973  140.2995  155.5317 H   0  0  0  0  0  0  0  0  0  0  0  0  # atno 8009 bound_to 7997
  156.2995  140.2382  156.3996 H   0  0  0  0  0  0  0  0  0  0  0  0  # atno 8010 bound_to 7997
  139.9905  144.5761  150.7822 H   0  0  0  0  0  0  0  0  0  0  0  0  # atno 10167 bound_to 10162
  156.0668  130.5886  150.8422 H   0  0  0  0  0  0  0  0  0  0  0  0  # atno 10718 bound_to 10713
  153.7258  135.3246  155.3276 H   0  0  0  0  0  0  0  0  0  0  0  0  # atno 10763 bound_to 10752
  154.8342  135.4510  154.1172 H   0  0  0  0  0  0  0  0  0  0  0  0  # atno 10764 bound_to 10752
  153.2305  135.6959  153.7976 H   0  0  0  0  0  0  0  0  0  0  0  0  # atno 10765 bound_to 10752
  141.0828  133.9190  157.2251 H   0  0  0  0  0  0  0  0  0  0  0  0  # atno 11005 bound_to 11000
  144.7903  139.6343  143.7116 LP  0  0  0  0  0  0  0  0  0  0  0  0  # atno 17320 bound_to 7965
  146.2355  139.5896  142.9527 LP  0  0  0  0  0  0  0  0  0  0  0  0  # atno 17321 bound_to 7965
  140.7456  143.2879  151.3413 LP  0  0  0  0  0  0  0  0  0  0  0  0  # atno 17342 bound_to 10162
  139.6344  144.0659  152.2503 LP  0  0  0  0  0  0  0  0  0  0  0  0  # atno 17343 bound_to 10162
  157.5714  131.0946  150.9411 LP  0  0  0  0  0  0  0  0  0  0  0  0  # atno 17370 bound_to 10713
  156.9627  130.5461  149.5286 LP  0  0  0  0  0  0  0  0  0  0  0  0  # atno 17371 bound_to 10713
  139.9643  135.0146  156.9346 LP  0  0  0  0  0  0  0  0  0  0  0  0  # atno 17394 bound_to 11000
  140.5430  134.0701  155.7347 LP  0  0  0  0  0  0  0  0  0  0  0  0  # atno 17395 bound_to 11000

$$$$
