AV-unprocessed.smi:565|AV-procd|sdf|2951|dock1
  -GOLD-   2262023453D 1   1.00000     0.00000
 Structure written by MMmdl.
 50 51  0  0  0  0  0  0  0  0  2 V2000
  150.8690  141.1520  156.2238 C   0  0  0  0  0  0  0  0  0  0  0  0
  151.4713  141.8002  157.4378 C   0  0  0  0  0  0  0  0  0  0  0  0
  151.2561  143.0868  157.6541 N   0  0  0  0  0  0  0  0  0  0  0  0
  151.9130  143.3588  158.7991 N   0  0  0  0  0  0  0  0  0  0  0  0
  151.8831  144.7062  159.3341 C   0  0  0  0  0  0  0  0  0  0  0  0
  152.5458  142.2414  159.3076 C   0  0  0  0  0  0  0  0  0  0  0  0
  153.3439  142.2880  160.5709 C   0  0  0  0  0  0  0  0  0  0  0  0
  152.2834  141.2066  158.4493 C   0  0  0  0  0  0  0  0  0  0  0  0
  152.7394  139.7710  158.5324 C   0  0  0  0  0  0  0  0  0  0  0  0
  151.5501  138.8414  158.2905 C   0  0  0  0  0  0  0  0  0  0  0  0
  150.5496  138.9209  159.0026 O   0  0  0  0  0  0  0  0  0  0  0  0
  151.6637  137.9736  157.2731 N   0  0  0  0  0  0  0  0  0  0  0  0
  150.6200  137.0529  156.8416 C   0  0  0  0  0  0  0  0  0  0  0  0
  150.3577  137.1812  155.3284 C   0  0  0  0  0  0  0  0  0  0  0  0
  149.5467  136.0590  154.7925 N   0  3  1  0  0  0  0  0  0  0  0  0
  150.2800  134.7674  154.8424 C   0  0  0  0  0  0  0  0  0  0  0  0
  149.4811  133.6494  154.1542 C   0  0  0  0  0  0  0  0  0  0  0  0
  148.0870  133.5076  154.7776 C   0  0  0  0  0  0  0  0  0  0  0  0
  147.3499  134.8569  154.7469 C   0  0  1  0  0  0  0  0  0  0  0  0
  145.9595  134.7506  155.3894 C   0  0  0  0  0  0  0  0  0  0  0  0
  148.2037  135.9482  155.4238 C   0  0  0  0  0  0  0  0  0  0  0  0
  151.4838  140.3241  155.8710 H   0  0  0  0  0  0  0  0  0  0  0  0
  150.7702  141.8592  155.3995 H   0  0  0  0  0  0  0  0  0  0  0  0
  149.8770  140.7582  156.4451 H   0  0  0  0  0  0  0  0  0  0  0  0
  152.9002  145.0885  159.4229 H   0  0  0  0  0  0  0  0  0  0  0  0
  151.4174  144.6985  160.3197 H   0  0  0  0  0  0  0  0  0  0  0  0
  151.3143  145.3688  158.6803 H   0  0  0  0  0  0  0  0  0  0  0  0
  153.8269  141.3322  160.7723 H   0  0  0  0  0  0  0  0  0  0  0  0
  152.7054  142.5259  161.4221 H   0  0  0  0  0  0  0  0  0  0  0  0
  154.1238  143.0472  160.5093 H   0  0  0  0  0  0  0  0  0  0  0  0
  153.5203  139.5502  157.8040 H   0  0  0  0  0  0  0  0  0  0  0  0
  153.1717  139.5507  159.5092 H   0  0  0  0  0  0  0  0  0  0  0  0
  152.5236  137.9747  156.7437 H   0  0  0  0  0  0  0  0  0  0  0  0
  150.9521  136.0477  157.0972 H   0  0  0  0  0  0  0  0  0  0  0  0
  149.7041  137.2318  157.4072 H   0  0  0  0  0  0  0  0  0  0  0  0
  149.8237  138.1162  155.1531 H   0  0  0  0  0  0  0  0  0  0  0  0
  151.2961  137.2571  154.7769 H   0  0  0  0  0  0  0  0  0  0  0  0
  151.2462  134.8698  154.3465 H   0  0  0  0  0  0  0  0  0  0  0  0
  150.4827  134.5022  155.8814 H   0  0  0  0  0  0  0  0  0  0  0  0
  149.3873  133.8670  153.0894 H   0  0  0  0  0  0  0  0  0  0  0  0
  150.0208  132.7048  154.2302 H   0  0  0  0  0  0  0  0  0  0  0  0
  147.5151  132.7510  154.2392 H   0  0  0  0  0  0  0  0  0  0  0  0
  148.1792  133.1555  155.8061 H   0  0  0  0  0  0  0  0  0  0  0  0
  147.2070  135.1405  153.7030 H   0  0  0  0  0  0  0  0  0  0  0  0
  146.0279  134.4715  156.4414 H   0  0  0  0  0  0  0  0  0  0  0  0
  145.3509  133.9993  154.8851 H   0  0  0  0  0  0  0  0  0  0  0  0
  145.4255  135.6994  155.3306 H   0  0  0  0  0  0  0  0  0  0  0  0
  148.3193  135.7320  156.4873 H   0  0  0  0  0  0  0  0  0  0  0  0
  147.6772  136.8991  155.3527 H   0  0  0  0  0  0  0  0  0  0  0  0
  149.3975  136.2579  153.8134 H   0  0  0  0  0  0  0  0  0  0  0  0
  1  2  1  0  0  0  0
  1 22  1  0  0  0  0
  1 23  1  0  0  0  0
  1 24  1  0  0  0  0
  2  8  1  0  0  0  0
  2  3  2  0  0  0  0
  3  4  1  0  0  0  0
  4  5  1  0  0  0  0
  4  6  1  0  0  0  0
  5 25  1  0  0  0  0
  5 26  1  0  0  0  0
  5 27  1  0  0  0  0
  6  7  1  0  0  0  0
  6  8  2  0  0  0  0
  7 28  1  0  0  0  0
  7 29  1  0  0  0  0
  7 30  1  0  0  0  0
  8  9  1  0  0  0  0
  9 10  1  0  0  0  0
  9 31  1  0  0  0  0
  9 32  1  0  0  0  0
 10 11  2  0  0  0  0
 10 12  1  0  0  0  0
 12 13  1  0  0  0  0
 12 33  1  0  0  0  0
 13 14  1  0  0  0  0
 13 34  1  0  0  0  0
 13 35  1  0  0  0  0
 14 15  1  0  0  0  0
 14 36  1  0  0  0  0
 14 37  1  0  0  0  0
 15 21  1  0  0  0  0
 15 16  1  0  0  0  0
 15 50  1  0  0  0  0
 16 17  1  0  0  0  0
 16 38  1  0  0  0  0
 16 39  1  0  0  0  0
 17 18  1  0  0  0  0
 17 40  1  0  0  0  0
 17 41  1  0  0  0  0
 18 19  1  0  0  0  0
 18 42  1  0  0  0  0
 18 43  1  0  0  0  0
 19 20  1  0  0  0  0
 19 21  1  0  0  0  0
 19 44  1  0  0  0  0
 20 45  1  0  0  0  0
 20 46  1  0  0  0  0
 20 47  1  0  0  0  0
 21 48  1  0  0  0  0
 21 49  1  0  0  0  0
M  CHG  1  15   1
M  END
> <s_m_source_file>
AV-unprocessed.smi

> <i_m_source_file_index>
565

> <i_lp_mmshare_version>
43012

> <i_f3d_flags>
0

> <s_epik_input>
W0NIM11jMW5uKFtDSDNdKWMoW0NIM10pYzFbQ0gyXUMoPU8pW05IXVtDSDJdW0NIMl1OMltDSDJdW0NIMl1bQ0gyXVtDQEBIXShbQ0gzXSlbQ0gyXTI=

> <s_epik_cmdline>
J2VwaWtfcHl0aG9uJywgJy1waCcsICc3LjAnLCAnLXRuJywgJzgnLCAnLW1hJywgJzIwMCcsICctbWV0YWxfYmluZGluZycsICctaW1hZScsICc8aW5maWxlLm1hZT4nLCAnLW9tYWUnLCAnPG91dGZpbGUubWFlPic=

> <r_lp_tautomer_probability>
1

> <r_epik_Ionization_Penalty>
0.00411138

> <r_epik_Ionization_Penalty_Charging>
0.0019503

> <r_epik_Ionization_Penalty_Neutral>
0.00216107

> <r_epik_State_Penalty>
-0

> <r_epik_Charging_Adjusted_Penalty>
0.0019503

> <i_epik_Tot_Q>
1

> <i_epik_Tot_abs_Q>
1

> <r_epik_Metal_State_Penalty>
-0

> <b_epik_Metal_Only>
0

> <s_lp_Force_Field>
OPLS_2005

> <r_lp_Energy>
10.3148

> <b_lp_Chiralities_Consistent>
1

> <s_lp_Variant>
AV-unprocessed.smi:565-1

> <Gold.Version>
5.8.1

> <Gold.Id.Protein>
6NUR|6NUR_protein|mol2

> <Gold.PLP.Fitness>
41.2395

> <Gold.PLP.PLP>
-35.6563

> <Gold.PLP.part.hbond>
-1.4220

> <Gold.PLP.part.metal>
0.0000

> <Gold.PLP.part.buried>
-5.7549

> <Gold.PLP.part.nonpolar>
-28.9151

> <Gold.PLP.part.repulsive>
0.2020

> <Gold.PLP.ligand.clash>
0.0000

> <Gold.PLP.ligand.torsion>
0.2374

> <Gold.PLP.Chemscore.Hbond>
2.0000

> <Gold.PLP.Chemscore.CHOScore>
0.0000

> <Gold.PLP.Chemscore.Metal>
0.0000

> <Gold.Chemscore.Hbonds>
donor molecule, donor type, donor heavy atom, donor atom, acceptor molecule, acceptor atom, score
      L1  H    15    50       P1  7948  2.00

> <Gold.PLP.Chemscore.Internal.Correction>
0.0580

> <Gold.Rescore>
     Score         DG    S(hbond)    S(metal)    S(lipo)     H(rot)  DE(clash)    DE(int)     intcor
     14.14     -14.46       0.98        0.00      84.18       1.61       0.00       0.32       ----

> <Gold.Chemscore.Fitness>
14.1352

> <Gold.Chemscore.DG>
-14.4585

> <Gold.Chemscore.ZeroCoef>
-5.4800

> <Gold.Chemscore.Hbond>
0.9765

> <Gold.Chemscore.Metal>
0.0000

> <Gold.Chemscore.Lipo>
84.1822

> <Gold.Chemscore.Internal_Hbond>
0.0000

> <Gold.Chemscore.DEClash>
0.0015

> <Gold.Chemscore.DEInternal>
0.3218

> <Gold.Chemscore.Rot>
1.6142

> <Gold.Chemscore.Internal.Correction>
   9.000000E+99

> <Gold.Chemscore.Hbonds>
donor molecule, donor type, donor heavy atom, donor atom, acceptor molecule, acceptor atom, score
      L1  H    15    50       P1  7948  0.77

> <Gold.Chemscore.Hbond.Weighted>
-3.2616

> <Gold.Chemscore.Metal.Weighted>
-0.0000

> <Gold.Chemscore.Lipo.Weighted>
-9.8493

> <Gold.Chemscore.Internal_Hbond.Weighted>
0.0000

> <Gold.Chemscore.DEClash.Weighted>
0.0015

> <Gold.Chemscore.DEInternal.Weighted>
0.3218

> <Gold.Chemscore.Rot.Weighted>
4.1324

> <Gold.Chemscore.Internal.Correction.Weighted>
   9.000000E+99

> <Gold.Protein.RotatedTorsions>
[ 6907 6896 6895 6894 ] final -111.96 input  -60.11 | X-H torsion
[ 7974 7965 7964 7962 ] final   27.55 input  175.53 | X-H torsion
[ 8008 7997 7996 7995 ] final -106.86 input   59.86 | X-H torsion
[ 10167 10162 10161 10158 ] final  126.13 input  -65.29 | X-H torsion
[ 10718 10713 10712 10709 ] final   -8.78 input   66.30 | X-H torsion
[ 10763 10752 10751 10750 ] final   92.87 input  -60.55 | X-H torsion
[ 11005 11000 10999 10996 ] final -110.10 input  -57.11 | X-H torsion

> <Gold.Protein.ActiveResidues>
 VAL166  LYS551  ARG553  GLY616  TRP617  ASP618  TYR619  PRO620  LYS621  CYS622 
 ASP623  PHE694  ASN695  SER759  ASP760  ASP761  ALA762  ILE779  LEU786  VAL792 
 PHE793  MET794  SER795  GLU796  ALA797  LYS798  CYS799  TRP800  GLU811  SER814 

> <Gold.Protein.RotatedAtoms>
  150.7726  133.9159  159.3383 H   0  0  0  0  0  0  0  0  0  0  0  0  # atno 6907 bound_to 6896
  151.7041  135.0923  160.0265 H   0  0  0  0  0  0  0  0  0  0  0  0  # atno 6908 bound_to 6896
  152.3749  133.6430  159.6151 H   0  0  0  0  0  0  0  0  0  0  0  0  # atno 6909 bound_to 6896
  146.1778  139.7177  142.8922 H   0  0  0  0  0  0  0  0  0  0  0  0  # atno 7974 bound_to 7965
  154.9207  140.0407  157.1996 H   0  0  0  0  0  0  0  0  0  0  0  0  # atno 8008 bound_to 7997
  154.8256  140.2891  155.5735 H   0  0  0  0  0  0  0  0  0  0  0  0  # atno 8009 bound_to 7997
  156.2983  140.2510  156.3172 H   0  0  0  0  0  0  0  0  0  0  0  0  # atno 8010 bound_to 7997
  139.5648  144.6904  151.3942 H   0  0  0  0  0  0  0  0  0  0  0  0  # atno 10167 bound_to 10162
  156.6976  130.5083  149.5926 H   0  0  0  0  0  0  0  0  0  0  0  0  # atno 10718 bound_to 10713
  153.2240  135.4346  155.0521 H   0  0  0  0  0  0  0  0  0  0  0  0  # atno 10763 bound_to 10752
  154.8264  135.3363  154.6886 H   0  0  0  0  0  0  0  0  0  0  0  0  # atno 10764 bound_to 10752
  153.7316  135.7010  153.5044 H   0  0  0  0  0  0  0  0  0  0  0  0  # atno 10765 bound_to 10752
  141.0811  133.9218  157.2287 H   0  0  0  0  0  0  0  0  0  0  0  0  # atno 11005 bound_to 11000
  145.4162  141.0402  143.2989 LP  0  0  0  0  0  0  0  0  0  0  0  0  # atno 17320 bound_to 7965
  144.8265  139.5701  143.6963 LP  0  0  0  0  0  0  0  0  0  0  0  0  # atno 17321 bound_to 7965
  140.6930  143.7815  150.7284 LP  0  0  0  0  0  0  0  0  0  0  0  0  # atno 17342 bound_to 10162
  140.1303  143.4531  152.2258 LP  0  0  0  0  0  0  0  0  0  0  0  0  # atno 17343 bound_to 10162
  156.1752  130.6463  151.0886 LP  0  0  0  0  0  0  0  0  0  0  0  0  # atno 17370 bound_to 10713
  157.6985  131.0785  150.6893 LP  0  0  0  0  0  0  0  0  0  0  0  0  # atno 17371 bound_to 10713
  139.9625  135.0150  156.9298 LP  0  0  0  0  0  0  0  0  0  0  0  0  # atno 17394 bound_to 11000
  140.5467  134.0667  155.7357 LP  0  0  0  0  0  0  0  0  0  0  0  0  # atno 17395 bound_to 11000

$$$$
