AV-unprocessed.smi:2526|AV-procd|sdf|9938|dock8
  -GOLD-   2272013583D 1   1.00000     0.00000
 Structure written by MMmdl.
 28 29  0  0  0  0  0  0  0  0  1 V2000
  151.2988  145.2302  159.8723 C   0  0  0  0  0  0  0  0  0  0  0  0
  151.2658  144.0101  159.0945 N   0  0  0  0  0  0  0  0  0  0  0  0
  151.1195  143.8639  157.7322 C   0  0  0  0  0  0  0  0  0  0  0  0
  151.1563  142.5261  157.4525 C   0  0  0  0  0  0  0  0  0  0  0  0
  151.0473  141.8449  156.1083 C   0  0  2  0  0  0  0  0  0  0  0  0
  149.8073  142.2355  155.4302 N   0  0  0  0  0  0  0  0  0  0  0  0
  149.0097  141.4544  154.6797 C   0  0  0  0  0  0  0  0  0  0  0  0
  148.0166  141.9068  154.1149 O   0  0  0  0  0  0  0  0  0  0  0  0
  149.3320  139.9586  154.5547 C   0  0  0  0  0  0  0  0  0  0  0  0
  150.7795  139.6161  154.9361 C   0  0  0  0  0  0  0  0  0  0  0  0
  151.1693  140.3085  156.2470 C   0  0  1  0  0  0  0  0  0  0  0  0
  152.5187  139.9233  156.6198 N   0  0  0  0  0  0  0  0  0  0  0  0
  151.3337  141.9319  158.7367 C   0  0  0  0  0  0  0  0  0  0  0  0
  151.3980  142.8202  159.7144 N   0  0  0  0  0  0  0  0  0  0  0  0
  150.8430  146.0439  159.3079 H   0  0  0  0  0  0  0  0  0  0  0  0
  152.3327  145.4901  160.1000 H   0  0  0  0  0  0  0  0  0  0  0  0
  150.7487  145.0967  160.8047 H   0  0  0  0  0  0  0  0  0  0  0  0
  151.0057  144.7159  157.0780 H   0  0  0  0  0  0  0  0  0  0  0  0
  151.8499  142.1931  155.4559 H   0  0  0  0  0  0  0  0  0  0  0  0
  149.5489  143.2085  155.5090 H   0  0  0  0  0  0  0  0  0  0  0  0
  148.6457  139.4182  155.2076 H   0  0  0  0  0  0  0  0  0  0  0  0
  149.1239  139.6243  153.5375 H   0  0  0  0  0  0  0  0  0  0  0  0
  150.8825  138.5345  155.0327 H   0  0  0  0  0  0  0  0  0  0  0  0
  151.4530  139.9220  154.1338 H   0  0  0  0  0  0  0  0  0  0  0  0
  150.4951  139.9634  157.0327 H   0  0  0  0  0  0  0  0  0  0  0  0
  152.6533  140.0791  157.6085 H   0  0  0  0  0  0  0  0  0  0  0  0
  152.6419  138.9326  156.4672 H   0  0  0  0  0  0  0  0  0  0  0  0
  151.4198  140.8842  158.9850 H   0  0  0  0  0  0  0  0  0  0  0  0
  1  2  1  0  0  0  0
  1 15  1  0  0  0  0
  1 16  1  0  0  0  0
  1 17  1  0  0  0  0
  2 14  1  0  0  0  0
  2  3  1  0  0  0  0
  3  4  2  0  0  0  0
  3 18  1  0  0  0  0
  4  5  1  0  0  0  0
  4 13  1  0  0  0  0
  5 11  1  0  0  0  0
  5  6  1  0  0  0  0
  5 19  1  0  0  0  0
  6  7  1  0  0  0  0
  6 20  1  0  0  0  0
  7  8  2  0  0  0  0
  7  9  1  0  0  0  0
  9 10  1  0  0  0  0
  9 21  1  0  0  0  0
  9 22  1  0  0  0  0
 10 11  1  0  0  0  0
 10 23  1  0  0  0  0
 10 24  1  0  0  0  0
 11 12  1  0  0  0  0
 11 25  1  0  0  0  0
 12 26  1  0  0  0  0
 12 27  1  0  0  0  0
 13 14  2  0  0  0  0
 13 28  1  0  0  0  0
M  END
> <s_m_source_file>
AV-unprocessed.smi

> <i_m_source_file_index>
2526

> <i_lp_mmshare_version>
43012

> <i_f3d_flags>
0

> <s_epik_input>
W0NIM11uMVtjSF1jKFtjSF1uMSlbQ0BASF0yW05IXUMoPU8pW0NIMl1bQ0gyXVtDQEhdMltOSDJd

> <s_epik_cmdline>
J2VwaWtfcHl0aG9uJywgJy1waCcsICc3LjAnLCAnLXRuJywgJzgnLCAnLW1hJywgJzIwMCcsICctbWV0YWxfYmluZGluZycsICctaW1hZScsICc8aW5maWxlLm1hZT4nLCAnLW9tYWUnLCAnPG91dGZpbGUubWFlPic=

> <r_lp_tautomer_probability>
1

> <r_epik_Ionization_Penalty>
2.50279

> <r_epik_Ionization_Penalty_Charging>
0

> <r_epik_Ionization_Penalty_Neutral>
2.50279

> <r_epik_State_Penalty>
2.66754

> <r_epik_Charging_Adjusted_Penalty>
2.66754

> <i_epik_Tot_Q>
0

> <i_epik_Tot_abs_Q>
0

> <r_epik_Metal_State_Penalty>
2.66721

> <b_epik_Metal_Only>
0

> <s_lp_Force_Field>
OPLS_2005

> <r_lp_Energy>
8.43832

> <b_lp_Chiralities_Consistent>
1

> <s_lp_Variant>
AV-unprocessed.smi:2526-5

> <Gold.Version>
5.8.1

> <Gold.Id.Protein>
6NUR|6NUR_protein|mol2

> <Gold.PLP.Fitness>
37.1540

> <Gold.PLP.PLP>
-30.9116

> <Gold.PLP.part.hbond>
-2.5978

> <Gold.PLP.part.metal>
0.0000

> <Gold.PLP.part.buried>
-3.8694

> <Gold.PLP.part.nonpolar>
-24.5810

> <Gold.PLP.part.repulsive>
0.3483

> <Gold.PLP.ligand.clash>
0.0000

> <Gold.PLP.ligand.torsion>
0.0183

> <Gold.PLP.Chemscore.Hbond>
1.3500

> <Gold.PLP.Chemscore.CHOScore>
0.7344

> <Gold.PLP.Chemscore.Metal>
0.0000

> <Gold.Chemscore.Hbonds>
donor molecule, donor type, donor heavy atom, donor atom, acceptor molecule, acceptor atom, score
      L1  H     6    20       P1  8028  1.00
      P1  H  7997  8008       L1    12  0.22
      L1  C     3    18       P1  8028  0.73

> <Gold.PLP.Chemscore.Internal.Correction>
0.0258

> <Gold.Rescore>
     Score         DG    S(hbond)    S(metal)    S(lipo)     H(rot)  DE(clash)    DE(int)     intcor
     13.99     -14.09       0.98        0.00      67.43       1.00       0.09       0.01       ----

> <Gold.Chemscore.Fitness>
13.9901

> <Gold.Chemscore.DG>
-14.0918

> <Gold.Chemscore.ZeroCoef>
-5.4800

> <Gold.Chemscore.Hbond>
0.9827

> <Gold.Chemscore.Metal>
0.0000

> <Gold.Chemscore.Lipo>
67.4313

> <Gold.Chemscore.Internal_Hbond>
0.0000

> <Gold.Chemscore.DEClash>
0.0888

> <Gold.Chemscore.DEInternal>
0.0129

> <Gold.Chemscore.Rot>
1.0000

> <Gold.Chemscore.Internal.Correction>
   9.000000E+99

> <Gold.Chemscore.Hbonds>
donor molecule, donor type, donor heavy atom, donor atom, acceptor molecule, acceptor atom, score
      L1  H     6    20       P1  8028  1.00

> <Gold.Chemscore.Hbond.Weighted>
-3.2823

> <Gold.Chemscore.Metal.Weighted>
-0.0000

> <Gold.Chemscore.Lipo.Weighted>
-7.8895

> <Gold.Chemscore.Internal_Hbond.Weighted>
0.0000

> <Gold.Chemscore.DEClash.Weighted>
0.0888

> <Gold.Chemscore.DEInternal.Weighted>
0.0129

> <Gold.Chemscore.Rot.Weighted>
2.5600

> <Gold.Chemscore.Internal.Correction.Weighted>
   9.000000E+99

> <Gold.Protein.RotatedTorsions>
[ 6907 6896 6895 6894 ] final   72.60 input  -60.11 | X-H torsion
[ 7974 7965 7964 7962 ] final   -0.05 input  175.53 | X-H torsion
[ 8008 7997 7996 7995 ] final  -39.62 input   59.86 | X-H torsion
[ 10167 10162 10161 10158 ] final  -76.07 input  -65.29 | X-H torsion
[ 10718 10713 10712 10709 ] final   92.90 input   66.30 | X-H torsion
[ 10763 10752 10751 10750 ] final   85.21 input  -60.55 | X-H torsion
[ 11005 11000 10999 10996 ] final  -66.08 input  -57.11 | X-H torsion

> <Gold.Protein.ActiveResidues>
 VAL166  LYS551  ARG553  GLY616  TRP617  ASP618  TYR619  PRO620  LYS621  CYS622 
 ASP623  PHE694  ASN695  SER759  ASP760  ASP761  ALA762  ILE779  LEU786  VAL792 
 PHE793  MET794  SER795  GLU796  ALA797  LYS798  CYS799  TRP800  GLU811  SER814 

> <Gold.Protein.RotatedAtoms>
  152.4877  134.4547  159.9585 H   0  0  0  0  0  0  0  0  0  0  0  0  # atno 6907 bound_to 6896
  151.4540  133.3604  159.2807 H   0  0  0  0  0  0  0  0  0  0  0  0  # atno 6908 bound_to 6896
  150.9002  134.8438  159.7415 H   0  0  0  0  0  0  0  0  0  0  0  0  # atno 6909 bound_to 6896
  146.2430  140.1211  142.8340 H   0  0  0  0  0  0  0  0  0  0  0  0  # atno 7974 bound_to 7965
  154.4021  140.1546  156.2894 H   0  0  0  0  0  0  0  0  0  0  0  0  # atno 8008 bound_to 7997
  155.8799  140.3444  155.5858 H   0  0  0  0  0  0  0  0  0  0  0  0  # atno 8009 bound_to 7997
  155.7679  140.0826  157.2113 H   0  0  0  0  0  0  0  0  0  0  0  0  # atno 8010 bound_to 7997
  140.4888  143.2385  151.7940 H   0  0  0  0  0  0  0  0  0  0  0  0  # atno 10167 bound_to 10162
  157.6957  131.0459  150.3953 H   0  0  0  0  0  0  0  0  0  0  0  0  # atno 10718 bound_to 10713
  153.1454  135.4625  154.9558 H   0  0  0  0  0  0  0  0  0  0  0  0  # atno 10763 bound_to 10752
  154.7781  135.3180  154.8050 H   0  0  0  0  0  0  0  0  0  0  0  0  # atno 10764 bound_to 10752
  153.8565  135.6916  153.4841 H   0  0  0  0  0  0  0  0  0  0  0  0  # atno 10765 bound_to 10752
  141.1472  133.6693  156.6085 H   0  0  0  0  0  0  0  0  0  0  0  0  # atno 11005 bound_to 11000
  145.0405  140.8942  143.5055 LP  0  0  0  0  0  0  0  0  0  0  0  0  # atno 17320 bound_to 7965
  145.1291  139.2644  143.5549 LP  0  0  0  0  0  0  0  0  0  0  0  0  # atno 17321 bound_to 7965
  139.4847  144.4676  151.9464 LP  0  0  0  0  0  0  0  0  0  0  0  0  # atno 17342 bound_to 10162
  140.3763  144.2793  150.5914 LP  0  0  0  0  0  0  0  0  0  0  0  0  # atno 17343 bound_to 10162
  156.4352  130.3980  149.6734 LP  0  0  0  0  0  0  0  0  0  0  0  0  # atno 17370 bound_to 10713
  156.3937  130.7640  151.2643 LP  0  0  0  0  0  0  0  0  0  0  0  0  # atno 17371 bound_to 10713
  140.3633  134.7669  157.4548 LP  0  0  0  0  0  0  0  0  0  0  0  0  # atno 17394 bound_to 11000
  140.0768  134.5786  155.8583 LP  0  0  0  0  0  0  0  0  0  0  0  0  # atno 17395 bound_to 11000

$$$$
