AV-unprocessed.smi:1225|AV-procd|sdf|5137|dock3
  -GOLD-   22720 4203D 1   1.00000     0.00000
 Structure written by MMmdl.
 48 50  0  0  0  0  0  0  0  0  1 V2000
  145.9309  133.8399  152.4547 C   0  0  0  0  0  0  0  0  0  0  0  0
  145.7913  135.2907  152.7661 C   0  0  0  0  0  0  0  0  0  0  0  0
  144.9876  136.1177  152.0933 N   0  0  0  0  0  0  0  0  0  0  0  0
  145.0385  137.4250  152.5821 C   0  0  0  0  0  0  0  0  0  0  0  0
  145.8964  137.5879  153.6420 C   0  0  0  0  0  0  0  0  0  0  0  0
  146.1856  138.8469  154.3939 C   0  0  0  0  0  0  0  0  0  0  0  0
  147.3117  139.6078  153.8442 N   0  0  0  0  0  0  0  0  0  0  0  0
  146.8720  140.3966  152.6957 C   0  0  0  0  0  0  0  0  0  0  0  0
  147.9325  140.4710  154.8530 C   0  0  0  0  0  0  0  0  0  0  0  0
  149.4715  140.5846  154.7757 C   0  0  1  0  0  0  0  0  0  0  0  0
  149.8002  140.8159  153.4196 O   0  0  0  0  0  0  0  0  0  0  0  0
  150.1016  141.6936  155.6452 C   0  0  0  0  0  0  0  0  0  0  0  0
  151.0824  141.1834  156.5873 N   0  0  0  0  0  0  0  0  0  0  0  0
  151.8403  140.0779  156.4554 C   0  0  0  0  0  0  0  0  0  0  0  0
  152.6855  139.7976  157.4431 N   0  0  0  0  0  0  0  0  0  0  0  0
  152.4505  140.8455  158.3167 C   0  0  0  0  0  0  0  0  0  0  0  0
  153.0318  141.1430  159.5686 C   0  0  0  0  0  0  0  0  0  0  0  0
  152.6353  142.2863  160.2984 C   0  0  0  0  0  0  0  0  0  0  0  0
  153.2887  142.5684  161.6399 C   0  0  0  0  0  0  0  0  0  0  0  0
  151.6400  143.1520  159.7775 C   0  0  0  0  0  0  0  0  0  0  0  0
  151.1955  144.3841  160.5456 C   0  0  0  0  0  0  0  0  0  0  0  0
  151.0511  142.8707  158.5270 C   0  0  0  0  0  0  0  0  0  0  0  0
  151.4545  141.7304  157.8102 C   0  0  0  0  0  0  0  0  0  0  0  0
  146.6776  136.0856  154.0612 S   0  0  0  0  0  0  0  0  0  0  0  0
  145.1631  133.5228  151.7483 H   0  0  0  0  0  0  0  0  0  0  0  0
  145.8303  133.2512  153.3666 H   0  0  0  0  0  0  0  0  0  0  0  0
  146.9102  133.6460  152.0173 H   0  0  0  0  0  0  0  0  0  0  0  0
  144.4268  138.1834  152.1156 H   0  0  0  0  0  0  0  0  0  0  0  0
  145.2942  139.4756  154.4159 H   0  0  0  0  0  0  0  0  0  0  0  0
  146.3689  138.5804  155.4313 H   0  0  0  0  0  0  0  0  0  0  0  0
  147.7109  140.9311  152.2489 H   0  0  0  0  0  0  0  0  0  0  0  0
  146.1180  141.1298  152.9859 H   0  0  0  0  0  0  0  0  0  0  0  0
  146.4468  139.7616  151.9181 H   0  0  0  0  0  0  0  0  0  0  0  0
  147.5498  141.4855  154.7289 H   0  0  0  0  0  0  0  0  0  0  0  0
  147.6183  140.1697  155.8536 H   0  0  0  0  0  0  0  0  0  0  0  0
  149.9079  139.6237  155.0511 H   0  0  0  0  0  0  0  0  0  0  0  0
  149.4334  140.1186  152.8982 H   0  0  0  0  0  0  0  0  0  0  0  0
  150.5795  142.4471  155.0174 H   0  0  0  0  0  0  0  0  0  0  0  0
  149.3316  142.1997  156.2271 H   0  0  0  0  0  0  0  0  0  0  0  0
  151.7670  139.4420  155.5852 H   0  0  0  0  0  0  0  0  0  0  0  0
  153.7894  140.4832  159.9654 H   0  0  0  0  0  0  0  0  0  0  0  0
  152.5512  142.5171  162.4409 H   0  0  0  0  0  0  0  0  0  0  0  0
  153.7398  143.5609  161.6463 H   0  0  0  0  0  0  0  0  0  0  0  0
  154.0740  141.8447  161.8600 H   0  0  0  0  0  0  0  0  0  0  0  0
  150.3780  144.8962  160.0373 H   0  0  0  0  0  0  0  0  0  0  0  0
  152.0217  145.0880  160.6467 H   0  0  0  0  0  0  0  0  0  0  0  0
  150.8485  144.1110  161.5424 H   0  0  0  0  0  0  0  0  0  0  0  0
  150.2934  143.5223  158.1169 H   0  0  0  0  0  0  0  0  0  0  0  0
  1  2  1  0  0  0  0
  1 25  1  0  0  0  0
  1 26  1  0  0  0  0
  1 27  1  0  0  0  0
  2 24  1  0  0  0  0
  2  3  2  0  0  0  0
  3  4  1  0  0  0  0
  4  5  2  0  0  0  0
  4 28  1  0  0  0  0
  5  6  1  0  0  0  0
  5 24  1  0  0  0  0
  6  7  1  0  0  0  0
  6 29  1  0  0  0  0
  6 30  1  0  0  0  0
  7  8  1  0  0  0  0
  7  9  1  0  0  0  0
  8 31  1  0  0  0  0
  8 32  1  0  0  0  0
  8 33  1  0  0  0  0
  9 10  1  0  0  0  0
  9 34  1  0  0  0  0
  9 35  1  0  0  0  0
 10 11  1  0  0  0  0
 10 12  1  0  0  0  0
 10 36  1  0  0  0  0
 11 37  1  0  0  0  0
 12 13  1  0  0  0  0
 12 38  1  0  0  0  0
 12 39  1  0  0  0  0
 13 23  1  0  0  0  0
 13 14  1  0  0  0  0
 14 15  2  0  0  0  0
 14 40  1  0  0  0  0
 15 16  1  0  0  0  0
 16 23  2  0  0  0  0
 16 17  1  0  0  0  0
 17 18  2  0  0  0  0
 17 41  1  0  0  0  0
 18 19  1  0  0  0  0
 18 20  1  0  0  0  0
 19 42  1  0  0  0  0
 19 43  1  0  0  0  0
 19 44  1  0  0  0  0
 20 21  1  0  0  0  0
 20 22  2  0  0  0  0
 21 45  1  0  0  0  0
 21 46  1  0  0  0  0
 21 47  1  0  0  0  0
 22 23  1  0  0  0  0
 22 48  1  0  0  0  0
M  END
> <s_m_source_file>
AV-unprocessed.smi

> <i_m_source_file_index>
1225

> <i_lp_mmshare_version>
43012

> <i_f3d_flags>
0

> <s_epik_input>
W0NIM11jMW5bY0hdYyhzMSlbQ0gyXU4oW0NIM10pW0NIMl1bQ0BIXShbT0hdKVtDSDJdbihbY0hdbjIpYyhjMjMpW2NIXWMoW0NIM10pYyhbY0hdMylbQ0gzXQ==

> <s_epik_cmdline>
J2VwaWtfcHl0aG9uJywgJy1waCcsICc3LjAnLCAnLXRuJywgJzgnLCAnLW1hJywgJzIwMCcsICctbWV0YWxfYmluZGluZycsICctaW1hZScsICc8aW5maWxlLm1hZT4nLCAnLW9tYWUnLCAnPG91dGZpbGUubWFlPic=

> <r_epik_Ionization_Penalty>
0.12717

> <r_epik_Ionization_Penalty_Charging>
0

> <r_epik_Ionization_Penalty_Neutral>
0.12717

> <r_epik_State_Penalty>
0.11216

> <r_epik_Charging_Adjusted_Penalty>
0.11216

> <i_epik_Tot_Q>
0

> <i_epik_Tot_abs_Q>
0

> <r_epik_Metal_State_Penalty>
0.099641

> <b_epik_Metal_Only>
0

> <s_lp_Force_Field>
OPLS_2005

> <r_lp_Energy>
16.9623

> <b_lp_Chiralities_Consistent>
1

> <s_lp_Variant>
AV-unprocessed.smi:1225-2

> <Gold.Version>
5.8.1

> <Gold.Id.Protein>
6NUR|6NUR_protein|mol2

> <Gold.PLP.Fitness>
52.5501

> <Gold.PLP.PLP>
-42.6440

> <Gold.PLP.part.hbond>
-3.1198

> <Gold.PLP.part.metal>
0.0000

> <Gold.PLP.part.buried>
-2.1001

> <Gold.PLP.part.nonpolar>
-35.8903

> <Gold.PLP.part.repulsive>
0.3264

> <Gold.PLP.ligand.clash>
0.0000

> <Gold.PLP.ligand.torsion>
2.2932

> <Gold.PLP.Chemscore.Hbond>
2.7520

> <Gold.PLP.Chemscore.CHOScore>
2.0000

> <Gold.PLP.Chemscore.Metal>
0.0000

> <Gold.Chemscore.Hbonds>
donor molecule, donor type, donor heavy atom, donor atom, acceptor molecule, acceptor atom, score
      L1  H    11    37       P1  7957  0.45
      P1  H  7989  7998       L1    11  0.30
      P1  H  7997  8008       L1    15  1.00
      P1  H  8011  8017       L1    11  1.00
      L1  C     4    28       P1 10171  1.00
      L1  C     4    28       P1 10175  1.00

> <Gold.PLP.Chemscore.Internal.Correction>
0.2366

> <Gold.Rescore>
     Score         DG    S(hbond)    S(metal)    S(lipo)     H(rot)  DE(clash)    DE(int)     intcor
     18.54     -20.91       2.12        0.00     121.16       2.28       0.25       2.12       ----

> <Gold.Chemscore.Fitness>
18.5364

> <Gold.Chemscore.DG>
-20.9050

> <Gold.Chemscore.ZeroCoef>
-5.4800

> <Gold.Chemscore.Hbond>
2.1249

> <Gold.Chemscore.Metal>
0.0000

> <Gold.Chemscore.Lipo>
121.1628

> <Gold.Chemscore.Internal_Hbond>
0.0000

> <Gold.Chemscore.DEClash>
0.2457

> <Gold.Chemscore.DEInternal>
2.1229

> <Gold.Chemscore.Rot>
2.2844

> <Gold.Chemscore.Internal.Correction>
   9.000000E+99

> <Gold.Chemscore.Hbonds>
donor molecule, donor type, donor heavy atom, donor atom, acceptor molecule, acceptor atom, score
      L1  H    11    37       P1  7957  0.46
      P1  H  7989  7998       L1    11  0.11
      P1  H  7997  8008       L1    15  0.24
      P1  H  8011  8017       L1    11  0.59

> <Gold.Chemscore.Hbond.Weighted>
-7.0970

> <Gold.Chemscore.Metal.Weighted>
-0.0000

> <Gold.Chemscore.Lipo.Weighted>
-14.1760

> <Gold.Chemscore.Internal_Hbond.Weighted>
0.0000

> <Gold.Chemscore.DEClash.Weighted>
0.2457

> <Gold.Chemscore.DEInternal.Weighted>
2.1229

> <Gold.Chemscore.Rot.Weighted>
5.8480

> <Gold.Chemscore.Internal.Correction.Weighted>
   9.000000E+99

> <Gold.Protein.RotatedTorsions>
[ 6907 6896 6895 6894 ] final   29.37 input  -60.11 | X-H torsion
[ 7974 7965 7964 7962 ] final  179.43 input  175.53 | X-H torsion
[ 8008 7997 7996 7995 ] final  -60.02 input   59.86 | X-H torsion
[ 10167 10162 10161 10158 ] final   -0.52 input  -65.29 | X-H torsion
[ 10718 10713 10712 10709 ] final  -39.95 input   66.30 | X-H torsion
[ 10763 10752 10751 10750 ] final  140.36 input  -60.55 | X-H torsion
[ 11005 11000 10999 10996 ] final  -36.72 input  -57.11 | X-H torsion

> <Gold.Protein.ActiveResidues>
 VAL166  LYS551  ARG553  GLY616  TRP617  ASP618  TYR619  PRO620  LYS621  CYS622 
 ASP623  PHE694  ASN695  SER759  ASP760  ASP761  ALA762  ILE779  LEU786  VAL792 
 PHE793  MET794  SER795  GLU796  ALA797  LYS798  CYS799  TRP800  GLU811  SER814 

> <Gold.Protein.RotatedAtoms>
  152.0305  134.9770  160.0572 H   0  0  0  0  0  0  0  0  0  0  0  0  # atno 6907 bound_to 6896
  152.1249  133.4369  159.4701 H   0  0  0  0  0  0  0  0  0  0  0  0  # atno 6908 bound_to 6896
  150.6852  134.2409  159.4515 H   0  0  0  0  0  0  0  0  0  0  0  0  # atno 6909 bound_to 6896
  144.7146  140.0547  143.6434 H   0  0  0  0  0  0  0  0  0  0  0  0  # atno 7974 bound_to 7965
  154.4379  140.1049  156.6208 H   0  0  0  0  0  0  0  0  0  0  0  0  # atno 8008 bound_to 7997
  155.5709  140.3489  155.4496 H   0  0  0  0  0  0  0  0  0  0  0  0  # atno 8009 bound_to 7997
  156.0390  140.1277  157.0166 H   0  0  0  0  0  0  0  0  0  0  0  0  # atno 8010 bound_to 7997
  140.6771  143.6885  150.8047 H   0  0  0  0  0  0  0  0  0  0  0  0  # atno 10167 bound_to 10162
  156.2868  130.4223  149.8280 H   0  0  0  0  0  0  0  0  0  0  0  0  # atno 10718 bound_to 10713
  153.9214  135.3000  155.3447 H   0  0  0  0  0  0  0  0  0  0  0  0  # atno 10763 bound_to 10752
  154.7573  135.4951  153.9402 H   0  0  0  0  0  0  0  0  0  0  0  0  # atno 10764 bound_to 10752
  153.1139  135.6766  153.9554 H   0  0  0  0  0  0  0  0  0  0  0  0  # atno 10765 bound_to 10752
  140.9897  133.7011  156.1828 H   0  0  0  0  0  0  0  0  0  0  0  0  # atno 11005 bound_to 11000
  145.9914  139.3018  143.0982 LP  0  0  0  0  0  0  0  0  0  0  0  0  # atno 17320 bound_to 7965
  145.8898  140.9311  143.0558 LP  0  0  0  0  0  0  0  0  0  0  0  0  # atno 17321 bound_to 7965
  140.0580  143.5183  152.2642 LP  0  0  0  0  0  0  0  0  0  0  0  0  # atno 17342 bound_to 10162
  139.6069  144.7598  151.3040 LP  0  0  0  0  0  0  0  0  0  0  0  0  # atno 17343 bound_to 10162
  156.5707  130.8423  151.3356 LP  0  0  0  0  0  0  0  0  0  0  0  0  # atno 17370 bound_to 10713
  157.7331  130.9725  150.1959 LP  0  0  0  0  0  0  0  0  0  0  0  0  # atno 17371 bound_to 10713
  140.7059  134.4513  157.5584 LP  0  0  0  0  0  0  0  0  0  0  0  0  # atno 17394 bound_to 11000
  139.8986  134.8609  156.1993 LP  0  0  0  0  0  0  0  0  0  0  0  0  # atno 17395 bound_to 11000

$$$$
