#       Name:                AV-unprocessed.smi:36
#       Creating user name   scv26
#       Creation time:       Thu Mar 26 16:09:01 2020


#       File generated by GOLD software.
#

@<TRIPOS>MOLECULE
AV-unprocessed.smi:36
    73    76     1
SMALL
NO_CHARGES


@<TRIPOS>ATOM
      1 ****        -3.5261   2.4282   3.1113 C.3            1 S1                 0.0000
      2 ****        -2.9560   3.0109   1.8075 C.3            1 S1                 0.0000
      3 ****        -2.7369   1.8801   0.7880 C.3            1 S1                 0.0000
      4 ****        -3.9270   4.0550   1.2320 C.3            1 S1                 0.0000
      5 ****        -1.2762   3.8422   2.1758 Si             1 S1                 0.0000
      6 ****        -0.5097   4.5559   0.5877 C.3            1 S1                 0.0000
      7 ****        -1.4591   5.2207   3.4702 C.3            1 S1                 0.0000
      8 ****        -0.2447   2.6610   2.8153 O.3            1 S1                 0.0000
      9 ****         1.1625   2.7788   2.8655 C.3            1 S1                 0.0000
     10 ****         1.7732   2.0301   1.6732 C.3            1 S1                 0.0000
     11 ****         1.7225   0.6266   1.9106 O.3            1 S1                 0.0000
     12 ****         2.7872  -0.0091   1.2676 C.3            1 S1                 0.0000
     13 ****         2.2288  -0.8978   0.2050 N.pl3          1 S1                 0.0000
     14 ****         1.2147  -0.6551  -0.6509 C.2            1 S1                 0.0000
     15 ****         0.8955  -1.6199  -1.5119 N.2            1 S1                 0.0000
     16 ****         1.8070  -2.6103  -1.1745 C.ar           1 S1                 0.0000
     17 ****         2.0326  -3.9205  -1.6804 C.ar           1 S1                 0.0000
     18 ****         1.3142  -4.4486  -2.6834 N.pl3          1 S1                -1.0000
     19 ****         0.1161  -5.0313  -2.4244 C.2            1 S1                 0.0000
     20 ****        -0.4364  -5.1709  -1.3312 O.2            1 S1                 0.0000
     21 ****        -0.5374  -5.6190  -3.6470 C.ar           1 S1                 0.0000
     22 ****        -1.2684  -6.8242  -3.5387 C.ar           1 S1                 0.0000
     23 ****        -1.9069  -7.3791  -4.6649 C.ar           1 S1                 0.0000
     24 ****        -1.8290  -6.7296  -5.9108 C.ar           1 S1                 0.0000
     25 ****        -1.1160  -5.5220  -6.0284 C.ar           1 S1                 0.0000
     26 ****        -0.4777  -4.9661  -4.9025 C.ar           1 S1                 0.0000
     27 ****         3.0395  -4.6333  -1.1132 N.ar           1 S1                 0.0000
     28 ****         3.7615  -4.1089  -0.1157 C.ar           1 S1                 0.0000
     29 ****         3.6541  -2.9065   0.4585 N.ar           1 S1                 0.0000
     30 ****         2.6492  -2.1779  -0.1091 C.ar           1 S1                 0.0000
     31 ****         3.6650   1.0823   0.6477 C.3            1 S1                 0.0000
     32 ****         3.2649   2.2923   1.4669 C.3            1 S1                 0.0000
     33 ****         3.5086   3.4903   0.7579 O.3            1 S1                 0.0000
     34 ****        -4.4814   1.9311   2.9392 H              1 S1                 0.0000
     35 ****        -3.6917   3.2062   3.8567 H              1 S1                 0.0000
     36 ****        -2.8473   1.6945   3.5469 H              1 S1                 0.0000
     37 ****        -2.0299   1.1396   1.1640 H              1 S1                 0.0000
     38 ****        -2.3411   2.2623  -0.1530 H              1 S1                 0.0000
     39 ****        -3.6692   1.3609   0.5640 H              1 S1                 0.0000
     40 ****        -4.8969   3.6111   1.0056 H              1 S1                 0.0000
     41 ****        -3.5421   4.4903   0.3094 H              1 S1                 0.0000
     42 ****        -4.0953   4.8707   1.9355 H              1 S1                 0.0000
     43 ****        -1.1304   5.3464   0.1664 H              1 S1                 0.0000
     44 ****        -0.3921   3.7937  -0.1820 H              1 S1                 0.0000
     45 ****         0.4751   4.9838   0.7733 H              1 S1                 0.0000
     46 ****        -2.1281   6.0087   3.1255 H              1 S1                 0.0000
     47 ****        -0.4996   5.6853   3.6962 H              1 S1                 0.0000
     48 ****        -1.8620   4.8385   4.4078 H              1 S1                 0.0000
     49 ****         1.4362   3.8340   2.8346 H              1 S1                 0.0000
     50 ****         1.5336   2.3801   3.8097 H              1 S1                 0.0000
     51 ****         1.2304   2.2479   0.7523 H              1 S1                 0.0000
     52 ****         3.3145  -0.6635   1.9624 H              1 S1                 0.0000
     53 ****         0.6787   0.2824  -0.6413 H              1 S1                 0.0000
     54 ****        -1.3391  -7.3351  -2.5894 H              1 S1                 0.0000
     55 ****        -2.4576  -8.3032  -4.5712 H              1 S1                 0.0000
     56 ****        -2.3188  -7.1549  -6.7741 H              1 S1                 0.0000
     57 ****        -1.0608  -5.0186  -6.9821 H              1 S1                 0.0000
     58 ****         0.0553  -4.0327  -5.0127 H              1 S1                 0.0000
     59 ****         4.5388  -4.7457   0.2797 H              1 S1                 0.0000
     60 ****         4.7229   0.8291   0.7212 H              1 S1                 0.0000
     61 ****         3.4034   1.2194  -0.4034 H              1 S1                 0.0000
     62 ****         3.7952   2.2982   2.4203 H              1 S1                 0.0000
     63 ****         3.2120   4.2177   1.2836 H              1 S1                 0.0000
     64 ****         0.8596   0.2629   1.5595 LP             1 S1                 0.0000
     65 ****         1.7806   0.4554   2.8941 LP             1 S1                 0.0000
     66 ****         0.1856  -1.6284  -2.2162 LP             1 S1                 0.0000
     67 ****         1.6612  -4.4129  -3.6205 LP             1 S1                 0.0000
     68 ****         0.0060  -4.8329  -0.5005 LP             1 S1                 0.0000
     69 ****        -1.3271  -5.6222  -1.2751 LP             1 S1                 0.0000
     70 ****         3.2427  -5.5554  -1.4426 LP             1 S1                 0.0000
     71 ****         4.2341  -2.5832   1.2062 LP             1 S1                 0.0000
     72 ****         3.0103   3.4759  -0.1090 LP             1 S1                 0.0000
     73 ****         4.4880   3.5819   0.5780 LP             1 S1                 0.0000
@<TRIPOS>BOND
    1    1    2 1     
    2    1   34 1     
    3    1   35 1     
    4    1   36 1     
    5    2    3 1     
    6    2    4 1     
    7    2    5 1     
    8    3   37 1     
    9    3   38 1     
   10    3   39 1     
   11    4   40 1     
   12    4   41 1     
   13    4   42 1     
   14    5    6 1     
   15    5    7 1     
   16    5    8 1     
   17    6   43 1     
   18    6   44 1     
   19    6   45 1     
   20    7   46 1     
   21    7   47 1     
   22    7   48 1     
   23    8    9 1     
   24    9   10 1     
   25    9   49 1     
   26    9   50 1     
   27   10   32 1     
   28   10   11 1     
   29   10   51 1     
   30   11   12 1     
   31   12   13 1     
   32   12   31 1     
   33   12   52 1     
   34   13   30 1     
   35   13   14 1     
   36   14   15 2     
   37   14   53 1     
   38   15   16 1     
   39   16   30 ar    
   40   16   17 ar    
   41   17   18 1     
   42   17   27 ar    
   43   18   19 1     
   44   19   20 2     
   45   19   21 1     
   46   21   26 ar    
   47   21   22 ar    
   48   22   23 ar    
   49   22   54 1     
   50   23   24 ar    
   51   23   55 1     
   52   24   25 ar    
   53   24   56 1     
   54   25   26 ar    
   55   25   57 1     
   56   26   58 1     
   57   27   28 ar    
   58   28   29 ar    
   59   28   59 1     
   60   29   30 ar    
   61   31   32 1     
   62   31   60 1     
   63   31   61 1     
   64   32   33 1     
   65   32   62 1     
   66   33   63 1     
   67   11   64 1     
   68   11   65 1     
   69   15   66 1     
   70   18   67 1     
   71   20   68 1     
   72   20   69 1     
   73   27   70 1     
   74   29   71 1     
   75   33   72 1     
   76   33   73 1     
@<TRIPOS>SUBSTRUCTURE
      1 S1             1
@<TRIPOS>SET
LONE_PAIRS      STATIC     ATOMS    <user>   **** ""
10 64 65 66 67 68 69 70 71 72 73
DONOR_HYDROGENS      STATIC     ATOMS    <user>   **** ""
1 63
ATOM$BLUE        STATIC     ATOMS    COLORGROUP SYSTEM
10 64 65 66 67 68 69 70 71 72 73
ATOM$RED        STATIC     ATOMS    COLORGROUP SYSTEM
1 63
