#       Name:                AV-unprocessed.smi:714
#       Creating user name   scv26
#       Creation time:       Fri Mar 27 00:47:29 2020


#       File generated by GOLD software.
#

@<TRIPOS>MOLECULE
AV-unprocessed.smi:714
    44    45     1
SMALL
NO_CHARGES


@<TRIPOS>ATOM
      1 ****        -6.4318  -1.8170  -3.1154 C.1            1 S1                 0.0000
      2 ****        -5.9829  -2.0790  -2.0104 C.1            1 S1                 0.0000
      3 ****        -5.4230  -2.3902  -0.6844 C.3            1 S1                 0.0000
      4 ****        -3.9878  -2.1407  -0.6116 N.am           1 S1                 0.0000
      5 ****        -3.4085  -0.9768  -0.2658 C.2            1 S1                 0.0000
      6 ****        -4.0737   0.0107   0.0514 O.2            1 S1                 0.0000
      7 ****        -1.9444  -1.0106  -0.3135 C.2            1 S1                 0.0000
      8 ****        -1.1914  -2.1791  -0.7385 C.2            1 S1                 0.0000
      9 ****         0.1531  -2.1432  -0.7893 C.2            1 S1                 0.0000
     10 ****         0.9109  -0.9446  -0.4208 C.2            1 S1                 0.0000
     11 ****         2.1396  -0.9178  -0.4984 O.2            1 S1                 0.0000
     12 ****         0.1695   0.1320   0.0045 N.am           1 S1                 0.0000
     13 ****         0.7777   1.4176   0.4333 C.3            1 S1                 0.0000
     14 ****         1.5282   2.1406  -0.7036 C.3            1 S1                 0.0000
     15 ****         2.8894   2.5489  -0.1203 C.3            1 S1                 0.0000
     16 ****         2.9643   1.9118   1.1845 N.am           1 S1                 0.0000
     17 ****         4.1866   1.9942   1.9813 C.3            1 S1                 0.0000
     18 ****         5.0389   0.7151   1.8849 C.3            1 S1                 0.0000
     19 ****         6.1567   0.8866   2.5894 F              1 S1                 0.0000
     20 ****         4.3886  -0.3393   2.3764 F              1 S1                 0.0000
     21 ****         5.3697   0.4729   0.6164 F              1 S1                 0.0000
     22 ****         1.8316   1.2917   1.5327 C.2            1 S1                 0.0000
     23 ****         1.6244   0.7009   2.5921 O.2            1 S1                 0.0000
     24 ****        -1.2410   0.0841   0.0365 C.2            1 S1                 0.0000
     25 ****        -6.8195  -1.5875  -4.0826 H              1 S1                 0.0000
     26 ****        -5.9675  -1.8198   0.0697 H              1 S1                 0.0000
     27 ****        -5.6067  -3.4453  -0.4824 H              1 S1                 0.0000
     28 ****        -3.3824  -2.9105  -0.8564 H              1 S1                 0.0000
     29 ****        -1.6864  -3.0959  -1.0234 H              1 S1                 0.0000
     30 ****         0.6910  -3.0232  -1.1104 H              1 S1                 0.0000
     31 ****         0.0253   2.0982   0.8340 H              1 S1                 0.0000
     32 ****         1.6748   1.5037  -1.5764 H              1 S1                 0.0000
     33 ****         0.9707   3.0128  -1.0469 H              1 S1                 0.0000
     34 ****         3.7107   2.2226  -0.7594 H              1 S1                 0.0000
     35 ****         2.9570   3.6313  -0.0044 H              1 S1                 0.0000
     36 ****         4.7724   2.8500   1.6433 H              1 S1                 0.0000
     37 ****         3.9300   2.1950   3.0226 H              1 S1                 0.0000
     38 ****        -1.7157   0.9996   0.3600 H              1 S1                 0.0000
     39 ****        -5.0724  -0.0398   0.0565 LP             1 S1                 0.0000
     40 ****        -3.6148   0.8626   0.3038 LP             1 S1                 0.0000
     41 ****         2.6382  -1.7238  -0.8176 LP             1 S1                 0.0000
     42 ****         2.6389  -0.0901  -0.2422 LP             1 S1                 0.0000
     43 ****         0.7349   0.2771   2.7626 LP             1 S1                 0.0000
     44 ****         2.3456   0.6446   3.2826 LP             1 S1                 0.0000
@<TRIPOS>BOND
    1    1    2 3     
    2    1   25 1     
    3    2    3 1     
    4    3    4 1     
    5    3   26 1     
    6    3   27 1     
    7    4    5 am    
    8    4   28 1     
    9    5    6 2     
   10    5    7 1     
   11    7   24 2     
   12    7    8 1     
   13    8    9 2     
   14    8   29 1     
   15    9   10 1     
   16    9   30 1     
   17   10   11 2     
   18   10   12 am    
   19   12   13 1     
   20   12   24 1     
   21   13   22 1     
   22   13   14 1     
   23   13   31 1     
   24   14   15 1     
   25   14   32 1     
   26   14   33 1     
   27   15   16 1     
   28   15   34 1     
   29   15   35 1     
   30   16   17 1     
   31   16   22 am    
   32   17   18 1     
   33   17   36 1     
   34   17   37 1     
   35   18   19 1     
   36   18   20 1     
   37   18   21 1     
   38   22   23 2     
   39   24   38 1     
   40    6   39 1     
   41    6   40 1     
   42   11   41 1     
   43   11   42 1     
   44   23   43 1     
   45   23   44 1     
@<TRIPOS>SUBSTRUCTURE
      1 S1             1
@<TRIPOS>SET
LONE_PAIRS      STATIC     ATOMS    <user>   **** ""
6 39 40 41 42 43 44
DONOR_HYDROGENS      STATIC     ATOMS    <user>   **** ""
1 28
ATOM$BLUE        STATIC     ATOMS    COLORGROUP SYSTEM
6 39 40 41 42 43 44
ATOM$RED        STATIC     ATOMS    COLORGROUP SYSTEM
1 28
