AV-unprocessed.smi:234|AV-procd|sdf|1793|dock10
  -GOLD-   2262020353D 1   1.00000     0.00000
 Structure written by MMmdl.
 59 62  0  0  0  0  0  0  0  0  1 V2000
  152.6947  144.2227  157.8398 C   0  0  0  0  0  0  0  0  0  0  0  0
  151.6347  143.7950  158.8569 C   0  0  0  0  0  0  0  0  0  0  0  0
  151.5068  142.3830  158.8196 O   0  0  0  0  0  0  0  0  0  0  0  0
  151.1085  141.8927  157.5449 C   0  0  2  0  0  0  0  0  0  0  0  0
  149.5858  141.7871  157.4174 C   0  0  0  0  0  0  0  0  0  0  0  0
  149.7281  140.3720  157.9957 C   0  0  1  0  0  0  0  0  0  0  0  0
  148.8263  139.3823  157.3961 N   0  0  0  0  0  0  0  0  0  0  0  0
  148.4019  139.5945  156.0162 C   0  0  0  0  0  0  0  0  0  0  0  0
  149.0439  138.0713  157.6693 C   0  0  0  0  0  0  0  0  0  0  0  0
  149.8903  137.3414  156.8944 N   0  0  0  0  0  0  0  0  0  0  0  0
  150.0955  136.0476  157.1569 C   0  0  0  0  0  0  0  0  0  0  0  0
  149.5662  135.2984  158.1260 N   0  0  0  0  0  0  0  0  0  0  0  0
  148.7141  136.0252  158.9042 C   0  0  0  0  0  0  0  0  0  0  0  0
  148.3931  137.4022  158.7420 C   0  0  0  0  0  0  0  0  0  0  0  0
  147.4867  137.7971  159.7182 N   0  0  0  0  0  0  0  0  0  0  0  0
  147.2856  136.7152  160.4200 C   0  0  0  0  0  0  0  0  0  0  0  0
  147.9927  135.6073  160.0091 N   0  0  0  0  0  0  0  0  0  0  0  0
  147.9696  134.2854  160.6167 C   0  0  0  0  0  0  0  0  0  0  0  0
  146.5796  133.8835  161.1693 C   0  0  1  0  0  0  0  0  0  0  0  0
  146.5891  132.4891  161.4268 O   0  0  0  0  0  0  0  0  0  0  0  0
  146.2476  134.6071  162.4790 C   0  0  0  0  0  0  0  0  0  0  0  0
  145.1014  135.5412  162.1083 C   0  0  0  0  0  0  0  0  0  0  0  0
  144.4177  134.8180  161.1007 O   0  0  0  0  0  0  0  0  0  0  0  0
  145.4064  134.2800  160.2350 C   0  0  2  0  0  0  0  0  0  0  0  0
  144.8080  133.1746  159.3492 C   0  0  0  0  0  0  0  0  0  0  0  0
  151.1829  140.3472  157.4479 C   0  0  0  0  0  0  0  0  0  0  0  0
  151.3992  139.8215  156.0190 C   0  0  0  0  0  0  0  0  0  0  0  0
  152.2389  139.6723  158.3279 C   0  0  0  0  0  0  0  0  0  0  0  0
  152.8181  145.3058  157.8381 H   0  0  0  0  0  0  0  0  0  0  0  0
  152.4150  143.9158  156.8317 H   0  0  0  0  0  0  0  0  0  0  0  0
  153.6617  143.7753  158.0712 H   0  0  0  0  0  0  0  0  0  0  0  0
  151.9230  144.1287  159.8543 H   0  0  0  0  0  0  0  0  0  0  0  0
  150.6793  144.2637  158.6166 H   0  0  0  0  0  0  0  0  0  0  0  0
  151.5980  142.4040  156.7140 H   0  0  0  0  0  0  0  0  0  0  0  0
  149.0145  142.4744  158.0416 H   0  0  0  0  0  0  0  0  0  0  0  0
  149.2436  141.8095  156.3814 H   0  0  0  0  0  0  0  0  0  0  0  0
  149.7038  140.3798  159.0871 H   0  0  0  0  0  0  0  0  0  0  0  0
  148.7311  138.7878  155.3591 H   0  0  0  0  0  0  0  0  0  0  0  0
  148.8071  140.5236  155.6170 H   0  0  0  0  0  0  0  0  0  0  0  0
  147.3145  139.6524  155.9659 H   0  0  0  0  0  0  0  0  0  0  0  0
  150.7825  135.5403  156.4957 H   0  0  0  0  0  0  0  0  0  0  0  0
  146.6190  136.6972  161.2703 H   0  0  0  0  0  0  0  0  0  0  0  0
  148.3053  133.5626  159.8718 H   0  0  0  0  0  0  0  0  0  0  0  0
  148.7112  134.2636  161.4164 H   0  0  0  0  0  0  0  0  0  0  0  0
  147.0930  132.3355  162.2115 H   0  0  0  0  0  0  0  0  0  0  0  0
  145.8990  133.9054  163.2389 H   0  0  0  0  0  0  0  0  0  0  0  0
  147.0942  135.1477  162.9037 H   0  0  0  0  0  0  0  0  0  0  0  0
  144.4519  135.7690  162.9539 H   0  0  0  0  0  0  0  0  0  0  0  0
  145.4778  136.4798  161.6979 H   0  0  0  0  0  0  0  0  0  0  0  0
  145.7210  135.1035  159.5930 H   0  0  0  0  0  0  0  0  0  0  0  0
  145.5643  132.7380  158.6966 H   0  0  0  0  0  0  0  0  0  0  0  0
  144.0186  133.5768  158.7141 H   0  0  0  0  0  0  0  0  0  0  0  0
  144.3715  132.3727  159.9451 H   0  0  0  0  0  0  0  0  0  0  0  0
  151.3433  138.7338  155.9738 H   0  0  0  0  0  0  0  0  0  0  0  0
  152.3779  140.1114  155.6353 H   0  0  0  0  0  0  0  0  0  0  0  0
  150.6563  140.2087  155.3215 H   0  0  0  0  0  0  0  0  0  0  0  0
  152.2118  138.5865  158.2348 H   0  0  0  0  0  0  0  0  0  0  0  0
  152.0929  139.9042  159.3832 H   0  0  0  0  0  0  0  0  0  0  0  0
  153.2444  139.9987  158.0611 H   0  0  0  0  0  0  0  0  0  0  0  0
  1  2  1  0  0  0  0
  1 29  1  0  0  0  0
  1 30  1  0  0  0  0
  1 31  1  0  0  0  0
  2  3  1  0  0  0  0
  2 32  1  0  0  0  0
  2 33  1  0  0  0  0
  3  4  1  0  0  0  0
  4 26  1  0  0  0  0
  4  5  1  0  0  0  0
  4 34  1  0  0  0  0
  5  6  1  0  0  0  0
  5 35  1  0  0  0  0
  5 36  1  0  0  0  0
  6  7  1  0  0  0  0
  6 26  1  0  0  0  0
  6 37  1  0  0  0  0
  7  8  1  0  0  0  0
  7  9  1  0  0  0  0
  8 38  1  0  0  0  0
  8 39  1  0  0  0  0
  8 40  1  0  0  0  0
  9 14  1  0  0  0  0
  9 10  2  0  0  0  0
 10 11  1  0  0  0  0
 11 12  2  0  0  0  0
 11 41  1  0  0  0  0
 12 13  1  0  0  0  0
 13 17  1  0  0  0  0
 13 14  2  0  0  0  0
 14 15  1  0  0  0  0
 15 16  2  0  0  0  0
 16 17  1  0  0  0  0
 16 42  1  0  0  0  0
 17 18  1  0  0  0  0
 18 19  1  0  0  0  0
 18 43  1  0  0  0  0
 18 44  1  0  0  0  0
 19 24  1  0  0  0  0
 19 20  1  0  0  0  0
 19 21  1  0  0  0  0
 20 45  1  0  0  0  0
 21 22  1  0  0  0  0
 21 46  1  0  0  0  0
 21 47  1  0  0  0  0
 22 23  1  0  0  0  0
 22 48  1  0  0  0  0
 22 49  1  0  0  0  0
 23 24  1  0  0  0  0
 24 25  1  0  0  0  0
 24 50  1  0  0  0  0
 25 51  1  0  0  0  0
 25 52  1  0  0  0  0
 25 53  1  0  0  0  0
 26 27  1  0  0  0  0
 26 28  1  0  0  0  0
 27 54  1  0  0  0  0
 27 55  1  0  0  0  0
 27 56  1  0  0  0  0
 28 57  1  0  0  0  0
 28 58  1  0  0  0  0
 28 59  1  0  0  0  0
M  END
> <s_m_source_file>
AV-unprocessed.smi

> <i_m_source_file_index>
234

> <i_lp_mmshare_version>
43012

> <i_f3d_flags>
0

> <s_epik_input>
W0NIM11bQ0gyXU9bQ0BASF0oQzEoW0NIM10pW0NIM10pW0NIMl1bQ0BIXTFOKFtDSDNdKWMobltjSF1uMiljKGMyMyluW2NIXW4zW0NIMl1bQ0BAXTQoW09IXSlbQ0gyXVtDSDJdT1tDQEhdNFtDSDNd

> <s_epik_cmdline>
J2VwaWtfcHl0aG9uJywgJy1waCcsICc3LjAnLCAnLXRuJywgJzgnLCAnLW1hJywgJzIwMCcsICctbWV0YWxfYmluZGluZycsICctaW1hZScsICc8aW5maWxlLm1hZT4nLCAnLW9tYWUnLCAnPG91dGZpbGUubWFlPic=

> <r_lp_tautomer_probability>
1

> <r_epik_Ionization_Penalty>
0.00349132

> <r_epik_Ionization_Penalty_Charging>
0

> <r_epik_Ionization_Penalty_Neutral>
0.00349132

> <r_epik_State_Penalty>
0.00242418

> <r_epik_Charging_Adjusted_Penalty>
0.00242418

> <i_epik_Tot_Q>
0

> <i_epik_Tot_abs_Q>
0

> <r_epik_Metal_State_Penalty>
-0

> <b_epik_Metal_Only>
0

> <s_lp_Force_Field>
OPLS_2005

> <r_lp_Energy>
48.0221

> <b_lp_Chiralities_Consistent>
1

> <s_lp_Variant>
AV-unprocessed.smi:234-9

> <Gold.Version>
5.8.1

> <Gold.Id.Protein>
6NUR|6NUR_protein|mol2

> <Gold.PLP.Fitness>
39.0323

> <Gold.PLP.PLP>
-35.8368

> <Gold.PLP.part.hbond>
-2.1701

> <Gold.PLP.part.metal>
0.0000

> <Gold.PLP.part.buried>
-5.7836

> <Gold.PLP.part.nonpolar>
-28.7366

> <Gold.PLP.part.repulsive>
0.0144

> <Gold.PLP.ligand.clash>
0.0037

> <Gold.PLP.ligand.torsion>
1.4288

> <Gold.PLP.Chemscore.Hbond>
1.6160

> <Gold.PLP.Chemscore.CHOScore>
0.0000

> <Gold.PLP.Chemscore.Metal>
0.0000

> <Gold.Chemscore.Hbonds>
donor molecule, donor type, donor heavy atom, donor atom, acceptor molecule, acceptor atom, score
      P1  H  6896  6907       L1    12  0.91
      P1  H  6934  6947       L1    15  0.70

> <Gold.PLP.Chemscore.Internal.Correction>
1.2089

> <Gold.Rescore>
     Score         DG    S(hbond)    S(metal)    S(lipo)     H(rot)  DE(clash)    DE(int)     intcor
     10.62     -14.38       1.75        0.00      83.53       2.62       0.02       3.74       ----

> <Gold.Chemscore.Fitness>
10.6209

> <Gold.Chemscore.DG>
-14.3771

> <Gold.Chemscore.ZeroCoef>
-5.4800

> <Gold.Chemscore.Hbond>
1.7474

> <Gold.Chemscore.Metal>
0.0000

> <Gold.Chemscore.Lipo>
83.5300

> <Gold.Chemscore.Internal_Hbond>
0.0000

> <Gold.Chemscore.DEClash>
0.0186

> <Gold.Chemscore.DEInternal>
3.7376

> <Gold.Chemscore.Rot>
2.6219

> <Gold.Chemscore.Internal.Correction>
   9.000000E+99

> <Gold.Chemscore.Hbonds>
donor molecule, donor type, donor heavy atom, donor atom, acceptor molecule, acceptor atom, score
      P1  H  6896  6907       L1    12  0.52
      P1  H  6934  6947       L1    15  0.24

> <Gold.Chemscore.Hbond.Weighted>
-5.8362

> <Gold.Chemscore.Metal.Weighted>
-0.0000

> <Gold.Chemscore.Lipo.Weighted>
-9.7730

> <Gold.Chemscore.Internal_Hbond.Weighted>
0.0000

> <Gold.Chemscore.DEClash.Weighted>
0.0186

> <Gold.Chemscore.DEInternal.Weighted>
3.7376

> <Gold.Chemscore.Rot.Weighted>
6.7121

> <Gold.Chemscore.Internal.Correction.Weighted>
   9.000000E+99

> <Gold.Protein.RotatedTorsions>
[ 6907 6896 6895 6894 ] final  -96.85 input  -60.11 | X-H torsion
[ 7974 7965 7964 7962 ] final   76.63 input  175.53 | X-H torsion
[ 8008 7997 7996 7995 ] final  150.63 input   59.86 | X-H torsion
[ 10167 10162 10161 10158 ] final   50.63 input  -65.29 | X-H torsion
[ 10718 10713 10712 10709 ] final  -10.03 input   66.30 | X-H torsion
[ 10763 10752 10751 10750 ] final  172.91 input  -60.55 | X-H torsion
[ 11005 11000 10999 10996 ] final  119.89 input  -57.11 | X-H torsion

> <Gold.Protein.ActiveResidues>
 VAL166  LYS551  ARG553  GLY616  TRP617  ASP618  TYR619  PRO620  LYS621  CYS622 
 ASP623  PHE694  ASN695  SER759  ASP760  ASP761  ALA762  ILE779  LEU786  VAL792 
 PHE793  MET794  SER795  GLU796  ALA797  LYS798  CYS799  TRP800  GLU811  SER814 

> <Gold.Protein.RotatedAtoms>
  150.7000  134.1440  159.4115 H   0  0  0  0  0  0  0  0  0  0  0  0  # atno 6907 bound_to 6896
  151.9424  135.0205  160.0546 H   0  0  0  0  0  0  0  0  0  0  0  0  # atno 6908 bound_to 6896
  152.2082  133.4856  159.5132 H   0  0  0  0  0  0  0  0  0  0  0  0  # atno 6909 bound_to 6896
  145.7003  139.2580  143.1709 H   0  0  0  0  0  0  0  0  0  0  0  0  # atno 7974 bound_to 7965
  156.2708  140.2069  156.6048 H   0  0  0  0  0  0  0  0  0  0  0  0  # atno 8008 bound_to 7997
  154.6878  140.0533  157.0356 H   0  0  0  0  0  0  0  0  0  0  0  0  # atno 8009 bound_to 7997
  155.0909  140.3196  155.4577 H   0  0  0  0  0  0  0  0  0  0  0  0  # atno 8010 bound_to 7997
  140.2705  144.3271  150.6291 H   0  0  0  0  0  0  0  0  0  0  0  0  # atno 10167 bound_to 10162
  156.6794  130.5032  149.5976 H   0  0  0  0  0  0  0  0  0  0  0  0  # atno 10718 bound_to 10713
  154.4326  135.2760  155.1902 H   0  0  0  0  0  0  0  0  0  0  0  0  # atno 10763 bound_to 10752
  154.3801  135.6089  153.5790 H   0  0  0  0  0  0  0  0  0  0  0  0  # atno 10764 bound_to 10752
  152.9837  135.5878  154.4640 H   0  0  0  0  0  0  0  0  0  0  0  0  # atno 10765 bound_to 10752
  139.9164  134.9631  156.7724 H   0  0  0  0  0  0  0  0  0  0  0  0  # atno 11005 bound_to 11000
  146.0803  140.7771  142.9644 LP  0  0  0  0  0  0  0  0  0  0  0  0  # atno 17320 bound_to 7965
  144.6970  140.3479  143.7187 LP  0  0  0  0  0  0  0  0  0  0  0  0  # atno 17321 bound_to 7965
  140.5894  143.2168  151.7282 LP  0  0  0  0  0  0  0  0  0  0  0  0  # atno 17342 bound_to 10162
  139.4990  144.3962  152.0228 LP  0  0  0  0  0  0  0  0  0  0  0  0  # atno 17343 bound_to 10162
  156.1879  130.6541  151.1027 LP  0  0  0  0  0  0  0  0  0  0  0  0  # atno 17370 bound_to 10713
  157.7049  131.0760  150.6700 LP  0  0  0  0  0  0  0  0  0  0  0  0  # atno 17371 bound_to 10713
  140.6610  133.9645  155.7805 LP  0  0  0  0  0  0  0  0  0  0  0  0  # atno 17394 bound_to 11000
  141.0643  134.0299  157.3615 LP  0  0  0  0  0  0  0  0  0  0  0  0  # atno 17395 bound_to 11000

$$$$
