#       Name:                AV-unprocessed.smi:3189
#       Creating user name   scv26
#       Creation time:       Fri Mar 27 18:03:15 2020


#       File generated by GOLD software.
#

@<TRIPOS>MOLECULE
AV-unprocessed.smi:3189
    33    34     1
SMALL
NO_CHARGES


@<TRIPOS>ATOM
      1 ****        -4.3314   1.5856   0.2611 C.3            1 S1                 0.0000
      2 ****        -3.4927   0.3514  -0.0098 C.ar           1 S1                 0.0000
      3 ****        -4.1405  -0.7937  -0.3190 N.pl3          1 S1                 1.0000
      4 ****        -3.5017  -1.9550  -0.5714 C.ar           1 S1                 0.0000
      5 ****        -2.0951  -2.0076  -0.5250 C.ar           1 S1                 0.0000
      6 ****        -1.3641  -0.8309  -0.2226 C.ar           1 S1                 0.0000
      7 ****         0.0552  -0.7966  -0.1389 N.am           1 S1                 0.0000
      8 ****         0.9581  -1.5949  -0.7413 C.2            1 S1                 0.0000
      9 ****         0.6759  -2.5293  -1.4884 O.2            1 S1                 0.0000
     10 ****         2.2365  -1.2482  -0.5104 N.am           1 S1                 0.0000
     11 ****         3.4158  -1.8920  -1.0045 C.3            1 S1                 0.0000
     12 ****         4.7240  -1.1616  -0.7973 C.3            1 S1                 0.0000
     13 ****         4.4290  -2.4089  -0.0053 C.3            1 S1                 0.0000
     14 ****         5.2020  -3.6814  -0.2766 C.3            1 S1                 0.0000
     15 ****        -2.0793   0.3610   0.0522 C.ar           1 S1                 0.0000
     16 ****        -1.2360   1.8196   0.4543 Cl             1 S1                 0.0000
     17 ****        -4.0868   2.3743  -0.4510 H              1 S1                 0.0000
     18 ****        -4.1422   1.9584   1.2683 H              1 S1                 0.0000
     19 ****        -5.3972   1.3704   0.1752 H              1 S1                 0.0000
     20 ****        -4.1311  -2.8039  -0.7960 H              1 S1                 0.0000
     21 ****        -1.6053  -2.9515  -0.7102 H              1 S1                 0.0000
     22 ****         0.4376  -0.0123   0.3695 H              1 S1                 0.0000
     23 ****         2.3870  -0.3938   0.0067 H              1 S1                 0.0000
     24 ****         3.3361  -2.4232  -1.9522 H              1 S1                 0.0000
     25 ****         5.4651  -1.2276  -1.5914 H              1 S1                 0.0000
     26 ****         4.7020  -0.2137  -0.2627 H              1 S1                 0.0000
     27 ****         4.1863  -2.2614   1.0456 H              1 S1                 0.0000
     28 ****         5.4352  -3.7752  -1.3378 H              1 S1                 0.0000
     29 ****         4.6138  -4.5476   0.0272 H              1 S1                 0.0000
     30 ****         6.1360  -3.6795   0.2855 H              1 S1                 0.0000
     31 ****        -5.1601  -0.7809  -0.3580 H              1 S1                 0.0000
     32 ****        -0.2815  -2.7405  -1.6853 LP             1 S1                 0.0000
     33 ****         1.4038  -3.0783  -1.8994 LP             1 S1                 0.0000
@<TRIPOS>BOND
    1    1    2 1     
    2    1   17 1     
    3    1   18 1     
    4    1   19 1     
    5    2   15 ar    
    6    2    3 ar    
    7    3    4 ar    
    8    3   31 1     
    9    4    5 ar    
   10    4   20 1     
   11    5    6 ar    
   12    5   21 1     
   13    6    7 1     
   14    6   15 ar    
   15    7    8 am    
   16    7   22 1     
   17    8    9 2     
   18    8   10 am    
   19   10   11 1     
   20   10   23 1     
   21   11   13 1     
   22   11   12 1     
   23   11   24 1     
   24   12   13 1     
   25   12   25 1     
   26   12   26 1     
   27   13   14 1     
   28   13   27 1     
   29   14   28 1     
   30   14   29 1     
   31   14   30 1     
   32   15   16 1     
   33    9   32 1     
   34    9   33 1     
@<TRIPOS>SUBSTRUCTURE
      1 S1             1
@<TRIPOS>SET
LONE_PAIRS      STATIC     ATOMS    <user>   **** ""
2 32 33
DONOR_HYDROGENS      STATIC     ATOMS    <user>   **** ""
3 31 22 23
ATOM$BLUE        STATIC     ATOMS    COLORGROUP SYSTEM
2 32 33
ATOM$RED        STATIC     ATOMS    COLORGROUP SYSTEM
3 31 22 23
