AV-unprocessed.smi:313|AV-procd|sdf|2311|dock7
  -GOLD-   2262022213D 1   1.00000     0.00000
 Structure written by MMmdl.
 50 51  0  0  0  0  0  0  0  0  1 V2000
  151.9540  144.6862  160.6591 C   0  0  0  0  0  0  0  0  0  0  0  0
  151.4734  143.6998  159.5843 C   0  0  0  0  0  0  0  0  0  0  0  0
  152.1205  142.3063  159.6915 C   0  0  2  0  0  0  0  0  0  0  0  0
  153.6503  142.3768  159.5734 C   0  0  0  0  0  0  0  0  0  0  0  0
  151.5825  141.4243  158.6591 N   0  0  0  0  0  0  0  0  0  0  0  0
  152.1124  140.2526  158.2774 C   0  0  0  0  0  0  0  0  0  0  0  0
  153.1617  139.7997  158.7380 O   0  0  0  0  0  0  0  0  0  0  0  0
  151.3304  139.4752  157.2073 C   0  0  1  0  0  0  0  0  0  0  0  0
  150.8898  138.1283  157.8046 C   0  0  0  0  0  0  0  0  0  0  0  0
  150.1312  140.2190  156.8285 N   0  0  0  0  0  0  0  0  0  0  0  0
  149.7575  140.4922  155.5667 C   0  0  0  0  0  0  0  0  0  0  0  0
  150.3661  140.0904  154.5746 O   0  0  0  0  0  0  0  0  0  0  0  0
  148.4928  141.2872  155.4243 C   0  0  0  0  0  0  0  0  0  0  0  0
  147.9806  141.6462  154.1587 C   0  0  0  0  0  0  0  0  0  0  0  0
  146.7757  142.3709  154.0874 C   0  0  0  0  0  0  0  0  0  0  0  0
  146.1026  142.7131  155.2841 C   0  0  0  0  0  0  0  0  0  0  0  0
  144.8932  143.4402  155.2365 N   0  0  0  0  0  0  0  0  0  0  0  0
  144.6870  144.2525  154.0399 C   0  0  0  0  0  0  0  0  0  0  0  0
  143.5114  145.2224  154.2480 C   0  0  0  0  0  0  0  0  0  0  0  0
  142.3480  144.4951  154.6274 O   0  0  0  0  0  0  0  0  0  0  0  0
  142.5354  143.7989  155.8548 C   0  0  0  0  0  0  0  0  0  0  0  0
  143.6762  142.7786  155.7031 C   0  0  0  0  0  0  0  0  0  0  0  0
  146.5942  142.3623  156.4979 N   0  0  0  0  0  0  0  0  0  0  0  0
  147.7483  141.6650  156.5617 C   0  0  0  0  0  0  0  0  0  0  0  0
  151.5055  145.6685  160.5102 H   0  0  0  0  0  0  0  0  0  0  0  0
  153.0368  144.8076  160.6248 H   0  0  0  0  0  0  0  0  0  0  0  0
  151.6869  144.3517  161.6619 H   0  0  0  0  0  0  0  0  0  0  0  0
  150.3877  143.6092  159.6386 H   0  0  0  0  0  0  0  0  0  0  0  0
  151.6929  144.1218  158.6029 H   0  0  0  0  0  0  0  0  0  0  0  0
  151.8757  141.9044  160.6765 H   0  0  0  0  0  0  0  0  0  0  0  0
  154.0735  143.0206  160.3449 H   0  0  0  0  0  0  0  0  0  0  0  0
  153.9564  142.7735  158.6048 H   0  0  0  0  0  0  0  0  0  0  0  0
  154.1005  141.3901  159.6871 H   0  0  0  0  0  0  0  0  0  0  0  0
  150.7187  141.7133  158.2233 H   0  0  0  0  0  0  0  0  0  0  0  0
  151.9545  139.2977  156.3291 H   0  0  0  0  0  0  0  0  0  0  0  0
  151.7497  137.5342  158.1169 H   0  0  0  0  0  0  0  0  0  0  0  0
  150.3398  137.5402  157.0694 H   0  0  0  0  0  0  0  0  0  0  0  0
  150.2414  138.2581  158.6726 H   0  0  0  0  0  0  0  0  0  0  0  0
  149.5599  140.5746  157.5810 H   0  0  0  0  0  0  0  0  0  0  0  0
  148.4951  141.3746  153.2484 H   0  0  0  0  0  0  0  0  0  0  0  0
  146.3917  142.6634  153.1216 H   0  0  0  0  0  0  0  0  0  0  0  0
  145.5758  144.8249  153.7792 H   0  0  0  0  0  0  0  0  0  0  0  0
  144.4788  143.5905  153.1982 H   0  0  0  0  0  0  0  0  0  0  0  0
  143.7523  145.9675  155.0079 H   0  0  0  0  0  0  0  0  0  0  0  0
  143.3049  145.7646  153.3251 H   0  0  0  0  0  0  0  0  0  0  0  0
  142.7504  144.5059  156.6576 H   0  0  0  0  0  0  0  0  0  0  0  0
  141.6091  143.2891  156.1193 H   0  0  0  0  0  0  0  0  0  0  0  0
  143.3914  142.0036  154.9904 H   0  0  0  0  0  0  0  0  0  0  0  0
  143.8539  142.2915  156.6626 H   0  0  0  0  0  0  0  0  0  0  0  0
  148.0850  141.4090  157.5558 H   0  0  0  0  0  0  0  0  0  0  0  0
  1  2  1  0  0  0  0
  1 25  1  0  0  0  0
  1 26  1  0  0  0  0
  1 27  1  0  0  0  0
  2  3  1  0  0  0  0
  2 28  1  0  0  0  0
  2 29  1  0  0  0  0
  3  4  1  0  0  0  0
  3  5  1  0  0  0  0
  3 30  1  0  0  0  0
  4 31  1  0  0  0  0
  4 32  1  0  0  0  0
  4 33  1  0  0  0  0
  5  6  1  0  0  0  0
  5 34  1  0  0  0  0
  6  7  2  0  0  0  0
  6  8  1  0  0  0  0
  8  9  1  0  0  0  0
  8 10  1  0  0  0  0
  8 35  1  0  0  0  0
  9 36  1  0  0  0  0
  9 37  1  0  0  0  0
  9 38  1  0  0  0  0
 10 11  1  0  0  0  0
 10 39  1  0  0  0  0
 11 12  2  0  0  0  0
 11 13  1  0  0  0  0
 13 24  1  0  0  0  0
 13 14  2  0  0  0  0
 14 15  1  0  0  0  0
 14 40  1  0  0  0  0
 15 16  2  0  0  0  0
 15 41  1  0  0  0  0
 16 17  1  0  0  0  0
 16 23  1  0  0  0  0
 17 22  1  0  0  0  0
 17 18  1  0  0  0  0
 18 19  1  0  0  0  0
 18 42  1  0  0  0  0
 18 43  1  0  0  0  0
 19 20  1  0  0  0  0
 19 44  1  0  0  0  0
 19 45  1  0  0  0  0
 20 21  1  0  0  0  0
 21 22  1  0  0  0  0
 21 46  1  0  0  0  0
 21 47  1  0  0  0  0
 22 48  1  0  0  0  0
 22 49  1  0  0  0  0
 23 24  2  0  0  0  0
 24 50  1  0  0  0  0
M  END
> <s_m_source_file>
AV-unprocessed.smi

> <i_m_source_file_index>
313

> <i_lp_mmshare_version>
43012

> <i_f3d_flags>
0

> <s_epik_input>
W0NIM11bQ0gyXVtDQEhdKFtDSDNdKVtOSF1DKD1PKVtDQEhdKFtDSDNdKVtOSF1DKD1PKWMxW2NIXVtjSF1jKG5bY0hdMSlOMltDSDJdW0NIMl1PW0NIMl1bQ0gyXTI=

> <s_epik_cmdline>
J2VwaWtfcHl0aG9uJywgJy1waCcsICc3LjAnLCAnLXRuJywgJzgnLCAnLW1hJywgJzIwMCcsICctbWV0YWxfYmluZGluZycsICctaW1hZScsICc8aW5maWxlLm1hZT4nLCAnLW9tYWUnLCAnPG91dGZpbGUubWFlPic=

> <r_lp_tautomer_probability>
1

> <r_epik_Ionization_Penalty>
9.96442e-06

> <r_epik_Ionization_Penalty_Charging>
0

> <r_epik_Ionization_Penalty_Neutral>
9.96442e-06

> <r_epik_State_Penalty>
-0

> <r_epik_Charging_Adjusted_Penalty>
0

> <i_epik_Tot_Q>
0

> <i_epik_Tot_abs_Q>
0

> <r_epik_Metal_State_Penalty>
-0

> <b_epik_Metal_Only>
0

> <s_lp_Force_Field>
OPLS_2005

> <r_lp_Energy>
19.146

> <b_lp_Chiralities_Consistent>
1

> <s_lp_Variant>
AV-unprocessed.smi:313-3

> <Gold.Version>
5.8.1

> <Gold.Id.Protein>
6NUR|6NUR_protein|mol2

> <Gold.PLP.Fitness>
44.9860

> <Gold.PLP.PLP>
-39.9936

> <Gold.PLP.part.hbond>
-2.0000

> <Gold.PLP.part.metal>
0.0000

> <Gold.PLP.part.buried>
-7.3859

> <Gold.PLP.part.nonpolar>
-32.0129

> <Gold.PLP.part.repulsive>
0.6697

> <Gold.PLP.ligand.clash>
0.0000

> <Gold.PLP.ligand.torsion>
0.6865

> <Gold.PLP.Chemscore.Hbond>
1.9913

> <Gold.PLP.Chemscore.CHOScore>
0.0000

> <Gold.PLP.Chemscore.Metal>
0.0000

> <Gold.Chemscore.Hbonds>
donor molecule, donor type, donor heavy atom, donor atom, acceptor molecule, acceptor atom, score
      P1  H  7989  7998       L1    12  1.00
      P1  H  7997  8008       L1     7  0.49

> <Gold.PLP.Chemscore.Internal.Correction>
0.3917

> <Gold.Rescore>
     Score         DG    S(hbond)    S(metal)    S(lipo)     H(rot)  DE(clash)    DE(int)     intcor
     15.57     -17.60       1.82        0.00      90.89       1.79       0.18       1.85       ----

> <Gold.Chemscore.Fitness>
15.5734

> <Gold.Chemscore.DG>
-17.6031

> <Gold.Chemscore.ZeroCoef>
-5.4800

> <Gold.Chemscore.Hbond>
1.8168

> <Gold.Chemscore.Metal>
0.0000

> <Gold.Chemscore.Lipo>
90.8924

> <Gold.Chemscore.Internal_Hbond>
0.0000

> <Gold.Chemscore.DEClash>
0.1781

> <Gold.Chemscore.DEInternal>
1.8517

> <Gold.Chemscore.Rot>
1.7888

> <Gold.Chemscore.Internal.Correction>
   9.000000E+99

> <Gold.Chemscore.Hbonds>
donor molecule, donor type, donor heavy atom, donor atom, acceptor molecule, acceptor atom, score
      P1  H  7989  7998       L1    12  0.99
      P1  H  7997  8008       L1     7  0.22

> <Gold.Chemscore.Hbond.Weighted>
-6.0680

> <Gold.Chemscore.Metal.Weighted>
-0.0000

> <Gold.Chemscore.Lipo.Weighted>
-10.6344

> <Gold.Chemscore.Internal_Hbond.Weighted>
0.0000

> <Gold.Chemscore.DEClash.Weighted>
0.1781

> <Gold.Chemscore.DEInternal.Weighted>
1.8517

> <Gold.Chemscore.Rot.Weighted>
4.5793

> <Gold.Chemscore.Internal.Correction.Weighted>
   9.000000E+99

> <Gold.Protein.RotatedTorsions>
[ 6907 6896 6895 6894 ] final   97.46 input  -60.11 | X-H torsion
[ 7974 7965 7964 7962 ] final   -3.90 input  175.53 | X-H torsion
[ 8008 7997 7996 7995 ] final  -87.50 input   59.86 | X-H torsion
[ 10167 10162 10161 10158 ] final   33.55 input  -65.29 | X-H torsion
[ 10718 10713 10712 10709 ] final -145.98 input   66.30 | X-H torsion
[ 10763 10752 10751 10750 ] final  -31.52 input  -60.55 | X-H torsion
[ 11005 11000 10999 10996 ] final  103.95 input  -57.11 | X-H torsion

> <Gold.Protein.ActiveResidues>
 VAL166  LYS551  ARG553  GLY616  TRP617  ASP618  TYR619  PRO620  LYS621  CYS622 
 ASP623  PHE694  ASN695  SER759  ASP760  ASP761  ALA762  ILE779  LEU786  VAL792 
 PHE793  MET794  SER795  GLU796  ALA797  LYS798  CYS799  TRP800  GLU811  SER814 

> <Gold.Protein.RotatedAtoms>
  152.5423  134.0730  159.8202 H   0  0  0  0  0  0  0  0  0  0  0  0  # atno 6907 bound_to 6896
  151.0842  133.5359  159.2626 H   0  0  0  0  0  0  0  0  0  0  0  0  # atno 6908 bound_to 6896
  151.2174  135.0514  159.8990 H   0  0  0  0  0  0  0  0  0  0  0  0  # atno 6909 bound_to 6896
  146.2382  140.1791  142.8332 H   0  0  0  0  0  0  0  0  0  0  0  0  # atno 7974 bound_to 7965
  154.6639  140.0565  157.0093 H   0  0  0  0  0  0  0  0  0  0  0  0  # atno 8008 bound_to 7997
  155.1187  140.3245  155.4484 H   0  0  0  0  0  0  0  0  0  0  0  0  # atno 8009 bound_to 7997
  156.2630  140.2001  156.6310 H   0  0  0  0  0  0  0  0  0  0  0  0  # atno 8010 bound_to 7997
  140.4397  144.1205  150.6172 H   0  0  0  0  0  0  0  0  0  0  0  0  # atno 10167 bound_to 10162
  156.3892  130.7877  151.2077 H   0  0  0  0  0  0  0  0  0  0  0  0  # atno 10718 bound_to 10713
  153.7986  135.6892  153.4859 H   0  0  0  0  0  0  0  0  0  0  0  0  # atno 10763 bound_to 10752
  153.1703  135.4545  154.9891 H   0  0  0  0  0  0  0  0  0  0  0  0  # atno 10764 bound_to 10752
  154.8015  135.3340  154.7477 H   0  0  0  0  0  0  0  0  0  0  0  0  # atno 10765 bound_to 10752
  139.8788  134.9282  156.5288 H   0  0  0  0  0  0  0  0  0  0  0  0  # atno 11005 bound_to 11000
  144.9949  140.8580  143.5317 LP  0  0  0  0  0  0  0  0  0  0  0  0  # atno 17320 bound_to 7965
  145.1802  139.2356  143.5296 LP  0  0  0  0  0  0  0  0  0  0  0  0  # atno 17321 bound_to 7965
  140.4332  143.2559  151.9568 LP  0  0  0  0  0  0  0  0  0  0  0  0  # atno 17342 bound_to 10162
  139.4789  144.5724  151.8066 LP  0  0  0  0  0  0  0  0  0  0  0  0  # atno 17343 bound_to 10162
  157.7498  131.0320  150.4209 LP  0  0  0  0  0  0  0  0  0  0  0  0  # atno 17370 bound_to 10713
  156.4468  130.4003  149.6662 LP  0  0  0  0  0  0  0  0  0  0  0  0  # atno 17371 bound_to 10713
  140.8396  133.8215  155.9062 LP  0  0  0  0  0  0  0  0  0  0  0  0  # atno 17394 bound_to 11000
  140.9250  134.2094  157.4902 LP  0  0  0  0  0  0  0  0  0  0  0  0  # atno 17395 bound_to 11000

$$$$
