AV-unprocessed.smi:3278|AV-procd|sdf|12542|dock5
  -GOLD-   2272018453D 1   1.00000     0.00000
 Structure written by MMmdl.
 39 40  0  0  0  0  0  0  0  0  2 V2000
  145.5109  144.4334  153.4559 C   0  0  0  0  0  0  0  0  0  0  0  0
  146.2613  143.4148  154.1585 N   0  0  0  0  0  0  0  0  0  0  0  0
  147.3660  142.7108  153.7317 C   0  0  0  0  0  0  0  0  0  0  0  0
  147.7296  141.8580  154.7381 C   0  0  0  0  0  0  0  0  0  0  0  0
  148.8701  140.8621  154.7668 C   0  0  1  0  0  0  0  0  0  0  0  0
  148.3212  139.4257  154.7086 C   0  0  0  0  0  0  0  0  0  0  0  0
  149.7172  140.9978  153.6407 O   0  0  0  0  0  0  0  0  0  0  0  0
  149.7445  141.0563  156.0243 C   0  0  0  0  0  0  0  0  0  0  0  0
  150.3972  142.3855  156.0395 N   0  3  0  0  0  0  0  0  0  0  0  0
  150.8354  142.8665  157.3680 C   0  0  1  0  0  0  0  0  0  0  0  0
  151.6103  141.7677  158.1290 C   0  0  0  0  0  0  0  0  0  0  0  0
  152.0448  142.2088  159.5364 C   0  0  0  0  0  0  0  0  0  0  0  0
  152.9793  143.4254  159.5086 C   0  0  0  0  0  0  0  0  0  0  0  0
  152.1505  144.8642  158.7831 S   0  0  0  0  0  0  0  0  0  0  0  0
  151.6933  144.1319  157.1882 C   0  0  0  0  0  0  0  0  0  0  0  0
  146.7653  142.1291  155.7540 C   0  0  0  0  0  0  0  0  0  0  0  0
  145.8884  143.0542  155.4024 N   0  0  0  0  0  0  0  0  0  0  0  0
  145.9303  144.5888  152.4614 H   0  0  0  0  0  0  0  0  0  0  0  0
  145.5547  145.3718  154.0097 H   0  0  0  0  0  0  0  0  0  0  0  0
  144.4699  144.1235  153.3570 H   0  0  0  0  0  0  0  0  0  0  0  0
  147.7991  142.8725  152.7553 H   0  0  0  0  0  0  0  0  0  0  0  0
  147.6772  139.2096  155.5616 H   0  0  0  0  0  0  0  0  0  0  0  0
  149.1259  138.6892  154.7151 H   0  0  0  0  0  0  0  0  0  0  0  0
  147.7331  139.2625  153.8044 H   0  0  0  0  0  0  0  0  0  0  0  0
  149.6072  140.2411  153.0847 H   0  0  0  0  0  0  0  0  0  0  0  0
  149.1266  140.9646  156.9187 H   0  0  0  0  0  0  0  0  0  0  0  0
  150.4963  140.2688  156.0805 H   0  0  0  0  0  0  0  0  0  0  0  0
  151.1906  142.3718  155.4144 H   0  0  0  0  0  0  0  0  0  0  0  0
  149.9461  143.1417  157.9378 H   0  0  0  0  0  0  0  0  0  0  0  0
  150.9961  140.8736  158.2295 H   0  0  0  0  0  0  0  0  0  0  0  0
  152.4885  141.4690  157.5546 H   0  0  0  0  0  0  0  0  0  0  0  0
  151.1656  142.4337  160.1417 H   0  0  0  0  0  0  0  0  0  0  0  0
  152.5514  141.3799  160.0318 H   0  0  0  0  0  0  0  0  0  0  0  0
  153.3007  143.6783  160.5192 H   0  0  0  0  0  0  0  0  0  0  0  0
  153.8781  143.2029  158.9325 H   0  0  0  0  0  0  0  0  0  0  0  0
  152.6028  143.9045  156.6306 H   0  0  0  0  0  0  0  0  0  0  0  0
  151.1484  144.8834  156.6156 H   0  0  0  0  0  0  0  0  0  0  0  0
  146.6737  141.6777  156.7310 H   0  0  0  0  0  0  0  0  0  0  0  0
  149.7236  143.0470  155.6800 H   0  0  0  0  0  0  0  0  0  0  0  0
  1  2  1  0  0  0  0
  1 18  1  0  0  0  0
  1 19  1  0  0  0  0
  1 20  1  0  0  0  0
  2 17  1  0  0  0  0
  2  3  1  0  0  0  0
  3  4  2  0  0  0  0
  3 21  1  0  0  0  0
  4  5  1  0  0  0  0
  4 16  1  0  0  0  0
  5  6  1  0  0  0  0
  5  7  1  0  0  0  0
  5  8  1  0  0  0  0
  6 22  1  0  0  0  0
  6 23  1  0  0  0  0
  6 24  1  0  0  0  0
  7 25  1  0  0  0  0
  8  9  1  0  0  0  0
  8 26  1  0  0  0  0
  8 27  1  0  0  0  0
  9 10  1  0  0  0  0
  9 28  1  0  0  0  0
  9 39  1  0  0  0  0
 10 15  1  0  0  0  0
 10 11  1  0  0  0  0
 10 29  1  0  0  0  0
 11 12  1  0  0  0  0
 11 30  1  0  0  0  0
 11 31  1  0  0  0  0
 12 13  1  0  0  0  0
 12 32  1  0  0  0  0
 12 33  1  0  0  0  0
 13 14  1  0  0  0  0
 13 34  1  0  0  0  0
 13 35  1  0  0  0  0
 14 15  1  0  0  0  0
 15 36  1  0  0  0  0
 15 37  1  0  0  0  0
 16 17  2  0  0  0  0
 16 38  1  0  0  0  0
M  CHG  1   9   1
M  END
> <s_m_source_file>
AV-unprocessed.smi

> <i_m_source_file_index>
3278

> <i_lp_mmshare_version>
43012

> <i_f3d_flags>
0

> <s_epik_input>
W0NIM11uMVtjSF1jKFtjSF1uMSlbQ0BAXShbQ0gzXSkoW09IXSlbQ0gyXVtOSF1bQ0BASF0yW0NIMl1bQ0gyXVtDSDJdU1tDSDJdMg==

> <s_epik_cmdline>
J2VwaWtfcHl0aG9uJywgJy1waCcsICc3LjAnLCAnLXRuJywgJzgnLCAnLW1hJywgJzIwMCcsICctbWV0YWxfYmluZGluZycsICctaW1hZScsICc8aW5maWxlLm1hZT4nLCAnLW9tYWUnLCAnPG91dGZpbGUubWFlPic=

> <r_lp_tautomer_probability>
1

> <r_epik_Ionization_Penalty>
0.0185703

> <r_epik_Ionization_Penalty_Charging>
0.0185619

> <r_epik_Ionization_Penalty_Neutral>
8.47286e-06

> <r_epik_State_Penalty>
0.0147768

> <r_epik_Charging_Adjusted_Penalty>
0.0333386

> <i_epik_Tot_Q>
1

> <i_epik_Tot_abs_Q>
1

> <r_epik_Metal_State_Penalty>
0.0147782

> <b_epik_Metal_Only>
0

> <s_lp_Force_Field>
OPLS_2005

> <r_lp_Energy>
8.69556

> <b_lp_Chiralities_Consistent>
1

> <s_lp_Variant>
AV-unprocessed.smi:3278-3

> <Gold.Version>
5.8.1

> <Gold.Id.Protein>
6NUR|6NUR_protein|mol2

> <Gold.PLP.Fitness>
51.4636

> <Gold.PLP.PLP>
-40.9535

> <Gold.PLP.part.hbond>
-3.9081

> <Gold.PLP.part.metal>
0.0000

> <Gold.PLP.part.buried>
-4.2014

> <Gold.PLP.part.nonpolar>
-34.0424

> <Gold.PLP.part.repulsive>
0.2507

> <Gold.PLP.ligand.clash>
0.0000

> <Gold.PLP.ligand.torsion>
0.3920

> <Gold.PLP.Chemscore.Hbond>
3.7568

> <Gold.PLP.Chemscore.CHOScore>
0.0000

> <Gold.PLP.Chemscore.Metal>
0.0000

> <Gold.Chemscore.Hbonds>
donor molecule, donor type, donor heavy atom, donor atom, acceptor molecule, acceptor atom, score
      L1  H     7    25       P1  7957  0.64
      L1  H     9    39       P1  8028  2.00
      P1  H  7989  7998       L1     7  0.18
      P1  H  8011  8017       L1     7  0.99

> <Gold.PLP.Chemscore.Internal.Correction>
0.0237

> <Gold.Rescore>
     Score         DG    S(hbond)    S(metal)    S(lipo)     H(rot)  DE(clash)    DE(int)     intcor
     18.61     -18.99       1.84        0.00     106.79       2.00       0.17       0.20       ----

> <Gold.Chemscore.Fitness>
18.6142

> <Gold.Chemscore.DG>
-18.9869

> <Gold.Chemscore.ZeroCoef>
-5.4800

> <Gold.Chemscore.Hbond>
1.8391

> <Gold.Chemscore.Metal>
0.0000

> <Gold.Chemscore.Lipo>
106.7857

> <Gold.Chemscore.Internal_Hbond>
0.0000

> <Gold.Chemscore.DEClash>
0.1716

> <Gold.Chemscore.DEInternal>
0.2010

> <Gold.Chemscore.Rot>
2.0038

> <Gold.Chemscore.Internal.Correction>
   9.000000E+99

> <Gold.Chemscore.Hbonds>
donor molecule, donor type, donor heavy atom, donor atom, acceptor molecule, acceptor atom, score
      L1  H     7    25       P1  7957  0.64
      L1  H     9    39       P1  8028  0.97
      P1  H  7989  7998       L1     7  0.01
      P1  H  8011  8017       L1     7  0.28

> <Gold.Chemscore.Hbond.Weighted>
-6.1426

> <Gold.Chemscore.Metal.Weighted>
-0.0000

> <Gold.Chemscore.Lipo.Weighted>
-12.4939

> <Gold.Chemscore.Internal_Hbond.Weighted>
0.0000

> <Gold.Chemscore.DEClash.Weighted>
0.1716

> <Gold.Chemscore.DEInternal.Weighted>
0.2010

> <Gold.Chemscore.Rot.Weighted>
5.1296

> <Gold.Chemscore.Internal.Correction.Weighted>
   9.000000E+99

> <Gold.Protein.RotatedTorsions>
[ 6907 6896 6895 6894 ] final   68.76 input  -60.11 | X-H torsion
[ 7974 7965 7964 7962 ] final  138.42 input  175.53 | X-H torsion
[ 8008 7997 7996 7995 ] final   47.33 input   59.86 | X-H torsion
[ 10167 10162 10161 10158 ] final -114.36 input  -65.29 | X-H torsion
[ 10718 10713 10712 10709 ] final -137.14 input   66.30 | X-H torsion
[ 10763 10752 10751 10750 ] final  171.18 input  -60.55 | X-H torsion
[ 11005 11000 10999 10996 ] final   11.50 input  -57.11 | X-H torsion

> <Gold.Protein.ActiveResidues>
 VAL166  LYS551  ARG553  GLY616  TRP617  ASP618  TYR619  PRO620  LYS621  CYS622 
 ASP623  PHE694  ASN695  SER759  ASP760  ASP761  ALA762  ILE779  LEU786  VAL792 
 PHE793  MET794  SER795  GLU796  ALA797  LYS798  CYS799  TRP800  GLU811  SER814 

> <Gold.Protein.RotatedAtoms>
  152.4642  134.5115  159.9755 H   0  0  0  0  0  0  0  0  0  0  0  0  # atno 6907 bound_to 6896
  151.5157  133.3470  159.2900 H   0  0  0  0  0  0  0  0  0  0  0  0  # atno 6908 bound_to 6896
  150.8618  134.8000  159.7150 H   0  0  0  0  0  0  0  0  0  0  0  0  # atno 6909 bound_to 6896
  144.9374  139.4972  143.5588 H   0  0  0  0  0  0  0  0  0  0  0  0  # atno 7974 bound_to 7965
  155.3673  140.3422  155.4242 H   0  0  0  0  0  0  0  0  0  0  0  0  # atno 8008 bound_to 7997
  156.1681  140.1623  156.8530 H   0  0  0  0  0  0  0  0  0  0  0  0  # atno 8009 bound_to 7997
  154.5205  140.0768  156.8146 H   0  0  0  0  0  0  0  0  0  0  0  0  # atno 8010 bound_to 7997
  140.1018  143.4606  152.1807 H   0  0  0  0  0  0  0  0  0  0  0  0  # atno 10167 bound_to 10162
  156.2848  130.7341  151.1349 H   0  0  0  0  0  0  0  0  0  0  0  0  # atno 10718 bound_to 10713
  154.4082  135.2756  155.2054 H   0  0  0  0  0  0  0  0  0  0  0  0  # atno 10763 bound_to 10752
  154.4051  135.6035  153.5923 H   0  0  0  0  0  0  0  0  0  0  0  0  # atno 10764 bound_to 10752
  152.9831  135.5936  154.4359 H   0  0  0  0  0  0  0  0  0  0  0  0  # atno 10765 bound_to 10752
  140.5025  134.0732  155.7797 H   0  0  0  0  0  0  0  0  0  0  0  0  # atno 11005 bound_to 11000
  146.3272  139.8368  142.8898 LP  0  0  0  0  0  0  0  0  0  0  0  0  # atno 17320 bound_to 7965
  145.3045  141.0203  143.3590 LP  0  0  0  0  0  0  0  0  0  0  0  0  # atno 17321 bound_to 7965
  139.5667  144.7439  151.4003 LP  0  0  0  0  0  0  0  0  0  0  0  0  # atno 17342 bound_to 10162
  140.6973  143.7717  150.7347 LP  0  0  0  0  0  0  0  0  0  0  0  0  # atno 17343 bound_to 10162
  157.7325  131.0599  150.5624 LP  0  0  0  0  0  0  0  0  0  0  0  0  # atno 17370 bound_to 10713
  156.5734  130.4285  149.6009 LP  0  0  0  0  0  0  0  0  0  0  0  0  # atno 17371 bound_to 10713
  141.1428  133.9108  157.2286 LP  0  0  0  0  0  0  0  0  0  0  0  0  # atno 17394 bound_to 11000
  139.9705  135.0129  156.9499 LP  0  0  0  0  0  0  0  0  0  0  0  0  # atno 17395 bound_to 11000

$$$$
