AV-unprocessed.smi:2945|AV-procd|sdf|11276|dock5
  -GOLD-   2272016173D 1   1.00000     0.00000
 Structure written by MMmdl.
 36 37  0  0  0  0  0  0  0  0  1 V2000
  148.8758  124.0231  150.6432 C   0  0  0  0  0  0  0  0  0  0  0  0
  148.3723  125.3581  151.0733 C   0  0  0  0  0  0  0  0  0  0  0  0
  148.3306  126.5783  150.4594 C   0  0  0  0  0  0  0  0  0  0  0  0
  147.7215  127.4079  151.4381 C   0  0  0  0  0  0  0  0  0  0  0  0
  147.4933  128.7843  151.1839 N   0  0  0  0  0  0  0  0  0  0  0  0
  146.3687  129.4845  151.4101 C   0  0  0  0  0  0  0  0  0  0  0  0
  145.3297  129.0219  151.8817 O   0  0  0  0  0  0  0  0  0  0  0  0
  146.5190  130.7690  151.0536 N   0  0  0  0  0  0  0  0  0  0  0  0
  145.4959  131.8110  151.1391 C   0  0  2  0  0  0  0  0  0  0  0  0
  145.1637  132.2923  149.7128 C   0  0  0  0  0  0  0  0  0  0  0  0
  144.1435  133.4395  149.7211 C   0  0  0  0  0  0  0  0  0  0  0  0
  144.6389  134.6059  150.5859 C   0  0  0  0  0  0  0  0  0  0  0  0
  144.9506  134.1370  152.0147 C   0  0  0  0  0  0  0  0  0  0  0  0
  145.9750  132.9837  152.0337 C   0  0  1  0  0  0  0  0  0  0  0  0
  146.2641  132.5474  153.4812 C   0  0  0  0  0  0  0  0  0  0  0  0
  147.4199  126.7539  152.5495 N   0  0  0  0  0  0  0  0  0  0  0  0
  147.8358  125.4367  152.3213 O   0  0  0  0  0  0  0  0  0  0  0  0
  149.1778  124.0394  149.5960 H   0  0  0  0  0  0  0  0  0  0  0  0
  148.1037  123.2623  150.7604 H   0  0  0  0  0  0  0  0  0  0  0  0
  149.7382  123.7252  151.2396 H   0  0  0  0  0  0  0  0  0  0  0  0
  148.6794  126.8328  149.4697 H   0  0  0  0  0  0  0  0  0  0  0  0
  148.2705  129.2902  150.7858 H   0  0  0  0  0  0  0  0  0  0  0  0
  147.4139  131.0511  150.6814 H   0  0  0  0  0  0  0  0  0  0  0  0
  144.5799  131.4038  151.5716 H   0  0  0  0  0  0  0  0  0  0  0  0
  146.0747  132.6264  149.2138 H   0  0  0  0  0  0  0  0  0  0  0  0
  144.7745  131.4633  149.1205 H   0  0  0  0  0  0  0  0  0  0  0  0
  143.9613  133.7832  148.7025 H   0  0  0  0  0  0  0  0  0  0  0  0
  143.1877  133.0783  150.1030 H   0  0  0  0  0  0  0  0  0  0  0  0
  145.5335  135.0410  150.1384 H   0  0  0  0  0  0  0  0  0  0  0  0
  143.8883  135.3965  150.6089 H   0  0  0  0  0  0  0  0  0  0  0  0
  145.3261  134.9788  152.5977 H   0  0  0  0  0  0  0  0  0  0  0  0
  144.0272  133.8163  152.4991 H   0  0  0  0  0  0  0  0  0  0  0  0
  146.9074  133.3672  151.6164 H   0  0  0  0  0  0  0  0  0  0  0  0
  145.3776  132.1166  153.9476 H   0  0  0  0  0  0  0  0  0  0  0  0
  146.5813  133.3944  154.0898 H   0  0  0  0  0  0  0  0  0  0  0  0
  147.0590  131.8033  153.5278 H   0  0  0  0  0  0  0  0  0  0  0  0
  1  2  1  0  0  0  0
  1 18  1  0  0  0  0
  1 19  1  0  0  0  0
  1 20  1  0  0  0  0
  2 17  1  0  0  0  0
  2  3  2  0  0  0  0
  3  4  1  0  0  0  0
  3 21  1  0  0  0  0
  4  5  1  0  0  0  0
  4 16  2  0  0  0  0
  5  6  1  0  0  0  0
  5 22  1  0  0  0  0
  6  7  2  0  0  0  0
  6  8  1  0  0  0  0
  8  9  1  0  0  0  0
  8 23  1  0  0  0  0
  9 14  1  0  0  0  0
  9 10  1  0  0  0  0
  9 24  1  0  0  0  0
 10 11  1  0  0  0  0
 10 25  1  0  0  0  0
 10 26  1  0  0  0  0
 11 12  1  0  0  0  0
 11 27  1  0  0  0  0
 11 28  1  0  0  0  0
 12 13  1  0  0  0  0
 12 29  1  0  0  0  0
 12 30  1  0  0  0  0
 13 14  1  0  0  0  0
 13 31  1  0  0  0  0
 13 32  1  0  0  0  0
 14 15  1  0  0  0  0
 14 33  1  0  0  0  0
 15 34  1  0  0  0  0
 15 35  1  0  0  0  0
 15 36  1  0  0  0  0
 16 17  1  0  0  0  0
M  END
> <s_m_source_file>
AV-unprocessed.smi

> <i_m_source_file_index>
2945

> <i_lp_mmshare_version>
43012

> <i_f3d_flags>
0

> <s_epik_input>
W0NIM11jMVtjSF1jKG5vMSlbTkhdQyg9TylbTkhdW0NAQEhdMltDSDJdW0NIMl1bQ0gyXVtDSDJdW0NASF0yW0NIM10=

> <s_epik_cmdline>
J2VwaWtfcHl0aG9uJywgJy1waCcsICc3LjAnLCAnLXRuJywgJzgnLCAnLW1hJywgJzIwMCcsICctbWV0YWxfYmluZGluZycsICctaW1hZScsICc8aW5maWxlLm1hZT4nLCAnLW9tYWUnLCAnPG91dGZpbGUubWFlPic=

> <r_lp_tautomer_probability>
1

> <r_epik_Ionization_Penalty>
2.357e-05

> <r_epik_Ionization_Penalty_Charging>
0

> <r_epik_Ionization_Penalty_Neutral>
2.357e-05

> <r_epik_State_Penalty>
-0

> <r_epik_Charging_Adjusted_Penalty>
0

> <i_epik_Tot_Q>
0

> <i_epik_Tot_abs_Q>
0

> <r_epik_Metal_State_Penalty>
-0

> <b_epik_Metal_Only>
0

> <s_lp_Force_Field>
OPLS_2005

> <r_lp_Energy>
8.52615

> <b_lp_Chiralities_Consistent>
1

> <s_lp_Variant>
AV-unprocessed.smi:2945-1

> <Gold.Version>
5.8.1

> <Gold.Id.Protein>
6NUR|6NUR_protein|mol2

> <Gold.PLP.Fitness>
39.7425

> <Gold.PLP.PLP>
-34.8535

> <Gold.PLP.part.hbond>
-3.1554

> <Gold.PLP.part.metal>
0.0000

> <Gold.PLP.part.buried>
-5.4614

> <Gold.PLP.part.nonpolar>
-26.5975

> <Gold.PLP.part.repulsive>
0.3211

> <Gold.PLP.ligand.clash>
0.0000

> <Gold.PLP.ligand.torsion>
0.4075

> <Gold.PLP.Chemscore.Hbond>
1.9000

> <Gold.PLP.Chemscore.CHOScore>
0.0000

> <Gold.PLP.Chemscore.Metal>
0.0000

> <Gold.Chemscore.Hbonds>
donor molecule, donor type, donor heavy atom, donor atom, acceptor molecule, acceptor atom, score
      L1  H     5    22       P1 10747  0.85
      L1  H     8    23       P1 10747  1.00

> <Gold.PLP.Chemscore.Internal.Correction>
0.0040

> <Gold.Rescore>
     Score         DG    S(hbond)    S(metal)    S(lipo)     H(rot)  DE(clash)    DE(int)     intcor
     15.33     -16.13       1.49        0.00      70.31       1.00       0.41       0.40       ----

> <Gold.Chemscore.Fitness>
15.3282

> <Gold.Chemscore.DG>
-16.1328

> <Gold.Chemscore.ZeroCoef>
-5.4800

> <Gold.Chemscore.Hbond>
1.4931

> <Gold.Chemscore.Metal>
0.0000

> <Gold.Chemscore.Lipo>
70.3069

> <Gold.Chemscore.Internal_Hbond>
0.0000

> <Gold.Chemscore.DEClash>
0.4058

> <Gold.Chemscore.DEInternal>
0.3988

> <Gold.Chemscore.Rot>
1.0000

> <Gold.Chemscore.Internal.Correction>
   9.000000E+99

> <Gold.Chemscore.Hbonds>
donor molecule, donor type, donor heavy atom, donor atom, acceptor molecule, acceptor atom, score
      L1  H     5    22       P1 10747  0.14
      L1  H     8    23       P1 10747  0.97

> <Gold.Chemscore.Hbond.Weighted>
-4.9869

> <Gold.Chemscore.Metal.Weighted>
-0.0000

> <Gold.Chemscore.Lipo.Weighted>
-8.2259

> <Gold.Chemscore.Internal_Hbond.Weighted>
0.0000

> <Gold.Chemscore.DEClash.Weighted>
0.4058

> <Gold.Chemscore.DEInternal.Weighted>
0.3988

> <Gold.Chemscore.Rot.Weighted>
2.5600

> <Gold.Chemscore.Internal.Correction.Weighted>
   9.000000E+99

> <Gold.Protein.RotatedTorsions>
[ 6907 6896 6895 6894 ] final  107.43 input  -60.11 | X-H torsion
[ 7974 7965 7964 7962 ] final  -82.95 input  175.53 | X-H torsion
[ 8008 7997 7996 7995 ] final  -51.94 input   59.86 | X-H torsion
[ 10167 10162 10161 10158 ] final  -77.08 input  -65.29 | X-H torsion
[ 10718 10713 10712 10709 ] final -147.91 input   66.30 | X-H torsion
[ 10763 10752 10751 10750 ] final   -3.78 input  -60.55 | X-H torsion
[ 11005 11000 10999 10996 ] final   96.02 input  -57.11 | X-H torsion

> <Gold.Protein.ActiveResidues>
 VAL166  LYS551  ARG553  GLY616  TRP617  ASP618  TYR619  PRO620  LYS621  CYS622 
 ASP623  PHE694  ASN695  SER759  ASP760  ASP761  ALA762  ILE779  LEU786  VAL792 
 PHE793  MET794  SER795  GLU796  ALA797  LYS798  CYS799  TRP800  GLU811  SER814 

> <Gold.Protein.RotatedAtoms>
  152.5154  133.9236  159.7546 H   0  0  0  0  0  0  0  0  0  0  0  0  # atno 6907 bound_to 6896
  150.9602  133.6445  159.2762 H   0  0  0  0  0  0  0  0  0  0  0  0  # atno 6908 bound_to 6896
  151.3693  135.0924  159.9513 H   0  0  0  0  0  0  0  0  0  0  0  0  # atno 6909 bound_to 6896
  145.5265  140.9526  143.1626 H   0  0  0  0  0  0  0  0  0  0  0  0  # atno 7974 bound_to 7965
  154.4094  140.1236  156.4911 H   0  0  0  0  0  0  0  0  0  0  0  0  # atno 8008 bound_to 7997
  155.6990  140.3495  155.4905 H   0  0  0  0  0  0  0  0  0  0  0  0  # atno 8009 bound_to 7997
  155.9402  140.1086  157.1051 H   0  0  0  0  0  0  0  0  0  0  0  0  # atno 8010 bound_to 7997
  140.4802  143.2404  151.8070 H   0  0  0  0  0  0  0  0  0  0  0  0  # atno 10167 bound_to 10162
  156.4135  130.7993  151.2212 H   0  0  0  0  0  0  0  0  0  0  0  0  # atno 10718 bound_to 10713
  153.3759  135.6996  153.6602 H   0  0  0  0  0  0  0  0  0  0  0  0  # atno 10763 bound_to 10752
  153.5233  135.3607  155.2642 H   0  0  0  0  0  0  0  0  0  0  0  0  # atno 10764 bound_to 10752
  154.8687  135.4163  154.3047 H   0  0  0  0  0  0  0  0  0  0  0  0  # atno 10765 bound_to 10752
  139.8784  134.8929  156.4098 H   0  0  0  0  0  0  0  0  0  0  0  0  # atno 11005 bound_to 11000
  144.7648  139.6870  143.7219 LP  0  0  0  0  0  0  0  0  0  0  0  0  # atno 17320 bound_to 7965
  146.2072  139.5404  142.9705 LP  0  0  0  0  0  0  0  0  0  0  0  0  # atno 17321 bound_to 7965
  139.4832  144.4782  151.9339 LP  0  0  0  0  0  0  0  0  0  0  0  0  # atno 17342 bound_to 10162
  140.3868  144.2666  150.5903 LP  0  0  0  0  0  0  0  0  0  0  0  0  # atno 17343 bound_to 10162
  157.7507  131.0250  150.3901 LP  0  0  0  0  0  0  0  0  0  0  0  0  # atno 17370 bound_to 10713
  156.4204  130.3952  149.6829 LP  0  0  0  0  0  0  0  0  0  0  0  0  # atno 17371 bound_to 10713
  140.9209  133.7646  155.9905 LP  0  0  0  0  0  0  0  0  0  0  0  0  # atno 17394 bound_to 11000
  140.8441  134.3032  157.5302 LP  0  0  0  0  0  0  0  0  0  0  0  0  # atno 17395 bound_to 11000

$$$$
