AV-unprocessed.smi:1197|AV-procd|sdf|5009|dock8
  -GOLD-   22720 4 23D 1   1.00000     0.00000
 Structure written by MMmdl.
 41 42  0  0  0  0  0  0  0  0  2 V2000
  154.1088  141.1251  161.7150 C   0  0  0  0  0  0  0  0  0  0  0  0
  153.8077  142.4129  161.1889 O   0  0  0  0  0  0  0  0  0  0  0  0
  152.9772  142.4939  160.0901 C   0  0  0  0  0  0  0  0  0  0  0  0
  152.7806  143.7511  159.4850 C   0  0  0  0  0  0  0  0  0  0  0  0
  151.9341  143.8428  158.3637 C   0  0  0  0  0  0  0  0  0  0  0  0
  151.3023  142.6701  157.8859 C   0  0  0  0  0  0  0  0  0  0  0  0
  150.4459  142.6307  156.7527 N   0  0  0  0  0  0  0  0  0  0  0  0
  150.0625  141.5602  156.0362 C   0  0  0  0  0  0  0  0  0  0  0  0
  150.4384  140.4045  156.2309 O   0  0  0  0  0  0  0  0  0  0  0  0
  149.2223  141.9113  155.0520 N   0  0  0  0  0  0  0  0  0  0  0  0
  148.6297  140.9988  154.0796 C   0  0  0  0  0  0  0  0  0  0  0  0
  147.1178  141.2502  153.9569 C   0  0  0  0  0  0  0  0  0  0  0  0
  146.3532  139.9929  153.7602 N   0  3  0  0  0  0  0  0  0  0  0  0
  146.9543  139.1168  152.7263 C   0  0  0  0  0  0  0  0  0  0  0  0
  146.0967  137.8558  152.5231 C   0  0  0  0  0  0  0  0  0  0  0  0
  145.9532  137.1705  153.7607 O   0  0  0  0  0  0  0  0  0  0  0  0
  145.2997  137.9691  154.7391 C   0  0  0  0  0  0  0  0  0  0  0  0
  146.1328  139.2320  155.0153 C   0  0  0  0  0  0  0  0  0  0  0  0
  151.5773  141.4583  158.5528 C   0  0  0  0  0  0  0  0  0  0  0  0
  152.3862  141.3637  159.6291 N   0  0  0  0  0  0  0  0  0  0  0  0
  154.7794  141.2320  162.5674 H   0  0  0  0  0  0  0  0  0  0  0  0
  154.6108  140.4988  160.9763 H   0  0  0  0  0  0  0  0  0  0  0  0
  153.2088  140.6169  162.0641 H   0  0  0  0  0  0  0  0  0  0  0  0
  153.2751  144.6302  159.8709 H   0  0  0  0  0  0  0  0  0  0  0  0
  151.7999  144.8015  157.8869 H   0  0  0  0  0  0  0  0  0  0  0  0
  150.1304  143.5294  156.4178 H   0  0  0  0  0  0  0  0  0  0  0  0
  148.9718  142.8860  154.9714 H   0  0  0  0  0  0  0  0  0  0  0  0
  149.1123  141.1010  153.1077 H   0  0  0  0  0  0  0  0  0  0  0  0
  148.8136  139.9770  154.4129 H   0  0  0  0  0  0  0  0  0  0  0  0
  146.7800  141.7352  154.8741 H   0  0  0  0  0  0  0  0  0  0  0  0
  146.9027  141.9456  153.1438 H   0  0  0  0  0  0  0  0  0  0  0  0
  147.0357  139.6579  151.7829 H   0  0  0  0  0  0  0  0  0  0  0  0
  147.9659  138.8377  153.0251 H   0  0  0  0  0  0  0  0  0  0  0  0
  145.1161  138.1114  152.1185 H   0  0  0  0  0  0  0  0  0  0  0  0
  146.5735  137.1892  151.8041 H   0  0  0  0  0  0  0  0  0  0  0  0
  144.2950  138.2307  154.4030 H   0  0  0  0  0  0  0  0  0  0  0  0
  145.1875  137.3861  155.6535 H   0  0  0  0  0  0  0  0  0  0  0  0
  147.0945  138.9531  155.4490 H   0  0  0  0  0  0  0  0  0  0  0  0
  145.6180  139.8471  155.7524 H   0  0  0  0  0  0  0  0  0  0  0  0
  151.1311  140.5341  158.2158 H   0  0  0  0  0  0  0  0  0  0  0  0
  145.4438  140.2587  153.4099 H   0  0  0  0  0  0  0  0  0  0  0  0
  1  2  1  0  0  0  0
  1 21  1  0  0  0  0
  1 22  1  0  0  0  0
  1 23  1  0  0  0  0
  2  3  1  0  0  0  0
  3 20  1  0  0  0  0
  3  4  2  0  0  0  0
  4  5  1  0  0  0  0
  4 24  1  0  0  0  0
  5  6  2  0  0  0  0
  5 25  1  0  0  0  0
  6  7  1  0  0  0  0
  6 19  1  0  0  0  0
  7  8  1  0  0  0  0
  7 26  1  0  0  0  0
  8  9  2  0  0  0  0
  8 10  1  0  0  0  0
 10 11  1  0  0  0  0
 10 27  1  0  0  0  0
 11 12  1  0  0  0  0
 11 28  1  0  0  0  0
 11 29  1  0  0  0  0
 12 13  1  0  0  0  0
 12 30  1  0  0  0  0
 12 31  1  0  0  0  0
 13 18  1  0  0  0  0
 13 14  1  0  0  0  0
 13 41  1  0  0  0  0
 14 15  1  0  0  0  0
 14 32  1  0  0  0  0
 14 33  1  0  0  0  0
 15 16  1  0  0  0  0
 15 34  1  0  0  0  0
 15 35  1  0  0  0  0
 16 17  1  0  0  0  0
 17 18  1  0  0  0  0
 17 36  1  0  0  0  0
 17 37  1  0  0  0  0
 18 38  1  0  0  0  0
 18 39  1  0  0  0  0
 19 20  2  0  0  0  0
 19 40  1  0  0  0  0
M  CHG  1  13   1
M  END
> <s_m_source_file>
AV-unprocessed.smi

> <i_m_source_file_index>
1197

> <i_lp_mmshare_version>
43012

> <i_f3d_flags>
0

> <s_epik_input>
W0NIM11PYzFbY0hdW2NIXWMoW2NIXW4xKVtOSF1DKD1PKVtOSF1bQ0gyXVtDSDJdTjJbQ0gyXVtDSDJdT1tDSDJdW0NIMl0y

> <s_epik_cmdline>
J2VwaWtfcHl0aG9uJywgJy1waCcsICc3LjAnLCAnLXRuJywgJzgnLCAnLW1hJywgJzIwMCcsICctbWV0YWxfYmluZGluZycsICctaW1hZScsICc8aW5maWxlLm1hZT4nLCAnLW9tYWUnLCAnPG91dGZpbGUubWFlPic=

> <r_lp_tautomer_probability>
1

> <r_epik_Ionization_Penalty>
0.602607

> <r_epik_Ionization_Penalty_Charging>
0.602531

> <r_epik_Ionization_Penalty_Neutral>
7.65795e-05

> <r_epik_State_Penalty>
0.617039

> <r_epik_Charging_Adjusted_Penalty>
1.21957

> <i_epik_Tot_Q>
1

> <i_epik_Tot_abs_Q>
1

> <r_epik_Metal_State_Penalty>
0.617043

> <b_epik_Metal_Only>
0

> <s_lp_Force_Field>
OPLS_2005

> <r_lp_Energy>
19.492

> <b_lp_Chiralities_Consistent>
1

> <s_lp_Variant>
AV-unprocessed.smi:1197-2

> <Gold.Version>
5.8.1

> <Gold.Id.Protein>
6NUR|6NUR_protein|mol2

> <Gold.PLP.Fitness>
49.7850

> <Gold.PLP.PLP>
-38.8416

> <Gold.PLP.part.hbond>
-3.1221

> <Gold.PLP.part.metal>
0.0000

> <Gold.PLP.part.buried>
-1.5071

> <Gold.PLP.part.nonpolar>
-34.1623

> <Gold.PLP.part.repulsive>
0.4611

> <Gold.PLP.ligand.clash>
0.0000

> <Gold.PLP.ligand.torsion>
0.5454

> <Gold.PLP.Chemscore.Hbond>
4.0000

> <Gold.PLP.Chemscore.CHOScore>
0.0000

> <Gold.PLP.Chemscore.Metal>
0.0000

> <Gold.Chemscore.Hbonds>
donor molecule, donor type, donor heavy atom, donor atom, acceptor molecule, acceptor atom, score
      L1  H     7    26       P1  8028  1.00
      L1  H    10    27       P1  8028  1.00
      L1  H    13    41       P1 10175  2.00

> <Gold.PLP.Chemscore.Internal.Correction>
0.0341

> <Gold.Rescore>
     Score         DG    S(hbond)    S(metal)    S(lipo)     H(rot)  DE(clash)    DE(int)     intcor
     18.41     -20.52       2.93        0.00      84.86       1.83       0.15       1.96       ----

> <Gold.Chemscore.Fitness>
18.4069

> <Gold.Chemscore.DG>
-20.5151

> <Gold.Chemscore.ZeroCoef>
-5.4800

> <Gold.Chemscore.Hbond>
2.9284

> <Gold.Chemscore.Metal>
0.0000

> <Gold.Chemscore.Lipo>
84.8618

> <Gold.Chemscore.Internal_Hbond>
0.0000

> <Gold.Chemscore.DEClash>
0.1514

> <Gold.Chemscore.DEInternal>
1.9568

> <Gold.Chemscore.Rot>
1.8260

> <Gold.Chemscore.Internal.Correction>
   9.000000E+99

> <Gold.Chemscore.Hbonds>
donor molecule, donor type, donor heavy atom, donor atom, acceptor molecule, acceptor atom, score
      L1  H     7    26       P1  8028  0.98
      L1  H    10    27       P1  8028  0.97
      L1  H    13    41       P1 10175  0.96

> <Gold.Chemscore.Hbond.Weighted>
-9.7807

> <Gold.Chemscore.Metal.Weighted>
-0.0000

> <Gold.Chemscore.Lipo.Weighted>
-9.9288

> <Gold.Chemscore.Internal_Hbond.Weighted>
0.0000

> <Gold.Chemscore.DEClash.Weighted>
0.1514

> <Gold.Chemscore.DEInternal.Weighted>
1.9568

> <Gold.Chemscore.Rot.Weighted>
4.6744

> <Gold.Chemscore.Internal.Correction.Weighted>
   9.000000E+99

> <Gold.Protein.RotatedTorsions>
[ 6907 6896 6895 6894 ] final   31.71 input  -60.11 | X-H torsion
[ 7974 7965 7964 7962 ] final  153.02 input  175.53 | X-H torsion
[ 8008 7997 7996 7995 ] final  114.79 input   59.86 | X-H torsion
[ 10167 10162 10161 10158 ] final  -23.16 input  -65.29 | X-H torsion
[ 10718 10713 10712 10709 ] final   72.21 input   66.30 | X-H torsion
[ 10763 10752 10751 10750 ] final  -58.19 input  -60.55 | X-H torsion
[ 11005 11000 10999 10996 ] final -113.72 input  -57.11 | X-H torsion

> <Gold.Protein.ActiveResidues>
 VAL166  LYS551  ARG553  GLY616  TRP617  ASP618  TYR619  PRO620  LYS621  CYS622 
 ASP623  PHE694  ASN695  SER759  ASP760  ASP761  ALA762  ILE779  LEU786  VAL792 
 PHE793  MET794  SER795  GLU796  ALA797  LYS798  CYS799  TRP800  GLU811  SER814 

> <Gold.Protein.RotatedAtoms>
  152.0641  134.9575  160.0574 H   0  0  0  0  0  0  0  0  0  0  0  0  # atno 6907 bound_to 6896
  152.0927  133.4204  159.4559 H   0  0  0  0  0  0  0  0  0  0  0  0  # atno 6908 bound_to 6896
  150.6837  134.2772  159.4656 H   0  0  0  0  0  0  0  0  0  0  0  0  # atno 6909 bound_to 6896
  144.8182  139.6746  143.6112 H   0  0  0  0  0  0  0  0  0  0  0  0  # atno 7974 bound_to 7965
  156.2342  140.2952  156.0269 H   0  0  0  0  0  0  0  0  0  0  0  0  # atno 8008 bound_to 7997
  155.2138  140.0413  157.2955 H   0  0  0  0  0  0  0  0  0  0  0  0  # atno 8009 bound_to 7997
  154.6049  140.2437  155.7751 H   0  0  0  0  0  0  0  0  0  0  0  0  # atno 8010 bound_to 7997
  140.7287  143.4469  151.0574 H   0  0  0  0  0  0  0  0  0  0  0  0  # atno 10167 bound_to 10162
  157.6490  130.9567  150.0897 H   0  0  0  0  0  0  0  0  0  0  0  0  # atno 10718 bound_to 10713
  154.2342  135.6355  153.5185 H   0  0  0  0  0  0  0  0  0  0  0  0  # atno 10763 bound_to 10752
  152.9943  135.5526  154.5980 H   0  0  0  0  0  0  0  0  0  0  0  0  # atno 10764 bound_to 10752
  154.5470  135.2899  155.1018 H   0  0  0  0  0  0  0  0  0  0  0  0  # atno 10765 bound_to 10752
  141.0597  133.9556  157.2690 H   0  0  0  0  0  0  0  0  0  0  0  0  # atno 11005 bound_to 11000
  146.2487  139.6152  142.9442 LP  0  0  0  0  0  0  0  0  0  0  0  0  # atno 17320 bound_to 7965
  145.5165  141.0433  143.2459 LP  0  0  0  0  0  0  0  0  0  0  0  0  # atno 17321 bound_to 7965
  139.8141  143.7910  152.3173 LP  0  0  0  0  0  0  0  0  0  0  0  0  # atno 17342 bound_to 10162
  139.7970  144.7389  150.9877 LP  0  0  0  0  0  0  0  0  0  0  0  0  # atno 17343 bound_to 10162
  156.1850  130.3652  149.8985 LP  0  0  0  0  0  0  0  0  0  0  0  0  # atno 17370 bound_to 10713
  156.6927  130.8902  151.3590 LP  0  0  0  0  0  0  0  0  0  0  0  0  # atno 17371 bound_to 10713
  139.9421  135.0189  156.8741 LP  0  0  0  0  0  0  0  0  0  0  0  0  # atno 17394 bound_to 11000
  140.5894  134.0276  155.7494 LP  0  0  0  0  0  0  0  0  0  0  0  0  # atno 17395 bound_to 11000

$$$$
