#       Name:                AV-unprocessed.smi:1881
#       Creating user name   scv26
#       Creation time:       Fri Mar 27 09:36:52 2020


#       File generated by GOLD software.
#

@<TRIPOS>MOLECULE
AV-unprocessed.smi:1881
    55    56     1
SMALL
NO_CHARGES


@<TRIPOS>ATOM
      1 ****        -2.5309   1.8284  -1.3079 C.3            1 S1                 0.0000
      2 ****        -3.6810   1.6925  -0.2782 C.3            1 S1                 0.0000
      3 ****        -4.3175   3.1047  -0.1698 C.3            1 S1                 0.0000
      4 ****        -4.8099   0.7565  -0.7683 C.3            1 S1                 0.0000
      5 ****        -3.1641   1.2561   1.1320 C.2            1 S1                 0.0000
      6 ****        -3.4314   1.9897   2.0867 O.2            1 S1                 0.0000
      7 ****        -2.4396   0.1191   1.3365 N.am           1 S1                 0.0000
      8 ****        -1.9988  -0.8766   0.3501 C.3            1 S1                 0.0000
      9 ****        -0.4757  -0.7562   0.1592 C.3            1 S1                 0.0000
     10 ****         0.2677  -0.9442   1.5020 C.3            1 S1                 0.0000
     11 ****         1.7679  -0.6722   1.3367 C.2            1 S1                 0.0000
     12 ****         2.1652   0.4542   1.0366 O.2            1 S1                 0.0000
     13 ****         2.5896  -1.7199   1.5107 N.am           1 S1                 0.0000
     14 ****         4.0441  -1.6897   1.3759 C.3            1 S1                 0.0000
     15 ****         4.5271  -2.1011  -0.0300 C.3            1 S1                 0.0000
     16 ****         4.0268  -1.1973  -1.1443 C.ar           1 S1                 0.0000
     17 ****         4.7099  -0.0181  -1.5120 C.ar           1 S1                 0.0000
     18 ****         4.1757   0.7992  -2.5296 C.ar           1 S1                 0.0000
     19 ****         2.9708   0.4217  -3.1575 C.ar           1 S1                 0.0000
     20 ****         2.3299  -0.7664  -2.7518 C.ar           1 S1                 0.0000
     21 ****         2.8741  -1.5235  -1.7741 N.pl3          1 S1                 1.0000
     22 ****        -0.3474  -0.0470   2.6008 C.3            1 S1                 0.0000
     23 ****        -1.8768  -0.2125   2.6568 C.3            1 S1                 0.0000
     24 ****        -2.8010   2.5094  -2.1157 H              1 S1                 0.0000
     25 ****        -2.2729   0.8932  -1.7985 H              1 S1                 0.0000
     26 ****        -1.6257   2.2285  -0.8491 H              1 S1                 0.0000
     27 ****        -3.5956   3.8498   0.1687 H              1 S1                 0.0000
     28 ****        -5.1619   3.1220   0.5214 H              1 S1                 0.0000
     29 ****        -4.6992   3.4466  -1.1328 H              1 S1                 0.0000
     30 ****        -5.2586   1.1367  -1.6866 H              1 S1                 0.0000
     31 ****        -5.6080   0.6823  -0.0283 H              1 S1                 0.0000
     32 ****        -4.4818  -0.2570  -0.9830 H              1 S1                 0.0000
     33 ****        -2.2429  -1.8744   0.7175 H              1 S1                 0.0000
     34 ****        -2.4994  -0.8160  -0.6068 H              1 S1                 0.0000
     35 ****        -0.1373  -1.5014  -0.5619 H              1 S1                 0.0000
     36 ****        -0.2410   0.2178  -0.2728 H              1 S1                 0.0000
     37 ****         0.1353  -1.9825   1.8119 H              1 S1                 0.0000
     38 ****         2.1753  -2.6061   1.7619 H              1 S1                 0.0000
     39 ****         4.4323  -0.7024   1.6323 H              1 S1                 0.0000
     40 ****         4.4595  -2.3762   2.1139 H              1 S1                 0.0000
     41 ****         5.6174  -2.1063  -0.0509 H              1 S1                 0.0000
     42 ****         4.2187  -3.1265  -0.2389 H              1 S1                 0.0000
     43 ****         5.6267   0.2632  -1.0146 H              1 S1                 0.0000
     44 ****         4.6820   1.7075  -2.8221 H              1 S1                 0.0000
     45 ****         2.5440   1.0361  -3.9367 H              1 S1                 0.0000
     46 ****         1.4040  -1.1291  -3.1736 H              1 S1                 0.0000
     47 ****         0.0847  -0.2949   3.5711 H              1 S1                 0.0000
     48 ****        -0.1103   1.0023   2.4160 H              1 S1                 0.0000
     49 ****        -2.2783   0.3944   3.4688 H              1 S1                 0.0000
     50 ****        -2.1333  -1.2404   2.9179 H              1 S1                 0.0000
     51 ****         2.3893  -2.3752  -1.4909 H              1 S1                 0.0000
     52 ****        -3.9595   2.8265   1.9418 LP             1 S1                 0.0000
     53 ****        -3.1200   1.7478   3.0057 LP             1 S1                 0.0000
     54 ****         1.5087   1.1960   0.8997 LP             1 S1                 0.0000
     55 ****         3.1444   0.6271   0.9299 LP             1 S1                 0.0000
@<TRIPOS>BOND
    1    1    2 1     
    2    1   24 1     
    3    1   25 1     
    4    1   26 1     
    5    2    3 1     
    6    2    4 1     
    7    2    5 1     
    8    3   27 1     
    9    3   28 1     
   10    3   29 1     
   11    4   30 1     
   12    4   31 1     
   13    4   32 1     
   14    5    6 2     
   15    5    7 am    
   16    7   23 1     
   17    7    8 1     
   18    8    9 1     
   19    8   33 1     
   20    8   34 1     
   21    9   10 1     
   22    9   35 1     
   23    9   36 1     
   24   10   11 1     
   25   10   22 1     
   26   10   37 1     
   27   11   12 2     
   28   11   13 am    
   29   13   14 1     
   30   13   38 1     
   31   14   15 1     
   32   14   39 1     
   33   14   40 1     
   34   15   16 1     
   35   15   41 1     
   36   15   42 1     
   37   16   21 ar    
   38   16   17 ar    
   39   17   18 ar    
   40   17   43 1     
   41   18   19 ar    
   42   18   44 1     
   43   19   20 ar    
   44   19   45 1     
   45   20   21 ar    
   46   20   46 1     
   47   21   51 1     
   48   22   23 1     
   49   22   47 1     
   50   22   48 1     
   51   23   49 1     
   52   23   50 1     
   53    6   52 1     
   54    6   53 1     
   55   12   54 1     
   56   12   55 1     
@<TRIPOS>SUBSTRUCTURE
      1 S1             1
@<TRIPOS>SET
LONE_PAIRS      STATIC     ATOMS    <user>   **** ""
4 52 53 54 55
DONOR_HYDROGENS      STATIC     ATOMS    <user>   **** ""
2 38 51
ATOM$BLUE        STATIC     ATOMS    COLORGROUP SYSTEM
4 52 53 54 55
ATOM$RED        STATIC     ATOMS    COLORGROUP SYSTEM
2 38 51
