AV-unprocessed.smi:1424|AV-procd|sdf|5801|dock2
  -GOLD-   22720 5453D 1   1.00000     0.00000
 Structure written by MMmdl.
 46 48  0  0  0  0  0  0  0  0  2 V2000
  150.5432  133.8963  155.5853 O   0  0  0  0  0  0  0  0  0  0  0  0
  149.9348  134.5548  154.7421 C   0  0  0  0  0  0  0  0  0  0  0  0
  150.0126  135.8894  154.6463 N   0  0  0  0  0  0  0  0  0  0  0  0
  150.8206  136.7462  155.5085 C   0  0  0  0  0  0  0  0  0  0  0  0
  151.3978  137.9713  154.7616 C   0  0  2  0  0  0  0  0  0  0  0  0
  151.9098  139.0698  155.7213 C   0  0  0  0  0  0  0  0  0  0  0  0
  150.7159  139.8715  156.2571 C   0  0  0  0  0  0  0  0  0  0  0  0
  149.4534  139.8376  154.9285 S   0  0  0  0  0  0  0  0  0  0  0  0
  148.2266  139.2206  155.4551 O   0  0  0  0  0  0  0  0  0  0  0  0
  149.4145  141.1403  154.2471 O   0  0  0  0  0  0  0  0  0  0  0  0
  150.3358  138.6306  153.8672 C   0  0  0  0  0  0  0  0  0  0  0  0
  149.0980  134.0480  153.8209 N   0  0  0  0  0  0  0  0  0  0  0  0
  148.7319  132.6865  153.6180 C   0  0  0  0  0  0  0  0  0  0  0  0
  149.5589  131.6253  154.0695 C   0  0  0  0  0  0  0  0  0  0  0  0
  149.1602  130.2898  153.8734 C   0  0  0  0  0  0  0  0  0  0  0  0
  147.9409  130.0328  153.2243 C   0  0  0  0  0  0  0  0  0  0  0  0
  147.1862  131.0622  152.7883 N   0  3  0  0  0  0  0  0  0  0  0  0
  147.5226  132.3685  152.9330 C   0  0  0  0  0  0  0  0  0  0  0  0
  146.6364  133.3384  152.4106 N   0  0  0  0  0  0  0  0  0  0  0  0
  145.4889  133.7874  153.1910 C   0  0  0  0  0  0  0  0  0  0  0  0
  144.5983  134.5267  152.1962 C   0  0  0  0  0  0  0  0  0  0  0  0
  144.8070  133.7281  150.9133 C   0  0  0  0  0  0  0  0  0  0  0  0
  146.2689  133.2775  150.9995 C   0  0  0  0  0  0  0  0  0  0  0  0
  149.4774  136.3496  153.9245 H   0  0  0  0  0  0  0  0  0  0  0  0
  150.2194  137.0724  156.3589 H   0  0  0  0  0  0  0  0  0  0  0  0
  151.6254  136.1391  155.9235 H   0  0  0  0  0  0  0  0  0  0  0  0
  152.2206  137.6278  154.1335 H   0  0  0  0  0  0  0  0  0  0  0  0
  152.5243  138.6749  156.5303 H   0  0  0  0  0  0  0  0  0  0  0  0
  152.5503  139.7466  155.1547 H   0  0  0  0  0  0  0  0  0  0  0  0
  150.2900  139.3956  157.1405 H   0  0  0  0  0  0  0  0  0  0  0  0
  150.9733  140.9011  156.5059 H   0  0  0  0  0  0  0  0  0  0  0  0
  150.8110  139.1867  153.0588 H   0  0  0  0  0  0  0  0  0  0  0  0
  149.6304  137.9252  153.4275 H   0  0  0  0  0  0  0  0  0  0  0  0
  148.5933  134.7215  153.2640 H   0  0  0  0  0  0  0  0  0  0  0  0
  150.5013  131.8142  154.5609 H   0  0  0  0  0  0  0  0  0  0  0  0
  149.7809  129.4757  154.2183 H   0  0  0  0  0  0  0  0  0  0  0  0
  147.5523  129.0428  153.0339 H   0  0  0  0  0  0  0  0  0  0  0  0
  144.9478  132.9339  153.6014 H   0  0  0  0  0  0  0  0  0  0  0  0
  145.7949  134.4309  154.0164 H   0  0  0  0  0  0  0  0  0  0  0  0
  143.5547  134.5697  152.5092 H   0  0  0  0  0  0  0  0  0  0  0  0
  144.9553  135.5488  152.0611 H   0  0  0  0  0  0  0  0  0  0  0  0
  144.1527  132.8553  150.9163 H   0  0  0  0  0  0  0  0  0  0  0  0
  144.5933  134.3042  150.0125 H   0  0  0  0  0  0  0  0  0  0  0  0
  146.9034  133.9672  150.4424 H   0  0  0  0  0  0  0  0  0  0  0  0
  146.4009  132.2782  150.5825 H   0  0  0  0  0  0  0  0  0  0  0  0
  146.3114  130.8428  152.3117 H   0  0  0  0  0  0  0  0  0  0  0  0
  1  2  2  0  0  0  0
  2  3  1  0  0  0  0
  2 12  1  0  0  0  0
  3  4  1  0  0  0  0
  3 24  1  0  0  0  0
  4  5  1  0  0  0  0
  4 25  1  0  0  0  0
  4 26  1  0  0  0  0
  5 11  1  0  0  0  0
  5  6  1  0  0  0  0
  5 27  1  0  0  0  0
  6  7  1  0  0  0  0
  6 28  1  0  0  0  0
  6 29  1  0  0  0  0
  7  8  1  0  0  0  0
  7 30  1  0  0  0  0
  7 31  1  0  0  0  0
  8  9  2  0  0  0  0
  8 10  2  0  0  0  0
  8 11  1  0  0  0  0
 11 32  1  0  0  0  0
 11 33  1  0  0  0  0
 12 13  1  0  0  0  0
 12 34  1  0  0  0  0
 13 18  1  0  0  0  0
 13 14  2  0  0  0  0
 14 15  1  0  0  0  0
 14 35  1  0  0  0  0
 15 16  2  0  0  0  0
 15 36  1  0  0  0  0
 16 17  1  0  0  0  0
 16 37  1  0  0  0  0
 17 18  2  0  0  0  0
 17 46  1  0  0  0  0
 18 19  1  0  0  0  0
 19 23  1  0  0  0  0
 19 20  1  0  0  0  0
 20 21  1  0  0  0  0
 20 38  1  0  0  0  0
 20 39  1  0  0  0  0
 21 22  1  0  0  0  0
 21 40  1  0  0  0  0
 21 41  1  0  0  0  0
 22 23  1  0  0  0  0
 22 42  1  0  0  0  0
 22 43  1  0  0  0  0
 23 44  1  0  0  0  0
 23 45  1  0  0  0  0
M  CHG  1  17   1
M  END
> <s_m_source_file>
AV-unprocessed.smi

> <i_m_source_file_index>
1424

> <i_lp_mmshare_version>
43012

> <i_f3d_flags>
0

> <s_epik_input>
Tz1TMSg9TylbQ0gyXVtDSDJdW0NASF0oW0NIMl0xKVtDSDJdW05IXUMoPU8pW05IXWMyW2NIXVtjSF1bY0hdbmMyTjNbQ0gyXVtDSDJdW0NIMl1bQ0gyXTM=

> <s_epik_cmdline>
J2VwaWtfcHl0aG9uJywgJy1waCcsICc3LjAnLCAnLXRuJywgJzgnLCAnLW1hJywgJzIwMCcsICctbWV0YWxfYmluZGluZycsICctaW1hZScsICc8aW5maWxlLm1hZT4nLCAnLW9tYWUnLCAnPG91dGZpbGUubWFlPic=

> <r_lp_tautomer_probability>
0.999994

> <r_epik_Ionization_Penalty>
1.12573

> <r_epik_Ionization_Penalty_Charging>
1.12571

> <r_epik_Ionization_Penalty_Neutral>
1.92863e-05

> <r_epik_State_Penalty>
1.18495

> <r_epik_Charging_Adjusted_Penalty>
2.31065

> <i_epik_Tot_Q>
1

> <i_epik_Tot_abs_Q>
1

> <r_epik_Metal_State_Penalty>
1.26881

> <b_epik_Metal_Only>
0

> <s_lp_Force_Field>
OPLS_2005

> <r_lp_Energy>
41.4787

> <b_lp_Chiralities_Consistent>
1

> <s_lp_Variant>
AV-unprocessed.smi:1424-3

> <Gold.Version>
5.8.1

> <Gold.Id.Protein>
6NUR|6NUR_protein|mol2

> <Gold.PLP.Fitness>
45.8080

> <Gold.PLP.PLP>
-38.2323

> <Gold.PLP.part.hbond>
-5.1002

> <Gold.PLP.part.metal>
0.0000

> <Gold.PLP.part.buried>
-2.6579

> <Gold.PLP.part.nonpolar>
-30.9766

> <Gold.PLP.part.repulsive>
1.2924

> <Gold.PLP.ligand.clash>
0.0000

> <Gold.PLP.ligand.torsion>
0.7720

> <Gold.PLP.Chemscore.Hbond>
2.9103

> <Gold.PLP.Chemscore.CHOScore>
0.0000

> <Gold.PLP.Chemscore.Metal>
0.0000

> <Gold.Chemscore.Hbonds>
donor molecule, donor type, donor heavy atom, donor atom, acceptor molecule, acceptor atom, score
      L1  H     3    24       P1  7948  0.68
      L1  H    12    34       P1  7948  0.74
      P1  H  7989  7998       L1    10  0.07
      P1  H  8011  8017       L1    10  0.20

> <Gold.PLP.Chemscore.Internal.Correction>
0.3888

> <Gold.Rescore>
     Score         DG    S(hbond)    S(metal)    S(lipo)     H(rot)  DE(clash)    DE(int)     intcor
     14.33     -17.10       1.94        0.00      76.62       1.50       0.66       2.11       ----

> <Gold.Chemscore.Fitness>
14.3336

> <Gold.Chemscore.DG>
-17.1013

> <Gold.Chemscore.ZeroCoef>
-5.4800

> <Gold.Chemscore.Hbond>
1.9422

> <Gold.Chemscore.Metal>
0.0000

> <Gold.Chemscore.Lipo>
76.6218

> <Gold.Chemscore.Internal_Hbond>
0.0000

> <Gold.Chemscore.DEClash>
0.6584

> <Gold.Chemscore.DEInternal>
2.1093

> <Gold.Chemscore.Rot>
1.4962

> <Gold.Chemscore.Internal.Correction>
   9.000000E+99

> <Gold.Chemscore.Hbonds>
donor molecule, donor type, donor heavy atom, donor atom, acceptor molecule, acceptor atom, score
      L1  H     3    24       P1  7948  0.52
      L1  H    12    34       P1  7948  0.31
      P1  H  8011  8017       L1    10  0.19

> <Gold.Chemscore.Hbond.Weighted>
-6.4869

> <Gold.Chemscore.Metal.Weighted>
-0.0000

> <Gold.Chemscore.Lipo.Weighted>
-8.9647

> <Gold.Chemscore.Internal_Hbond.Weighted>
0.0000

> <Gold.Chemscore.DEClash.Weighted>
0.6584

> <Gold.Chemscore.DEInternal.Weighted>
2.1093

> <Gold.Chemscore.Rot.Weighted>
3.8303

> <Gold.Chemscore.Internal.Correction.Weighted>
   9.000000E+99

> <Gold.Protein.RotatedTorsions>
[ 6907 6896 6895 6894 ] final   55.06 input  -60.11 | X-H torsion
[ 7974 7965 7964 7962 ] final   77.61 input  175.53 | X-H torsion
[ 8008 7997 7996 7995 ] final   17.41 input   59.86 | X-H torsion
[ 10167 10162 10161 10158 ] final -109.92 input  -65.29 | X-H torsion
[ 10718 10713 10712 10709 ] final   99.49 input   66.30 | X-H torsion
[ 10763 10752 10751 10750 ] final   64.48 input  -60.55 | X-H torsion
[ 11005 11000 10999 10996 ] final  -73.56 input  -57.11 | X-H torsion

> <Gold.Protein.ActiveResidues>
 VAL166  LYS551  ARG553  GLY616  TRP617  ASP618  TYR619  PRO620  LYS621  CYS622 
 ASP623  PHE694  ASN695  SER759  ASP760  ASP761  ALA762  ILE779  LEU786  VAL792 
 PHE793  MET794  SER795  GLU796  ALA797  LYS798  CYS799  TRP800  GLU811  SER814 

> <Gold.Protein.RotatedAtoms>
  152.3501  134.7017  160.0238 H   0  0  0  0  0  0  0  0  0  0  0  0  # atno 6907 bound_to 6896
  151.7374  133.3315  159.3364 H   0  0  0  0  0  0  0  0  0  0  0  0  # atno 6908 bound_to 6896
  150.7535  134.6242  159.6197 H   0  0  0  0  0  0  0  0  0  0  0  0  # atno 6909 bound_to 6896
  145.6878  139.2543  143.1777 H   0  0  0  0  0  0  0  0  0  0  0  0  # atno 7974 bound_to 7965
  154.8910  140.2987  155.5371 H   0  0  0  0  0  0  0  0  0  0  0  0  # atno 8008 bound_to 7997
  156.3021  140.2424  156.3860 H   0  0  0  0  0  0  0  0  0  0  0  0  # atno 8009 bound_to 7997
  154.8618  140.0405  157.1659 H   0  0  0  0  0  0  0  0  0  0  0  0  # atno 8010 bound_to 7997
  140.1501  143.4206  152.1501 H   0  0  0  0  0  0  0  0  0  0  0  0  # atno 10167 bound_to 10162
  157.6875  131.0671  150.4957 H   0  0  0  0  0  0  0  0  0  0  0  0  # atno 10718 bound_to 10713
  153.0057  135.5391  154.6517 H   0  0  0  0  0  0  0  0  0  0  0  0  # atno 10763 bound_to 10752
  154.5747  135.2844  155.0794 H   0  0  0  0  0  0  0  0  0  0  0  0  # atno 10764 bound_to 10752
  154.1946  135.6494  153.5122 H   0  0  0  0  0  0  0  0  0  0  0  0  # atno 10765 bound_to 10752
  141.1624  133.6882  156.7231 H   0  0  0  0  0  0  0  0  0  0  0  0  # atno 11005 bound_to 11000
  146.0908  140.7658  142.9596 LP  0  0  0  0  0  0  0  0  0  0  0  0  # atno 17320 bound_to 7965
  144.7006  140.3634  143.7159 LP  0  0  0  0  0  0  0  0  0  0  0  0  # atno 17321 bound_to 7965
  139.5430  144.7274  151.4673 LP  0  0  0  0  0  0  0  0  0  0  0  0  # atno 17342 bound_to 10162
  140.6708  143.8298  150.6997 LP  0  0  0  0  0  0  0  0  0  0  0  0  # atno 17343 bound_to 10162
  156.5281  130.4178  149.6215 LP  0  0  0  0  0  0  0  0  0  0  0  0  # atno 17370 bound_to 10713
  156.3094  130.7220  151.2110 LP  0  0  0  0  0  0  0  0  0  0  0  0  # atno 17371 bound_to 10713
  140.2801  134.8323  157.3925 LP  0  0  0  0  0  0  0  0  0  0  0  0  # atno 17394 bound_to 11000
  140.1441  134.4934  155.8009 LP  0  0  0  0  0  0  0  0  0  0  0  0  # atno 17395 bound_to 11000

$$$$
