AV-unprocessed.smi:2696|AV-procd|sdf|10414|dock9
  -GOLD-   2272014453D 1   1.00000     0.00000
 Structure written by MMmdl.
 43 44  0  0  0  0  0  0  0  0  1 V2000
  151.8713  144.3929  159.6353 C   0  0  0  0  0  0  0  0  0  0  0  0
  151.9258  142.8620  159.7613 C   0  0  0  0  0  0  0  0  0  0  0  0
  153.2691  142.3868  160.3357 C   0  0  0  0  0  0  0  0  0  0  0  0
  151.6115  142.1787  158.4370 C   0  0  0  0  0  0  0  0  0  0  0  0
  152.4704  141.3150  157.8439 C   0  0  0  0  0  0  0  0  0  0  0  0
  152.1435  140.6958  156.5599 C   0  0  0  0  0  0  0  0  0  0  0  0
  152.8894  139.8868  156.0086 O   0  0  0  0  0  0  0  0  0  0  0  0
  150.9558  141.0911  156.0153 N   0  0  0  0  0  0  0  0  0  0  0  0
  150.5293  140.6053  154.6855 C   0  0  0  0  0  0  0  0  0  0  0  0
  149.2715  139.6820  154.6995 C   0  0  2  0  0  0  0  0  0  0  0  0
  149.4281  138.5922  155.7816 C   0  0  0  0  0  0  0  0  0  0  0  0
  149.2993  138.9284  153.5001 O   0  0  0  0  0  0  0  0  0  0  0  0
  147.9568  140.4582  154.8779 C   0  0  0  0  0  0  0  0  0  0  0  0
  147.5021  141.3632  153.8895 C   0  0  0  0  0  0  0  0  0  0  0  0
  146.3180  142.0985  154.0830 C   0  0  0  0  0  0  0  0  0  0  0  0
  145.5760  141.9422  155.2674 C   0  0  0  0  0  0  0  0  0  0  0  0
  146.0152  141.0516  156.2680 C   0  0  0  0  0  0  0  0  0  0  0  0
  145.2062  140.9021  157.5479 C   0  0  0  0  0  0  0  0  0  0  0  0
  145.7881  140.0666  158.4092 F   0  0  0  0  0  0  0  0  0  0  0  0
  145.0734  142.0886  158.1411 F   0  0  0  0  0  0  0  0  0  0  0  0
  143.9951  140.4324  157.2510 F   0  0  0  0  0  0  0  0  0  0  0  0
  147.2001  140.3111  156.0641 C   0  0  0  0  0  0  0  0  0  0  0  0
  150.0797  141.9638  156.6941 C   0  0  0  0  0  0  0  0  0  0  0  0
  150.3857  142.4865  157.8382 N   0  0  0  0  0  0  0  0  0  0  0  0
  150.9071  144.7190  159.2436 H   0  0  0  0  0  0  0  0  0  0  0  0
  152.6472  144.7709  158.9690 H   0  0  0  0  0  0  0  0  0  0  0  0
  152.0101  144.8697  160.6059 H   0  0  0  0  0  0  0  0  0  0  0  0
  151.1503  142.5716  160.4720 H   0  0  0  0  0  0  0  0  0  0  0  0
  153.2827  141.3027  160.4524 H   0  0  0  0  0  0  0  0  0  0  0  0
  153.4515  142.8252  161.3172 H   0  0  0  0  0  0  0  0  0  0  0  0
  154.1031  142.6634  159.6900 H   0  0  0  0  0  0  0  0  0  0  0  0
  153.4152  141.0823  158.3127 H   0  0  0  0  0  0  0  0  0  0  0  0
  150.3905  141.4417  153.9973 H   0  0  0  0  0  0  0  0  0  0  0  0
  151.3535  140.0448  154.2396 H   0  0  0  0  0  0  0  0  0  0  0  0
  149.5008  139.0124  156.7843 H   0  0  0  0  0  0  0  0  0  0  0  0
  150.3323  138.0025  155.6242 H   0  0  0  0  0  0  0  0  0  0  0  0
  148.5819  137.9035  155.7763 H   0  0  0  0  0  0  0  0  0  0  0  0
  149.6974  139.4532  152.8227 H   0  0  0  0  0  0  0  0  0  0  0  0
  148.0603  141.5163  152.9780 H   0  0  0  0  0  0  0  0  0  0  0  0
  145.9818  142.7881  153.3229 H   0  0  0  0  0  0  0  0  0  0  0  0
  144.6697  142.5122  155.4101 H   0  0  0  0  0  0  0  0  0  0  0  0
  147.5445  139.6401  156.8357 H   0  0  0  0  0  0  0  0  0  0  0  0
  149.1382  142.1768  156.1854 H   0  0  0  0  0  0  0  0  0  0  0  0
  1  2  1  0  0  0  0
  1 25  1  0  0  0  0
  1 26  1  0  0  0  0
  1 27  1  0  0  0  0
  2  3  1  0  0  0  0
  2  4  1  0  0  0  0
  2 28  1  0  0  0  0
  3 29  1  0  0  0  0
  3 30  1  0  0  0  0
  3 31  1  0  0  0  0
  4 24  1  0  0  0  0
  4  5  2  0  0  0  0
  5  6  1  0  0  0  0
  5 32  1  0  0  0  0
  6  7  2  0  0  0  0
  6  8  1  0  0  0  0
  8  9  1  0  0  0  0
  8 23  1  0  0  0  0
  9 10  1  0  0  0  0
  9 33  1  0  0  0  0
  9 34  1  0  0  0  0
 10 11  1  0  0  0  0
 10 12  1  0  0  0  0
 10 13  1  0  0  0  0
 11 35  1  0  0  0  0
 11 36  1  0  0  0  0
 11 37  1  0  0  0  0
 12 38  1  0  0  0  0
 13 22  1  0  0  0  0
 13 14  2  0  0  0  0
 14 15  1  0  0  0  0
 14 39  1  0  0  0  0
 15 16  2  0  0  0  0
 15 40  1  0  0  0  0
 16 17  1  0  0  0  0
 16 41  1  0  0  0  0
 17 18  1  0  0  0  0
 17 22  2  0  0  0  0
 18 19  1  0  0  0  0
 18 20  1  0  0  0  0
 18 21  1  0  0  0  0
 22 42  1  0  0  0  0
 23 24  2  0  0  0  0
 23 43  1  0  0  0  0
M  END
> <s_m_source_file>
AV-unprocessed.smi

> <i_m_source_file_index>
2696

> <i_lp_mmshare_version>
43012

> <i_f3d_flags>
0

> <s_epik_input>
W0NIM11bQ0hdKFtDSDNdKWMxW2NIXWMoPU8pbihbY0hdbjEpW0NIMl1bQ0BAXShbQ0gzXSkoW09IXSljMltjSF1bY0hdW2NIXWMoQyhGKShGKUYpW2NIXTI=

> <s_epik_cmdline>
J2VwaWtfcHl0aG9uJywgJy1waCcsICc3LjAnLCAnLXRuJywgJzgnLCAnLW1hJywgJzIwMCcsICctbWV0YWxfYmluZGluZycsICctaW1hZScsICc8aW5maWxlLm1hZT4nLCAnLW9tYWUnLCAnPG91dGZpbGUubWFlPic=

> <r_lp_tautomer_probability>
1

> <r_epik_Ionization_Penalty>
2.71388e-05

> <r_epik_Ionization_Penalty_Charging>
4.19927e-06

> <r_epik_Ionization_Penalty_Neutral>
2.29395e-05

> <r_epik_State_Penalty>
-0

> <r_epik_Charging_Adjusted_Penalty>
4.19927e-06

> <i_epik_Tot_Q>
0

> <i_epik_Tot_abs_Q>
0

> <r_epik_Metal_State_Penalty>
-0

> <b_epik_Metal_Only>
0

> <s_lp_Force_Field>
OPLS_2005

> <r_lp_Energy>
19.4026

> <b_lp_Chiralities_Consistent>
1

> <s_lp_Variant>
AV-unprocessed.smi:2696-2

> <Gold.Version>
5.8.1

> <Gold.Id.Protein>
6NUR|6NUR_protein|mol2

> <Gold.PLP.Fitness>
48.4862

> <Gold.PLP.PLP>
-40.5314

> <Gold.PLP.part.hbond>
-2.2109

> <Gold.PLP.part.metal>
0.0000

> <Gold.PLP.part.buried>
-3.6616

> <Gold.PLP.part.nonpolar>
-34.3450

> <Gold.PLP.part.repulsive>
0.1243

> <Gold.PLP.ligand.clash>
0.0626

> <Gold.PLP.ligand.torsion>
0.4609

> <Gold.PLP.Chemscore.Hbond>
1.9920

> <Gold.PLP.Chemscore.CHOScore>
0.8598

> <Gold.PLP.Chemscore.Metal>
0.0000

> <Gold.Chemscore.Hbonds>
donor molecule, donor type, donor heavy atom, donor atom, acceptor molecule, acceptor atom, score
      L1  H    12    38       P1  7957  0.94
      P1  H  7997  8009       L1     7  0.91
      L1  C    23    43       P1  8028  0.52

> <Gold.PLP.Chemscore.Internal.Correction>
0.3839

> <Gold.Rescore>
     Score         DG    S(hbond)    S(metal)    S(lipo)     H(rot)  DE(clash)    DE(int)     intcor
     14.68     -16.29       1.85        0.00      88.44       2.23       1.26       0.35       ----

> <Gold.Chemscore.Fitness>
14.6752

> <Gold.Chemscore.DG>
-16.2883

> <Gold.Chemscore.ZeroCoef>
-5.4800

> <Gold.Chemscore.Hbond>
1.8481

> <Gold.Chemscore.Metal>
0.0000

> <Gold.Chemscore.Lipo>
88.4398

> <Gold.Chemscore.Internal_Hbond>
0.0000

> <Gold.Chemscore.DEClash>
1.2639

> <Gold.Chemscore.DEInternal>
0.3493

> <Gold.Chemscore.Rot>
2.2312

> <Gold.Chemscore.Internal.Correction>
   9.000000E+99

> <Gold.Chemscore.Hbonds>
donor molecule, donor type, donor heavy atom, donor atom, acceptor molecule, acceptor atom, score
      L1  H    12    38       P1  7957  0.91
      P1  H  7997  8009       L1     7  0.74

> <Gold.Chemscore.Hbond.Weighted>
-6.1727

> <Gold.Chemscore.Metal.Weighted>
-0.0000

> <Gold.Chemscore.Lipo.Weighted>
-10.3475

> <Gold.Chemscore.Internal_Hbond.Weighted>
0.0000

> <Gold.Chemscore.DEClash.Weighted>
1.2639

> <Gold.Chemscore.DEInternal.Weighted>
0.3493

> <Gold.Chemscore.Rot.Weighted>
5.7118

> <Gold.Chemscore.Internal.Correction.Weighted>
   9.000000E+99

> <Gold.Protein.RotatedTorsions>
[ 6907 6896 6895 6894 ] final   59.38 input  -60.11 | X-H torsion
[ 7974 7965 7964 7962 ] final  155.52 input  175.53 | X-H torsion
[ 8008 7997 7996 7995 ] final -160.53 input   59.86 | X-H torsion
[ 10167 10162 10161 10158 ] final  -23.01 input  -65.29 | X-H torsion
[ 10718 10713 10712 10709 ] final  -71.49 input   66.30 | X-H torsion
[ 10763 10752 10751 10750 ] final  -96.14 input  -60.55 | X-H torsion
[ 11005 11000 10999 10996 ] final  177.86 input  -57.11 | X-H torsion

> <Gold.Protein.ActiveResidues>
 VAL166  LYS551  ARG553  GLY616  TRP617  ASP618  TYR619  PRO620  LYS621  CYS622 
 ASP623  PHE694  ASN695  SER759  ASP760  ASP761  ALA762  ILE779  LEU786  VAL792 
 PHE793  MET794  SER795  GLU796  ALA797  LYS798  CYS799  TRP800  GLU811  SER814 

> <Gold.Protein.RotatedAtoms>
  152.3910  134.6442  160.0107 H   0  0  0  0  0  0  0  0  0  0  0  0  # atno 6907 bound_to 6896
  151.6676  133.3309  159.3197 H   0  0  0  0  0  0  0  0  0  0  0  0  # atno 6908 bound_to 6896
  150.7826  134.6827  159.6497 H   0  0  0  0  0  0  0  0  0  0  0  0  # atno 6909 bound_to 6896
  144.8020  139.7079  143.6178 H   0  0  0  0  0  0  0  0  0  0  0  0  # atno 7974 bound_to 7965
  155.7789  140.0862  157.2069 H   0  0  0  0  0  0  0  0  0  0  0  0  # atno 8008 bound_to 7997
  154.3991  140.1511  156.3086 H   0  0  0  0  0  0  0  0  0  0  0  0  # atno 8009 bound_to 7997
  155.8673  140.3427  155.5800 H   0  0  0  0  0  0  0  0  0  0  0  0  # atno 8010 bound_to 7997
  140.7287  143.4482  151.0556 H   0  0  0  0  0  0  0  0  0  0  0  0  # atno 10167 bound_to 10162
  156.0360  130.4352  150.2452 H   0  0  0  0  0  0  0  0  0  0  0  0  # atno 10718 bound_to 10713
  154.7212  135.5095  153.8815 H   0  0  0  0  0  0  0  0  0  0  0  0  # atno 10763 bound_to 10752
  153.0864  135.6646  153.9949 H   0  0  0  0  0  0  0  0  0  0  0  0  # atno 10764 bound_to 10752
  153.9771  135.3032  155.3402 H   0  0  0  0  0  0  0  0  0  0  0  0  # atno 10765 bound_to 10752
  140.3887  134.6881  157.4495 H   0  0  0  0  0  0  0  0  0  0  0  0  # atno 11005 bound_to 11000
  146.2303  139.5801  142.9560 LP  0  0  0  0  0  0  0  0  0  0  0  0  # atno 17320 bound_to 7965
  145.5531  141.0411  143.2267 LP  0  0  0  0  0  0  0  0  0  0  0  0  # atno 17321 bound_to 7965
  139.8156  143.7891  152.3174 LP  0  0  0  0  0  0  0  0  0  0  0  0  # atno 17342 bound_to 10162
  139.7956  144.7394  150.9895 LP  0  0  0  0  0  0  0  0  0  0  0  0  # atno 17343 bound_to 10162
  157.0551  131.0074  151.3241 LP  0  0  0  0  0  0  0  0  0  0  0  0  # atno 17370 bound_to 10713
  157.5112  130.7939  149.7707 LP  0  0  0  0  0  0  0  0  0  0  0  0  # atno 17371 bound_to 10713
  140.0423  134.6250  155.8965 LP  0  0  0  0  0  0  0  0  0  0  0  0  # atno 17394 bound_to 11000
  141.1898  133.6566  156.5384 LP  0  0  0  0  0  0  0  0  0  0  0  0  # atno 17395 bound_to 11000

$$$$
