AV-unprocessed.smi:1301|AV-procd|sdf|5421|dock6
  -GOLD-   22720 4583D 1   1.00000     0.00000
 Structure written by MMmdl.
 45 46  0  0  0  0  0  0  0  0  2 V2000
  153.0085  141.7116  159.1916 C   0  0  0  0  0  0  0  0  0  0  0  0
  152.0246  141.1423  158.2282 C   0  0  0  0  0  0  0  0  0  0  0  0
  150.6929  141.3656  158.0170 C   0  0  0  0  0  0  0  0  0  0  0  0
  150.3870  140.4840  156.9463 C   0  0  0  0  0  0  0  0  0  0  0  0
  149.0736  140.4096  156.4161 N   0  0  0  0  0  0  0  0  0  0  0  0
  148.6398  139.6265  155.4135 C   0  0  0  0  0  0  0  0  0  0  0  0
  149.3365  138.8266  154.7884 O   0  0  0  0  0  0  0  0  0  0  0  0
  147.3347  139.8222  155.1722 N   0  0  0  0  0  0  0  0  0  0  0  0
  146.5457  139.1328  154.1540 C   0  0  2  0  0  0  0  0  0  0  0  0
  146.3999  137.6462  154.5138 C   0  0  0  0  0  0  0  0  0  0  0  0
  145.6544  136.8796  153.4085 C   0  0  0  0  0  0  0  0  0  0  0  0
  146.3283  137.0367  152.0936 N   0  3  1  0  0  0  0  0  0  0  0  0
  145.7019  136.1998  151.0377 C   0  0  0  0  0  0  0  0  0  0  0  0
  145.2636  134.8109  151.5499 C   0  0  0  0  0  0  0  0  0  0  0  0
  146.4861  133.9791  151.9654 C   0  0  0  0  0  0  0  0  0  0  0  0
  144.4288  134.0525  150.5042 C   0  0  0  0  0  0  0  0  0  0  0  0
  146.4533  138.4688  151.7106 C   0  0  0  0  0  0  0  0  0  0  0  0
  147.2196  139.2660  152.7794 C   0  0  0  0  0  0  0  0  0  0  0  0
  151.4372  139.7874  156.5396 N   0  0  0  0  0  0  0  0  0  0  0  0
  152.4922  140.2058  157.3590 O   0  0  0  0  0  0  0  0  0  0  0  0
  152.5176  142.3780  159.9010 H   0  0  0  0  0  0  0  0  0  0  0  0
  153.7768  142.2807  158.6679 H   0  0  0  0  0  0  0  0  0  0  0  0
  153.4994  140.9191  159.7565 H   0  0  0  0  0  0  0  0  0  0  0  0
  150.0459  142.0492  158.5463 H   0  0  0  0  0  0  0  0  0  0  0  0
  148.3931  141.0175  156.8473 H   0  0  0  0  0  0  0  0  0  0  0  0
  146.8487  140.5027  155.7381 H   0  0  0  0  0  0  0  0  0  0  0  0
  145.5457  139.5655  154.0872 H   0  0  0  0  0  0  0  0  0  0  0  0
  147.3843  137.1997  154.6630 H   0  0  0  0  0  0  0  0  0  0  0  0
  145.8661  137.5406  155.4591 H   0  0  0  0  0  0  0  0  0  0  0  0
  145.6124  135.8232  153.6770 H   0  0  0  0  0  0  0  0  0  0  0  0
  144.6236  137.2302  153.3351 H   0  0  0  0  0  0  0  0  0  0  0  0
  144.8210  136.7074  150.6414 H   0  0  0  0  0  0  0  0  0  0  0  0
  146.3945  136.1022  150.2003 H   0  0  0  0  0  0  0  0  0  0  0  0
  144.6502  134.9336  152.4422 H   0  0  0  0  0  0  0  0  0  0  0  0
  147.1531  133.8030  151.1208 H   0  0  0  0  0  0  0  0  0  0  0  0
  146.1860  133.0078  152.3597 H   0  0  0  0  0  0  0  0  0  0  0  0
  147.0601  134.4839  152.7430 H   0  0  0  0  0  0  0  0  0  0  0  0
  144.9892  133.9030  149.5807 H   0  0  0  0  0  0  0  0  0  0  0  0
  143.5140  134.5910  150.2554 H   0  0  0  0  0  0  0  0  0  0  0  0
  144.1347  133.0703  150.8755 H   0  0  0  0  0  0  0  0  0  0  0  0
  146.9745  138.5645  150.7589 H   0  0  0  0  0  0  0  0  0  0  0  0
  145.4596  138.8970  151.5684 H   0  0  0  0  0  0  0  0  0  0  0  0
  147.2720  140.3161  152.4886 H   0  0  0  0  0  0  0  0  0  0  0  0
  148.2490  138.9074  152.8313 H   0  0  0  0  0  0  0  0  0  0  0  0
  147.2654  136.6803  152.2169 H   0  0  0  0  0  0  0  0  0  0  0  0
  1  2  1  0  0  0  0
  1 21  1  0  0  0  0
  1 22  1  0  0  0  0
  1 23  1  0  0  0  0
  2 20  1  0  0  0  0
  2  3  2  0  0  0  0
  3  4  1  0  0  0  0
  3 24  1  0  0  0  0
  4  5  1  0  0  0  0
  4 19  2  0  0  0  0
  5  6  1  0  0  0  0
  5 25  1  0  0  0  0
  6  7  2  0  0  0  0
  6  8  1  0  0  0  0
  8  9  1  0  0  0  0
  8 26  1  0  0  0  0
  9 18  1  0  0  0  0
  9 10  1  0  0  0  0
  9 27  1  0  0  0  0
 10 11  1  0  0  0  0
 10 28  1  0  0  0  0
 10 29  1  0  0  0  0
 11 12  1  0  0  0  0
 11 30  1  0  0  0  0
 11 31  1  0  0  0  0
 12 13  1  0  0  0  0
 12 17  1  0  0  0  0
 12 45  1  0  0  0  0
 13 14  1  0  0  0  0
 13 32  1  0  0  0  0
 13 33  1  0  0  0  0
 14 15  1  0  0  0  0
 14 16  1  0  0  0  0
 14 34  1  0  0  0  0
 15 35  1  0  0  0  0
 15 36  1  0  0  0  0
 15 37  1  0  0  0  0
 16 38  1  0  0  0  0
 16 39  1  0  0  0  0
 16 40  1  0  0  0  0
 17 18  1  0  0  0  0
 17 41  1  0  0  0  0
 17 42  1  0  0  0  0
 18 43  1  0  0  0  0
 18 44  1  0  0  0  0
 19 20  1  0  0  0  0
M  CHG  1  12   1
M  END
> <s_m_source_file>
AV-unprocessed.smi

> <i_m_source_file_index>
1301

> <i_lp_mmshare_version>
43012

> <i_f3d_flags>
0

> <s_epik_input>
W0NIM11jMVtjSF1jKG5vMSlbTkhdQyg9TylbTkhdW0NIXTJbQ0gyXVtDSDJdTihbQ0gyXVtDSDJdMilbQ0gyXVtDSF0oW0NIM10pW0NIM10=

> <s_epik_cmdline>
J2VwaWtfcHl0aG9uJywgJy1waCcsICc3LjAnLCAnLXRuJywgJzgnLCAnLW1hJywgJzIwMCcsICctbWV0YWxfYmluZGluZycsICctaW1hZScsICc8aW5maWxlLm1hZT4nLCAnLW9tYWUnLCAnPG91dGZpbGUubWFlPic=

> <r_epik_Ionization_Penalty>
0.0020743

> <r_epik_Ionization_Penalty_Charging>
0.0020412

> <r_epik_Ionization_Penalty_Neutral>
3.31029e-05

> <r_epik_State_Penalty>
0.00139626

> <r_epik_Charging_Adjusted_Penalty>
0.00343746

> <i_epik_Tot_Q>
1

> <i_epik_Tot_abs_Q>
1

> <r_epik_Metal_State_Penalty>
0.0141509

> <b_epik_Metal_Only>
0

> <s_lp_Force_Field>
OPLS_2005

> <r_lp_Energy>
17.3221

> <b_lp_Chiralities_Consistent>
1

> <s_lp_Variant>
AV-unprocessed.smi:1301-1

> <Gold.Version>
5.8.1

> <Gold.Id.Protein>
6NUR|6NUR_protein|mol2

> <Gold.PLP.Fitness>
35.2711

> <Gold.PLP.PLP>
-26.7078

> <Gold.PLP.part.hbond>
-2.0000

> <Gold.PLP.part.metal>
0.0000

> <Gold.PLP.part.buried>
-2.2631

> <Gold.PLP.part.nonpolar>
-23.4278

> <Gold.PLP.part.repulsive>
0.1964

> <Gold.PLP.ligand.clash>
0.0000

> <Gold.PLP.ligand.torsion>
0.2288

> <Gold.PLP.Chemscore.Hbond>
3.0000

> <Gold.PLP.Chemscore.CHOScore>
0.0000

> <Gold.PLP.Chemscore.Metal>
0.0000

> <Gold.Chemscore.Hbonds>
donor molecule, donor type, donor heavy atom, donor atom, acceptor molecule, acceptor atom, score
      L1  H    12    45       P1  7948  2.00
      P1  H  7997  8009       L1    20  1.00

> <Gold.PLP.Chemscore.Internal.Correction>
0.0208

> <Gold.Rescore>
     Score         DG    S(hbond)    S(metal)    S(lipo)     H(rot)  DE(clash)    DE(int)     intcor
     13.30     -16.53       1.92        0.00      70.78       1.43       0.64       2.59       ----

> <Gold.Chemscore.Fitness>
13.2984

> <Gold.Chemscore.DG>
-16.5273

> <Gold.Chemscore.ZeroCoef>
-5.4800

> <Gold.Chemscore.Hbond>
1.9239

> <Gold.Chemscore.Metal>
0.0000

> <Gold.Chemscore.Lipo>
70.7843

> <Gold.Chemscore.Internal_Hbond>
0.0000

> <Gold.Chemscore.DEClash>
0.6384

> <Gold.Chemscore.DEInternal>
2.5905

> <Gold.Chemscore.Rot>
1.4298

> <Gold.Chemscore.Internal.Correction>
   9.000000E+99

> <Gold.Chemscore.Hbonds>
donor molecule, donor type, donor heavy atom, donor atom, acceptor molecule, acceptor atom, score
      L1  H    12    45       P1  7948  0.99
      P1  H  7997  8009       L1    20  0.88

> <Gold.Chemscore.Hbond.Weighted>
-6.4259

> <Gold.Chemscore.Metal.Weighted>
-0.0000

> <Gold.Chemscore.Lipo.Weighted>
-8.2818

> <Gold.Chemscore.Internal_Hbond.Weighted>
0.0000

> <Gold.Chemscore.DEClash.Weighted>
0.6384

> <Gold.Chemscore.DEInternal.Weighted>
2.5905

> <Gold.Chemscore.Rot.Weighted>
3.6604

> <Gold.Chemscore.Internal.Correction.Weighted>
   9.000000E+99

> <Gold.Protein.RotatedTorsions>
[ 6907 6896 6895 6894 ] final   83.15 input  -60.11 | X-H torsion
[ 7974 7965 7964 7962 ] final -115.44 input  175.53 | X-H torsion
[ 8008 7997 7996 7995 ] final  171.49 input   59.86 | X-H torsion
[ 10167 10162 10161 10158 ] final   82.21 input  -65.29 | X-H torsion
[ 10718 10713 10712 10709 ] final   85.84 input   66.30 | X-H torsion
[ 10763 10752 10751 10750 ] final  -38.02 input  -60.55 | X-H torsion
[ 11005 11000 10999 10996 ] final  -26.74 input  -57.11 | X-H torsion

> <Gold.Protein.ActiveResidues>
 VAL166  LYS551  ARG553  GLY616  TRP617  ASP618  TYR619  PRO620  LYS621  CYS622 
 ASP623  PHE694  ASN695  SER759  ASP760  ASP761  ALA762  ILE779  LEU786  VAL792 
 PHE793  MET794  SER795  GLU796  ALA797  LYS798  CYS799  TRP800  GLU811  SER814 

> <Gold.Protein.RotatedAtoms>
  152.5319  134.2940  159.9053 H   0  0  0  0  0  0  0  0  0  0  0  0  # atno 6907 bound_to 6896
  151.2891  133.4167  159.2639 H   0  0  0  0  0  0  0  0  0  0  0  0  # atno 6908 bound_to 6896
  151.0216  134.9489  159.8119 H   0  0  0  0  0  0  0  0  0  0  0  0  # atno 6909 bound_to 6896
  145.1083  140.8596  143.3885 H   0  0  0  0  0  0  0  0  0  0  0  0  # atno 7974 bound_to 7965
  156.1266  140.1510  156.9127 H   0  0  0  0  0  0  0  0  0  0  0  0  # atno 8008 bound_to 7997
  154.4876  140.0860  156.7563 H   0  0  0  0  0  0  0  0  0  0  0  0  # atno 8009 bound_to 7997
  155.4332  140.3428  155.4284 H   0  0  0  0  0  0  0  0  0  0  0  0  # atno 8010 bound_to 7997
  139.9311  144.6151  150.8344 H   0  0  0  0  0  0  0  0  0  0  0  0  # atno 10167 bound_to 10162
  157.6920  131.0191  150.2883 H   0  0  0  0  0  0  0  0  0  0  0  0  # atno 10718 bound_to 10713
  153.9060  135.6797  153.4753 H   0  0  0  0  0  0  0  0  0  0  0  0  # atno 10763 bound_to 10752
  153.1104  135.4786  154.9022 H   0  0  0  0  0  0  0  0  0  0  0  0  # atno 10764 bound_to 10752
  154.7551  135.3195  154.8439 H   0  0  0  0  0  0  0  0  0  0  0  0  # atno 10765 bound_to 10752
  140.9056  133.7494  156.0602 H   0  0  0  0  0  0  0  0  0  0  0  0  # atno 11005 bound_to 11000
  145.0876  139.2914  143.5751 LP  0  0  0  0  0  0  0  0  0  0  0  0  # atno 17320 bound_to 7965
  146.3527  140.0402  142.8643 LP  0  0  0  0  0  0  0  0  0  0  0  0  # atno 17321 bound_to 7965
  140.7637  143.3229  151.2580 LP  0  0  0  0  0  0  0  0  0  0  0  0  # atno 17342 bound_to 10162
  139.6781  143.9902  152.2793 LP  0  0  0  0  0  0  0  0  0  0  0  0  # atno 17343 bound_to 10162
  156.3418  130.3816  149.7402 LP  0  0  0  0  0  0  0  0  0  0  0  0  # atno 17370 bound_to 10713
  156.4908  130.8084  151.3094 LP  0  0  0  0  0  0  0  0  0  0  0  0  # atno 17371 bound_to 10713
  140.8175  134.3328  157.5392 LP  0  0  0  0  0  0  0  0  0  0  0  0  # atno 17394 bound_to 11000
  139.8749  134.9290  156.3464 LP  0  0  0  0  0  0  0  0  0  0  0  0  # atno 17395 bound_to 11000

$$$$
