AV-unprocessed.smi:2557|AV-procd|sdf|10029|dock4
  -GOLD-   2272014 73D 1   1.00000     0.00000
 Structure written by MMmdl.
 39 41  0  0  0  0  0  0  0  0  3 V2000
  150.7200  138.9601  154.1269 O   0  5  0  0  0  0  0  0  0  0  0  0
  150.0319  139.8187  154.7275 C   0  0  0  0  0  0  0  0  0  0  0  0
  150.2863  140.6279  155.8378 C   0  0  0  0  0  0  0  0  0  0  0  0
  151.5981  140.5891  156.5360 C   0  0  0  0  0  0  0  0  0  0  0  0
  152.5043  139.8307  156.1925 O   0  0  0  0  0  0  0  0  0  0  0  0
  151.7997  141.4521  157.6239 N   0  0  0  0  0  0  0  0  0  0  0  0
  150.8496  142.2525  158.0023 C   0  0  0  0  0  0  0  0  0  0  0  0
  151.0256  143.2056  159.1879 C   0  0  0  0  0  0  0  0  0  0  0  0
  151.1679  144.6910  158.7756 C   0  0  0  0  0  0  0  0  0  0  0  0
  151.2982  145.6081  160.0024 C   0  0  0  0  0  0  0  0  0  0  0  0
  152.4770  145.1823  160.8900 C   0  0  0  0  0  0  0  0  0  0  0  0
  152.3474  143.7110  161.3118 C   0  0  0  0  0  0  0  0  0  0  0  0
  152.2089  142.7866  160.0903 C   0  0  0  0  0  0  0  0  0  0  0  0
  149.5989  142.3322  157.4174 N   0  0  0  0  0  0  0  0  0  0  0  0
  149.3273  141.5146  156.3265 N   0  0  0  0  0  0  0  0  0  0  0  0
  148.6995  139.8755  154.0994 C   0  0  0  0  0  0  0  0  0  0  0  0
  147.9081  138.7099  153.9796 C   0  0  0  0  0  0  0  0  0  0  0  0
  146.6449  138.7899  153.3597 C   0  0  0  0  0  0  0  0  0  0  0  0
  146.2034  139.9747  152.8840 N   0  3  0  0  0  0  0  0  0  0  0  0
  146.9262  141.1124  152.9712 C   0  0  0  0  0  0  0  0  0  0  0  0
  148.1968  141.0912  153.5806 C   0  0  0  0  0  0  0  0  0  0  0  0
  150.1157  143.1311  159.7859 H   0  0  0  0  0  0  0  0  0  0  0  0
  152.0450  144.8231  158.1400 H   0  0  0  0  0  0  0  0  0  0  0  0
  150.3058  145.0027  158.1841 H   0  0  0  0  0  0  0  0  0  0  0  0
  151.4297  146.6415  159.6809 H   0  0  0  0  0  0  0  0  0  0  0  0
  150.3740  145.5794  160.5808 H   0  0  0  0  0  0  0  0  0  0  0  0
  153.4130  145.3268  160.3491 H   0  0  0  0  0  0  0  0  0  0  0  0
  152.5274  145.8197  161.7729 H   0  0  0  0  0  0  0  0  0  0  0  0
  153.2152  143.4174  161.9028 H   0  0  0  0  0  0  0  0  0  0  0  0
  151.4780  143.5926  161.9597 H   0  0  0  0  0  0  0  0  0  0  0  0
  152.0842  141.7597  160.4361 H   0  0  0  0  0  0  0  0  0  0  0  0
  153.1358  142.8067  159.5150 H   0  0  0  0  0  0  0  0  0  0  0  0
  148.8670  142.9565  157.7244 H   0  0  0  0  0  0  0  0  0  0  0  0
  148.4269  141.6015  155.8784 H   0  0  0  0  0  0  0  0  0  0  0  0
  148.2717  137.7659  154.3588 H   0  0  0  0  0  0  0  0  0  0  0  0
  145.9814  137.9477  153.2287 H   0  0  0  0  0  0  0  0  0  0  0  0
  146.4719  141.9983  152.5522 H   0  0  0  0  0  0  0  0  0  0  0  0
  148.7837  141.9956  153.6516 H   0  0  0  0  0  0  0  0  0  0  0  0
  145.2868  140.0111  152.4374 H   0  0  0  0  0  0  0  0  0  0  0  0
  1  2  1  0  0  0  0
  2  3  2  0  0  0  0
  2 16  1  0  0  0  0
  3 15  1  0  0  0  0
  3  4  1  0  0  0  0
  4  5  2  0  0  0  0
  4  6  1  0  0  0  0
  6  7  2  0  0  0  0
  7  8  1  0  0  0  0
  7 14  1  0  0  0  0
  8 13  1  0  0  0  0
  8  9  1  0  0  0  0
  8 22  1  0  0  0  0
  9 10  1  0  0  0  0
  9 23  1  0  0  0  0
  9 24  1  0  0  0  0
 10 11  1  0  0  0  0
 10 25  1  0  0  0  0
 10 26  1  0  0  0  0
 11 12  1  0  0  0  0
 11 27  1  0  0  0  0
 11 28  1  0  0  0  0
 12 13  1  0  0  0  0
 12 29  1  0  0  0  0
 12 30  1  0  0  0  0
 13 31  1  0  0  0  0
 13 32  1  0  0  0  0
 14 15  1  0  0  0  0
 14 33  1  0  0  0  0
 15 34  1  0  0  0  0
 16 21  1  0  0  0  0
 16 17  2  0  0  0  0
 17 18  1  0  0  0  0
 17 35  1  0  0  0  0
 18 19  2  0  0  0  0
 18 36  1  0  0  0  0
 19 20  1  0  0  0  0
 19 39  1  0  0  0  0
 20 21  2  0  0  0  0
 20 37  1  0  0  0  0
 21 38  1  0  0  0  0
M  CHG  1   1  -1
M  CHG  1  19   1
M  END
> <s_m_source_file>
AV-unprocessed.smi

> <i_m_source_file_index>
2557

> <i_lp_mmshare_version>
43012

> <i_f3d_flags>
0

> <s_epik_input>
W2NIXTFbY0hdbltjSF1bY0hdYzFDKD1PKUMyPUMoW09IXSlOPUMoW05IXVtOSF0yKVtDSF0zW0NIMl1bQ0gyXVtDSDJdW0NIMl1bQ0gyXTM=

> <s_epik_cmdline>
J2VwaWtfcHl0aG9uJywgJy1waCcsICc3LjAnLCAnLXRuJywgJzgnLCAnLW1hJywgJzIwMCcsICctbWV0YWxfYmluZGluZycsICctaW1hZScsICc8aW5maWxlLm1hZT4nLCAnLW9tYWUnLCAnPG91dGZpbGUubWFlPic=

> <r_epik_Ionization_Penalty>
0.514573

> <r_epik_Ionization_Penalty_Charging>
0.470311

> <r_epik_Ionization_Penalty_Neutral>
0.0442626

> <r_epik_State_Penalty>
1.93511

> <r_epik_Charging_Adjusted_Penalty>
2.40542

> <i_epik_Tot_Q>
0

> <i_epik_Tot_abs_Q>
2

> <r_epik_Metal_State_Penalty>
5.62711

> <b_epik_Metal_Only>
0

> <s_epik_Chemistry_Notes>
This compound has an imine and may undergo hydrolysis.

> <s_lp_Force_Field>
OPLS_2005

> <r_lp_Energy>
35.5882

> <b_lp_Chiralities_Consistent>
1

> <s_lp_Variant>
AV-unprocessed.smi:2557-3

> <Gold.Version>
5.8.1

> <Gold.Id.Protein>
6NUR|6NUR_protein|mol2

> <Gold.PLP.Fitness>
45.6808

> <Gold.PLP.PLP>
-37.4556

> <Gold.PLP.part.hbond>
-3.5197

> <Gold.PLP.part.metal>
0.0000

> <Gold.PLP.part.buried>
-2.4026

> <Gold.PLP.part.nonpolar>
-30.6178

> <Gold.PLP.part.repulsive>
0.2904

> <Gold.PLP.ligand.clash>
0.0150

> <Gold.PLP.ligand.torsion>
1.4591

> <Gold.PLP.Chemscore.Hbond>
3.0000

> <Gold.PLP.Chemscore.CHOScore>
0.0000

> <Gold.PLP.Chemscore.Metal>
0.0000

> <Gold.Chemscore.Hbonds>
donor molecule, donor type, donor heavy atom, donor atom, acceptor molecule, acceptor atom, score
      L1  H    19    39       P1 10175  2.00
      P1  H  7997  8008       L1     5  1.00

> <Gold.PLP.Chemscore.Internal.Correction>
2.1584

> <Gold.Rescore>
     Score         DG    S(hbond)    S(metal)    S(lipo)     H(rot)  DE(clash)    DE(int)     intcor
     18.69     -22.58       1.97        0.00     111.72       1.00       1.67       2.22       ----

> <Gold.Chemscore.Fitness>
18.6906

> <Gold.Chemscore.DG>
-22.5835

> <Gold.Chemscore.ZeroCoef>
-5.4800

> <Gold.Chemscore.Hbond>
1.9738

> <Gold.Chemscore.Metal>
0.0000

> <Gold.Chemscore.Lipo>
111.7181

> <Gold.Chemscore.Internal_Hbond>
0.0000

> <Gold.Chemscore.DEClash>
1.6749

> <Gold.Chemscore.DEInternal>
2.2180

> <Gold.Chemscore.Rot>
1.0000

> <Gold.Chemscore.Internal.Correction>
   9.000000E+99

> <Gold.Chemscore.Hbonds>
donor molecule, donor type, donor heavy atom, donor atom, acceptor molecule, acceptor atom, score
      L1  H    19    39       P1 10175  0.90
      P1  H  7997  8008       L1     5  1.00

> <Gold.Chemscore.Hbond.Weighted>
-6.5925

> <Gold.Chemscore.Metal.Weighted>
-0.0000

> <Gold.Chemscore.Lipo.Weighted>
-13.0710

> <Gold.Chemscore.Internal_Hbond.Weighted>
0.0000

> <Gold.Chemscore.DEClash.Weighted>
1.6749

> <Gold.Chemscore.DEInternal.Weighted>
2.2180

> <Gold.Chemscore.Rot.Weighted>
2.5600

> <Gold.Chemscore.Internal.Correction.Weighted>
   9.000000E+99

> <Gold.Protein.RotatedTorsions>
[ 6907 6896 6895 6894 ] final   80.49 input  -60.11 | X-H torsion
[ 7974 7965 7964 7962 ] final  -82.43 input  175.53 | X-H torsion
[ 8008 7997 7996 7995 ] final  -47.91 input   59.86 | X-H torsion
[ 10167 10162 10161 10158 ] final  140.83 input  -65.29 | X-H torsion
[ 10718 10713 10712 10709 ] final  -67.23 input   66.30 | X-H torsion
[ 10763 10752 10751 10750 ] final  -19.83 input  -60.55 | X-H torsion
[ 11005 11000 10999 10996 ] final  -63.95 input  -57.11 | X-H torsion

> <Gold.Protein.ActiveResidues>
 VAL166  LYS551  ARG553  GLY616  TRP617  ASP618  TYR619  PRO620  LYS621  CYS622 
 ASP623  PHE694  ASN695  SER759  ASP760  ASP761  ALA762  ILE779  LEU786  VAL792 
 PHE793  MET794  SER795  GLU796  ALA797  LYS798  CYS799  TRP800  GLU811  SER814 

> <Gold.Protein.RotatedAtoms>
  152.5236  134.3350  159.9196 H   0  0  0  0  0  0  0  0  0  0  0  0  # atno 6907 bound_to 6896
  151.3299  133.3998  159.2669 H   0  0  0  0  0  0  0  0  0  0  0  0  # atno 6908 bound_to 6896
  150.9889  134.9246  159.7945 H   0  0  0  0  0  0  0  0  0  0  0  0  # atno 6909 bound_to 6896
  145.5334  140.9518  143.1591 H   0  0  0  0  0  0  0  0  0  0  0  0  # atno 7974 bound_to 7965
  154.4022  140.1334  156.4252 H   0  0  0  0  0  0  0  0  0  0  0  0  # atno 8008 bound_to 7997
  155.7604  140.3486  155.5175 H   0  0  0  0  0  0  0  0  0  0  0  0  # atno 8009 bound_to 7997
  155.8864  140.0996  157.1439 H   0  0  0  0  0  0  0  0  0  0  0  0  # atno 8010 bound_to 7997
  139.5037  144.6209  151.6052 H   0  0  0  0  0  0  0  0  0  0  0  0  # atno 10167 bound_to 10162
  156.0569  130.4274  150.1825 H   0  0  0  0  0  0  0  0  0  0  0  0  # atno 10718 bound_to 10713
  153.6109  135.6996  153.5347 H   0  0  0  0  0  0  0  0  0  0  0  0  # atno 10763 bound_to 10752
  153.3017  135.4127  155.1258 H   0  0  0  0  0  0  0  0  0  0  0  0  # atno 10764 bound_to 10752
  154.8563  135.3650  154.5647 H   0  0  0  0  0  0  0  0  0  0  0  0  # atno 10765 bound_to 10752
  141.1409  133.6659  156.5758 H   0  0  0  0  0  0  0  0  0  0  0  0  # atno 11005 bound_to 11000
  144.7614  139.6947  143.7233 LP  0  0  0  0  0  0  0  0  0  0  0  0  # atno 17320 bound_to 7965
  146.2029  139.5335  142.9731 LP  0  0  0  0  0  0  0  0  0  0  0  0  # atno 17321 bound_to 7965
  140.5911  143.9777  150.6325 LP  0  0  0  0  0  0  0  0  0  0  0  0  # atno 17342 bound_to 10162
  140.2958  143.3293  152.1019 LP  0  0  0  0  0  0  0  0  0  0  0  0  # atno 17343 bound_to 10162
  156.9899  130.9890  151.3417 LP  0  0  0  0  0  0  0  0  0  0  0  0  # atno 17370 bound_to 10713
  157.5545  130.8205  149.8187 LP  0  0  0  0  0  0  0  0  0  0  0  0  # atno 17371 bound_to 10713
  140.3877  134.7468  157.4701 LP  0  0  0  0  0  0  0  0  0  0  0  0  # atno 17394 bound_to 11000
  140.0590  134.6023  155.8771 LP  0  0  0  0  0  0  0  0  0  0  0  0  # atno 17395 bound_to 11000

$$$$
