#       Name:                AV-unprocessed.smi:1965
#       Creating user name   scv26
#       Creation time:       Fri Mar 27 10:11:21 2020


#       File generated by GOLD software.
#

@<TRIPOS>MOLECULE
AV-unprocessed.smi:1965
    40    42     1
SMALL
NO_CHARGES


@<TRIPOS>ATOM
      1 ****        -2.4994  -2.7815   0.9564 O.2            1 S1                 0.0000
      2 ****        -1.2896  -2.7825   0.7322 C.2            1 S1                 0.0000
      3 ****        -0.5272  -3.9069   0.7389 N.pl3          1 S1                -1.0000
      4 ****         0.7815  -3.8964   0.4246 C.2            1 S1                 0.0000
      5 ****         1.7545  -3.8007   1.3381 N.2            1 S1                 0.0000
      6 ****         3.0367  -3.8050   0.7855 C.2            1 S1                 0.0000
      7 ****         3.0398  -3.9086  -0.5803 C.2            1 S1                 0.0000
      8 ****         1.4231  -4.0095  -1.2166 S.3            1 S1                 0.0000
      9 ****        -0.6776  -1.6138   0.4661 N.am           1 S1                 0.0000
     10 ****        -1.3208  -0.3090   0.3815 C.3            1 S1                 0.0000
     11 ****        -1.7616   0.2713   1.7393 C.3            1 S1                 0.0000
     12 ****        -1.4792   1.7839   1.6456 C.3            1 S1                 0.0000
     13 ****        -0.9931   2.0062   0.2700 N.4            1 S1                 1.0000
     14 ****        -0.1360   3.1894   0.0383 C.3            1 S1                 0.0000
     15 ****         0.2065   3.2849  -1.4627 C.3            1 S1                 0.0000
     16 ****         0.8114   1.9706  -1.9983 C.3            1 S1                 0.0000
     17 ****        -0.0829   0.7652  -1.6494 C.3            1 S1                 0.0000
     18 ****        -0.3500   0.7486  -0.1361 C.3            1 S1                 0.0000
     19 ****         3.8926  -3.7309   1.4398 H              1 S1                 0.0000
     20 ****         3.8883  -3.9359  -1.2473 H              1 S1                 0.0000
     21 ****         0.3171  -1.6441   0.2955 H              1 S1                 0.0000
     22 ****        -2.1825  -0.3650  -0.2870 H              1 S1                 0.0000
     23 ****        -2.8149   0.0639   1.9314 H              1 S1                 0.0000
     24 ****        -1.1878  -0.1610   2.5607 H              1 S1                 0.0000
     25 ****        -2.3667   2.3857   1.8429 H              1 S1                 0.0000
     26 ****        -0.7107   2.0656   2.3672 H              1 S1                 0.0000
     27 ****        -0.6583   4.0893   0.3641 H              1 S1                 0.0000
     28 ****         0.7749   3.1104   0.6336 H              1 S1                 0.0000
     29 ****        -0.6994   3.5168  -2.0244 H              1 S1                 0.0000
     30 ****         0.8958   4.1116  -1.6368 H              1 S1                 0.0000
     31 ****         0.9527   2.0337  -3.0777 H              1 S1                 0.0000
     32 ****         1.8020   1.8245  -1.5654 H              1 S1                 0.0000
     33 ****        -1.0239   0.8296  -2.1974 H              1 S1                 0.0000
     34 ****         0.3985  -0.1632  -1.9589 H              1 S1                 0.0000
     35 ****         0.5989   0.6558   0.3983 H              1 S1                 0.0000
     36 ****        -1.8130   2.1060  -0.3113 H              1 S1                 0.0000
     37 ****        -2.9714  -3.6399   1.1570 LP             1 S1                 0.0000
     38 ****        -3.0106  -1.9222   0.9380 LP             1 S1                 0.0000
     39 ****        -0.9549  -4.7761   0.9870 LP             1 S1                 0.0000
     40 ****         1.5804  -3.7327   2.3205 LP             1 S1                 0.0000
@<TRIPOS>BOND
    1    1    2 2     
    2    2    3 1     
    3    2    9 am    
    4    3    4 1     
    5    4    8 1     
    6    4    5 2     
    7    5    6 1     
    8    6    7 2     
    9    6   19 1     
   10    7    8 1     
   11    7   20 1     
   12    9   10 1     
   13    9   21 1     
   14   10   18 1     
   15   10   11 1     
   16   10   22 1     
   17   11   12 1     
   18   11   23 1     
   19   11   24 1     
   20   12   13 1     
   21   12   25 1     
   22   12   26 1     
   23   13   18 1     
   24   13   14 1     
   25   13   36 1     
   26   14   15 1     
   27   14   27 1     
   28   14   28 1     
   29   15   16 1     
   30   15   29 1     
   31   15   30 1     
   32   16   17 1     
   33   16   31 1     
   34   16   32 1     
   35   17   18 1     
   36   17   33 1     
   37   17   34 1     
   38   18   35 1     
   39    1   37 1     
   40    1   38 1     
   41    3   39 1     
   42    5   40 1     
@<TRIPOS>SUBSTRUCTURE
      1 S1             1
@<TRIPOS>SET
LONE_PAIRS      STATIC     ATOMS    <user>   **** ""
4 37 38 39 40
DONOR_HYDROGENS      STATIC     ATOMS    <user>   **** ""
2 21 36
ATOM$BLUE        STATIC     ATOMS    COLORGROUP SYSTEM
4 37 38 39 40
ATOM$RED        STATIC     ATOMS    COLORGROUP SYSTEM
2 21 36
