#       Name:                AV-unprocessed.smi:2580
#       Creating user name   scv26
#       Creation time:       Fri Mar 27 14:14:44 2020


#       File generated by GOLD software.
#

@<TRIPOS>MOLECULE
AV-unprocessed.smi:2580
    34    35     1
SMALL
NO_CHARGES


@<TRIPOS>ATOM
      1 ****        -1.5207  -0.5254  -2.3476 C.3            1 S1                 0.0000
      2 ****        -2.3132   0.2772  -1.2997 C.3            1 S1                 0.0000
      3 ****        -2.5478   1.7291  -1.6637 C.3            1 S1                 0.0000
      4 ****        -2.9860   2.3009  -0.3205 C.3            1 S1                 0.0000
      5 ****        -2.2389   1.5874   0.6617 O.3            1 S1                 0.0000
      6 ****        -1.7140   0.3736   0.1204 C.3            1 S1                 0.0000
      7 ****        -0.1798   0.4612   0.1865 C.2            1 S1                 0.0000
      8 ****         0.4076   1.3874  -0.3742 O.2            1 S1                 0.0000
      9 ****         0.4265  -0.5104   0.8935 N.am           1 S1                 0.0000
     10 ****         1.8164  -0.7071   1.1210 C.ar           1 S1                 0.0000
     11 ****         2.7715   0.1149   0.6167 N.ar           1 S1                 0.0000
     12 ****         4.0707  -0.1397   0.8766 C.ar           1 S1                 0.0000
     13 ****         4.4998  -1.2295   1.6544 C.ar           1 S1                 0.0000
     14 ****         3.5222  -2.0905   2.1829 C.ar           1 S1                 0.0000
     15 ****         2.1635  -1.8299   1.9150 C.ar           1 S1                 0.0000
     16 ****         0.9588  -2.8893   2.5634 Cl             1 S1                 0.0000
     17 ****        -0.5590  -0.0658  -2.5766 H              1 S1                 0.0000
     18 ****        -2.0775  -0.5930  -3.2825 H              1 S1                 0.0000
     19 ****        -1.3337  -1.5420  -2.0009 H              1 S1                 0.0000
     20 ****        -3.2901  -0.1996  -1.2020 H              1 S1                 0.0000
     21 ****        -1.6233   2.2027  -1.9962 H              1 S1                 0.0000
     22 ****        -3.2982   1.8598  -2.4438 H              1 S1                 0.0000
     23 ****        -2.8190   3.3756  -0.2474 H              1 S1                 0.0000
     24 ****        -4.0472   2.1105  -0.1557 H              1 S1                 0.0000
     25 ****        -2.0582  -0.4659   0.7270 H              1 S1                 0.0000
     26 ****        -0.1806  -1.1985   1.3147 H              1 S1                 0.0000
     27 ****         4.7885   0.5461   0.4514 H              1 S1                 0.0000
     28 ****         5.5499  -1.3999   1.8401 H              1 S1                 0.0000
     29 ****         3.8108  -2.9391   2.7855 H              1 S1                 0.0000
     30 ****        -2.8363   1.3702   1.4336 LP             1 S1                 0.0000
     31 ****        -1.4818   2.1597   0.9768 LP             1 S1                 0.0000
     32 ****        -0.1129   2.0813  -0.8717 LP             1 S1                 0.0000
     33 ****         1.4051   1.4454  -0.3319 LP             1 S1                 0.0000
     34 ****         2.5144   0.9027   0.0571 LP             1 S1                 0.0000
@<TRIPOS>BOND
    1    1    2 1     
    2    1   17 1     
    3    1   18 1     
    4    1   19 1     
    5    2    6 1     
    6    2    3 1     
    7    2   20 1     
    8    3    4 1     
    9    3   21 1     
   10    3   22 1     
   11    4    5 1     
   12    4   23 1     
   13    4   24 1     
   14    5    6 1     
   15    6    7 1     
   16    6   25 1     
   17    7    8 2     
   18    7    9 am    
   19    9   10 1     
   20    9   26 1     
   21   10   15 ar    
   22   10   11 ar    
   23   11   12 ar    
   24   12   13 ar    
   25   12   27 1     
   26   13   14 ar    
   27   13   28 1     
   28   14   15 ar    
   29   14   29 1     
   30   15   16 1     
   31    5   30 1     
   32    5   31 1     
   33    8   32 1     
   34    8   33 1     
   35   11   34 1     
@<TRIPOS>SUBSTRUCTURE
      1 S1             1
@<TRIPOS>SET
LONE_PAIRS      STATIC     ATOMS    <user>   **** ""
5 30 31 32 33 34
DONOR_HYDROGENS      STATIC     ATOMS    <user>   **** ""
1 26
ATOM$BLUE        STATIC     ATOMS    COLORGROUP SYSTEM
5 30 31 32 33 34
ATOM$RED        STATIC     ATOMS    COLORGROUP SYSTEM
1 26
