#       Name:                AV-unprocessed.smi:593
#       Creating user name   scv26
#       Creation time:       Thu Mar 26 23:52:07 2020


#       File generated by GOLD software.
#

@<TRIPOS>MOLECULE
AV-unprocessed.smi:593
    46    47     1
SMALL
NO_CHARGES


@<TRIPOS>ATOM
      1 ****         0.5919   0.5763   3.7711 O.2            1 S1                 0.0000
      2 ****         0.9545   0.6067   2.5960 C.2            1 S1                 0.0000
      3 ****         2.2251   1.3913   2.2237 C.3            1 S1                 0.0000
      4 ****         2.5400   1.4158   0.7828 N.am           1 S1                 0.0000
      5 ****         3.4392   0.4397   0.3101 C.2            1 S1                 0.0000
      6 ****         3.7920   0.3590  -0.9877 C.2            1 S1                 0.0000
      7 ****         4.7113  -0.6547  -1.4558 N.pl3          1 S1                 1.0000
      8 ****         5.0150  -0.6698  -2.6444 O.2            1 S1                 0.0000
      9 ****         5.1592  -1.4686  -0.6535 O.2            1 S1                -1.0000
     10 ****         3.2131   1.3215  -1.9046 C.2            1 S1                 0.0000
     11 ****         2.3488   2.2549  -1.4601 C.2            1 S1                 0.0000
     12 ****         1.9625   2.3376  -0.0480 C.2            1 S1                 0.0000
     13 ****         1.1618   3.1780   0.3615 O.2            1 S1                 0.0000
     14 ****         0.2853  -0.0169   1.6134 N.am           1 S1                 0.0000
     15 ****        -0.9545  -0.7616   1.7800 C.3            1 S1                 0.0000
     16 ****        -1.6373  -1.0100   0.4212 C.3            1 S1                 0.0000
     17 ****        -1.9962   0.3054  -0.3079 C.3            1 S1                 0.0000
     18 ****        -2.6927   0.0400  -1.6525 C.3            1 S1                 0.0000
     19 ****        -3.9385  -0.8404  -1.4727 C.3            1 S1                 0.0000
     20 ****        -3.5877  -2.1532  -0.7571 C.3            1 S1                 0.0000
     21 ****        -2.8952  -1.8860   0.5892 C.3            1 S1                 0.0000
     22 ****         2.1254   2.4087   2.6057 H              1 S1                 0.0000
     23 ****         3.0593   0.9651   2.7827 H              1 S1                 0.0000
     24 ****         3.8084  -0.2339   1.0702 H              1 S1                 0.0000
     25 ****         3.4673   1.3001  -2.9542 H              1 S1                 0.0000
     26 ****         1.9282   2.9611  -2.1609 H              1 S1                 0.0000
     27 ****         0.6500   0.0514   0.6744 H              1 S1                 0.0000
     28 ****        -0.7263  -1.7105   2.2671 H              1 S1                 0.0000
     29 ****        -1.6302  -0.2167   2.4418 H              1 S1                 0.0000
     30 ****        -0.9344  -1.5595  -0.2072 H              1 S1                 0.0000
     31 ****        -2.6472   0.9097   0.3251 H              1 S1                 0.0000
     32 ****        -1.1013   0.9025  -0.4861 H              1 S1                 0.0000
     33 ****        -2.9714   0.9854  -2.1189 H              1 S1                 0.0000
     34 ****        -1.9954  -0.4477  -2.3347 H              1 S1                 0.0000
     35 ****        -4.6895  -0.2990  -0.8962 H              1 S1                 0.0000
     36 ****        -4.3873  -1.0538  -2.4431 H              1 S1                 0.0000
     37 ****        -4.4914  -2.7423  -0.5994 H              1 S1                 0.0000
     38 ****        -2.9343  -2.7528  -1.3920 H              1 S1                 0.0000
     39 ****        -2.6288  -2.8354   1.0549 H              1 S1                 0.0000
     40 ****        -3.5968  -1.3975   1.2669 H              1 S1                 0.0000
     41 ****         1.1207   1.0575   4.4702 LP             1 S1                 0.0000
     42 ****        -0.2318   0.0704   4.0273 LP             1 S1                 0.0000
     43 ****         4.6286   0.0099  -3.2679 LP             1 S1                 0.0000
     44 ****         5.6489  -1.3618  -2.9898 LP             1 S1                 0.0000
     45 ****         0.9139   3.2022   1.3300 LP             1 S1                 0.0000
     46 ****         0.7591   3.8365  -0.2743 LP             1 S1                 0.0000
@<TRIPOS>BOND
    1    1    2 2     
    2    2    3 1     
    3    2   14 am    
    4    3    4 1     
    5    3   22 1     
    6    3   23 1     
    7    4   12 am    
    8    4    5 1     
    9    5    6 2     
   10    5   24 1     
   11    6    7 1     
   12    6   10 1     
   13    7    8 2     
   14    7    9 1     
   15   10   11 2     
   16   10   25 1     
   17   11   12 1     
   18   11   26 1     
   19   12   13 2     
   20   14   15 1     
   21   14   27 1     
   22   15   16 1     
   23   15   28 1     
   24   15   29 1     
   25   16   21 1     
   26   16   17 1     
   27   16   30 1     
   28   17   18 1     
   29   17   31 1     
   30   17   32 1     
   31   18   19 1     
   32   18   33 1     
   33   18   34 1     
   34   19   20 1     
   35   19   35 1     
   36   19   36 1     
   37   20   21 1     
   38   20   37 1     
   39   20   38 1     
   40   21   39 1     
   41   21   40 1     
   42    1   41 1     
   43    1   42 1     
   44    8   43 1     
   45    8   44 1     
   46   13   45 1     
   47   13   46 1     
@<TRIPOS>SUBSTRUCTURE
      1 S1             1
@<TRIPOS>SET
LONE_PAIRS      STATIC     ATOMS    <user>   **** ""
7 41 42 43 44 9 45 46
DONOR_HYDROGENS      STATIC     ATOMS    <user>   **** ""
1 27
ATOM$BLUE        STATIC     ATOMS    COLORGROUP SYSTEM
7 41 42 43 44 9 45 46
ATOM$RED        STATIC     ATOMS    COLORGROUP SYSTEM
1 27
