#       Name:                AV-unprocessed.smi:354
#       Creating user name   scv26
#       Creation time:       Thu Mar 26 22:33:55 2020


#       File generated by GOLD software.
#

@<TRIPOS>MOLECULE
AV-unprocessed.smi:354
    41    43     1
SMALL
NO_CHARGES


@<TRIPOS>ATOM
      1 ****        -1.4976   3.5608   0.7385 O.3            1 S1                 0.0000
      2 ****        -1.4733   3.0169  -0.5623 C.3            1 S1                 0.0000
      3 ****        -1.9239   1.5925  -0.5905 C.2            1 S1                 0.0000
      4 ****        -3.2223   1.1777  -0.5778 N.pl3          1 S1                 1.0000
      5 ****        -3.2756  -0.2161  -0.5978 C.ar           1 S1                 0.0000
      6 ****        -4.3604  -1.0875  -0.5931 C.ar           1 S1                 0.0000
      7 ****        -4.0643  -2.4663  -0.6159 C.ar           1 S1                 0.0000
      8 ****        -2.7334  -2.9314  -0.6419 C.ar           1 S1                 0.0000
      9 ****        -1.6419  -2.0380  -0.6456 C.ar           1 S1                 0.0000
     10 ****        -1.9437  -0.6764  -0.6232 C.ar           1 S1                 0.0000
     11 ****        -1.1437   0.4715  -0.6153 N.pl3          1 S1                 0.0000
     12 ****         0.3198   0.3140  -0.6226 C.3            1 S1                 0.0000
     13 ****         0.8963  -0.0031   0.7718 C.3            1 S1                 0.0000
     14 ****         0.5149   1.0058   1.6883 O.3            1 S1                 0.0000
     15 ****         2.4043  -0.2056   0.7063 C.ar           1 S1                 0.0000
     16 ****         3.2881   0.8843   0.8761 C.ar           1 S1                 0.0000
     17 ****         4.6808   0.6897   0.8010 C.ar           1 S1                 0.0000
     18 ****         5.2004  -0.5942   0.5502 C.ar           1 S1                 0.0000
     19 ****         4.3261  -1.6829   0.3718 C.ar           1 S1                 0.0000
     20 ****         2.9327  -1.4908   0.4475 C.ar           1 S1                 0.0000
     21 ****         2.1043  -2.5473   0.2635 F              1 S1                 0.0000
     22 ****        -1.1774   4.4491   0.6996 H              1 S1                 0.0000
     23 ****        -2.1236   3.6104  -1.2053 H              1 S1                 0.0000
     24 ****        -0.4661   3.1044  -0.9672 H              1 S1                 0.0000
     25 ****        -5.3807  -0.7336  -0.5725 H              1 S1                 0.0000
     26 ****        -4.8742  -3.1815  -0.6125 H              1 S1                 0.0000
     27 ****        -2.5452  -3.9952  -0.6583 H              1 S1                 0.0000
     28 ****        -0.6259  -2.4043  -0.6628 H              1 S1                 0.0000
     29 ****         0.5752  -0.4710  -1.3355 H              1 S1                 0.0000
     30 ****         0.7605   1.2299  -1.0155 H              1 S1                 0.0000
     31 ****         0.4481  -0.9260   1.1408 H              1 S1                 0.0000
     32 ****         0.7887   0.7433   2.5540 H              1 S1                 0.0000
     33 ****         2.9045   1.8770   1.0609 H              1 S1                 0.0000
     34 ****         5.3503   1.5268   0.9331 H              1 S1                 0.0000
     35 ****         6.2683  -0.7430   0.4903 H              1 S1                 0.0000
     36 ****         4.7245  -2.6668   0.1730 H              1 S1                 0.0000
     37 ****        -4.0132   1.8082  -0.5493 H              1 S1                 0.0000
     38 ****        -0.9132   3.0180   1.3416 LP             1 S1                 0.0000
     39 ****        -2.4343   3.5552   1.0886 LP             1 S1                 0.0000
     40 ****        -0.4783   1.1211   1.6690 LP             1 S1                 0.0000
     41 ****         0.9555   1.8691   1.4423 LP             1 S1                 0.0000
@<TRIPOS>BOND
    1    1    2 1     
    2    1   22 1     
    3    2    3 1     
    4    2   23 1     
    5    2   24 1     
    6    3   11 1     
    7    3    4 2     
    8    4    5 1     
    9    4   37 1     
   10    5   10 ar    
   11    5    6 ar    
   12    6    7 ar    
   13    6   25 1     
   14    7    8 ar    
   15    7   26 1     
   16    8    9 ar    
   17    8   27 1     
   18    9   10 ar    
   19    9   28 1     
   20   10   11 1     
   21   11   12 1     
   22   12   13 1     
   23   12   29 1     
   24   12   30 1     
   25   13   14 1     
   26   13   15 1     
   27   13   31 1     
   28   14   32 1     
   29   15   20 ar    
   30   15   16 ar    
   31   16   17 ar    
   32   16   33 1     
   33   17   18 ar    
   34   17   34 1     
   35   18   19 ar    
   36   18   35 1     
   37   19   20 ar    
   38   19   36 1     
   39   20   21 1     
   40    1   38 1     
   41    1   39 1     
   42   14   40 1     
   43   14   41 1     
@<TRIPOS>SUBSTRUCTURE
      1 S1             1
@<TRIPOS>SET
LONE_PAIRS      STATIC     ATOMS    <user>   **** ""
4 38 39 40 41
DONOR_HYDROGENS      STATIC     ATOMS    <user>   **** ""
3 22 37 32
ATOM$BLUE        STATIC     ATOMS    COLORGROUP SYSTEM
4 38 39 40 41
ATOM$RED        STATIC     ATOMS    COLORGROUP SYSTEM
3 22 37 32
