AV-unprocessed.smi:1447|AV-procd|sdf|5892|dock1
  -GOLD-   22720 5573D 1   1.00000     0.00000
 Structure written by MMmdl.
 48 50  0  0  0  0  0  0  0  0  2 V2000
  150.9815  141.2929  155.8978 C   0  0  0  0  0  0  0  0  0  0  0  0
  151.2581  140.1733  155.0749 O   0  0  0  0  0  0  0  0  0  0  0  0
  151.4201  138.9785  155.8200 C   0  0  0  0  0  0  0  0  0  0  0  0
  151.0866  137.7808  154.9176 C   0  0  0  0  0  0  0  0  0  0  0  0
  150.2021  136.8267  155.5944 N   0  0  0  0  0  0  0  0  0  0  0  0
  148.9397  136.7299  155.0322 N   0  0  0  0  0  0  0  0  0  0  0  0
  148.0662  135.9168  155.5327 C   0  0  0  0  0  0  0  0  0  0  0  0
  146.6989  135.7815  154.9575 C   0  0  0  0  0  0  0  0  0  0  0  0
  145.7042  135.6347  155.6699 O   0  0  0  0  0  0  0  0  0  0  0  0
  146.6300  135.8323  153.6147 N   0  0  0  0  0  0  0  0  0  0  0  0
  145.4056  135.7186  152.8287 C   0  0  2  0  0  0  0  0  0  0  0  0
  144.6412  134.4477  153.2345 C   0  0  0  0  0  0  0  0  0  0  0  0
  143.3877  134.2474  152.3611 C   0  0  0  0  0  0  0  0  0  0  0  0
  143.7124  134.2320  150.9114 N   0  3  2  0  0  0  0  0  0  0  0  0
  144.3610  132.9752  150.4688 C   0  0  0  0  0  0  0  0  0  0  0  0
  143.6720  132.3173  149.2961 C   0  0  0  0  0  0  0  0  0  0  0  0
  143.5102  131.7459  150.6873 C   0  0  0  0  0  0  0  0  0  0  0  0
  144.4459  135.4530  150.4900 C   0  0  0  0  0  0  0  0  0  0  0  0
  145.7223  135.6793  151.3216 C   0  0  0  0  0  0  0  0  0  0  0  0
  148.3894  135.0955  156.6870 C   0  0  0  0  0  0  0  0  0  0  0  0
  149.6261  135.1977  157.2211 C   0  0  0  0  0  0  0  0  0  0  0  0
  150.6348  136.1049  156.6719 C   0  0  0  0  0  0  0  0  0  0  0  0
  151.7708  136.2074  157.1339 O   0  0  0  0  0  0  0  0  0  0  0  0
  150.8671  142.1832  155.2795 H   0  0  0  0  0  0  0  0  0  0  0  0
  151.7939  141.4749  156.6025 H   0  0  0  0  0  0  0  0  0  0  0  0
  150.0564  141.1519  156.4586 H   0  0  0  0  0  0  0  0  0  0  0  0
  152.4470  138.9014  156.1809 H   0  0  0  0  0  0  0  0  0  0  0  0
  150.7646  138.9928  156.6922 H   0  0  0  0  0  0  0  0  0  0  0  0
  150.6330  138.1281  153.9876 H   0  0  0  0  0  0  0  0  0  0  0  0
  152.0115  137.2829  154.6201 H   0  0  0  0  0  0  0  0  0  0  0  0
  147.4934  135.9553  153.1048 H   0  0  0  0  0  0  0  0  0  0  0  0
  144.7678  136.5803  153.0360 H   0  0  0  0  0  0  0  0  0  0  0  0
  145.2925  133.5767  153.1509 H   0  0  0  0  0  0  0  0  0  0  0  0
  144.3484  134.5090  154.2836 H   0  0  0  0  0  0  0  0  0  0  0  0
  142.8741  133.3260  152.6380 H   0  0  0  0  0  0  0  0  0  0  0  0
  142.6827  135.0588  152.5468 H   0  0  0  0  0  0  0  0  0  0  0  0
  145.4433  132.9179  150.5683 H   0  0  0  0  0  0  0  0  0  0  0  0
  142.8119  132.8182  148.8554 H   0  0  0  0  0  0  0  0  0  0  0  0
  144.2931  131.7597  148.5978 H   0  0  0  0  0  0  0  0  0  0  0  0
  144.0237  130.8113  150.9050 H   0  0  0  0  0  0  0  0  0  0  0  0
  142.5414  131.8667  151.1693 H   0  0  0  0  0  0  0  0  0  0  0  0
  144.6884  135.3953  149.4284 H   0  0  0  0  0  0  0  0  0  0  0  0
  143.7810  136.3100  150.6060 H   0  0  0  0  0  0  0  0  0  0  0  0
  146.1941  136.6128  151.0123 H   0  0  0  0  0  0  0  0  0  0  0  0
  146.4457  134.8900  151.1125 H   0  0  0  0  0  0  0  0  0  0  0  0
  147.6650  134.4170  157.1136 H   0  0  0  0  0  0  0  0  0  0  0  0
  149.8801  134.5922  158.0787 H   0  0  0  0  0  0  0  0  0  0  0  0
  142.8266  134.2576  150.4264 H   0  0  0  0  0  0  0  0  0  0  0  0
  1  2  1  0  0  0  0
  1 24  1  0  0  0  0
  1 25  1  0  0  0  0
  1 26  1  0  0  0  0
  2  3  1  0  0  0  0
  3  4  1  0  0  0  0
  3 27  1  0  0  0  0
  3 28  1  0  0  0  0
  4  5  1  0  0  0  0
  4 29  1  0  0  0  0
  4 30  1  0  0  0  0
  5 22  1  0  0  0  0
  5  6  1  0  0  0  0
  6  7  2  0  0  0  0
  7  8  1  0  0  0  0
  7 20  1  0  0  0  0
  8  9  2  0  0  0  0
  8 10  1  0  0  0  0
 10 11  1  0  0  0  0
 10 31  1  0  0  0  0
 11 19  1  0  0  0  0
 11 12  1  0  0  0  0
 11 32  1  0  0  0  0
 12 13  1  0  0  0  0
 12 33  1  0  0  0  0
 12 34  1  0  0  0  0
 13 14  1  0  0  0  0
 13 35  1  0  0  0  0
 13 36  1  0  0  0  0
 14 15  1  0  0  0  0
 14 18  1  0  0  0  0
 14 48  1  0  0  0  0
 15 17  1  0  0  0  0
 15 16  1  0  0  0  0
 15 37  1  0  0  0  0
 16 17  1  0  0  0  0
 16 38  1  0  0  0  0
 16 39  1  0  0  0  0
 17 40  1  0  0  0  0
 17 41  1  0  0  0  0
 18 19  1  0  0  0  0
 18 42  1  0  0  0  0
 18 43  1  0  0  0  0
 19 44  1  0  0  0  0
 19 45  1  0  0  0  0
 20 21  2  0  0  0  0
 20 46  1  0  0  0  0
 21 22  1  0  0  0  0
 21 47  1  0  0  0  0
 22 23  2  0  0  0  0
M  CHG  1  14   1
M  END
> <s_m_source_file>
AV-unprocessed.smi

> <i_m_source_file_index>
1447

> <i_lp_mmshare_version>
43012

> <i_f3d_flags>
0

> <s_epik_input>
W0NIM11PW0NIMl1bQ0gyXW4xbmMoW2NIXVtjSF1jMT1PKUMoPU8pW05IXVtDSF0yW0NIMl1bQ0gyXU4oW0NIMl1bQ0gyXTIpW0NIXTNbQ0gyXVtDSDJdMw==

> <s_epik_cmdline>
J2VwaWtfcHl0aG9uJywgJy1waCcsICc3LjAnLCAnLXRuJywgJzgnLCAnLW1hJywgJzIwMCcsICctbWV0YWxfYmluZGluZycsICctaW1hZScsICc8aW5maWxlLm1hZT4nLCAnLW9tYWUnLCAnPG91dGZpbGUubWFlPic=

> <r_lp_tautomer_probability>
1

> <r_epik_Ionization_Penalty>
0.168623

> <r_epik_Ionization_Penalty_Charging>
0.16862

> <r_epik_Ionization_Penalty_Neutral>
2.93027e-06

> <r_epik_State_Penalty>
0.157986

> <r_epik_Charging_Adjusted_Penalty>
0.326605

> <i_epik_Tot_Q>
1

> <i_epik_Tot_abs_Q>
1

> <r_epik_Metal_State_Penalty>
0.157986

> <b_epik_Metal_Only>
0

> <s_lp_Force_Field>
OPLS_2005

> <r_lp_Energy>
47.6191

> <b_lp_Chiralities_Consistent>
1

> <s_lp_Variant>
AV-unprocessed.smi:1447-2

> <Gold.Version>
5.8.1

> <Gold.Id.Protein>
6NUR|6NUR_protein|mol2

> <Gold.PLP.Fitness>
48.5716

> <Gold.PLP.PLP>
-35.9389

> <Gold.PLP.part.hbond>
-3.9752

> <Gold.PLP.part.metal>
0.0000

> <Gold.PLP.part.buried>
-3.4147

> <Gold.PLP.part.nonpolar>
-30.4965

> <Gold.PLP.part.repulsive>
1.9591

> <Gold.PLP.ligand.clash>
0.0000

> <Gold.PLP.ligand.torsion>
1.8392

> <Gold.PLP.Chemscore.Hbond>
5.0000

> <Gold.PLP.Chemscore.CHOScore>
0.0000

> <Gold.PLP.Chemscore.Metal>
0.0000

> <Gold.Chemscore.Hbonds>
donor molecule, donor type, donor heavy atom, donor atom, acceptor molecule, acceptor atom, score
      L1  H    10    31       P1  7948  1.00
      L1  H    14    48       P1 10186  2.00
      P1  H  7989  7998       L1     2  1.00

> <Gold.PLP.Chemscore.Internal.Correction>
1.3111

> <Gold.Rescore>
     Score         DG    S(hbond)    S(metal)    S(lipo)     H(rot)  DE(clash)    DE(int)     intcor
     18.86     -23.07       3.51        0.00      88.71       1.76       0.80       3.41       ----

> <Gold.Chemscore.Fitness>
18.8595

> <Gold.Chemscore.DG>
-23.0737

> <Gold.Chemscore.ZeroCoef>
-5.4800

> <Gold.Chemscore.Hbond>
3.5099

> <Gold.Chemscore.Metal>
0.0000

> <Gold.Chemscore.Lipo>
88.7051

> <Gold.Chemscore.Internal_Hbond>
0.0000

> <Gold.Chemscore.DEClash>
0.8039

> <Gold.Chemscore.DEInternal>
3.4103

> <Gold.Chemscore.Rot>
1.7608

> <Gold.Chemscore.Internal.Correction>
   9.000000E+99

> <Gold.Chemscore.Hbonds>
donor molecule, donor type, donor heavy atom, donor atom, acceptor molecule, acceptor atom, score
      L1  H    10    31       P1  7948  0.99
      L1  H    14    48       P1 10186  0.74
      P1  H  7989  7998       L1     2  0.44

> <Gold.Chemscore.Hbond.Weighted>
-11.7229

> <Gold.Chemscore.Metal.Weighted>
-0.0000

> <Gold.Chemscore.Lipo.Weighted>
-10.3785

> <Gold.Chemscore.Internal_Hbond.Weighted>
0.0000

> <Gold.Chemscore.DEClash.Weighted>
0.8039

> <Gold.Chemscore.DEInternal.Weighted>
3.4103

> <Gold.Chemscore.Rot.Weighted>
4.5077

> <Gold.Chemscore.Internal.Correction.Weighted>
   9.000000E+99

> <Gold.Protein.RotatedTorsions>
[ 6907 6896 6895 6894 ] final  133.73 input  -60.11 | X-H torsion
[ 7974 7965 7964 7962 ] final   58.47 input  175.53 | X-H torsion
[ 8008 7997 7996 7995 ] final  -29.88 input   59.86 | X-H torsion
[ 10167 10162 10161 10158 ] final -164.48 input  -65.29 | X-H torsion
[ 10718 10713 10712 10709 ] final   14.49 input   66.30 | X-H torsion
[ 10763 10752 10751 10750 ] final -135.41 input  -60.55 | X-H torsion
[ 11005 11000 10999 10996 ] final -100.43 input  -57.11 | X-H torsion

> <Gold.Protein.ActiveResidues>
 VAL166  LYS551  ARG553  GLY616  TRP617  ASP618  TYR619  PRO620  LYS621  CYS622 
 ASP623  PHE694  ASN695  SER759  ASP760  ASP761  ALA762  ILE779  LEU786  VAL792 
 PHE793  MET794  SER795  GLU796  ALA797  LYS798  CYS799  TRP800  GLU811  SER814 

> <Gold.Protein.RotatedAtoms>
  152.3189  133.5832  159.5730 H   0  0  0  0  0  0  0  0  0  0  0  0  # atno 6907 bound_to 6896
  150.7361  134.0041  159.3657 H   0  0  0  0  0  0  0  0  0  0  0  0  # atno 6908 bound_to 6896
  151.7928  135.0731  160.0440 H   0  0  0  0  0  0  0  0  0  0  0  0  # atno 6909 bound_to 6896
  145.9178  139.3705  143.0496 H   0  0  0  0  0  0  0  0  0  0  0  0  # atno 7974 bound_to 7965
  154.4272  140.1806  156.1318 H   0  0  0  0  0  0  0  0  0  0  0  0  # atno 8008 bound_to 7997
  156.0062  140.3355  155.6869 H   0  0  0  0  0  0  0  0  0  0  0  0  # atno 8009 bound_to 7997
  155.6174  140.0656  157.2679 H   0  0  0  0  0  0  0  0  0  0  0  0  # atno 8010 bound_to 7997
  139.6248  144.0554  152.1965 H   0  0  0  0  0  0  0  0  0  0  0  0  # atno 10167 bound_to 10162
  157.0399  130.6227  149.5749 H   0  0  0  0  0  0  0  0  0  0  0  0  # atno 10718 bound_to 10713
  154.8703  135.3704  154.4893 H   0  0  0  0  0  0  0  0  0  0  0  0  # atno 10763 bound_to 10752
  153.5541  135.7024  153.5582 H   0  0  0  0  0  0  0  0  0  0  0  0  # atno 10764 bound_to 10752
  153.3688  135.4027  155.1737 H   0  0  0  0  0  0  0  0  0  0  0  0  # atno 10765 bound_to 10752
  141.1271  133.8399  157.1102 H   0  0  0  0  0  0  0  0  0  0  0  0  # atno 11005 bound_to 11000
  145.8589  140.9487  143.0710 LP  0  0  0  0  0  0  0  0  0  0  0  0  # atno 17320 bound_to 7965
  144.6749  140.0504  143.7479 LP  0  0  0  0  0  0  0  0  0  0  0  0  # atno 17321 bound_to 7965
  140.0205  144.6156  150.7571 LP  0  0  0  0  0  0  0  0  0  0  0  0  # atno 17342 bound_to 10162
  140.7404  143.2804  151.3616 LP  0  0  0  0  0  0  0  0  0  0  0  0  # atno 17343 bound_to 10162
  156.0041  130.5125  150.7770 LP  0  0  0  0  0  0  0  0  0  0  0  0  # atno 17370 bound_to 10713
  157.5113  131.0925  151.0195 LP  0  0  0  0  0  0  0  0  0  0  0  0  # atno 17371 bound_to 10713
  140.0280  134.9915  157.0724 LP  0  0  0  0  0  0  0  0  0  0  0  0  # atno 17394 bound_to 11000
  140.4332  134.1759  155.7169 LP  0  0  0  0  0  0  0  0  0  0  0  0  # atno 17395 bound_to 11000

$$$$
