AV-unprocessed.smi:1|AV-procd|sdf|13|dock7
  -GOLD-   2262015103D 1   1.00000     0.00000
 Structure written by MMmdl.
 57 62  0  0  0  0  0  0  0  0  1 V2000
  154.8621  141.4281  158.5159 O   0  0  0  0  0  0  0  0  0  0  0  0
  153.6767  141.6836  158.7446 C   0  0  0  0  0  0  0  0  0  0  0  0
  152.5655  140.8630  158.6010 N   0  0  0  0  0  0  0  0  0  0  0  0
  152.6952  139.6714  158.1012 C   0  0  0  0  0  0  0  0  0  0  0  0
  153.8061  138.9574  157.6348 N   0  0  0  0  0  0  0  0  0  0  0  0
  153.7864  137.6570  157.1090 C   0  0  0  0  0  0  0  0  0  0  0  0
  152.7152  136.9211  156.9787 N   0  0  0  0  0  0  0  0  0  0  0  0
  151.5802  137.5793  157.4305 C   0  0  0  0  0  0  0  0  0  0  0  0
  151.4749  138.8463  157.9649 C   0  0  0  0  0  0  0  0  0  0  0  0
  150.1569  139.1352  158.2996 N   0  0  0  0  0  0  0  0  0  0  0  0
  149.5184  138.0222  157.9503 C   0  0  0  0  0  0  0  0  0  0  0  0
  150.2880  137.0528  157.4207 N   0  0  0  0  0  0  0  0  0  0  0  0
  149.8076  135.7111  156.9617 C   0  0  2  0  0  0  0  0  0  0  0  0
  150.3503  135.4326  155.7046 O   0  0  0  0  0  0  0  0  0  0  0  0
  149.3218  135.3043  154.7262 C   0  0  1  0  0  0  0  0  0  0  0  0
  149.7212  134.3049  153.6346 C   0  0  0  0  0  0  0  0  0  0  0  0
  148.7692  134.3637  152.5856 O   0  0  0  0  0  0  0  0  0  0  0  0
  148.0365  133.2768  152.2775 C   0  0  0  0  0  0  0  0  0  0  0  0
  148.3385  132.1312  152.6185 O   0  0  0  0  0  0  0  0  0  0  0  0
  146.8210  133.6049  151.4779 C   0  0  0  0  0  0  0  0  0  0  0  0
  146.0710  132.5566  150.8951 C   0  0  0  0  0  0  0  0  0  0  0  0
  144.9212  132.8358  150.1309 C   0  0  0  0  0  0  0  0  0  0  0  0
  144.5072  134.1670  149.9404 C   0  0  0  0  0  0  0  0  0  0  0  0
  145.2445  135.2187  150.5149 C   0  0  0  0  0  0  0  0  0  0  0  0
  146.3945  134.9417  151.2797 C   0  0  0  0  0  0  0  0  0  0  0  0
  148.0861  134.9040  155.5303 C   0  0  1  0  0  0  0  0  0  0  0  0
  148.0812  133.5142  155.8139 O   0  0  0  0  0  0  0  0  0  0  0  0
  147.6232  133.3030  157.4064 S   0  0  0  0  0  0  0  0  0  0  0  0
  146.2114  132.8916  157.4310 O   0  0  0  0  0  0  0  0  0  0  0  0
  148.6818  132.5471  158.0933 O   0  0  0  0  0  0  0  0  0  0  0  0
  147.7115  134.8985  157.8981 O   0  0  0  0  0  0  0  0  0  0  0  0
  148.2765  135.6625  156.8468 C   0  0  1  0  0  0  0  0  0  0  0  0
  153.3438  143.0404  159.2735 C   0  0  0  0  0  0  0  0  0  0  0  0
  153.3259  143.2727  160.6652 C   0  0  0  0  0  0  0  0  0  0  0  0
  153.0054  144.5507  161.1637 C   0  0  0  0  0  0  0  0  0  0  0  0
  152.7001  145.5985  160.2734 C   0  0  0  0  0  0  0  0  0  0  0  0
  152.7142  145.3684  158.8839 C   0  0  0  0  0  0  0  0  0  0  0  0
  153.0347  144.0911  158.3839 C   0  0  0  0  0  0  0  0  0  0  0  0
  154.7658  137.2869  156.8032 H   0  0  0  0  0  0  0  0  0  0  0  0
  148.4525  137.9093  158.0836 H   0  0  0  0  0  0  0  0  0  0  0  0
  150.2089  135.0029  157.6880 H   0  0  0  0  0  0  0  0  0  0  0  0
  149.1387  136.2791  154.2754 H   0  0  0  0  0  0  0  0  0  0  0  0
  150.7212  134.5245  153.2581 H   0  0  0  0  0  0  0  0  0  0  0  0
  149.7360  133.2944  154.0453 H   0  0  0  0  0  0  0  0  0  0  0  0
  146.3703  131.5268  151.0267 H   0  0  0  0  0  0  0  0  0  0  0  0
  144.3572  132.0272  149.6901 H   0  0  0  0  0  0  0  0  0  0  0  0
  143.6260  134.3810  149.3538 H   0  0  0  0  0  0  0  0  0  0  0  0
  144.9283  136.2411  150.3687 H   0  0  0  0  0  0  0  0  0  0  0  0
  146.9377  135.7728  151.7053 H   0  0  0  0  0  0  0  0  0  0  0  0
  147.1558  135.1686  155.0265 H   0  0  0  0  0  0  0  0  0  0  0  0
  147.8505  136.6648  156.7959 H   0  0  0  0  0  0  0  0  0  0  0  0
  153.5562  142.4731  161.3543 H   0  0  0  0  0  0  0  0  0  0  0  0
  152.9917  144.7263  162.2291 H   0  0  0  0  0  0  0  0  0  0  0  0
  152.4532  146.5777  160.6560 H   0  0  0  0  0  0  0  0  0  0  0  0
  152.4774  146.1712  158.2015 H   0  0  0  0  0  0  0  0  0  0  0  0
  153.0406  143.9213  157.3169 H   0  0  0  0  0  0  0  0  0  0  0  0
  154.7014  139.4230  157.6817 H   0  0  0  0  0  0  0  0  0  0  0  0
  1  2  2  0  0  0  0
  2  3  1  0  0  0  0
  2 33  1  0  0  0  0
  3  4  2  0  0  0  0
  4  9  1  0  0  0  0
  4  5  1  0  0  0  0
  5  6  1  0  0  0  0
  5 57  1  0  0  0  0
  6  7  2  0  0  0  0
  6 39  1  0  0  0  0
  7  8  1  0  0  0  0
  8 12  1  0  0  0  0
  8  9  2  0  0  0  0
  9 10  1  0  0  0  0
 10 11  2  0  0  0  0
 11 12  1  0  0  0  0
 11 40  1  0  0  0  0
 12 13  1  0  0  0  0
 13 32  1  0  0  0  0
 13 14  1  0  0  0  0
 13 41  1  0  0  0  0
 14 15  1  0  0  0  0
 15 16  1  0  0  0  0
 15 26  1  0  0  0  0
 15 42  1  0  0  0  0
 16 17  1  0  0  0  0
 16 43  1  0  0  0  0
 16 44  1  0  0  0  0
 17 18  1  0  0  0  0
 18 19  2  0  0  0  0
 18 20  1  0  0  0  0
 20 25  1  0  0  0  0
 20 21  2  0  0  0  0
 21 22  1  0  0  0  0
 21 45  1  0  0  0  0
 22 23  2  0  0  0  0
 22 46  1  0  0  0  0
 23 24  1  0  0  0  0
 23 47  1  0  0  0  0
 24 25  2  0  0  0  0
 24 48  1  0  0  0  0
 25 49  1  0  0  0  0
 26 32  1  0  0  0  0
 26 27  1  0  0  0  0
 26 50  1  0  0  0  0
 27 28  1  0  0  0  0
 28 29  2  0  0  0  0
 28 30  2  0  0  0  0
 28 31  1  0  0  0  0
 31 32  1  0  0  0  0
 32 51  1  0  0  0  0
 33 38  1  0  0  0  0
 33 34  2  0  0  0  0
 34 35  1  0  0  0  0
 34 52  1  0  0  0  0
 35 36  2  0  0  0  0
 35 53  1  0  0  0  0
 36 37  1  0  0  0  0
 36 54  1  0  0  0  0
 37 38  2  0  0  0  0
 37 55  1  0  0  0  0
 38 56  1  0  0  0  0
M  END
> <s_m_source_file>
AV-unprocessed.smi

> <i_m_source_file_index>
1

> <i_lp_mmshare_version>
43012

> <i_f3d_flags>
0

> <s_epik_input>
W2NIXTFbY0hdW2NIXVtjSF1bY0hdYzFDKD1PKVtOSF1jKG5bY0hdbjIpYyhjMjMpbltjSF1uM1tDQEBIXShbQ0BIXShbQ0BIXTQ1KU9TKE81KSg9Tyk9TylPW0NASF00W0NIMl1PQyg9TyljNltjSF1bY0hdW2NIXVtjSF1bY0hdNg==

> <s_epik_cmdline>
J2VwaWtfcHl0aG9uJywgJy1waCcsICc3LjAnLCAnLXRuJywgJzgnLCAnLW1hJywgJzIwMCcsICctbWV0YWxfYmluZGluZycsICctaW1hZScsICc8aW5maWxlLm1hZT4nLCAnLW9tYWUnLCAnPG91dGZpbGUubWFlPic=

> <r_epik_Ionization_Penalty>
0.122545

> <r_epik_Ionization_Penalty_Charging>
0.122545

> <r_epik_Ionization_Penalty_Neutral>
7.8935e-16

> <r_epik_State_Penalty>
2.69178

> <r_epik_Charging_Adjusted_Penalty>
2.81433

> <i_epik_Tot_Q>
0

> <i_epik_Tot_abs_Q>
0

> <r_epik_Metal_State_Penalty>
3.02665

> <b_epik_Metal_Only>
0

> <s_epik_Chemistry_Notes>
This compound has an ester and may undergo hydrolysis at high or low pH. This compound contains an acetal/aminal-like group ( X-CH(R)-Y where X, Y are N, S, or O) that may be acid/base labile, releasing an aldehyde.

> <s_lp_Force_Field>
OPLS_2005

> <r_lp_Energy>
62.4827

> <b_lp_Chiralities_Consistent>
1

> <s_lp_Variant>
AV-unprocessed.smi:1-13

> <Gold.Version>
5.8.1

> <Gold.Id.Protein>
6NUR|6NUR_protein|mol2

> <Gold.PLP.Fitness>
54.4321

> <Gold.PLP.PLP>
-58.0466

> <Gold.PLP.part.hbond>
-2.0104

> <Gold.PLP.part.metal>
0.0000

> <Gold.PLP.part.buried>
-8.4626

> <Gold.PLP.part.nonpolar>
-47.9422

> <Gold.PLP.part.repulsive>
0.8299

> <Gold.PLP.ligand.clash>
0.0000

> <Gold.PLP.ligand.torsion>
2.5148

> <Gold.PLP.Chemscore.Hbond>
0.4264

> <Gold.PLP.Chemscore.CHOScore>
0.0000

> <Gold.PLP.Chemscore.Metal>
0.0000

> <Gold.Chemscore.Hbonds>
donor molecule, donor type, donor heavy atom, donor atom, acceptor molecule, acceptor atom, score
      P1  H  7997  8010       L1     1  0.03

> <Gold.PLP.Chemscore.Internal.Correction>
0.1359

> <Gold.Rescore>
     Score         DG    S(hbond)    S(metal)    S(lipo)     H(rot)  DE(clash)    DE(int)     intcor
     15.37     -17.86       0.77        0.00     130.49       2.13       0.12       2.37       ----

> <Gold.Chemscore.Fitness>
15.3655

> <Gold.Chemscore.DG>
-17.8616

> <Gold.Chemscore.ZeroCoef>
-5.4800

> <Gold.Chemscore.Hbond>
0.7712

> <Gold.Chemscore.Metal>
0.0000

> <Gold.Chemscore.Lipo>
130.4878

> <Gold.Chemscore.Internal_Hbond>
0.0000

> <Gold.Chemscore.DEClash>
0.1215

> <Gold.Chemscore.DEInternal>
2.3745

> <Gold.Chemscore.Rot>
2.1333

> <Gold.Chemscore.Internal.Correction>
   9.000000E+99

> <Gold.Chemscore.Hbonds>
donor molecule, donor type, donor heavy atom, donor atom, acceptor molecule, acceptor atom, score
      P1  H  7997  8010       L1     1  0.05

> <Gold.Chemscore.Hbond.Weighted>
-2.5759

> <Gold.Chemscore.Metal.Weighted>
-0.0000

> <Gold.Chemscore.Lipo.Weighted>
-15.2671

> <Gold.Chemscore.Internal_Hbond.Weighted>
0.0000

> <Gold.Chemscore.DEClash.Weighted>
0.1215

> <Gold.Chemscore.DEInternal.Weighted>
2.3745

> <Gold.Chemscore.Rot.Weighted>
5.4614

> <Gold.Chemscore.Internal.Correction.Weighted>
   9.000000E+99

> <Gold.Protein.RotatedTorsions>
[ 6907 6896 6895 6894 ] final  -94.79 input  -60.11 | X-H torsion
[ 7974 7965 7964 7962 ] final    6.75 input  175.53 | X-H torsion
[ 8008 7997 7996 7995 ] final   11.82 input   59.86 | X-H torsion
[ 10167 10162 10161 10158 ] final   24.31 input  -65.29 | X-H torsion
[ 10718 10713 10712 10709 ] final  155.08 input   66.30 | X-H torsion
[ 10763 10752 10751 10750 ] final -162.66 input  -60.55 | X-H torsion
[ 11005 11000 10999 10996 ] final  113.22 input  -57.11 | X-H torsion

> <Gold.Protein.ActiveResidues>
 VAL166  LYS551  ARG553  GLY616  TRP617  ASP618  TYR619  PRO620  LYS621  CYS622 
 ASP623  PHE694  ASN695  SER759  ASP760  ASP761  ALA762  ILE779  LEU786  VAL792 
 PHE793  MET794  SER795  GLU796  ALA797  LYS798  CYS799  TRP800  GLU811  SER814 

> <Gold.Protein.RotatedAtoms>
  150.6949  134.1758  159.4229 H   0  0  0  0  0  0  0  0  0  0  0  0  # atno 6907 bound_to 6896
  151.9734  135.0063  160.0563 H   0  0  0  0  0  0  0  0  0  0  0  0  # atno 6908 bound_to 6896
  152.1821  133.4679  159.5000 H   0  0  0  0  0  0  0  0  0  0  0  0  # atno 6909 bound_to 6896
  146.2432  140.0187  142.8400 H   0  0  0  0  0  0  0  0  0  0  0  0  # atno 7974 bound_to 7965
  154.8121  140.2870  155.5846 H   0  0  0  0  0  0  0  0  0  0  0  0  # atno 8008 bound_to 7997
  156.2989  140.2566  156.2941 H   0  0  0  0  0  0  0  0  0  0  0  0  # atno 8009 bound_to 7997
  154.9435  140.0381  157.2098 H   0  0  0  0  0  0  0  0  0  0  0  0  # atno 8010 bound_to 7997
  140.5198  144.0021  150.6411 H   0  0  0  0  0  0  0  0  0  0  0  0  # atno 10167 bound_to 10162
  157.2231  131.0723  151.1900 H   0  0  0  0  0  0  0  0  0  0  0  0  # atno 10718 bound_to 10713
  154.7194  135.3022  154.9072 H   0  0  0  0  0  0  0  0  0  0  0  0  # atno 10763 bound_to 10752
  153.9949  135.6714  153.4760 H   0  0  0  0  0  0  0  0  0  0  0  0  # atno 10764 bound_to 10752
  153.0821  135.5003  154.8440 H   0  0  0  0  0  0  0  0  0  0  0  0  # atno 10765 bound_to 10752
  139.8947  134.9545  156.6706 H   0  0  0  0  0  0  0  0  0  0  0  0  # atno 11005 bound_to 11000
  145.1261  140.9491  143.4572 LP  0  0  0  0  0  0  0  0  0  0  0  0  # atno 17320 bound_to 7965
  145.0433  139.3242  143.5965 LP  0  0  0  0  0  0  0  0  0  0  0  0  # atno 17321 bound_to 7965
  140.3367  143.3044  152.0631 LP  0  0  0  0  0  0  0  0  0  0  0  0  # atno 17342 bound_to 10162
  139.4920  144.6471  151.6755 LP  0  0  0  0  0  0  0  0  0  0  0  0  # atno 17343 bound_to 10162
  157.3556  130.7104  149.6468 LP  0  0  0  0  0  0  0  0  0  0  0  0  # atno 17370 bound_to 10713
  155.9681  130.4240  150.4589 LP  0  0  0  0  0  0  0  0  0  0  0  0  # atno 17371 bound_to 10713
  140.7376  133.9005  155.8255 LP  0  0  0  0  0  0  0  0  0  0  0  0  # atno 17394 bound_to 11000
  141.0103  134.1029  157.4228 LP  0  0  0  0  0  0  0  0  0  0  0  0  # atno 17395 bound_to 11000

$$$$
