AV-unprocessed.smi:3348|AV-procd|sdf|12928|dock6
  -GOLD-   2272019353D 1   1.00000     0.00000
 Structure written by MMmdl.
 46 47  0  0  0  0  0  0  0  0  1 V2000
  145.4260  136.1731  150.5925 C   0  0  0  0  0  0  0  0  0  0  0  0
  145.0313  136.2042  152.0842 C   0  0  1  0  0  0  0  0  0  0  0  0
  144.2744  134.9297  152.5117 C   0  0  0  0  0  0  0  0  0  0  0  0
  144.6556  133.7593  151.7408 N   0  0  0  0  0  0  0  0  0  0  0  0
  144.0414  133.2373  150.6221 C   0  0  0  0  0  0  0  0  0  0  0  0
  144.7520  132.1337  150.2457 C   0  0  0  0  0  0  0  0  0  0  0  0
  145.7945  132.0579  151.2113 C   0  0  0  0  0  0  0  0  0  0  0  0
  145.7326  133.0303  152.1064 N   0  0  0  0  0  0  0  0  0  0  0  0
  146.1989  136.3781  152.9540 N   0  0  0  0  0  0  0  0  0  0  0  0
  146.4894  137.7529  153.3595 C   0  0  0  0  0  0  0  0  0  0  0  0
  147.5358  137.7811  154.4776 C   0  0  0  0  0  0  0  0  0  0  0  0
  147.7930  139.1345  154.8207 O   0  0  0  0  0  0  0  0  0  0  0  0
  148.7829  139.7715  154.0202 C   0  0  2  0  0  0  0  0  0  0  0  0
  150.1468  139.0735  154.2062 C   0  0  0  0  0  0  0  0  0  0  0  0
  150.6703  139.2240  155.6442 C   0  0  0  0  0  0  0  0  0  0  0  0
  150.7482  140.7017  156.0568 C   0  0  0  0  0  0  0  0  0  0  0  0
  149.3935  141.4051  155.8758 C   0  0  0  0  0  0  0  0  0  0  0  0
  148.8680  141.2578  154.4336 C   0  0  2  0  0  0  0  0  0  0  0  0
  147.5314  141.9890  154.2329 C   0  0  0  0  0  0  0  0  0  0  0  0
  144.5565  136.0266  149.9523 H   0  0  0  0  0  0  0  0  0  0  0  0
  146.1272  135.3641  150.3857 H   0  0  0  0  0  0  0  0  0  0  0  0
  145.8858  137.1066  150.2705 H   0  0  0  0  0  0  0  0  0  0  0  0
  144.3598  137.0508  152.2333 H   0  0  0  0  0  0  0  0  0  0  0  0
  144.4384  134.7268  153.5715 H   0  0  0  0  0  0  0  0  0  0  0  0
  143.2000  135.0728  152.3870 H   0  0  0  0  0  0  0  0  0  0  0  0
  143.1612  133.6915  150.1916 H   0  0  0  0  0  0  0  0  0  0  0  0
  144.5568  131.4800  149.4088 H   0  0  0  0  0  0  0  0  0  0  0  0
  146.5882  131.3295  151.2884 H   0  0  0  0  0  0  0  0  0  0  0  0
  147.0197  135.9804  152.5078 H   0  0  0  0  0  0  0  0  0  0  0  0
  146.8521  138.3468  152.5214 H   0  0  0  0  0  0  0  0  0  0  0  0
  145.5740  138.2288  153.7127 H   0  0  0  0  0  0  0  0  0  0  0  0
  147.1482  137.2435  155.3428 H   0  0  0  0  0  0  0  0  0  0  0  0
  148.4521  137.2777  154.1642 H   0  0  0  0  0  0  0  0  0  0  0  0
  148.4933  139.7263  152.9688 H   0  0  0  0  0  0  0  0  0  0  0  0
  150.0824  138.0180  153.9437 H   0  0  0  0  0  0  0  0  0  0  0  0
  150.8690  139.5100  153.5155 H   0  0  0  0  0  0  0  0  0  0  0  0
  150.0148  138.6866  156.3307 H   0  0  0  0  0  0  0  0  0  0  0  0
  151.6536  138.7615  155.7319 H   0  0  0  0  0  0  0  0  0  0  0  0
  151.0723  140.7814  157.0949 H   0  0  0  0  0  0  0  0  0  0  0  0
  151.5054  141.2085  155.4574 H   0  0  0  0  0  0  0  0  0  0  0  0
  148.6701  140.9897  156.5789 H   0  0  0  0  0  0  0  0  0  0  0  0
  149.4953  142.4609  156.1291 H   0  0  0  0  0  0  0  0  0  0  0  0
  149.5921  141.7376  153.7734 H   0  0  0  0  0  0  0  0  0  0  0  0
  146.7507  141.5784  154.8738 H   0  0  0  0  0  0  0  0  0  0  0  0
  147.1909  141.9075  153.2004 H   0  0  0  0  0  0  0  0  0  0  0  0
  147.6268  143.0499  154.4654 H   0  0  0  0  0  0  0  0  0  0  0  0
  1  2  1  0  0  0  0
  1 20  1  0  0  0  0
  1 21  1  0  0  0  0
  1 22  1  0  0  0  0
  2  3  1  0  0  0  0
  2  9  1  0  0  0  0
  2 23  1  0  0  0  0
  3  4  1  0  0  0  0
  3 24  1  0  0  0  0
  3 25  1  0  0  0  0
  4  8  1  0  0  0  0
  4  5  1  0  0  0  0
  5  6  2  0  0  0  0
  5 26  1  0  0  0  0
  6  7  1  0  0  0  0
  6 27  1  0  0  0  0
  7  8  2  0  0  0  0
  7 28  1  0  0  0  0
  9 10  1  0  0  0  0
  9 29  1  0  0  0  0
 10 11  1  0  0  0  0
 10 30  1  0  0  0  0
 10 31  1  0  0  0  0
 11 12  1  0  0  0  0
 11 32  1  0  0  0  0
 11 33  1  0  0  0  0
 12 13  1  0  0  0  0
 13 18  1  0  0  0  0
 13 14  1  0  0  0  0
 13 34  1  0  0  0  0
 14 15  1  0  0  0  0
 14 35  1  0  0  0  0
 14 36  1  0  0  0  0
 15 16  1  0  0  0  0
 15 37  1  0  0  0  0
 15 38  1  0  0  0  0
 16 17  1  0  0  0  0
 16 39  1  0  0  0  0
 16 40  1  0  0  0  0
 17 18  1  0  0  0  0
 17 41  1  0  0  0  0
 17 42  1  0  0  0  0
 18 19  1  0  0  0  0
 18 43  1  0  0  0  0
 19 44  1  0  0  0  0
 19 45  1  0  0  0  0
 19 46  1  0  0  0  0
M  END
> <s_m_source_file>
AV-unprocessed.smi

> <i_m_source_file_index>
3348

> <i_lp_mmshare_version>
43012

> <i_f3d_flags>
0

> <s_epik_input>
bjFbY0hdW2NIXVtjSF1uMVtDSDJdW0NAQEhdKFtDSDNdKVtOSF1bQ0gyXVtDSDJdT1tDQEBIXTJbQ0gyXVtDSDJdW0NIMl1bQ0gyXVtDQEhdMltDSDNd

> <s_epik_cmdline>
J2VwaWtfcHl0aG9uJywgJy1waCcsICc3LjAnLCAnLXRuJywgJzgnLCAnLW1hJywgJzIwMCcsICctbWV0YWxfYmluZGluZycsICctaW1hZScsICc8aW5maWxlLm1hZT4nLCAnLW9tYWUnLCAnPG91dGZpbGUubWFlPic=

> <r_lp_tautomer_probability>
1

> <r_epik_Ionization_Penalty>
2.46945

> <r_epik_Ionization_Penalty_Charging>
0

> <r_epik_Ionization_Penalty_Neutral>
2.46945

> <r_epik_State_Penalty>
2.6322

> <r_epik_Charging_Adjusted_Penalty>
2.6322

> <i_epik_Tot_Q>
0

> <i_epik_Tot_abs_Q>
0

> <r_epik_Metal_State_Penalty>
2.63217

> <b_epik_Metal_Only>
0

> <s_lp_Force_Field>
OPLS_2005

> <r_lp_Energy>
17.7248

> <b_lp_Chiralities_Consistent>
1

> <s_lp_Variant>
AV-unprocessed.smi:3348-14

> <Gold.Version>
5.8.1

> <Gold.Id.Protein>
6NUR|6NUR_protein|mol2

> <Gold.PLP.Fitness>
40.2642

> <Gold.PLP.PLP>
-34.0302

> <Gold.PLP.part.hbond>
-1.0000

> <Gold.PLP.part.metal>
0.0000

> <Gold.PLP.part.buried>
0.4322

> <Gold.PLP.part.nonpolar>
-33.6125

> <Gold.PLP.part.repulsive>
0.1961

> <Gold.PLP.ligand.clash>
0.0000

> <Gold.PLP.ligand.torsion>
1.4880

> <Gold.PLP.Chemscore.Hbond>
1.0000

> <Gold.PLP.Chemscore.CHOScore>
2.0000

> <Gold.PLP.Chemscore.Metal>
0.0000

> <Gold.Chemscore.Hbonds>
donor molecule, donor type, donor heavy atom, donor atom, acceptor molecule, acceptor atom, score
      L1  H     9    29       P1  7948  0.97
      L1  C     5    26       P1 10186  1.00
      L1  C     7    28       P1 10747  0.74

> <Gold.PLP.Chemscore.Internal.Correction>
0.2100

> <Gold.Rescore>
     Score         DG    S(hbond)    S(metal)    S(lipo)     H(rot)  DE(clash)    DE(int)     intcor
     13.84     -15.61       0.98        0.00      96.26       1.72       0.35       1.43       ----

> <Gold.Chemscore.Fitness>
13.8400

> <Gold.Chemscore.DG>
-15.6136

> <Gold.Chemscore.ZeroCoef>
-5.4800

> <Gold.Chemscore.Hbond>
0.9833

> <Gold.Chemscore.Metal>
0.0000

> <Gold.Chemscore.Lipo>
96.2551

> <Gold.Chemscore.Internal_Hbond>
0.0000

> <Gold.Chemscore.DEClash>
0.3478

> <Gold.Chemscore.DEInternal>
1.4259

> <Gold.Chemscore.Rot>
1.7237

> <Gold.Chemscore.Internal.Correction>
   9.000000E+99

> <Gold.Chemscore.Hbonds>
donor molecule, donor type, donor heavy atom, donor atom, acceptor molecule, acceptor atom, score
      L1  H     9    29       P1  7948  0.85

> <Gold.Chemscore.Hbond.Weighted>
-3.2844

> <Gold.Chemscore.Metal.Weighted>
-0.0000

> <Gold.Chemscore.Lipo.Weighted>
-11.2618

> <Gold.Chemscore.Internal_Hbond.Weighted>
0.0000

> <Gold.Chemscore.DEClash.Weighted>
0.3478

> <Gold.Chemscore.DEInternal.Weighted>
1.4259

> <Gold.Chemscore.Rot.Weighted>
4.4126

> <Gold.Chemscore.Internal.Correction.Weighted>
   9.000000E+99

> <Gold.Protein.RotatedTorsions>
[ 6907 6896 6895 6894 ] final -137.16 input  -60.11 | X-H torsion
[ 7974 7965 7964 7962 ] final  158.85 input  175.53 | X-H torsion
[ 8008 7997 7996 7995 ] final  -38.16 input   59.86 | X-H torsion
[ 10167 10162 10161 10158 ] final  -47.79 input  -65.29 | X-H torsion
[ 10718 10713 10712 10709 ] final  -46.04 input   66.30 | X-H torsion
[ 10763 10752 10751 10750 ] final  170.17 input  -60.55 | X-H torsion
[ 11005 11000 10999 10996 ] final   18.53 input  -57.11 | X-H torsion

> <Gold.Protein.ActiveResidues>
 VAL166  LYS551  ARG553  GLY616  TRP617  ASP618  TYR619  PRO620  LYS621  CYS622 
 ASP623  PHE694  ASN695  SER759  ASP760  ASP761  ALA762  ILE779  LEU786  VAL792 
 PHE793  MET794  SER795  GLU796  ALA797  LYS798  CYS799  TRP800  GLU811  SER814 

> <Gold.Protein.RotatedAtoms>
  151.0190  133.5894  159.2673 H   0  0  0  0  0  0  0  0  0  0  0  0  # atno 6907 bound_to 6896
  151.3017  135.0769  159.9251 H   0  0  0  0  0  0  0  0  0  0  0  0  # atno 6908 bound_to 6896
  152.5318  133.9871  159.7887 H   0  0  0  0  0  0  0  0  0  0  0  0  # atno 6909 bound_to 6896
  144.7822  139.7536  143.6255 H   0  0  0  0  0  0  0  0  0  0  0  0  # atno 7974 bound_to 7965
  154.4041  140.1585  156.2655 H   0  0  0  0  0  0  0  0  0  0  0  0  # atno 8008 bound_to 7997
  155.8999  140.3434  155.5996 H   0  0  0  0  0  0  0  0  0  0  0  0  # atno 8009 bound_to 7997
  155.7460  140.0798  157.2214 H   0  0  0  0  0  0  0  0  0  0  0  0  # atno 8010 bound_to 7997
  140.6759  143.2768  151.3978 H   0  0  0  0  0  0  0  0  0  0  0  0  # atno 10167 bound_to 10162
  156.2223  130.4167  149.8977 H   0  0  0  0  0  0  0  0  0  0  0  0  # atno 10718 bound_to 10713
  154.3938  135.2754  155.2139 H   0  0  0  0  0  0  0  0  0  0  0  0  # atno 10763 bound_to 10752
  154.4194  135.6004  153.6004 H   0  0  0  0  0  0  0  0  0  0  0  0  # atno 10764 bound_to 10752
  152.9831  135.5968  154.4196 H   0  0  0  0  0  0  0  0  0  0  0  0  # atno 10765 bound_to 10752
  140.4238  134.1491  155.7675 H   0  0  0  0  0  0  0  0  0  0  0  0  # atno 11005 bound_to 11000
  146.2036  139.5347  142.9727 LP  0  0  0  0  0  0  0  0  0  0  0  0  # atno 17320 bound_to 7965
  145.6018  141.0354  143.2014 LP  0  0  0  0  0  0  0  0  0  0  0  0  # atno 17321 bound_to 7965
  139.6052  144.1212  152.2241 LP  0  0  0  0  0  0  0  0  0  0  0  0  # atno 17342 bound_to 10162
  140.0609  144.5857  150.7264 LP  0  0  0  0  0  0  0  0  0  0  0  0  # atno 17343 bound_to 10162
  156.6619  130.8785  151.3549 LP  0  0  0  0  0  0  0  0  0  0  0  0  # atno 17370 bound_to 10713
  157.7093  130.9422  150.1036 LP  0  0  0  0  0  0  0  0  0  0  0  0  # atno 17371 bound_to 10713
  141.1773  133.8487  157.1377 LP  0  0  0  0  0  0  0  0  0  0  0  0  # atno 17394 bound_to 11000
  140.0181  134.9958  157.0536 LP  0  0  0  0  0  0  0  0  0  0  0  0  # atno 17395 bound_to 11000

$$$$
