AV-unprocessed.smi:1600|AV-procd|sdf|6429|dock3
  -GOLD-   22720 7 73D 1   1.00000     0.00000
 Structure written by MMmdl.
 46 47  0  0  0  0  0  0  0  0  2 V2000
  148.2712  135.3207  162.4823 C   0  0  0  0  0  0  0  0  0  0  0  0
  148.6877  135.5382  161.0574 C   0  0  0  0  0  0  0  0  0  0  0  0
  148.8426  134.5627  160.0300 C   0  0  0  0  0  0  0  0  0  0  0  0
  149.2310  135.3158  158.9557 C   0  0  0  0  0  0  0  0  0  0  0  0
  149.5285  134.9126  157.6916 N   0  0  0  0  0  0  0  0  0  0  0  0
  149.8723  133.6862  157.2607 C   0  0  0  0  0  0  0  0  0  0  0  0
  149.9878  132.6855  157.9684 O   0  0  0  0  0  0  0  0  0  0  0  0
  150.0797  133.6776  155.9360 N   0  0  0  0  0  0  0  0  0  0  0  0
  150.4413  132.4995  155.1542 C   0  0  0  0  0  0  0  0  0  0  0  0
  149.6155  132.3819  153.8585 C   0  0  2  0  0  0  0  0  0  0  0  0
  148.4694  133.3848  153.7332 C   0  0  0  0  0  0  0  0  0  0  0  0
  147.4584  132.7066  152.7981 C   0  0  0  0  0  0  0  0  0  0  0  0
  147.8606  131.2821  152.6755 N   0  3  2  0  0  0  0  0  0  0  0  0
  146.7359  130.3043  152.6544 C   0  0  0  0  0  0  0  0  0  0  0  0
  147.2436  128.8506  152.5953 C   0  0  0  0  0  0  0  0  0  0  0  0
  145.7938  130.5682  151.4642 C   0  0  0  0  0  0  0  0  0  0  0  0
  148.8958  131.0443  153.7048 C   0  0  0  0  0  0  0  0  0  0  0  0
  149.2975  136.6371  159.3394 N   0  0  0  0  0  0  0  0  0  0  0  0
  149.6625  137.8060  158.5630 C   0  0  0  0  0  0  0  0  0  0  0  0
  148.9612  136.7696  160.6407 N   0  0  0  0  0  0  0  0  0  0  0  0
  148.0498  134.2703  162.6722 H   0  0  0  0  0  0  0  0  0  0  0  0
  147.3771  135.8965  162.7227 H   0  0  0  0  0  0  0  0  0  0  0  0
  149.0596  135.6231  163.1721 H   0  0  0  0  0  0  0  0  0  0  0  0
  148.6900  133.4960  160.0938 H   0  0  0  0  0  0  0  0  0  0  0  0
  149.4648  135.6316  156.9862 H   0  0  0  0  0  0  0  0  0  0  0  0
  149.9627  134.5432  155.4296 H   0  0  0  0  0  0  0  0  0  0  0  0
  151.5072  132.5256  154.9211 H   0  0  0  0  0  0  0  0  0  0  0  0
  150.2863  131.6199  155.7796 H   0  0  0  0  0  0  0  0  0  0  0  0
  150.2744  132.5065  152.9973 H   0  0  0  0  0  0  0  0  0  0  0  0
  148.0082  133.5505  154.7081 H   0  0  0  0  0  0  0  0  0  0  0  0
  148.8024  134.3527  153.3569 H   0  0  0  0  0  0  0  0  0  0  0  0
  146.4524  132.8127  153.2069 H   0  0  0  0  0  0  0  0  0  0  0  0
  147.4651  133.1644  151.8085 H   0  0  0  0  0  0  0  0  0  0  0  0
  146.1653  130.4242  153.5769 H   0  0  0  0  0  0  0  0  0  0  0  0
  146.4109  128.1494  152.5314 H   0  0  0  0  0  0  0  0  0  0  0  0
  147.8139  128.5790  153.4838 H   0  0  0  0  0  0  0  0  0  0  0  0
  147.8797  128.6869  151.7245 H   0  0  0  0  0  0  0  0  0  0  0  0
  144.9819  129.8406  151.4406 H   0  0  0  0  0  0  0  0  0  0  0  0
  146.3261  130.4976  150.5149 H   0  0  0  0  0  0  0  0  0  0  0  0
  145.3325  131.5543  151.5140 H   0  0  0  0  0  0  0  0  0  0  0  0
  149.5791  130.2451  153.4158 H   0  0  0  0  0  0  0  0  0  0  0  0
  148.4197  130.7634  154.6462 H   0  0  0  0  0  0  0  0  0  0  0  0
  149.1181  137.8052  157.6182 H   0  0  0  0  0  0  0  0  0  0  0  0
  150.7336  137.7897  158.3594 H   0  0  0  0  0  0  0  0  0  0  0  0
  149.4179  138.7195  159.1072 H   0  0  0  0  0  0  0  0  0  0  0  0
  148.3362  131.2041  151.7878 H   0  0  0  0  0  0  0  0  0  0  0  0
  1  2  1  0  0  0  0
  1 21  1  0  0  0  0
  1 22  1  0  0  0  0
  1 23  1  0  0  0  0
  2 20  2  0  0  0  0
  2  3  1  0  0  0  0
  3  4  2  0  0  0  0
  3 24  1  0  0  0  0
  4  5  1  0  0  0  0
  4 18  1  0  0  0  0
  5  6  1  0  0  0  0
  5 25  1  0  0  0  0
  6  7  2  0  0  0  0
  6  8  1  0  0  0  0
  8  9  1  0  0  0  0
  8 26  1  0  0  0  0
  9 10  1  0  0  0  0
  9 27  1  0  0  0  0
  9 28  1  0  0  0  0
 10 17  1  0  0  0  0
 10 11  1  0  0  0  0
 10 29  1  0  0  0  0
 11 12  1  0  0  0  0
 11 30  1  0  0  0  0
 11 31  1  0  0  0  0
 12 13  1  0  0  0  0
 12 32  1  0  0  0  0
 12 33  1  0  0  0  0
 13 14  1  0  0  0  0
 13 17  1  0  0  0  0
 13 46  1  0  0  0  0
 14 15  1  0  0  0  0
 14 16  1  0  0  0  0
 14 34  1  0  0  0  0
 15 35  1  0  0  0  0
 15 36  1  0  0  0  0
 15 37  1  0  0  0  0
 16 38  1  0  0  0  0
 16 39  1  0  0  0  0
 16 40  1  0  0  0  0
 17 41  1  0  0  0  0
 17 42  1  0  0  0  0
 18 19  1  0  0  0  0
 18 20  1  0  0  0  0
 19 43  1  0  0  0  0
 19 44  1  0  0  0  0
 19 45  1  0  0  0  0
M  CHG  1  13   1
M  END
> <s_m_source_file>
AV-unprocessed.smi

> <i_m_source_file_index>
1600

> <i_lp_mmshare_version>
43012

> <i_f3d_flags>
0

> <s_epik_input>
W0NIM11jMVtjSF1jKG4objEpW0NIM10pW05IXUMoPU8pW05IXVtDSDJdW0NAQEhdMltDSDJdW0NIMl1OKFtDSDJdMilbQ0hdKFtDSDNdKVtDSDNd

> <s_epik_cmdline>
J2VwaWtfcHl0aG9uJywgJy1waCcsICc3LjAnLCAnLXRuJywgJzgnLCAnLW1hJywgJzIwMCcsICctbWV0YWxfYmluZGluZycsICctaW1hZScsICc8aW5maWxlLm1hZT4nLCAnLW9tYWUnLCAnPG91dGZpbGUubWFlPic=

> <r_lp_tautomer_probability>
1

> <r_epik_Ionization_Penalty>
0.000297652

> <r_epik_Ionization_Penalty_Charging>
0.000213653

> <r_epik_Ionization_Penalty_Neutral>
8.3999e-05

> <r_epik_State_Penalty>
-0

> <r_epik_Charging_Adjusted_Penalty>
0.000213653

> <i_epik_Tot_Q>
1

> <i_epik_Tot_abs_Q>
1

> <r_epik_Metal_State_Penalty>
-0

> <b_epik_Metal_Only>
0

> <s_lp_Force_Field>
OPLS_2005

> <r_lp_Energy>
32.0246

> <b_lp_Chiralities_Consistent>
1

> <s_lp_Variant>
AV-unprocessed.smi:1600-3

> <Gold.Version>
5.8.1

> <Gold.Id.Protein>
6NUR|6NUR_protein|mol2

> <Gold.PLP.Fitness>
43.2626

> <Gold.PLP.PLP>
-34.8574

> <Gold.PLP.part.hbond>
-4.0000

> <Gold.PLP.part.metal>
0.0000

> <Gold.PLP.part.buried>
-4.3823

> <Gold.PLP.part.nonpolar>
-27.1156

> <Gold.PLP.part.repulsive>
0.1233

> <Gold.PLP.ligand.clash>
0.2077

> <Gold.PLP.ligand.torsion>
0.9303

> <Gold.PLP.Chemscore.Hbond>
3.4730

> <Gold.PLP.Chemscore.CHOScore>
0.0000

> <Gold.PLP.Chemscore.Metal>
0.0000

> <Gold.Chemscore.Hbonds>
donor molecule, donor type, donor heavy atom, donor atom, acceptor molecule, acceptor atom, score
      L1  H    13    46       P1 10747  1.00
      P1  H  6896  6909       L1     7  0.70
      P1  H  6931  6943       L1    20  0.83

> <Gold.PLP.Chemscore.Internal.Correction>
0.0547

> <Gold.Rescore>
     Score         DG    S(hbond)    S(metal)    S(lipo)     H(rot)  DE(clash)    DE(int)     intcor
     18.08     -20.12       2.88        0.00      74.38       1.44       0.04       2.00       ----

> <Gold.Chemscore.Fitness>
18.0797

> <Gold.Chemscore.DG>
-20.1186

> <Gold.Chemscore.ZeroCoef>
-5.4800

> <Gold.Chemscore.Hbond>
2.8788

> <Gold.Chemscore.Metal>
0.0000

> <Gold.Chemscore.Lipo>
74.3753

> <Gold.Chemscore.Internal_Hbond>
0.0000

> <Gold.Chemscore.DEClash>
0.0414

> <Gold.Chemscore.DEInternal>
1.9976

> <Gold.Chemscore.Rot>
1.4369

> <Gold.Chemscore.Internal.Correction>
   9.000000E+99

> <Gold.Chemscore.Hbonds>
donor molecule, donor type, donor heavy atom, donor atom, acceptor molecule, acceptor atom, score
      L1  H    13    46       P1 10747  1.00
      P1  H  6896  6909       L1     7  0.07
      P1  H  6931  6943       L1    20  0.81

> <Gold.Chemscore.Hbond.Weighted>
-9.6152

> <Gold.Chemscore.Metal.Weighted>
-0.0000

> <Gold.Chemscore.Lipo.Weighted>
-8.7019

> <Gold.Chemscore.Internal_Hbond.Weighted>
0.0000

> <Gold.Chemscore.DEClash.Weighted>
0.0414

> <Gold.Chemscore.DEInternal.Weighted>
1.9976

> <Gold.Chemscore.Rot.Weighted>
3.6785

> <Gold.Chemscore.Internal.Correction.Weighted>
   9.000000E+99

> <Gold.Protein.RotatedTorsions>
[ 6907 6896 6895 6894 ] final  -18.57 input  -60.11 | X-H torsion
[ 7974 7965 7964 7962 ] final -173.65 input  175.53 | X-H torsion
[ 8008 7997 7996 7995 ] final  -90.02 input   59.86 | X-H torsion
[ 10167 10162 10161 10158 ] final   12.93 input  -65.29 | X-H torsion
[ 10718 10713 10712 10709 ] final   75.26 input   66.30 | X-H torsion
[ 10763 10752 10751 10750 ] final  -14.70 input  -60.55 | X-H torsion
[ 11005 11000 10999 10996 ] final -179.04 input  -57.11 | X-H torsion

> <Gold.Protein.ActiveResidues>
 VAL166  LYS551  ARG553  GLY616  TRP617  ASP618  TYR619  PRO620  LYS621  CYS622 
 ASP623  PHE694  ASN695  SER759  ASP760  ASP761  ALA762  ILE779  LEU786  VAL792 
 PHE793  MET794  SER795  GLU796  ALA797  LYS798  CYS799  TRP800  GLU811  SER814 

> <Gold.Protein.RotatedAtoms>
  151.2762  135.0700  159.9152 H   0  0  0  0  0  0  0  0  0  0  0  0  # atno 6907 bound_to 6896
  152.5342  134.0079  159.7935 H   0  0  0  0  0  0  0  0  0  0  0  0  # atno 6908 bound_to 6896
  151.0325  133.5727  159.2690 H   0  0  0  0  0  0  0  0  0  0  0  0  # atno 6909 bound_to 6896
  144.7136  140.1590  143.6378 H   0  0  0  0  0  0  0  0  0  0  0  0  # atno 7974 bound_to 7965
  154.6936  140.0535  157.0388 H   0  0  0  0  0  0  0  0  0  0  0  0  # atno 8008 bound_to 7997
  155.0782  140.3207  155.4590 H   0  0  0  0  0  0  0  0  0  0  0  0  # atno 8009 bound_to 7997
  156.2736  140.2069  156.5910 H   0  0  0  0  0  0  0  0  0  0  0  0  # atno 8010 bound_to 7997
  140.6036  143.8554  150.6990 H   0  0  0  0  0  0  0  0  0  0  0  0  # atno 10167 bound_to 10162
  157.6627  130.9718  150.1328 H   0  0  0  0  0  0  0  0  0  0  0  0  # atno 10718 bound_to 10713
  153.5323  135.7014  153.5677 H   0  0  0  0  0  0  0  0  0  0  0  0  # atno 10763 bound_to 10752
  153.3680  135.3952  155.1767 H   0  0  0  0  0  0  0  0  0  0  0  0  # atno 10764 bound_to 10752
  154.8683  135.3805  154.4820 H   0  0  0  0  0  0  0  0  0  0  0  0  # atno 10765 bound_to 10752
  140.4230  134.6588  157.4674 H   0  0  0  0  0  0  0  0  0  0  0  0  # atno 11005 bound_to 11000
  145.9048  139.2451  143.1472 LP  0  0  0  0  0  0  0  0  0  0  0  0  # atno 17320 bound_to 7965
  145.9775  140.8710  143.0131 LP  0  0  0  0  0  0  0  0  0  0  0  0  # atno 17321 bound_to 7965
  140.2106  143.3886  152.1721 LP  0  0  0  0  0  0  0  0  0  0  0  0  # atno 17342 bound_to 10162
  139.5308  144.7157  151.5062 LP  0  0  0  0  0  0  0  0  0  0  0  0  # atno 17343 bound_to 10162
  156.2171  130.3671  149.8601 LP  0  0  0  0  0  0  0  0  0  0  0  0  # atno 17370 bound_to 10713
  156.6464  130.8725  151.3523 LP  0  0  0  0  0  0  0  0  0  0  0  0  # atno 17371 bound_to 10713
  140.0186  134.6581  155.9272 LP  0  0  0  0  0  0  0  0  0  0  0  0  # atno 17394 bound_to 11000
  141.1776  133.6542  156.4891 LP  0  0  0  0  0  0  0  0  0  0  0  0  # atno 17395 bound_to 11000

$$$$
