#       Name:                AV-unprocessed.smi:1978
#       Creating user name   scv26
#       Creation time:       Fri Mar 27 10:18:15 2020


#       File generated by GOLD software.
#

@<TRIPOS>MOLECULE
AV-unprocessed.smi:1978
    50    51     1
SMALL
NO_CHARGES


@<TRIPOS>ATOM
      1 ****        -3.5979   7.0158   2.0284 C.3            1 S1                 0.0000
      2 ****        -3.1274   5.6345   1.7262 C.2            1 S1                 0.0000
      3 ****        -3.0397   4.9147   0.5678 C.2            1 S1                 0.0000
      4 ****        -2.5028   3.6738   1.0027 C.2            1 S1                 0.0000
      5 ****        -2.2471   2.6273   0.0803 N.am           1 S1                 0.0000
      6 ****        -1.7269   1.4162   0.3418 C.2            1 S1                 0.0000
      7 ****        -1.3986   1.0086   1.4563 O.2            1 S1                 0.0000
      8 ****        -1.5972   0.6872  -0.7762 N.am           1 S1                 0.0000
      9 ****        -1.0515  -0.6667  -0.8301 C.3            1 S1                 0.0000
     10 ****         0.4958  -0.7162  -0.6641 C.3            1 S1                 0.0000
     11 ****         1.1517   0.1965  -1.7332 C.3            1 S1                 0.0000
     12 ****         1.0135  -2.1291  -0.7079 N.4            1 S1                 1.0000
     13 ****         0.5176  -2.9928   0.4077 C.3            1 S1                 0.0000
     14 ****         0.8711  -4.4725   0.1833 C.3            1 S1                 0.0000
     15 ****         2.3773  -4.6670  -0.0007 C.3            1 S1                 0.0000
     16 ****         2.8764  -3.7557  -1.1271 C.3            1 S1                 0.0000
     17 ****         2.4968  -2.2779  -0.8936 C.3            1 S1                 0.0000
     18 ****         3.3273  -1.6425   0.2451 C.3            1 S1                 0.0000
     19 ****        -2.2855   3.6379   2.3084 N.2            1 S1                 0.0000
     20 ****        -2.6856   4.8941   2.7790 O.3            1 S1                 0.0000
     21 ****        -3.6049   7.6299   1.1277 H              1 S1                 0.0000
     22 ****        -2.9470   7.4967   2.7590 H              1 S1                 0.0000
     23 ****        -4.6092   6.9984   2.4344 H              1 S1                 0.0000
     24 ****        -3.3143   5.2298  -0.4279 H              1 S1                 0.0000
     25 ****        -2.4750   2.8274  -0.8824 H              1 S1                 0.0000
     26 ****        -1.8932   1.0964  -1.6505 H              1 S1                 0.0000
     27 ****        -1.5748  -1.2393  -0.0671 H              1 S1                 0.0000
     28 ****        -1.3342  -1.1044  -1.7881 H              1 S1                 0.0000
     29 ****         0.7487  -0.3097   0.3162 H              1 S1                 0.0000
     30 ****         0.7376   1.2043  -1.7207 H              1 S1                 0.0000
     31 ****         1.0050  -0.2025  -2.7373 H              1 S1                 0.0000
     32 ****         2.2207   0.3303  -1.5756 H              1 S1                 0.0000
     33 ****         0.9175  -2.6436   1.3600 H              1 S1                 0.0000
     34 ****        -0.5633  -2.9495   0.5023 H              1 S1                 0.0000
     35 ****         0.5206  -5.0712   1.0249 H              1 S1                 0.0000
     36 ****         0.3452  -4.8425  -0.6979 H              1 S1                 0.0000
     37 ****         2.9002  -4.4433   0.9295 H              1 S1                 0.0000
     38 ****         2.5959  -5.7092  -0.2350 H              1 S1                 0.0000
     39 ****         3.9570  -3.8565  -1.2360 H              1 S1                 0.0000
     40 ****         2.4463  -4.0911  -2.0721 H              1 S1                 0.0000
     41 ****         2.7796  -1.7800  -1.8198 H              1 S1                 0.0000
     42 ****         4.3940  -1.7446   0.0439 H              1 S1                 0.0000
     43 ****         3.1379  -2.1105   1.2103 H              1 S1                 0.0000
     44 ****         3.1283  -0.5774   0.3558 H              1 S1                 0.0000
     45 ****         0.6119  -2.5228  -1.5467 H              1 S1                 0.0000
     46 ****        -1.5125   1.5964   2.2572 LP             1 S1                 0.0000
     47 ****        -1.0179   0.0897   1.5605 LP             1 S1                 0.0000
     48 ****        -1.9156   2.8778   2.8427 LP             1 S1                 0.0000
     49 ****        -3.4225   4.7844   3.4459 LP             1 S1                 0.0000
     50 ****        -1.9101   5.3538   3.2117 LP             1 S1                 0.0000
@<TRIPOS>BOND
    1    1    2 1     
    2    1   21 1     
    3    1   22 1     
    4    1   23 1     
    5    2   20 1     
    6    2    3 2     
    7    3    4 1     
    8    3   24 1     
    9    4    5 1     
   10    4   19 2     
   11    5    6 am    
   12    5   25 1     
   13    6    7 2     
   14    6    8 am    
   15    8    9 1     
   16    8   26 1     
   17    9   10 1     
   18    9   27 1     
   19    9   28 1     
   20   10   11 1     
   21   10   12 1     
   22   10   29 1     
   23   11   30 1     
   24   11   31 1     
   25   11   32 1     
   26   12   17 1     
   27   12   13 1     
   28   12   45 1     
   29   13   14 1     
   30   13   33 1     
   31   13   34 1     
   32   14   15 1     
   33   14   35 1     
   34   14   36 1     
   35   15   16 1     
   36   15   37 1     
   37   15   38 1     
   38   16   17 1     
   39   16   39 1     
   40   16   40 1     
   41   17   18 1     
   42   17   41 1     
   43   18   42 1     
   44   18   43 1     
   45   18   44 1     
   46   19   20 1     
   47    7   46 1     
   48    7   47 1     
   49   19   48 1     
   50   20   49 1     
   51   20   50 1     
@<TRIPOS>SUBSTRUCTURE
      1 S1             1
@<TRIPOS>SET
LONE_PAIRS      STATIC     ATOMS    <user>   **** ""
5 46 47 48 49 50
DONOR_HYDROGENS      STATIC     ATOMS    <user>   **** ""
3 25 26 45
ATOM$BLUE        STATIC     ATOMS    COLORGROUP SYSTEM
5 46 47 48 49 50
ATOM$RED        STATIC     ATOMS    COLORGROUP SYSTEM
3 25 26 45
