AV-unprocessed.smi:1025|AV-procd|sdf|4467|dock4
  -GOLD-   22720 2443D 1   1.00000     0.00000
 Structure written by MMmdl.
 51 52  0  0  0  0  0  0  0  0  1 V2000
  147.2322  144.4882  160.5074 C   0  0  0  0  0  0  0  0  0  0  0  0
  148.4280  144.6547  159.6956 N   0  0  0  0  0  0  0  0  0  0  0  0
  149.6767  144.4336  160.1325 C   0  0  0  0  0  0  0  0  0  0  0  0
  149.9236  144.0623  161.2798 O   0  0  0  0  0  0  0  0  0  0  0  0
  150.8081  144.6704  159.1139 C   0  0  2  0  0  0  0  0  0  0  0  0
  150.7882  143.6485  157.9534 C   0  0  0  0  0  0  0  0  0  0  0  0
  151.3506  142.2670  158.3366 C   0  0  0  0  0  0  0  0  0  0  0  0
  152.7619  142.3821  158.9443 C   0  0  2  0  0  0  0  0  0  0  0  0
  153.2516  141.0710  159.3589 N   0  0  0  0  0  0  0  0  0  0  0  0
  153.2614  139.9701  158.5944 C   0  0  0  0  0  0  0  0  0  0  0  0
  152.8434  139.9442  157.4376 O   0  0  0  0  0  0  0  0  0  0  0  0
  153.7901  138.9275  159.2573 N   0  0  0  0  0  0  0  0  0  0  0  0
  154.0131  137.6001  158.8010 C   0  0  0  0  0  0  0  0  0  0  0  0
  154.1151  137.1994  157.4468 C   0  0  0  0  0  0  0  0  0  0  0  0
  154.3279  135.9110  157.1040 N   0  0  0  0  0  0  0  0  0  0  0  0
  154.4040  135.0050  158.0876 C   0  0  0  0  0  0  0  0  0  0  0  0
  154.8047  133.5721  157.6947 C   0  0  0  0  0  0  0  0  0  0  0  0
  154.9874  132.6828  158.9469 C   0  0  0  0  0  0  0  0  0  0  0  0
  156.1179  133.6095  156.8916 C   0  0  0  0  0  0  0  0  0  0  0  0
  153.7009  132.8962  156.8474 C   0  0  0  0  0  0  0  0  0  0  0  0
  154.3517  135.2857  159.3961 N   0  0  0  0  0  0  0  0  0  0  0  0
  154.1384  136.5693  159.7534 C   0  0  0  0  0  0  0  0  0  0  0  0
  152.7635  143.3377  160.1504 C   0  0  0  0  0  0  0  0  0  0  0  0
  152.2058  144.7232  159.7741 C   0  0  0  0  0  0  0  0  0  0  0  0
  146.3468  144.7236  159.9169 H   0  0  0  0  0  0  0  0  0  0  0  0
  147.2533  145.1545  161.3708 H   0  0  0  0  0  0  0  0  0  0  0  0
  147.1425  143.4605  160.8619 H   0  0  0  0  0  0  0  0  0  0  0  0
  148.3001  144.9571  158.7407 H   0  0  0  0  0  0  0  0  0  0  0  0
  150.6288  145.6530  158.6741 H   0  0  0  0  0  0  0  0  0  0  0  0
  149.7743  143.5360  157.5667 H   0  0  0  0  0  0  0  0  0  0  0  0
  151.3766  144.0473  157.1262 H   0  0  0  0  0  0  0  0  0  0  0  0
  150.6810  141.7704  159.0393 H   0  0  0  0  0  0  0  0  0  0  0  0
  151.3775  141.6330  157.4496 H   0  0  0  0  0  0  0  0  0  0  0  0
  153.4365  142.7925  158.1904 H   0  0  0  0  0  0  0  0  0  0  0  0
  153.6146  141.0000  160.2982 H   0  0  0  0  0  0  0  0  0  0  0  0
  154.1162  139.1206  160.1930 H   0  0  0  0  0  0  0  0  0  0  0  0
  154.0272  137.8853  156.6198 H   0  0  0  0  0  0  0  0  0  0  0  0
  155.2268  131.6550  158.6719 H   0  0  0  0  0  0  0  0  0  0  0  0
  154.0801  132.6571  159.5519 H   0  0  0  0  0  0  0  0  0  0  0  0
  155.7998  133.0348  159.5836 H   0  0  0  0  0  0  0  0  0  0  0  0
  156.9263  134.0515  157.4750 H   0  0  0  0  0  0  0  0  0  0  0  0
  156.0087  134.2007  155.9816 H   0  0  0  0  0  0  0  0  0  0  0  0
  156.4342  132.6082  156.5978 H   0  0  0  0  0  0  0  0  0  0  0  0
  153.9616  131.8656  156.6046 H   0  0  0  0  0  0  0  0  0  0  0  0
  153.5409  133.4106  155.8991 H   0  0  0  0  0  0  0  0  0  0  0  0
  152.7485  132.8767  157.3785 H   0  0  0  0  0  0  0  0  0  0  0  0
  154.0795  136.7748  160.8122 H   0  0  0  0  0  0  0  0  0  0  0  0
  152.1827  142.9095  160.9675 H   0  0  0  0  0  0  0  0  0  0  0  0
  153.7794  143.4499  160.5315 H   0  0  0  0  0  0  0  0  0  0  0  0
  152.9005  145.2042  159.0842 H   0  0  0  0  0  0  0  0  0  0  0  0
  152.1812  145.3601  160.6593 H   0  0  0  0  0  0  0  0  0  0  0  0
  1  2  1  0  0  0  0
  1 25  1  0  0  0  0
  1 26  1  0  0  0  0
  1 27  1  0  0  0  0
  2  3  1  0  0  0  0
  2 28  1  0  0  0  0
  3  4  2  0  0  0  0
  3  5  1  0  0  0  0
  5 24  1  0  0  0  0
  5  6  1  0  0  0  0
  5 29  1  0  0  0  0
  6  7  1  0  0  0  0
  6 30  1  0  0  0  0
  6 31  1  0  0  0  0
  7  8  1  0  0  0  0
  7 32  1  0  0  0  0
  7 33  1  0  0  0  0
  8  9  1  0  0  0  0
  8 23  1  0  0  0  0
  8 34  1  0  0  0  0
  9 10  1  0  0  0  0
  9 35  1  0  0  0  0
 10 11  2  0  0  0  0
 10 12  1  0  0  0  0
 12 13  1  0  0  0  0
 12 36  1  0  0  0  0
 13 22  1  0  0  0  0
 13 14  2  0  0  0  0
 14 15  1  0  0  0  0
 14 37  1  0  0  0  0
 15 16  2  0  0  0  0
 16 17  1  0  0  0  0
 16 21  1  0  0  0  0
 17 18  1  0  0  0  0
 17 19  1  0  0  0  0
 17 20  1  0  0  0  0
 18 38  1  0  0  0  0
 18 39  1  0  0  0  0
 18 40  1  0  0  0  0
 19 41  1  0  0  0  0
 19 42  1  0  0  0  0
 19 43  1  0  0  0  0
 20 44  1  0  0  0  0
 20 45  1  0  0  0  0
 20 46  1  0  0  0  0
 21 22  2  0  0  0  0
 22 47  1  0  0  0  0
 23 24  1  0  0  0  0
 23 48  1  0  0  0  0
 23 49  1  0  0  0  0
 24 50  1  0  0  0  0
 24 51  1  0  0  0  0
M  END
> <s_m_source_file>
AV-unprocessed.smi

> <i_m_source_file_index>
1025

> <i_lp_mmshare_version>
43012

> <i_f3d_flags>
0

> <s_epik_input>
W0NIM11bTkhdQyg9TylbQ0BASF0xW0NIMl1bQ0gyXVtDQEhdKFtDSDJdW0NIMl0xKVtOSF1DKD1PKVtOSF1jMltjSF1uYyhDKFtDSDNdKShbQ0gzXSlbQ0gzXSluW2NIXTI=

> <s_epik_cmdline>
J2VwaWtfcHl0aG9uJywgJy1waCcsICc3LjAnLCAnLXRuJywgJzgnLCAnLW1hJywgJzIwMCcsICctbWV0YWxfYmluZGluZycsICctaW1hZScsICc8aW5maWxlLm1hZT4nLCAnLW9tYWUnLCAnPG91dGZpbGUubWFlPic=

> <r_lp_tautomer_probability>
1

> <r_epik_Ionization_Penalty>
2.76239e-05

> <r_epik_Ionization_Penalty_Charging>
0

> <r_epik_Ionization_Penalty_Neutral>
2.76239e-05

> <r_epik_State_Penalty>
-0

> <r_epik_Charging_Adjusted_Penalty>
0

> <i_epik_Tot_Q>
0

> <i_epik_Tot_abs_Q>
0

> <r_epik_Metal_State_Penalty>
-0

> <b_epik_Metal_Only>
0

> <s_lp_Force_Field>
OPLS_2005

> <r_lp_Energy>
4.91063

> <b_lp_Chiralities_Consistent>
1

> <s_lp_Variant>
AV-unprocessed.smi:1025-2

> <Gold.Version>
5.8.1

> <Gold.Id.Protein>
6NUR|6NUR_protein|mol2

> <Gold.PLP.Fitness>
43.8251

> <Gold.PLP.PLP>
-32.5372

> <Gold.PLP.part.hbond>
-4.9970

> <Gold.PLP.part.metal>
0.0000

> <Gold.PLP.part.buried>
-3.5029

> <Gold.PLP.part.nonpolar>
-24.3454

> <Gold.PLP.part.repulsive>
0.5176

> <Gold.PLP.ligand.clash>
0.0000

> <Gold.PLP.ligand.torsion>
0.4544

> <Gold.PLP.Chemscore.Hbond>
4.0036

> <Gold.PLP.Chemscore.CHOScore>
0.0000

> <Gold.PLP.Chemscore.Metal>
0.0000

> <Gold.Chemscore.Hbonds>
donor molecule, donor type, donor heavy atom, donor atom, acceptor molecule, acceptor atom, score
      L1  H     2    28       P1  8029  1.00
      P1  H  6896  6908       L1    21  0.80
      P1  H  6933  6944       L1     4  0.08
      P1  H  7997  8010       L1    11  0.65
      P1  H 10752 10764       L1    15  1.00

> <Gold.PLP.Chemscore.Internal.Correction>
0.1859

> <Gold.Rescore>
     Score         DG    S(hbond)    S(metal)    S(lipo)     H(rot)  DE(clash)    DE(int)     intcor
     16.87     -19.93       2.21        0.00      93.69       1.52       0.22       2.84       ----

> <Gold.Chemscore.Fitness>
16.8741

> <Gold.Chemscore.DG>
-19.9265

> <Gold.Chemscore.ZeroCoef>
-5.4800

> <Gold.Chemscore.Hbond>
2.2061

> <Gold.Chemscore.Metal>
0.0000

> <Gold.Chemscore.Lipo>
93.6920

> <Gold.Chemscore.Internal_Hbond>
0.0000

> <Gold.Chemscore.DEClash>
0.2164

> <Gold.Chemscore.DEInternal>
2.8361

> <Gold.Chemscore.Rot>
1.5171

> <Gold.Chemscore.Internal.Correction>
   9.000000E+99

> <Gold.Chemscore.Hbonds>
donor molecule, donor type, donor heavy atom, donor atom, acceptor molecule, acceptor atom, score
      L1  H     2    28       P1  8029  1.00
      P1  H  6896  6908       L1    21  0.05
      P1  H  6933  6944       L1     4  0.03
      P1  H  7997  8010       L1    11  0.06
      P1  H 10752 10764       L1    15  0.94

> <Gold.Chemscore.Hbond.Weighted>
-7.3684

> <Gold.Chemscore.Metal.Weighted>
-0.0000

> <Gold.Chemscore.Lipo.Weighted>
-10.9620

> <Gold.Chemscore.Internal_Hbond.Weighted>
0.0000

> <Gold.Chemscore.DEClash.Weighted>
0.2164

> <Gold.Chemscore.DEInternal.Weighted>
2.8361

> <Gold.Chemscore.Rot.Weighted>
3.8839

> <Gold.Chemscore.Internal.Correction.Weighted>
   9.000000E+99

> <Gold.Protein.RotatedTorsions>
[ 6907 6896 6895 6894 ] final  -53.14 input  -60.11 | X-H torsion
[ 7974 7965 7964 7962 ] final  -59.13 input  175.53 | X-H torsion
[ 8008 7997 7996 7995 ] final   52.81 input   59.86 | X-H torsion
[ 10167 10162 10161 10158 ] final -108.22 input  -65.29 | X-H torsion
[ 10718 10713 10712 10709 ] final  162.49 input   66.30 | X-H torsion
[ 10763 10752 10751 10750 ] final   21.16 input  -60.55 | X-H torsion
[ 11005 11000 10999 10996 ] final -122.83 input  -57.11 | X-H torsion

> <Gold.Protein.ActiveResidues>
 VAL166  LYS551  ARG553  GLY616  TRP617  ASP618  TYR619  PRO620  LYS621  CYS622 
 ASP623  PHE694  ASN695  SER759  ASP760  ASP761  ALA762  ILE779  LEU786  VAL792 
 PHE793  MET794  SER795  GLU796  ALA797  LYS798  CYS799  TRP800  GLU811  SER814 

> <Gold.Protein.RotatedAtoms>
  150.8454  134.7761  159.6965 H   0  0  0  0  0  0  0  0  0  0  0  0  # atno 6907 bound_to 6896
  152.4532  134.5345  159.9830 H   0  0  0  0  0  0  0  0  0  0  0  0  # atno 6908 bound_to 6896
  151.5477  133.3384  159.2983 H   0  0  0  0  0  0  0  0  0  0  0  0  # atno 6909 bound_to 6896
  145.8311  140.8479  143.0083 H   0  0  0  0  0  0  0  0  0  0  0  0  # atno 7974 bound_to 7965
  155.4580  140.3460  155.4309 H   0  0  0  0  0  0  0  0  0  0  0  0  # atno 8008 bound_to 7997
  156.1179  140.1479  156.9276 H   0  0  0  0  0  0  0  0  0  0  0  0  # atno 8009 bound_to 7997
  154.4802  140.0872  156.7338 H   0  0  0  0  0  0  0  0  0  0  0  0  # atno 8010 bound_to 7997
  140.1685  143.4062  152.1372 H   0  0  0  0  0  0  0  0  0  0  0  0  # atno 10167 bound_to 10162
  157.1219  131.0494  151.2411 H   0  0  0  0  0  0  0  0  0  0  0  0  # atno 10718 bound_to 10713
  153.1018  135.6674  153.9659 H   0  0  0  0  0  0  0  0  0  0  0  0  # atno 10763 bound_to 10752
  153.9227  135.3012  155.3449 H   0  0  0  0  0  0  0  0  0  0  0  0  # atno 10764 bound_to 10752
  154.7439  135.5067  153.9245 H   0  0  0  0  0  0  0  0  0  0  0  0  # atno 10765 bound_to 10752
  140.9965  134.0464  157.3591 H   0  0  0  0  0  0  0  0  0  0  0  0  # atno 11005 bound_to 11000
  144.6740  140.0674  143.7474 LP  0  0  0  0  0  0  0  0  0  0  0  0  # atno 17320 bound_to 7965
  145.9570  139.2773  143.1178 LP  0  0  0  0  0  0  0  0  0  0  0  0  # atno 17321 bound_to 7965
  139.5348  144.7198  151.4930 LP  0  0  0  0  0  0  0  0  0  0  0  0  # atno 17342 bound_to 10162
  140.6597  143.8524  150.6874 LP  0  0  0  0  0  0  0  0  0  0  0  0  # atno 17343 bound_to 10162
  157.4469  130.7576  149.7117 LP  0  0  0  0  0  0  0  0  0  0  0  0  # atno 17370 bound_to 10713
  155.9827  130.4007  150.3404 LP  0  0  0  0  0  0  0  0  0  0  0  0  # atno 17371 bound_to 10713
  139.9017  135.0167  156.7300 LP  0  0  0  0  0  0  0  0  0  0  0  0  # atno 17394 bound_to 11000
  140.6958  133.9350  155.7993 LP  0  0  0  0  0  0  0  0  0  0  0  0  # atno 17395 bound_to 11000

$$$$
