AV-unprocessed.smi:199|AV-procd|sdf|1561|dock2
  -GOLD-   2262019433D 1   1.00000     0.00000
 Structure written by MMmdl.
 51 55  0  0  0  0  0  0  0  0  1 V2000
  151.7177  138.1390  154.3404 C   0  0  0  0  0  0  0  0  0  0  0  0
  151.3151  139.0447  155.5157 C   0  0  1  0  0  0  0  0  0  0  0  0
  152.4184  139.8307  155.9421 O   0  0  0  0  0  0  0  0  0  0  0  0
  151.8953  140.8842  156.7305 C   0  0  0  0  0  0  0  0  0  0  0  0
  150.6907  141.3460  155.9194 C   0  0  0  0  0  0  0  0  0  0  0  0
  150.1695  140.0620  155.2661 C   0  0  1  0  0  0  0  0  0  0  0  0
  149.9837  140.3146  153.8829 O   0  0  0  0  0  0  0  0  0  0  0  0
  148.8117  139.6156  155.8622 C   0  0  0  0  0  0  0  0  0  0  0  0
  148.2570  138.4332  155.2204 N   0  0  0  0  0  0  0  0  0  0  0  0
  148.4450  137.1231  155.5973 C   0  0  0  0  0  0  0  0  0  0  0  0
  147.8320  136.2392  154.8592 N   0  0  0  0  0  0  0  0  0  0  0  0
  147.1715  136.9931  153.8957 C   0  0  0  0  0  0  0  0  0  0  0  0
  146.3273  136.6813  152.7906 C   0  0  0  0  0  0  0  0  0  0  0  0
  145.9654  135.4136  152.4526 N   0  0  0  0  0  0  0  0  0  0  0  0
  145.1181  134.6357  153.3414 C   0  0  1  0  0  0  0  0  0  0  0  0
  143.7168  135.2510  153.1572 C   0  0  0  0  0  0  0  0  0  0  0  0
  143.7450  135.6228  151.6667 C   0  0  0  0  0  0  0  0  0  0  0  0
  145.1608  135.1537  151.2655 C   0  0  2  0  0  0  0  0  0  0  0  0
  145.1633  133.6111  151.1822 C   0  0  1  0  0  0  0  0  0  0  0  0
  146.3816  133.0367  150.4363 C   0  0  0  0  0  0  0  0  0  0  0  0
  146.1982  131.6605  150.1800 O   0  0  0  0  0  0  0  0  0  0  0  0
  145.1525  133.2471  152.6814 C   0  0  0  0  0  0  0  0  0  0  0  0
  145.8935  137.7203  152.0278 N   0  0  0  0  0  0  0  0  0  0  0  0
  146.2289  138.9757  152.3358 C   0  0  0  0  0  0  0  0  0  0  0  0
  146.9868  139.4122  153.3423 N   0  0  0  0  0  0  0  0  0  0  0  0
  147.4445  138.3761  154.1012 C   0  0  0  0  0  0  0  0  0  0  0  0
  150.8743  137.5385  153.9987 H   0  0  0  0  0  0  0  0  0  0  0  0
  152.5114  137.4537  154.6378 H   0  0  0  0  0  0  0  0  0  0  0  0
  152.0862  138.7191  153.4943 H   0  0  0  0  0  0  0  0  0  0  0  0
  151.0558  138.4113  156.3648 H   0  0  0  0  0  0  0  0  0  0  0  0
  151.5890  140.4995  157.7047 H   0  0  0  0  0  0  0  0  0  0  0  0
  152.6285  141.6757  156.8855 H   0  0  0  0  0  0  0  0  0  0  0  0
  149.9488  141.8524  156.5381 H   0  0  0  0  0  0  0  0  0  0  0  0
  151.0284  142.0610  155.1670 H   0  0  0  0  0  0  0  0  0  0  0  0
  149.0564  140.3283  153.7023 H   0  0  0  0  0  0  0  0  0  0  0  0
  148.9251  139.4044  156.9264 H   0  0  0  0  0  0  0  0  0  0  0  0
  148.0787  140.4203  155.7899 H   0  0  0  0  0  0  0  0  0  0  0  0
  149.0497  136.8410  156.4468 H   0  0  0  0  0  0  0  0  0  0  0  0
  145.4333  134.5980  154.3827 H   0  0  0  0  0  0  0  0  0  0  0  0
  142.9156  134.5543  153.4065 H   0  0  0  0  0  0  0  0  0  0  0  0
  143.5964  136.1428  153.7737 H   0  0  0  0  0  0  0  0  0  0  0  0
  142.9586  135.1334  151.0911 H   0  0  0  0  0  0  0  0  0  0  0  0
  143.6320  136.6998  151.5375 H   0  0  0  0  0  0  0  0  0  0  0  0
  145.5257  135.6275  150.3534 H   0  0  0  0  0  0  0  0  0  0  0  0
  144.2549  133.2475  150.6988 H   0  0  0  0  0  0  0  0  0  0  0  0
  146.5499  133.5603  149.4946 H   0  0  0  0  0  0  0  0  0  0  0  0
  147.2832  133.1551  151.0380 H   0  0  0  0  0  0  0  0  0  0  0  0
  147.0285  131.2219  150.2871 H   0  0  0  0  0  0  0  0  0  0  0  0
  146.0598  132.7132  152.9678 H   0  0  0  0  0  0  0  0  0  0  0  0
  144.2988  132.6280  152.9603 H   0  0  0  0  0  0  0  0  0  0  0  0
  145.8333  139.7387  151.6818 H   0  0  0  0  0  0  0  0  0  0  0  0
  1  2  1  0  0  0  0
  1 27  1  0  0  0  0
  1 28  1  0  0  0  0
  1 29  1  0  0  0  0
  2  6  1  0  0  0  0
  2  3  1  0  0  0  0
  2 30  1  0  0  0  0
  3  4  1  0  0  0  0
  4  5  1  0  0  0  0
  4 31  1  0  0  0  0
  4 32  1  0  0  0  0
  5  6  1  0  0  0  0
  5 33  1  0  0  0  0
  5 34  1  0  0  0  0
  6  7  1  0  0  0  0
  6  8  1  0  0  0  0
  7 35  1  0  0  0  0
  8  9  1  0  0  0  0
  8 36  1  0  0  0  0
  8 37  1  0  0  0  0
  9 26  1  0  0  0  0
  9 10  1  0  0  0  0
 10 11  2  0  0  0  0
 10 38  1  0  0  0  0
 11 12  1  0  0  0  0
 12 26  2  0  0  0  0
 12 13  1  0  0  0  0
 13 14  1  0  0  0  0
 13 23  2  0  0  0  0
 14 18  1  0  0  0  0
 14 15  1  0  0  0  0
 15 22  1  0  0  0  0
 15 16  1  0  0  0  0
 15 39  1  0  0  0  0
 16 17  1  0  0  0  0
 16 40  1  0  0  0  0
 16 41  1  0  0  0  0
 17 18  1  0  0  0  0
 17 42  1  0  0  0  0
 17 43  1  0  0  0  0
 18 19  1  0  0  0  0
 18 44  1  0  0  0  0
 19 20  1  0  0  0  0
 19 22  1  0  0  0  0
 19 45  1  0  0  0  0
 20 21  1  0  0  0  0
 20 46  1  0  0  0  0
 20 47  1  0  0  0  0
 21 48  1  0  0  0  0
 22 49  1  0  0  0  0
 22 50  1  0  0  0  0
 23 24  1  0  0  0  0
 24 25  2  0  0  0  0
 24 51  1  0  0  0  0
 25 26  1  0  0  0  0
M  END
> <s_m_source_file>
AV-unprocessed.smi

> <i_m_source_file_index>
199

> <i_lp_mmshare_version>
43012

> <i_f3d_flags>
0

> <s_epik_input>
W0NIMl0xW0NIMl1PW0NAQEhdKFtDSDNdKVtDQEBdMShbT0hdKVtDSDJdbihbY0hdbjIpYyhjMjMpbltjSF1uYzNOKFtDQEBIXTQ1KVtDQEhdKFtDSDJdW0NIMl00KVtDQEhdKFtDSDJdNSlbQ0gyXVtPSF0=

> <s_epik_cmdline>
J2VwaWtfcHl0aG9uJywgJy1waCcsICc3LjAnLCAnLXRuJywgJzgnLCAnLW1hJywgJzIwMCcsICctbWV0YWxfYmluZGluZycsICctaW1hZScsICc8aW5maWxlLm1hZT4nLCAnLW9tYWUnLCAnPG91dGZpbGUubWFlPic=

> <r_lp_tautomer_probability>
1

> <r_epik_Ionization_Penalty>
0.00583903

> <r_epik_Ionization_Penalty_Charging>
0

> <r_epik_Ionization_Penalty_Neutral>
0.00583903

> <r_epik_State_Penalty>
-0

> <r_epik_Charging_Adjusted_Penalty>
0

> <i_epik_Tot_Q>
0

> <i_epik_Tot_abs_Q>
0

> <r_epik_Metal_State_Penalty>
-0

> <b_epik_Metal_Only>
0

> <s_lp_Force_Field>
OPLS_2005

> <r_lp_Energy>
83.4271

> <b_lp_Chiralities_Consistent>
1

> <s_lp_Variant>
AV-unprocessed.smi:199-2

> <Gold.Version>
5.8.1

> <Gold.Id.Protein>
6NUR|6NUR_protein|mol2

> <Gold.PLP.Fitness>
39.4042

> <Gold.PLP.PLP>
-30.2618

> <Gold.PLP.part.hbond>
-4.0000

> <Gold.PLP.part.metal>
0.0000

> <Gold.PLP.part.buried>
-2.1372

> <Gold.PLP.part.nonpolar>
-26.2051

> <Gold.PLP.part.repulsive>
0.9352

> <Gold.PLP.ligand.clash>
0.0000

> <Gold.PLP.ligand.torsion>
0.5239

> <Gold.PLP.Chemscore.Hbond>
2.8320

> <Gold.PLP.Chemscore.CHOScore>
0.5487

> <Gold.PLP.Chemscore.Metal>
0.0000

> <Gold.Chemscore.Hbonds>
donor molecule, donor type, donor heavy atom, donor atom, acceptor molecule, acceptor atom, score
      L1  H    21    48       P1 10747  1.00
      P1  H  7989  7998       L1     7  0.75
      P1  H  7997  8010       L1     3  1.00
      L1  C    24    51       P1 10171  0.02
      L1  C    24    51       P1 10175  0.62

> <Gold.PLP.Chemscore.Internal.Correction>
0.0481

> <Gold.Rescore>
     Score         DG    S(hbond)    S(metal)    S(lipo)     H(rot)  DE(clash)    DE(int)     intcor
     12.16     -14.22       2.74        0.00      63.71       3.07       0.64       1.41       ----

> <Gold.Chemscore.Fitness>
12.1633

> <Gold.Chemscore.DG>
-14.2151

> <Gold.Chemscore.ZeroCoef>
-5.4800

> <Gold.Chemscore.Hbond>
2.7389

> <Gold.Chemscore.Metal>
0.0000

> <Gold.Chemscore.Lipo>
63.7091

> <Gold.Chemscore.Internal_Hbond>
0.0000

> <Gold.Chemscore.DEClash>
0.6369

> <Gold.Chemscore.DEInternal>
1.4150

> <Gold.Chemscore.Rot>
3.0729

> <Gold.Chemscore.Internal.Correction>
   9.000000E+99

> <Gold.Chemscore.Hbonds>
donor molecule, donor type, donor heavy atom, donor atom, acceptor molecule, acceptor atom, score
      L1  H    21    48       P1 10747  0.98
      P1  H  7989  7998       L1     7  0.19
      P1  H  7997  8010       L1     3  0.29

> <Gold.Chemscore.Hbond.Weighted>
-9.1479

> <Gold.Chemscore.Metal.Weighted>
-0.0000

> <Gold.Chemscore.Lipo.Weighted>
-7.4540

> <Gold.Chemscore.Internal_Hbond.Weighted>
0.0000

> <Gold.Chemscore.DEClash.Weighted>
0.6369

> <Gold.Chemscore.DEInternal.Weighted>
1.4150

> <Gold.Chemscore.Rot.Weighted>
7.8667

> <Gold.Chemscore.Internal.Correction.Weighted>
   9.000000E+99

> <Gold.Protein.RotatedTorsions>
[ 6907 6896 6895 6894 ] final  134.51 input  -60.11 | X-H torsion
[ 7974 7965 7964 7962 ] final  -43.03 input  175.53 | X-H torsion
[ 8008 7997 7996 7995 ] final   89.80 input   59.86 | X-H torsion
[ 10167 10162 10161 10158 ] final  -67.94 input  -65.29 | X-H torsion
[ 10718 10713 10712 10709 ] final  165.70 input   66.30 | X-H torsion
[ 10763 10752 10751 10750 ] final  170.69 input  -60.55 | X-H torsion
[ 11005 11000 10999 10996 ] final  101.05 input  -57.11 | X-H torsion

> <Gold.Protein.ActiveResidues>
 VAL166  LYS551  ARG553  GLY616  TRP617  ASP618  TYR619  PRO620  LYS621  CYS622 
 ASP623  PHE694  ASN695  SER759  ASP760  ASP761  ALA762  ILE779  LEU786  VAL792 
 PHE793  MET794  SER795  GLU796  ALA797  LYS798  CYS799  TRP800  GLU811  SER814 

> <Gold.Protein.RotatedAtoms>
  152.3105  133.5747  159.5677 H   0  0  0  0  0  0  0  0  0  0  0  0  # atno 6907 bound_to 6896
  150.7320  134.0160  159.3694 H   0  0  0  0  0  0  0  0  0  0  0  0  # atno 6908 bound_to 6896
  151.8053  135.0697  160.0456 H   0  0  0  0  0  0  0  0  0  0  0  0  # atno 6909 bound_to 6896
  146.0058  140.7021  142.9248 H   0  0  0  0  0  0  0  0  0  0  0  0  # atno 7974 bound_to 7965
  156.0044  140.3356  155.6877 H   0  0  0  0  0  0  0  0  0  0  0  0  # atno 8008 bound_to 7997
  155.6246  140.0678  157.2685 H   0  0  0  0  0  0  0  0  0  0  0  0  # atno 8009 bound_to 7997
  154.4260  140.1770  156.1395 H   0  0  0  0  0  0  0  0  0  0  0  0  # atno 8010 bound_to 7997
  140.5545  143.2312  151.6847 H   0  0  0  0  0  0  0  0  0  0  0  0  # atno 10167 bound_to 10162
  157.0763  131.0380  151.2592 H   0  0  0  0  0  0  0  0  0  0  0  0  # atno 10718 bound_to 10713
  154.4013  135.2755  155.2095 H   0  0  0  0  0  0  0  0  0  0  0  0  # atno 10763 bound_to 10752
  154.4120  135.6020  153.5962 H   0  0  0  0  0  0  0  0  0  0  0  0  # atno 10764 bound_to 10752
  152.9831  135.5951  154.4281 H   0  0  0  0  0  0  0  0  0  0  0  0  # atno 10765 bound_to 10752
  139.8772  134.9166  156.4848 H   0  0  0  0  0  0  0  0  0  0  0  0  # atno 11005 bound_to 11000
  144.6935  140.3313  143.7215 LP  0  0  0  0  0  0  0  0  0  0  0  0  # atno 17320 bound_to 7965
  145.7418  139.1766  143.2372 LP  0  0  0  0  0  0  0  0  0  0  0  0  # atno 17321 bound_to 7965
  139.5042  144.3764  152.0420 LP  0  0  0  0  0  0  0  0  0  0  0  0  # atno 17342 bound_to 10162
  140.2884  144.3782  150.6096 LP  0  0  0  0  0  0  0  0  0  0  0  0  # atno 17343 bound_to 10162
  157.4836  130.7780  149.7438 LP  0  0  0  0  0  0  0  0  0  0  0  0  # atno 17370 bound_to 10713
  155.9936  130.3923  150.2894 LP  0  0  0  0  0  0  0  0  0  0  0  0  # atno 17371 bound_to 10713
  140.8701  133.7995  155.9355 LP  0  0  0  0  0  0  0  0  0  0  0  0  # atno 17394 bound_to 11000
  140.8961  134.2435  157.5068 LP  0  0  0  0  0  0  0  0  0  0  0  0  # atno 17395 bound_to 11000

$$$$
