AV-unprocessed.smi:99|AV-procd|sdf|868|dock4
  -GOLD-   2262017323D 1   1.00000     0.00000
 Structure written by MMmdl.
 53 56  0  0  0  0  0  0  0  0  1 V2000
  154.1069  139.2356  154.3598 O   0  0  0  0  0  0  0  0  0  0  0  0
  154.8886  138.3590  154.7344 C   0  0  0  0  0  0  0  0  0  0  0  0
  154.7022  137.6194  155.8450 O   0  0  0  0  0  0  0  0  0  0  0  0
  153.6062  137.8936  156.7013 C   0  0  0  0  0  0  0  0  0  0  0  0
  152.2973  137.7689  155.9016 C   0  0  1  0  0  0  0  0  0  0  0  0
  152.0485  136.3898  155.6375 O   0  0  0  0  0  0  0  0  0  0  0  0
  151.2036  135.8394  156.6103 C   0  0  2  0  0  0  0  0  0  0  0  0
  150.0504  135.1507  155.9173 N   0  0  0  0  0  0  0  0  0  0  0  0
  150.0108  135.0293  154.5344 C   0  0  0  0  0  0  0  0  0  0  0  0
  148.9901  134.4332  153.8742 C   0  0  0  0  0  0  0  0  0  0  0  0
  147.8554  133.8828  154.6080 C   0  0  0  0  0  0  0  0  0  0  0  0
  146.8880  133.3209  154.0994 O   0  0  0  0  0  0  0  0  0  0  0  0
  147.9299  134.0401  155.9950 N   0  0  0  0  0  0  0  0  0  0  0  0
  148.9733  134.6577  156.6864 C   0  0  0  0  0  0  0  0  0  0  0  0
  148.9225  134.7599  157.9114 O   0  0  0  0  0  0  0  0  0  0  0  0
  150.6831  136.9774  157.5035 C   0  0  1  0  0  0  0  0  0  0  0  0
  151.3389  136.9698  158.7581 O   0  0  0  0  0  0  0  0  0  0  0  0
  151.0419  138.1963  156.6628 C   0  0  1  0  0  0  0  0  0  0  0  0
  151.1767  139.4059  157.4016 O   0  0  0  0  0  0  0  0  0  0  0  0
  151.2675  140.5965  156.7717 C   0  0  0  0  0  0  0  0  0  0  0  0
  151.1128  140.7402  155.5574 O   0  0  0  0  0  0  0  0  0  0  0  0
  151.5669  141.7222  157.7028 C   0  0  0  0  0  0  0  0  0  0  0  0
  152.0804  141.4386  158.9898 C   0  0  0  0  0  0  0  0  0  0  0  0
  152.3736  142.4806  159.8910 C   0  0  0  0  0  0  0  0  0  0  0  0
  152.1560  143.8192  159.5161 C   0  0  0  0  0  0  0  0  0  0  0  0
  151.6453  144.1146  158.2389 C   0  0  0  0  0  0  0  0  0  0  0  0
  151.3522  143.0741  157.3359 C   0  0  0  0  0  0  0  0  0  0  0  0
  156.1425  138.0087  154.0063 C   0  0  0  0  0  0  0  0  0  0  0  0
  156.4280  138.6429  152.7745 C   0  0  0  0  0  0  0  0  0  0  0  0
  157.6058  138.3361  152.0656 C   0  0  0  0  0  0  0  0  0  0  0  0
  158.5119  137.3902  152.5791 C   0  0  0  0  0  0  0  0  0  0  0  0
  158.2385  136.7510  153.8025 C   0  0  0  0  0  0  0  0  0  0  0  0
  157.0616  137.0572  154.5136 C   0  0  0  0  0  0  0  0  0  0  0  0
  147.1614  133.6810  156.5427 H   0  0  0  0  0  0  0  0  0  0  0  0
  153.6136  137.2129  157.5533 H   0  0  0  0  0  0  0  0  0  0  0  0
  153.7142  138.9076  157.0885 H   0  0  0  0  0  0  0  0  0  0  0  0
  152.3811  138.3273  154.9688 H   0  0  0  0  0  0  0  0  0  0  0  0
  151.7578  135.0682  157.1489 H   0  0  0  0  0  0  0  0  0  0  0  0
  150.8223  135.4264  153.9426 H   0  0  0  0  0  0  0  0  0  0  0  0
  149.0123  134.3640  152.7961 H   0  0  0  0  0  0  0  0  0  0  0  0
  149.6077  136.8942  157.6685 H   0  0  0  0  0  0  0  0  0  0  0  0
  151.1621  137.7898  159.1935 H   0  0  0  0  0  0  0  0  0  0  0  0
  150.2593  138.3290  155.9139 H   0  0  0  0  0  0  0  0  0  0  0  0
  152.2555  140.4186  159.3003 H   0  0  0  0  0  0  0  0  0  0  0  0
  152.7663  142.2519  160.8708 H   0  0  0  0  0  0  0  0  0  0  0  0
  152.3810  144.6180  160.2075 H   0  0  0  0  0  0  0  0  0  0  0  0
  151.4777  145.1418  157.9501 H   0  0  0  0  0  0  0  0  0  0  0  0
  150.9617  143.3367  156.3634 H   0  0  0  0  0  0  0  0  0  0  0  0
  155.7477  139.3733  152.3608 H   0  0  0  0  0  0  0  0  0  0  0  0
  157.8136  138.8281  151.1268 H   0  0  0  0  0  0  0  0  0  0  0  0
  159.4151  137.1552  152.0355 H   0  0  0  0  0  0  0  0  0  0  0  0
  158.9329  136.0239  154.1970 H   0  0  0  0  0  0  0  0  0  0  0  0
  156.8823  136.5485  155.4495 H   0  0  0  0  0  0  0  0  0  0  0  0
  1  2  2  0  0  0  0
  2  3  1  0  0  0  0
  2 28  1  0  0  0  0
  3  4  1  0  0  0  0
  4  5  1  0  0  0  0
  4 35  1  0  0  0  0
  4 36  1  0  0  0  0
  5 18  1  0  0  0  0
  5  6  1  0  0  0  0
  5 37  1  0  0  0  0
  6  7  1  0  0  0  0
  7  8  1  0  0  0  0
  7 16  1  0  0  0  0
  7 38  1  0  0  0  0
  8 14  1  0  0  0  0
  8  9  1  0  0  0  0
  9 10  2  0  0  0  0
  9 39  1  0  0  0  0
 10 11  1  0  0  0  0
 10 40  1  0  0  0  0
 11 12  2  0  0  0  0
 11 13  1  0  0  0  0
 13 34  1  0  0  0  0
 13 14  1  0  0  0  0
 14 15  2  0  0  0  0
 16 17  1  0  0  0  0
 16 18  1  0  0  0  0
 16 41  1  0  0  0  0
 17 42  1  0  0  0  0
 18 19  1  0  0  0  0
 18 43  1  0  0  0  0
 19 20  1  0  0  0  0
 20 21  2  0  0  0  0
 20 22  1  0  0  0  0
 22 27  1  0  0  0  0
 22 23  2  0  0  0  0
 23 24  1  0  0  0  0
 23 44  1  0  0  0  0
 24 25  2  0  0  0  0
 24 45  1  0  0  0  0
 25 26  1  0  0  0  0
 25 46  1  0  0  0  0
 26 27  2  0  0  0  0
 26 47  1  0  0  0  0
 27 48  1  0  0  0  0
 28 33  1  0  0  0  0
 28 29  2  0  0  0  0
 29 30  1  0  0  0  0
 29 49  1  0  0  0  0
 30 31  2  0  0  0  0
 30 50  1  0  0  0  0
 31 32  1  0  0  0  0
 31 51  1  0  0  0  0
 32 33  2  0  0  0  0
 32 52  1  0  0  0  0
 33 53  1  0  0  0  0
M  END
> <s_m_source_file>
AV-unprocessed.smi

> <i_m_source_file_index>
99

> <i_lp_mmshare_version>
43012

> <i_f3d_flags>
0

> <s_epik_input>
W2NIXTFbY0hdW2NIXVtjSF1bY0hdYzFDKD1PKU9bQ0gyXVtDQEBIXTJPW0NAQEhdKG4zW2NIXVtjSF1jKD1PKVtuSF1jMz1PKVtDQEBIXShbT0hdKVtDQEhdMk9DKD1PKWM0W2NIXVtjSF1bY0hdW2NIXVtjSF00

> <s_epik_cmdline>
J2VwaWtfcHl0aG9uJywgJy1waCcsICc3LjAnLCAnLXRuJywgJzgnLCAnLW1hJywgJzIwMCcsICctbWV0YWxfYmluZGluZycsICctaW1hZScsICc8aW5maWxlLm1hZT4nLCAnLW9tYWUnLCAnPG91dGZpbGUubWFlPic=

> <r_lp_tautomer_probability>
1

> <r_epik_Ionization_Penalty>
0.00454555

> <r_epik_Ionization_Penalty_Charging>
0.0045191

> <r_epik_Ionization_Penalty_Neutral>
2.64449e-05

> <r_epik_State_Penalty>
-0

> <r_epik_Charging_Adjusted_Penalty>
0.0045191

> <i_epik_Tot_Q>
0

> <i_epik_Tot_abs_Q>
0

> <r_epik_Metal_State_Penalty>
1.27877

> <b_epik_Metal_Only>
0

> <s_epik_Chemistry_Notes>
This compound has an ester and may undergo hydrolysis at high or low pH. This compound contains an acetal/aminal-like group ( X-CH(R)-Y where X, Y are N, S, or O) that may be acid/base labile, releasing an aldehyde.

> <s_lp_Force_Field>
OPLS_2005

> <r_lp_Energy>
39.5306

> <b_lp_Chiralities_Consistent>
1

> <s_lp_Variant>
AV-unprocessed.smi:99-4

> <Gold.Version>
5.8.1

> <Gold.Id.Protein>
6NUR|6NUR_protein|mol2

> <Gold.PLP.Fitness>
58.8803

> <Gold.PLP.PLP>
-48.0789

> <Gold.PLP.part.hbond>
-6.5462

> <Gold.PLP.part.metal>
0.0000

> <Gold.PLP.part.buried>
4.0081

> <Gold.PLP.part.nonpolar>
-45.5661

> <Gold.PLP.part.repulsive>
0.1178

> <Gold.PLP.ligand.clash>
0.0000

> <Gold.PLP.ligand.torsion>
0.3921

> <Gold.PLP.Chemscore.Hbond>
3.4835

> <Gold.PLP.Chemscore.CHOScore>
0.3219

> <Gold.PLP.Chemscore.Metal>
0.0000

> <Gold.Chemscore.Hbonds>
donor molecule, donor type, donor heavy atom, donor atom, acceptor molecule, acceptor atom, score
      P1  H  6896  6908       L1    15  0.05
      P1  H  6896  6909       L1    17  0.38
      P1  H  7989  7998       L1    21  0.62
      P1  H  7997  8008       L1     1  0.45
      P1  H 10752 10764       L1     6  0.96
      L1  C     9    39       P1  7949  0.64

> <Gold.PLP.Chemscore.Internal.Correction>
0.1695

> <Gold.Rescore>
     Score         DG    S(hbond)    S(metal)    S(lipo)     H(rot)  DE(clash)    DE(int)     intcor
     20.22     -25.58       3.28        0.00     148.09       3.19       2.67       2.70       ----

> <Gold.Chemscore.Fitness>
20.2154

> <Gold.Chemscore.DG>
-25.5837

> <Gold.Chemscore.ZeroCoef>
-5.4800

> <Gold.Chemscore.Hbond>
3.2766

> <Gold.Chemscore.Metal>
0.0000

> <Gold.Chemscore.Lipo>
148.0947

> <Gold.Chemscore.Internal_Hbond>
0.0000

> <Gold.Chemscore.DEClash>
2.6727

> <Gold.Chemscore.DEInternal>
2.6956

> <Gold.Chemscore.Rot>
3.1903

> <Gold.Chemscore.Internal.Correction>
   9.000000E+99

> <Gold.Chemscore.Hbonds>
donor molecule, donor type, donor heavy atom, donor atom, acceptor molecule, acceptor atom, score
      P1  H  6896  6908       L1    15  0.09
      P1  H  6896  6909       L1    17  0.37
      P1  H  7989  7998       L1    21  0.61
      P1  H  7997  8008       L1     1  0.01
      P1  H 10752 10764       L1     6  0.89

> <Gold.Chemscore.Hbond.Weighted>
-10.9437

> <Gold.Chemscore.Metal.Weighted>
-0.0000

> <Gold.Chemscore.Lipo.Weighted>
-17.3271

> <Gold.Chemscore.Internal_Hbond.Weighted>
0.0000

> <Gold.Chemscore.DEClash.Weighted>
2.6727

> <Gold.Chemscore.DEInternal.Weighted>
2.6956

> <Gold.Chemscore.Rot.Weighted>
8.1671

> <Gold.Chemscore.Internal.Correction.Weighted>
   9.000000E+99

> <Gold.Protein.RotatedTorsions>
[ 6907 6896 6895 6894 ] final  128.47 input  -60.11 | X-H torsion
[ 7974 7965 7964 7962 ] final  144.84 input  175.53 | X-H torsion
[ 8008 7997 7996 7995 ] final   -4.19 input   59.86 | X-H torsion
[ 10167 10162 10161 10158 ] final   88.64 input  -65.29 | X-H torsion
[ 10718 10713 10712 10709 ] final   -0.39 input   66.30 | X-H torsion
[ 10763 10752 10751 10750 ] final  -47.23 input  -60.55 | X-H torsion
[ 11005 11000 10999 10996 ] final   32.06 input  -57.11 | X-H torsion

> <Gold.Protein.ActiveResidues>
 VAL166  LYS551  ARG553  GLY616  TRP617  ASP618  TYR619  PRO620  LYS621  CYS622 
 ASP623  PHE694  ASN695  SER759  ASP760  ASP761  ALA762  ILE779  LEU786  VAL792 
 PHE793  MET794  SER795  GLU796  ALA797  LYS798  CYS799  TRP800  GLU811  SER814 

> <Gold.Protein.RotatedAtoms>
  152.3716  133.6427  159.6091 H   0  0  0  0  0  0  0  0  0  0  0  0  # atno 6907 bound_to 6896
  150.7673  133.9260  159.3421 H   0  0  0  0  0  0  0  0  0  0  0  0  # atno 6908 bound_to 6896
  151.7082  135.0919  160.0314 H   0  0  0  0  0  0  0  0  0  0  0  0  # atno 6909 bound_to 6896
  144.8802  139.5711  143.5846 H   0  0  0  0  0  0  0  0  0  0  0  0  # atno 7974 bound_to 7965
  154.6169  140.2490  155.7598 H   0  0  0  0  0  0  0  0  0  0  0  0  # atno 8008 bound_to 7997
  156.2404  140.2934  156.0378 H   0  0  0  0  0  0  0  0  0  0  0  0  # atno 8009 bound_to 7997
  155.1960  140.0393  157.2899 H   0  0  0  0  0  0  0  0  0  0  0  0  # atno 8010 bound_to 7997
  139.8653  144.6522  150.9011 H   0  0  0  0  0  0  0  0  0  0  0  0  # atno 10167 bound_to 10162
  156.8211  130.5457  149.5697 H   0  0  0  0  0  0  0  0  0  0  0  0  # atno 10718 bound_to 10713
  154.0580  135.6622  153.4808 H   0  0  0  0  0  0  0  0  0  0  0  0  # atno 10763 bound_to 10752
  153.0438  135.5128  154.7687 H   0  0  0  0  0  0  0  0  0  0  0  0  # atno 10764 bound_to 10752
  154.6714  135.3030  154.9703 H   0  0  0  0  0  0  0  0  0  0  0  0  # atno 10765 bound_to 10752
  140.2773  134.3013  155.7810 H   0  0  0  0  0  0  0  0  0  0  0  0  # atno 11005 bound_to 11000
  146.2989  139.7365  142.9106 LP  0  0  0  0  0  0  0  0  0  0  0  0  # atno 17320 bound_to 7965
  145.3968  141.0380  143.3093 LP  0  0  0  0  0  0  0  0  0  0  0  0  # atno 17321 bound_to 7965
  140.7769  143.3709  151.1650 LP  0  0  0  0  0  0  0  0  0  0  0  0  # atno 17342 bound_to 10162
  139.7335  143.9035  152.3027 LP  0  0  0  0  0  0  0  0  0  0  0  0  # atno 17343 bound_to 10162
  156.0988  130.5953  150.9859 LP  0  0  0  0  0  0  0  0  0  0  0  0  # atno 17370 bound_to 10713
  157.6456  131.0904  150.8160 LP  0  0  0  0  0  0  0  0  0  0  0  0  # atno 17371 bound_to 10713
  141.2168  133.7504  156.9427 LP  0  0  0  0  0  0  0  0  0  0  0  0  # atno 17394 bound_to 11000
  140.1316  134.9352  157.2345 LP  0  0  0  0  0  0  0  0  0  0  0  0  # atno 17395 bound_to 11000

$$$$
