AV-unprocessed.smi:2780|AV-procd|sdf|10715|dock9
  -GOLD-   2272015153D 1   1.00000     0.00000
 Structure written by MMmdl.
 47 49  0  0  0  0  0  0  0  0  2 V2000
  146.6101  130.1087  152.6555 C   0  0  0  0  0  0  0  0  0  0  0  0
  145.9868  131.2941  151.9376 C   0  0  0  0  0  0  0  0  0  0  0  0
  145.1544  131.0838  150.9000 C   0  0  0  0  0  0  0  0  0  0  0  0
  144.4201  132.1781  150.1607 C   0  0  0  0  0  0  0  0  0  0  0  0
  144.3282  133.4480  151.0097 C   0  0  0  0  0  0  0  0  0  0  0  0
  145.6996  133.8405  151.5832 C   0  0  1  0  0  0  0  0  0  0  0  0
  145.5720  135.1722  152.3485 C   0  0  0  0  0  0  0  0  0  0  0  0
  146.3231  132.7076  152.4562 C   0  0  2  0  0  0  0  0  0  0  0  0
  147.8492  132.9372  152.6164 C   0  0  0  0  0  0  0  0  0  0  0  0
  148.1677  134.1229  153.4377 N   0  3  0  0  0  0  0  0  0  0  0  0
  149.2824  133.9196  154.3837 C   0  0  0  0  0  0  0  0  0  0  0  0
  149.9358  135.2518  154.7831 C   0  0  0  0  0  0  0  0  0  0  0  0
  151.2960  135.0790  155.2676 N   0  0  0  0  0  0  0  0  0  0  0  0
  151.9022  133.9463  155.6574 C   0  0  0  0  0  0  0  0  0  0  0  0
  153.1544  134.0946  156.0862 N   0  0  0  0  0  0  0  0  0  0  0  0
  153.3967  135.4497  155.9871 N   0  0  0  0  0  0  0  0  0  0  0  0
  152.2732  135.9822  155.4925 C   0  0  0  0  0  0  0  0  0  0  0  0
  152.0842  137.4469  155.2566 C   0  0  0  0  0  0  0  0  0  0  0  0
  151.5805  137.9539  153.9238 C   0  0  0  0  0  0  0  0  0  0  0  0
  153.0016  138.2267  154.3400 C   0  0  0  0  0  0  0  0  0  0  0  0
  146.4268  130.1739  153.7275 H   0  0  0  0  0  0  0  0  0  0  0  0
  147.6844  130.0636  152.4789 H   0  0  0  0  0  0  0  0  0  0  0  0
  146.1852  129.1664  152.3073 H   0  0  0  0  0  0  0  0  0  0  0  0
  144.9643  130.0772  150.5560 H   0  0  0  0  0  0  0  0  0  0  0  0
  144.9374  132.3738  149.2210 H   0  0  0  0  0  0  0  0  0  0  0  0
  143.4177  131.8301  149.9092 H   0  0  0  0  0  0  0  0  0  0  0  0
  143.9201  134.2582  150.4039 H   0  0  0  0  0  0  0  0  0  0  0  0
  143.6232  133.2891  151.8270 H   0  0  0  0  0  0  0  0  0  0  0  0
  146.3589  134.0112  150.7304 H   0  0  0  0  0  0  0  0  0  0  0  0
  144.9292  135.0652  153.2230 H   0  0  0  0  0  0  0  0  0  0  0  0
  145.1357  135.9449  151.7145 H   0  0  0  0  0  0  0  0  0  0  0  0
  146.5336  135.5517  152.6900 H   0  0  0  0  0  0  0  0  0  0  0  0
  145.8619  132.7716  153.4431 H   0  0  0  0  0  0  0  0  0  0  0  0
  148.3094  132.0504  153.0544 H   0  0  0  0  0  0  0  0  0  0  0  0
  148.3305  133.0844  151.6509 H   0  0  0  0  0  0  0  0  0  0  0  0
  148.4019  134.8868  152.8196 H   0  0  0  0  0  0  0  0  0  0  0  0
  148.8966  133.4239  155.2754 H   0  0  0  0  0  0  0  0  0  0  0  0
  150.0224  133.2495  153.9438 H   0  0  0  0  0  0  0  0  0  0  0  0
  149.9270  135.9493  153.9453 H   0  0  0  0  0  0  0  0  0  0  0  0
  149.3572  135.7195  155.5806 H   0  0  0  0  0  0  0  0  0  0  0  0
  151.4126  132.9837  155.6298 H   0  0  0  0  0  0  0  0  0  0  0  0
  151.7312  137.9410  156.1598 H   0  0  0  0  0  0  0  0  0  0  0  0
  151.4345  137.2315  153.1236 H   0  0  0  0  0  0  0  0  0  0  0  0
  150.8826  138.7885  153.9347 H   0  0  0  0  0  0  0  0  0  0  0  0
  153.2538  139.2444  154.6306 H   0  0  0  0  0  0  0  0  0  0  0  0
  153.7880  137.6828  153.8201 H   0  0  0  0  0  0  0  0  0  0  0  0
  147.3441  134.3751  153.9651 H   0  0  0  0  0  0  0  0  0  0  0  0
  1  2  1  0  0  0  0
  1 21  1  0  0  0  0
  1 22  1  0  0  0  0
  1 23  1  0  0  0  0
  2  8  1  0  0  0  0
  2  3  2  0  0  0  0
  3  4  1  0  0  0  0
  3 24  1  0  0  0  0
  4  5  1  0  0  0  0
  4 25  1  0  0  0  0
  4 26  1  0  0  0  0
  5  6  1  0  0  0  0
  5 27  1  0  0  0  0
  5 28  1  0  0  0  0
  6  7  1  0  0  0  0
  6  8  1  0  0  0  0
  6 29  1  0  0  0  0
  7 30  1  0  0  0  0
  7 31  1  0  0  0  0
  7 32  1  0  0  0  0
  8  9  1  0  0  0  0
  8 33  1  0  0  0  0
  9 10  1  0  0  0  0
  9 34  1  0  0  0  0
  9 35  1  0  0  0  0
 10 11  1  0  0  0  0
 10 36  1  0  0  0  0
 10 47  1  0  0  0  0
 11 12  1  0  0  0  0
 11 37  1  0  0  0  0
 11 38  1  0  0  0  0
 12 13  1  0  0  0  0
 12 39  1  0  0  0  0
 12 40  1  0  0  0  0
 13 17  1  0  0  0  0
 13 14  1  0  0  0  0
 14 15  2  0  0  0  0
 14 41  1  0  0  0  0
 15 16  1  0  0  0  0
 16 17  2  0  0  0  0
 17 18  1  0  0  0  0
 18 20  1  0  0  0  0
 18 19  1  0  0  0  0
 18 42  1  0  0  0  0
 19 20  1  0  0  0  0
 19 43  1  0  0  0  0
 19 44  1  0  0  0  0
 20 45  1  0  0  0  0
 20 46  1  0  0  0  0
M  CHG  1  10   1
M  END
> <s_m_source_file>
AV-unprocessed.smi

> <i_m_source_file_index>
2780

> <i_lp_mmshare_version>
43012

> <i_f3d_flags>
0

> <s_epik_input>
W0NIM11DMT1bQ0hdW0NIMl1bQ0gyXVtDQEBIXShbQ0gzXSlbQ0BIXTFbQ0gyXVtOSF1bQ0gyXVtDSDJdbjJbY0hdbm5jMltDSF0zW0NIMl1bQ0gyXTM=

> <s_epik_cmdline>
J2VwaWtfcHl0aG9uJywgJy1waCcsICc3LjAnLCAnLXRuJywgJzgnLCAnLW1hJywgJzIwMCcsICctbWV0YWxfYmluZGluZycsICctaW1hZScsICc8aW5maWxlLm1hZT4nLCAnLW9tYWUnLCAnPG91dGZpbGUubWFlPic=

> <r_lp_tautomer_probability>
1

> <r_epik_Ionization_Penalty>
0.00176214

> <r_epik_Ionization_Penalty_Charging>
0.00175191

> <r_epik_Ionization_Penalty_Neutral>
1.02377e-05

> <r_epik_State_Penalty>
-0

> <r_epik_Charging_Adjusted_Penalty>
0.00175191

> <i_epik_Tot_Q>
1

> <i_epik_Tot_abs_Q>
1

> <r_epik_Metal_State_Penalty>
-0

> <b_epik_Metal_Only>
0

> <s_lp_Force_Field>
OPLS_2005

> <r_lp_Energy>
22.3616

> <b_lp_Chiralities_Consistent>
1

> <s_lp_Variant>
AV-unprocessed.smi:2780-3

> <Gold.Version>
5.8.1

> <Gold.Id.Protein>
6NUR|6NUR_protein|mol2

> <Gold.PLP.Fitness>
44.3801

> <Gold.PLP.PLP>
-38.4422

> <Gold.PLP.part.hbond>
-3.2609

> <Gold.PLP.part.metal>
0.0000

> <Gold.PLP.part.buried>
-4.7064

> <Gold.PLP.part.nonpolar>
-31.2798

> <Gold.PLP.part.repulsive>
0.0000

> <Gold.PLP.ligand.clash>
0.0000

> <Gold.PLP.ligand.torsion>
0.8503

> <Gold.PLP.Chemscore.Hbond>
2.4550

> <Gold.PLP.Chemscore.CHOScore>
0.0000

> <Gold.PLP.Chemscore.Metal>
0.0000

> <Gold.Chemscore.Hbonds>
donor molecule, donor type, donor heavy atom, donor atom, acceptor molecule, acceptor atom, score
      L1  H    10    36       P1  7948  2.00

> <Gold.PLP.Chemscore.Internal.Correction>
0.2734

> <Gold.Rescore>
     Score         DG    S(hbond)    S(metal)    S(lipo)     H(rot)  DE(clash)    DE(int)     intcor
     13.36     -14.42       0.90        0.00      93.98       1.98       0.00       1.06       ----

> <Gold.Chemscore.Fitness>
13.3552

> <Gold.Chemscore.DG>
-14.4194

> <Gold.Chemscore.ZeroCoef>
-5.4800

> <Gold.Chemscore.Hbond>
0.9018

> <Gold.Chemscore.Metal>
0.0000

> <Gold.Chemscore.Lipo>
93.9829

> <Gold.Chemscore.Internal_Hbond>
0.0000

> <Gold.Chemscore.DEClash>
0.0042

> <Gold.Chemscore.DEInternal>
1.0600

> <Gold.Chemscore.Rot>
1.9799

> <Gold.Chemscore.Internal.Correction>
   9.000000E+99

> <Gold.Chemscore.Hbonds>
donor molecule, donor type, donor heavy atom, donor atom, acceptor molecule, acceptor atom, score
      L1  H    10    36       P1  7948  0.55

> <Gold.Chemscore.Hbond.Weighted>
-3.0119

> <Gold.Chemscore.Metal.Weighted>
-0.0000

> <Gold.Chemscore.Lipo.Weighted>
-10.9960

> <Gold.Chemscore.Internal_Hbond.Weighted>
0.0000

> <Gold.Chemscore.DEClash.Weighted>
0.0042

> <Gold.Chemscore.DEInternal.Weighted>
1.0600

> <Gold.Chemscore.Rot.Weighted>
5.0685

> <Gold.Chemscore.Internal.Correction.Weighted>
   9.000000E+99

> <Gold.Protein.RotatedTorsions>
[ 6907 6896 6895 6894 ] final  127.17 input  -60.11 | X-H torsion
[ 7974 7965 7964 7962 ] final -157.47 input  175.53 | X-H torsion
[ 8008 7997 7996 7995 ] final   99.04 input   59.86 | X-H torsion
[ 10167 10162 10161 10158 ] final   89.21 input  -65.29 | X-H torsion
[ 10718 10713 10712 10709 ] final -133.17 input   66.30 | X-H torsion
[ 10763 10752 10751 10750 ] final    9.44 input  -60.55 | X-H torsion
[ 11005 11000 10999 10996 ] final -107.55 input  -57.11 | X-H torsion

> <Gold.Protein.ActiveResidues>
 VAL166  LYS551  ARG553  GLY616  TRP617  ASP618  TYR619  PRO620  LYS621  CYS622 
 ASP623  PHE694  ASN695  SER759  ASP760  ASP761  ALA762  ILE779  LEU786  VAL792 
 PHE793  MET794  SER795  GLU796  ALA797  LYS798  CYS799  TRP800  GLU811  SER814 

> <Gold.Protein.RotatedAtoms>
  152.3837  133.6582  159.6181 H   0  0  0  0  0  0  0  0  0  0  0  0  # atno 6907 bound_to 6896
  150.7762  133.9070  159.3367 H   0  0  0  0  0  0  0  0  0  0  0  0  # atno 6908 bound_to 6896
  151.6871  135.0954  160.0278 H   0  0  0  0  0  0  0  0  0  0  0  0  # atno 6909 bound_to 6896
  144.7547  140.3964  143.6021 H   0  0  0  0  0  0  0  0  0  0  0  0  # atno 7974 bound_to 7965
  156.1065  140.3234  155.8014 H   0  0  0  0  0  0  0  0  0  0  0  0  # atno 8008 bound_to 7997
  155.4746  140.0549  157.2992 H   0  0  0  0  0  0  0  0  0  0  0  0  # atno 8009 bound_to 7997
  154.4731  140.2020  155.9959 H   0  0  0  0  0  0  0  0  0  0  0  0  # atno 8010 bound_to 7997
  139.8595  144.6551  150.9074 H   0  0  0  0  0  0  0  0  0  0  0  0  # atno 10167 bound_to 10162
  156.2421  130.7102  151.0967 H   0  0  0  0  0  0  0  0  0  0  0  0  # atno 10718 bound_to 10713
  153.2140  135.6872  153.8079 H   0  0  0  0  0  0  0  0  0  0  0  0  # atno 10763 bound_to 10752
  153.7302  135.3254  155.3285 H   0  0  0  0  0  0  0  0  0  0  0  0  # atno 10764 bound_to 10752
  154.8236  135.4634  154.0960 H   0  0  0  0  0  0  0  0  0  0  0  0  # atno 10765 bound_to 10752
  141.0948  133.8990  157.1989 H   0  0  0  0  0  0  0  0  0  0  0  0  # atno 11005 bound_to 11000
  145.6822  139.1621  143.2694 LP  0  0  0  0  0  0  0  0  0  0  0  0  # atno 17320 bound_to 7965
  146.1542  140.6882  142.9308 LP  0  0  0  0  0  0  0  0  0  0  0  0  # atno 17321 bound_to 7965
  140.7777  143.3756  151.1569 LP  0  0  0  0  0  0  0  0  0  0  0  0  # atno 17342 bound_to 10162
  139.7387  143.8958  152.3043 LP  0  0  0  0  0  0  0  0  0  0  0  0  # atno 17343 bound_to 10162
  157.7180  131.0699  150.6252 LP  0  0  0  0  0  0  0  0  0  0  0  0  # atno 17370 bound_to 10713
  156.6326  130.4436  149.5781 LP  0  0  0  0  0  0  0  0  0  0  0  0  # atno 17371 bound_to 10713
  139.9782  135.0107  156.9684 LP  0  0  0  0  0  0  0  0  0  0  0  0  # atno 17394 bound_to 11000
  140.5166  134.0949  155.7282 LP  0  0  0  0  0  0  0  0  0  0  0  0  # atno 17395 bound_to 11000

$$$$
