AV-unprocessed.smi:1971|AV-procd|sdf|7963|dock1
  -GOLD-   2272010133D 1   1.00000     0.00000
 Structure written by MMmdl.
 44 45  0  0  0  0  0  0  0  0  2 V2000
  150.6725  142.2235  157.8118 C   0  0  0  0  0  0  0  0  0  0  0  0
  150.5666  141.6625  156.3866 C   0  0  0  0  0  0  0  0  0  0  0  0
  149.2112  141.8267  155.8047 N   0  3  0  0  0  0  0  0  0  0  0  0
  148.1872  141.0377  156.5325 C   0  0  0  0  0  0  0  0  0  0  0  0
  146.7880  141.2680  155.9229 C   0  0  0  0  0  0  0  0  0  0  0  0
  146.7406  140.8891  154.5032 N   0  0  0  0  0  0  0  0  0  0  0  0
  146.8648  139.4401  154.2219 C   0  0  1  0  0  0  0  0  0  0  0  0
  145.7738  138.6444  154.9783 C   0  0  0  0  0  0  0  0  0  0  0  0
  146.7898  139.1685  152.6945 C   0  0  0  0  0  0  0  0  0  0  0  0
  146.9154  137.7519  152.3600 N   0  0  0  0  0  0  0  0  0  0  0  0
  145.8974  136.8852  152.2485 C   0  0  0  0  0  0  0  0  0  0  0  0
  144.7215  137.1874  152.4499 O   0  0  0  0  0  0  0  0  0  0  0  0
  146.3346  135.6659  151.8946 N   0  0  0  0  0  0  0  0  0  0  0  0
  145.5618  134.5012  151.6613 C   0  0  0  0  0  0  0  0  0  0  0  0
  144.2325  134.6083  151.6129 N   0  0  0  0  0  0  0  0  0  0  0  0
  143.6146  133.3766  151.3784 C   0  0  0  0  0  0  0  0  0  0  0  0
  144.4967  132.3327  151.2482 C   0  0  0  0  0  0  0  0  0  0  0  0
  146.1512  132.8551  151.4153 S   0  0  0  0  0  0  0  0  0  0  0  0
  147.7123  141.7561  153.8206 C   0  0  0  0  0  0  0  0  0  0  0  0
  149.1464  141.5410  154.3488 C   0  0  0  0  0  0  0  0  0  0  0  0
  151.6472  141.9915  158.2417 H   0  0  0  0  0  0  0  0  0  0  0  0
  149.9135  141.7912  158.4644 H   0  0  0  0  0  0  0  0  0  0  0  0
  150.5613  143.3074  157.8349 H   0  0  0  0  0  0  0  0  0  0  0  0
  151.3116  142.1230  155.7359 H   0  0  0  0  0  0  0  0  0  0  0  0
  150.8063  140.5991  156.4274 H   0  0  0  0  0  0  0  0  0  0  0  0
  148.4504  139.9795  156.5271 H   0  0  0  0  0  0  0  0  0  0  0  0
  148.1732  141.3481  157.5779 H   0  0  0  0  0  0  0  0  0  0  0  0
  146.0253  140.7500  156.5012 H   0  0  0  0  0  0  0  0  0  0  0  0
  146.5298  142.3247  156.0086 H   0  0  0  0  0  0  0  0  0  0  0  0
  147.8321  139.0831  154.5730 H   0  0  0  0  0  0  0  0  0  0  0  0
  145.8049  137.5824  154.7385 H   0  0  0  0  0  0  0  0  0  0  0  0
  144.7748  139.0061  154.7320 H   0  0  0  0  0  0  0  0  0  0  0  0
  145.8977  138.6927  156.0590 H   0  0  0  0  0  0  0  0  0  0  0  0
  145.8748  139.5954  152.2796 H   0  0  0  0  0  0  0  0  0  0  0  0
  147.6168  139.6475  152.1732 H   0  0  0  0  0  0  0  0  0  0  0  0
  147.8483  137.4093  152.1824 H   0  0  0  0  0  0  0  0  0  0  0  0
  147.3296  135.5603  151.7631 H   0  0  0  0  0  0  0  0  0  0  0  0
  142.5369  133.3336  151.3187 H   0  0  0  0  0  0  0  0  0  0  0  0
  144.2741  131.2921  151.0646 H   0  0  0  0  0  0  0  0  0  0  0  0
  147.6747  141.6288  152.7407 H   0  0  0  0  0  0  0  0  0  0  0  0
  147.4239  142.7955  153.9848 H   0  0  0  0  0  0  0  0  0  0  0  0
  149.8149  142.2124  153.8114 H   0  0  0  0  0  0  0  0  0  0  0  0
  149.4949  140.5279  154.1445 H   0  0  0  0  0  0  0  0  0  0  0  0
  148.9565  142.7968  155.9237 H   0  0  0  0  0  0  0  0  0  0  0  0
  1  2  1  0  0  0  0
  1 21  1  0  0  0  0
  1 22  1  0  0  0  0
  1 23  1  0  0  0  0
  2  3  1  0  0  0  0
  2 24  1  0  0  0  0
  2 25  1  0  0  0  0
  3 20  1  0  0  0  0
  3  4  1  0  0  0  0
  3 44  1  0  0  0  0
  4  5  1  0  0  0  0
  4 26  1  0  0  0  0
  4 27  1  0  0  0  0
  5  6  1  0  0  0  0
  5 28  1  0  0  0  0
  5 29  1  0  0  0  0
  6  7  1  0  0  0  0
  6 19  1  0  0  0  0
  7  8  1  0  0  0  0
  7  9  1  0  0  0  0
  7 30  1  0  0  0  0
  8 31  1  0  0  0  0
  8 32  1  0  0  0  0
  8 33  1  0  0  0  0
  9 10  1  0  0  0  0
  9 34  1  0  0  0  0
  9 35  1  0  0  0  0
 10 11  1  0  0  0  0
 10 36  1  0  0  0  0
 11 12  2  0  0  0  0
 11 13  1  0  0  0  0
 13 14  1  0  0  0  0
 13 37  1  0  0  0  0
 14 18  1  0  0  0  0
 14 15  2  0  0  0  0
 15 16  1  0  0  0  0
 16 17  2  0  0  0  0
 16 38  1  0  0  0  0
 17 18  1  0  0  0  0
 17 39  1  0  0  0  0
 19 20  1  0  0  0  0
 19 40  1  0  0  0  0
 19 41  1  0  0  0  0
 20 42  1  0  0  0  0
 20 43  1  0  0  0  0
M  CHG  1   3   1
M  END
> <s_m_source_file>
AV-unprocessed.smi

> <i_m_source_file_index>
1971

> <i_lp_mmshare_version>
43012

> <i_f3d_flags>
0

> <s_epik_input>
W0NIM11bQ0gyXU4xW0NIMl1bQ0gyXU4oW0NIMl1bQ0gyXTEpW0NASF0oW0NIM10pW0NIMl1bTkhdQyg9TylbTkhdYzJuW2NIXVtjSF1zMg==

> <s_epik_cmdline>
J2VwaWtfcHl0aG9uJywgJy1waCcsICc3LjAnLCAnLXRuJywgJzgnLCAnLW1hJywgJzIwMCcsICctbWV0YWxfYmluZGluZycsICctaW1hZScsICc8aW5maWxlLm1hZT4nLCAnLW9tYWUnLCAnPG91dGZpbGUubWFlPic=

> <r_lp_tautomer_probability>
0.999

> <r_epik_Ionization_Penalty>
0.0459519

> <r_epik_Ionization_Penalty_Charging>
0.0451959

> <r_epik_Ionization_Penalty_Neutral>
0.000756076

> <r_epik_State_Penalty>
0.165541

> <r_epik_Charging_Adjusted_Penalty>
0.210737

> <i_epik_Tot_Q>
1

> <i_epik_Tot_abs_Q>
1

> <r_epik_Metal_State_Penalty>
0.198809

> <b_epik_Metal_Only>
0

> <s_lp_Force_Field>
OPLS_2005

> <r_lp_Energy>
20.1316

> <b_lp_Chiralities_Consistent>
1

> <s_lp_Variant>
AV-unprocessed.smi:1971-2

> <Gold.Version>
5.8.1

> <Gold.Id.Protein>
6NUR|6NUR_protein|mol2

> <Gold.PLP.Fitness>
45.5946

> <Gold.PLP.PLP>
-30.9953

> <Gold.PLP.part.hbond>
-3.0000

> <Gold.PLP.part.metal>
0.0000

> <Gold.PLP.part.buried>
-4.6554

> <Gold.PLP.part.nonpolar>
-23.9693

> <Gold.PLP.part.repulsive>
0.9541

> <Gold.PLP.ligand.clash>
0.0000

> <Gold.PLP.ligand.torsion>
0.2552

> <Gold.PLP.Chemscore.Hbond>
4.0000

> <Gold.PLP.Chemscore.CHOScore>
0.9996

> <Gold.PLP.Chemscore.Metal>
0.0000

> <Gold.Chemscore.Hbonds>
donor molecule, donor type, donor heavy atom, donor atom, acceptor molecule, acceptor atom, score
      L1  H     3    44       P1  8028  2.00
      L1  H    10    36       P1  7948  1.00
      L1  H    13    37       P1  7948  1.00
      L1  C    16    38       P1 10186  0.88

> <Gold.PLP.Chemscore.Internal.Correction>
0.1110

> <Gold.Rescore>
     Score         DG    S(hbond)    S(metal)    S(lipo)     H(rot)  DE(clash)    DE(int)     intcor
     16.83     -18.61       2.92        0.00      68.14       1.79       0.01       1.76       ----

> <Gold.Chemscore.Fitness>
16.8328

> <Gold.Chemscore.DG>
-18.6117

> <Gold.Chemscore.ZeroCoef>
-5.4800

> <Gold.Chemscore.Hbond>
2.9194

> <Gold.Chemscore.Metal>
0.0000

> <Gold.Chemscore.Lipo>
68.1432

> <Gold.Chemscore.Internal_Hbond>
0.0000

> <Gold.Chemscore.DEClash>
0.0142

> <Gold.Chemscore.DEInternal>
1.7647

> <Gold.Chemscore.Rot>
1.7937

> <Gold.Chemscore.Internal.Correction>
   9.000000E+99

> <Gold.Chemscore.Hbonds>
donor molecule, donor type, donor heavy atom, donor atom, acceptor molecule, acceptor atom, score
      L1  H     3    44       P1  8028  0.99
      L1  H    10    36       P1  7948  0.97
      L1  H    13    37       P1  7948  0.95

> <Gold.Chemscore.Hbond.Weighted>
-9.7509

> <Gold.Chemscore.Metal.Weighted>
-0.0000

> <Gold.Chemscore.Lipo.Weighted>
-7.9728

> <Gold.Chemscore.Internal_Hbond.Weighted>
0.0000

> <Gold.Chemscore.DEClash.Weighted>
0.0142

> <Gold.Chemscore.DEInternal.Weighted>
1.7647

> <Gold.Chemscore.Rot.Weighted>
4.5919

> <Gold.Chemscore.Internal.Correction.Weighted>
   9.000000E+99

> <Gold.Protein.RotatedTorsions>
[ 6907 6896 6895 6894 ] final  140.77 input  -60.11 | X-H torsion
[ 7974 7965 7964 7962 ] final  -58.49 input  175.53 | X-H torsion
[ 8008 7997 7996 7995 ] final   29.67 input   59.86 | X-H torsion
[ 10167 10162 10161 10158 ] final  158.85 input  -65.29 | X-H torsion
[ 10718 10713 10712 10709 ] final  111.92 input   66.30 | X-H torsion
[ 10763 10752 10751 10750 ] final   62.37 input  -60.55 | X-H torsion
[ 11005 11000 10999 10996 ] final  -59.60 input  -57.11 | X-H torsion

> <Gold.Protein.ActiveResidues>
 VAL166  LYS551  ARG553  GLY616  TRP617  ASP618  TYR619  PRO620  LYS621  CYS622 
 ASP623  PHE694  ASN695  SER759  ASP760  ASP761  ALA762  ILE779  LEU786  VAL792 
 PHE793  MET794  SER795  GLU796  ALA797  LYS798  CYS799  TRP800  GLU811  SER814 

> <Gold.Protein.RotatedAtoms>
  152.2391  133.5120  159.5259 H   0  0  0  0  0  0  0  0  0  0  0  0  # atno 6907 bound_to 6896
  150.7059  134.1113  159.4010 H   0  0  0  0  0  0  0  0  0  0  0  0  # atno 6908 bound_to 6896
  151.9034  135.0369  160.0559 H   0  0  0  0  0  0  0  0  0  0  0  0  # atno 6909 bound_to 6896
  145.8387  140.8432  143.0046 H   0  0  0  0  0  0  0  0  0  0  0  0  # atno 7974 bound_to 7965
  155.0782  140.3207  155.4609 H   0  0  0  0  0  0  0  0  0  0  0  0  # atno 8008 bound_to 7997
  156.2774  140.2099  156.5855 H   0  0  0  0  0  0  0  0  0  0  0  0  # atno 8009 bound_to 7997
  154.7000  140.0508  157.0436 H   0  0  0  0  0  0  0  0  0  0  0  0  # atno 8010 bound_to 7997
  139.4829  144.4785  151.8477 H   0  0  0  0  0  0  0  0  0  0  0  0  # atno 10167 bound_to 10162
  157.6420  131.0959  150.6819 H   0  0  0  0  0  0  0  0  0  0  0  0  # atno 10718 bound_to 10713
  152.9981  135.5467  154.6183 H   0  0  0  0  0  0  0  0  0  0  0  0  # atno 10763 bound_to 10752
  154.5488  135.2825  155.1030 H   0  0  0  0  0  0  0  0  0  0  0  0  # atno 10764 bound_to 10752
  154.2278  135.6439  153.5218 H   0  0  0  0  0  0  0  0  0  0  0  0  # atno 10765 bound_to 10752
  141.1255  133.6617  156.5097 H   0  0  0  0  0  0  0  0  0  0  0  0  # atno 11005 bound_to 11000
  144.6735  140.0780  143.7470 LP  0  0  0  0  0  0  0  0  0  0  0  0  # atno 17320 bound_to 7965
  145.9490  139.2720  143.1224 LP  0  0  0  0  0  0  0  0  0  0  0  0  # atno 17321 bound_to 7965
  140.4259  144.2181  150.5887 LP  0  0  0  0  0  0  0  0  0  0  0  0  # atno 17342 bound_to 10162
  140.4827  143.2373  151.8932 LP  0  0  0  0  0  0  0  0  0  0  0  0  # atno 17343 bound_to 10162
  156.7141  130.4661  149.5539 LP  0  0  0  0  0  0  0  0  0  0  0  0  # atno 17370 bound_to 10713
  156.1710  130.6437  151.0837 LP  0  0  0  0  0  0  0  0  0  0  0  0  # atno 17371 bound_to 10713
  140.4379  134.7042  157.4976 LP  0  0  0  0  0  0  0  0  0  0  0  0  # atno 17394 bound_to 11000
  140.0249  134.6492  155.9187 LP  0  0  0  0  0  0  0  0  0  0  0  0  # atno 17395 bound_to 11000

$$$$
