#       Name:                AV-unprocessed.smi:2973
#       Creating user name   scv26
#       Creation time:       Fri Mar 27 16:26:33 2020


#       File generated by GOLD software.
#

@<TRIPOS>MOLECULE
AV-unprocessed.smi:2973
    56    58     1
SMALL
NO_CHARGES


@<TRIPOS>ATOM
      1 ****        -0.3801   2.9462   0.8472 C.3            1 S1                 0.0000
      2 ****        -1.8764   3.1822   1.1525 C.3            1 S1                 0.0000
      3 ****        -2.0572   3.5412   2.6444 C.3            1 S1                 0.0000
      4 ****        -3.5200   3.8605   2.9856 C.3            1 S1                 0.0000
      5 ****        -4.4454   2.6975   2.6073 C.3            1 S1                 0.0000
      6 ****        -4.2912   2.3309   1.1210 C.3            1 S1                 0.0000
      7 ****        -2.8271   2.0194   0.7090 C.3            1 S1                 0.0000
      8 ****        -2.7798   1.8526  -0.7337 N.pl3          1 S1                -1.0000
      9 ****        -2.3730   0.5951  -1.0224 C.2            1 S1                 0.0000
     10 ****        -2.2060   0.1147  -2.1432 O.2            1 S1                 0.0000
     11 ****        -2.1508  -0.1109   0.1018 N.am           1 S1                 0.0000
     12 ****        -1.6640  -1.4961   0.1394 C.3            1 S1                 0.0000
     13 ****        -0.1359  -1.5938   0.0339 C.2            1 S1                 0.0000
     14 ****         0.5879  -0.6852   0.4446 O.2            1 S1                 0.0000
     15 ****         0.3449  -2.7214  -0.5107 N.am           1 S1                 0.0000
     16 ****         1.7585  -3.0136  -0.7134 C.3            1 S1                 0.0000
     17 ****         2.3239  -2.2603  -1.9298 C.3            1 S1                 0.0000
     18 ****         3.7918  -2.5612  -2.1583 C.ar           1 S1                 0.0000
     19 ****         4.8128  -1.6940  -1.7126 C.ar           1 S1                 0.0000
     20 ****         6.1603  -2.0375  -1.9487 C.ar           1 S1                 0.0000
     21 ****         6.4582  -3.2392  -2.6239 C.ar           1 S1                 0.0000
     22 ****         5.3993  -4.0688  -3.0461 C.ar           1 S1                 0.0000
     23 ****         4.1212  -3.7055  -2.8006 N.pl3          1 S1                 1.0000
     24 ****        -2.3859   0.6368   1.1857 C.2            1 S1                 0.0000
     25 ****        -2.2623   0.2974   2.3633 O.2            1 S1                 0.0000
     26 ****         0.0233   2.1063   1.4132 H              1 S1                 0.0000
     27 ****         0.2109   3.8249   1.1060 H              1 S1                 0.0000
     28 ****        -0.2106   2.7468  -0.2109 H              1 S1                 0.0000
     29 ****        -2.1681   4.0660   0.5821 H              1 S1                 0.0000
     30 ****        -1.7037   2.7260   3.2761 H              1 S1                 0.0000
     31 ****        -1.4378   4.4036   2.8928 H              1 S1                 0.0000
     32 ****        -3.6143   4.0791   4.0495 H              1 S1                 0.0000
     33 ****        -3.8304   4.7616   2.4553 H              1 S1                 0.0000
     34 ****        -4.2291   1.8338   3.2357 H              1 S1                 0.0000
     35 ****        -5.4811   2.9691   2.8126 H              1 S1                 0.0000
     36 ****        -4.9401   1.4834   0.8932 H              1 S1                 0.0000
     37 ****        -4.6676   3.1604   0.5199 H              1 S1                 0.0000
     38 ****        -1.9774  -1.9839   1.0636 H              1 S1                 0.0000
     39 ****        -2.1255  -2.0684  -0.6676 H              1 S1                 0.0000
     40 ****        -0.3181  -3.4204  -0.8131 H              1 S1                 0.0000
     41 ****         2.3220  -2.7637   0.1874 H              1 S1                 0.0000
     42 ****         1.8629  -4.0893  -0.8572 H              1 S1                 0.0000
     43 ****         1.7632  -2.5238  -2.8278 H              1 S1                 0.0000
     44 ****         2.2034  -1.1840  -1.7991 H              1 S1                 0.0000
     45 ****         4.5678  -0.7782  -1.1939 H              1 S1                 0.0000
     46 ****         6.9558  -1.3870  -1.6152 H              1 S1                 0.0000
     47 ****         7.4837  -3.5208  -2.8143 H              1 S1                 0.0000
     48 ****         5.5350  -5.0049  -3.5678 H              1 S1                 0.0000
     49 ****         3.3712  -4.3218  -3.1149 H              1 S1                 0.0000
     50 ****        -3.0111   2.5555  -1.4062 LP             1 S1                 0.0000
     51 ****        -2.3754   0.6717  -2.9562 LP             1 S1                 0.0000
     52 ****        -1.9009  -0.8327  -2.2407 LP             1 S1                 0.0000
     53 ****         0.1814   0.1315   0.8542 LP             1 S1                 0.0000
     54 ****         1.5819  -0.7645   0.3684 LP             1 S1                 0.0000
     55 ****        -2.4569   0.9506   3.0950 LP             1 S1                 0.0000
     56 ****        -1.9673  -0.6314   2.5877 LP             1 S1                 0.0000
@<TRIPOS>BOND
    1    1    2 1     
    2    1   26 1     
    3    1   27 1     
    4    1   28 1     
    5    2    7 1     
    6    2    3 1     
    7    2   29 1     
    8    3    4 1     
    9    3   30 1     
   10    3   31 1     
   11    4    5 1     
   12    4   32 1     
   13    4   33 1     
   14    5    6 1     
   15    5   34 1     
   16    5   35 1     
   17    6    7 1     
   18    6   36 1     
   19    6   37 1     
   20    7   24 1     
   21    7    8 1     
   22    8    9 1     
   23    9   10 2     
   24    9   11 am    
   25   11   12 1     
   26   11   24 am    
   27   12   13 1     
   28   12   38 1     
   29   12   39 1     
   30   13   14 2     
   31   13   15 am    
   32   15   16 1     
   33   15   40 1     
   34   16   17 1     
   35   16   41 1     
   36   16   42 1     
   37   17   18 1     
   38   17   43 1     
   39   17   44 1     
   40   18   23 ar    
   41   18   19 ar    
   42   19   20 ar    
   43   19   45 1     
   44   20   21 ar    
   45   20   46 1     
   46   21   22 ar    
   47   21   47 1     
   48   22   23 ar    
   49   22   48 1     
   50   23   49 1     
   51   24   25 2     
   52    8   50 1     
   53   10   51 1     
   54   10   52 1     
   55   14   53 1     
   56   14   54 1     
   57   25   55 1     
   58   25   56 1     
@<TRIPOS>SUBSTRUCTURE
      1 S1             1
@<TRIPOS>SET
LONE_PAIRS      STATIC     ATOMS    <user>   **** ""
7 50 51 52 53 54 55 56
DONOR_HYDROGENS      STATIC     ATOMS    <user>   **** ""
2 40 49
ATOM$BLUE        STATIC     ATOMS    COLORGROUP SYSTEM
7 50 51 52 53 54 55 56
ATOM$RED        STATIC     ATOMS    COLORGROUP SYSTEM
2 40 49
