AV-unprocessed.smi:1542|AV-procd|sdf|6204|dock7
  -GOLD-   22720 6373D 1   1.00000     0.00000
 Structure written by MMmdl.
 46 48  0  0  0  0  0  0  0  0  2 V2000
  148.1165  139.5915  153.4346 O   0  0  0  0  0  0  0  0  0  0  0  0
  147.6489  140.9088  153.6335 C   0  0  0  0  0  0  0  0  0  0  0  0
  148.3344  141.5421  154.8527 C   0  0  0  0  0  0  0  0  0  0  0  0
  149.8077  141.1222  155.0001 C   0  0  0  0  0  0  0  0  0  0  0  0
  150.4800  141.7383  156.1889 C   0  0  0  0  0  0  0  0  0  0  0  0
  150.5535  143.0690  156.4817 N   0  3  0  0  0  0  0  0  0  0  0  0
  151.3047  143.2605  157.6414 C   0  0  0  0  0  0  0  0  0  0  0  0
  151.6468  144.4238  158.3237 C   0  0  0  0  0  0  0  0  0  0  0  0
  152.4443  144.2697  159.4767 C   0  0  0  0  0  0  0  0  0  0  0  0
  152.8719  142.9976  159.9088 C   0  0  0  0  0  0  0  0  0  0  0  0
  152.5172  141.8254  159.2092 C   0  0  0  0  0  0  0  0  0  0  0  0
  151.7238  141.9861  158.0732 C   0  0  0  0  0  0  0  0  0  0  0  0
  151.1926  141.0789  157.1484 N   0  0  0  0  0  0  0  0  0  0  0  0
  151.4587  139.6395  157.3154 C   0  0  0  0  0  0  0  0  0  0  0  0
  150.2398  138.7880  157.7883 C   0  0  0  0  0  0  0  0  0  0  0  0
  149.2961  139.7112  158.3012 O   0  0  0  0  0  0  0  0  0  0  0  0
  149.5911  138.0659  156.5819 C   0  0  0  0  0  0  0  0  0  0  0  0
  148.3947  137.1786  156.9713 C   0  0  0  0  0  0  0  0  0  0  0  0
  148.7735  136.1735  158.0670 C   0  0  0  0  0  0  0  0  0  0  0  0
  149.3425  136.8945  159.2961 C   0  0  0  0  0  0  0  0  0  0  0  0
  150.5522  137.7673  158.9178 C   0  0  0  0  0  0  0  0  0  0  0  0
  148.7745  139.6046  152.7559 H   0  0  0  0  0  0  0  0  0  0  0  0
  147.8644  141.4913  152.7374 H   0  0  0  0  0  0  0  0  0  0  0  0
  146.5657  140.8964  153.7582 H   0  0  0  0  0  0  0  0  0  0  0  0
  148.2531  142.6282  154.7908 H   0  0  0  0  0  0  0  0  0  0  0  0
  147.7907  141.2433  155.7498 H   0  0  0  0  0  0  0  0  0  0  0  0
  149.8675  140.0370  155.0818 H   0  0  0  0  0  0  0  0  0  0  0  0
  150.3694  141.4010  154.1082 H   0  0  0  0  0  0  0  0  0  0  0  0
  151.3243  145.3995  157.9916 H   0  0  0  0  0  0  0  0  0  0  0  0
  152.7366  145.1452  160.0386 H   0  0  0  0  0  0  0  0  0  0  0  0
  153.4862  142.9187  160.7942 H   0  0  0  0  0  0  0  0  0  0  0  0
  152.8566  140.8569  159.5457 H   0  0  0  0  0  0  0  0  0  0  0  0
  151.8698  139.2657  156.3767 H   0  0  0  0  0  0  0  0  0  0  0  0
  152.2876  139.5464  158.0174 H   0  0  0  0  0  0  0  0  0  0  0  0
  149.7607  140.3680  158.7973 H   0  0  0  0  0  0  0  0  0  0  0  0
  149.2733  138.7928  155.8328 H   0  0  0  0  0  0  0  0  0  0  0  0
  150.3410  137.4410  156.0956 H   0  0  0  0  0  0  0  0  0  0  0  0
  147.5681  137.8009  157.3158 H   0  0  0  0  0  0  0  0  0  0  0  0
  148.0294  136.6466  156.0925 H   0  0  0  0  0  0  0  0  0  0  0  0
  147.9003  135.5854  158.3509 H   0  0  0  0  0  0  0  0  0  0  0  0
  149.5107  135.4687  157.6800 H   0  0  0  0  0  0  0  0  0  0  0  0
  148.5668  137.5082  159.7551 H   0  0  0  0  0  0  0  0  0  0  0  0
  149.6375  136.1632  160.0490 H   0  0  0  0  0  0  0  0  0  0  0  0
  151.3517  137.0976  158.5996 H   0  0  0  0  0  0  0  0  0  0  0  0
  150.9175  138.2818  159.8072 H   0  0  0  0  0  0  0  0  0  0  0  0
  150.1212  143.7930  155.9223 H   0  0  0  0  0  0  0  0  0  0  0  0
  1  2  1  0  0  0  0
  1 22  1  0  0  0  0
  2  3  1  0  0  0  0
  2 23  1  0  0  0  0
  2 24  1  0  0  0  0
  3  4  1  0  0  0  0
  3 25  1  0  0  0  0
  3 26  1  0  0  0  0
  4  5  1  0  0  0  0
  4 27  1  0  0  0  0
  4 28  1  0  0  0  0
  5 13  1  0  0  0  0
  5  6  2  0  0  0  0
  6  7  1  0  0  0  0
  6 46  1  0  0  0  0
  7 12  2  0  0  0  0
  7  8  1  0  0  0  0
  8  9  2  0  0  0  0
  8 29  1  0  0  0  0
  9 10  1  0  0  0  0
  9 30  1  0  0  0  0
 10 11  2  0  0  0  0
 10 31  1  0  0  0  0
 11 12  1  0  0  0  0
 11 32  1  0  0  0  0
 12 13  1  0  0  0  0
 13 14  1  0  0  0  0
 14 15  1  0  0  0  0
 14 33  1  0  0  0  0
 14 34  1  0  0  0  0
 15 21  1  0  0  0  0
 15 16  1  0  0  0  0
 15 17  1  0  0  0  0
 16 35  1  0  0  0  0
 17 18  1  0  0  0  0
 17 36  1  0  0  0  0
 17 37  1  0  0  0  0
 18 19  1  0  0  0  0
 18 38  1  0  0  0  0
 18 39  1  0  0  0  0
 19 20  1  0  0  0  0
 19 40  1  0  0  0  0
 19 41  1  0  0  0  0
 20 21  1  0  0  0  0
 20 42  1  0  0  0  0
 20 43  1  0  0  0  0
 21 44  1  0  0  0  0
 21 45  1  0  0  0  0
M  CHG  1   6   1
M  END
> <s_m_source_file>
AV-unprocessed.smi

> <i_m_source_file_index>
1542

> <i_lp_mmshare_version>
43012

> <i_f3d_flags>
0

> <s_epik_input>
W09IXVtDSDJdW0NIMl1bQ0gyXWMobjEpbihjKGMxMilbY0hdW2NIXVtjSF1bY0hdMilbQ0gyXUMzKFtPSF0pW0NIMl1bQ0gyXVtDSDJdW0NIMl1bQ0gyXTM=

> <s_epik_cmdline>
J2VwaWtfcHl0aG9uJywgJy1waCcsICc3LjAnLCAnLXRuJywgJzgnLCAnLW1hJywgJzIwMCcsICctbWV0YWxfYmluZGluZycsICctaW1hZScsICc8aW5maWxlLm1hZT4nLCAnLW9tYWUnLCAnPG91dGZpbGUubWFlPic=

> <r_epik_Ionization_Penalty>
0.555973

> <r_epik_Ionization_Penalty_Charging>
0.555973

> <r_epik_Ionization_Penalty_Neutral>
2.09159e-07

> <r_epik_State_Penalty>
0.566728

> <r_epik_Charging_Adjusted_Penalty>
1.1227

> <i_epik_Tot_Q>
1

> <i_epik_Tot_abs_Q>
1

> <r_epik_Metal_State_Penalty>
4.37256

> <b_epik_Metal_Only>
0

> <s_lp_Force_Field>
OPLS_2005

> <r_lp_Energy>
23.0728

> <b_lp_Chiralities_Consistent>
1

> <s_lp_Variant>
AV-unprocessed.smi:1542-2

> <Gold.Version>
5.8.1

> <Gold.Id.Protein>
6NUR|6NUR_protein|mol2

> <Gold.PLP.Fitness>
49.7963

> <Gold.PLP.PLP>
-42.9787

> <Gold.PLP.part.hbond>
-2.1276

> <Gold.PLP.part.metal>
0.0000

> <Gold.PLP.part.buried>
-5.2649

> <Gold.PLP.part.nonpolar>
-36.4853

> <Gold.PLP.part.repulsive>
0.0803

> <Gold.PLP.ligand.clash>
0.0000

> <Gold.PLP.ligand.torsion>
1.2214

> <Gold.PLP.Chemscore.Hbond>
2.9840

> <Gold.PLP.Chemscore.CHOScore>
0.0000

> <Gold.PLP.Chemscore.Metal>
0.0000

> <Gold.Chemscore.Hbonds>
donor molecule, donor type, donor heavy atom, donor atom, acceptor molecule, acceptor atom, score
      L1  H     1    22       P1  7957  1.00
      L1  H     6    46       P1  8028  1.98

> <Gold.PLP.Chemscore.Internal.Correction>
0.3084

> <Gold.Rescore>
     Score         DG    S(hbond)    S(metal)    S(lipo)     H(rot)  DE(clash)    DE(int)     intcor
     15.88     -17.31       1.98        0.00     106.09       2.82       0.00       1.43       ----

> <Gold.Chemscore.Fitness>
15.8775

> <Gold.Chemscore.DG>
-17.3067

> <Gold.Chemscore.ZeroCoef>
-5.4800

> <Gold.Chemscore.Hbond>
1.9840

> <Gold.Chemscore.Metal>
0.0000

> <Gold.Chemscore.Lipo>
106.0930

> <Gold.Chemscore.Internal_Hbond>
0.0000

> <Gold.Chemscore.DEClash>
0.0000

> <Gold.Chemscore.DEInternal>
1.4292

> <Gold.Chemscore.Rot>
2.8175

> <Gold.Chemscore.Internal.Correction>
   9.000000E+99

> <Gold.Chemscore.Hbonds>
donor molecule, donor type, donor heavy atom, donor atom, acceptor molecule, acceptor atom, score
      L1  H     1    22       P1  7957  0.99
      L1  H     6    46       P1  8028  0.91

> <Gold.Chemscore.Hbond.Weighted>
-6.6267

> <Gold.Chemscore.Metal.Weighted>
-0.0000

> <Gold.Chemscore.Lipo.Weighted>
-12.4129

> <Gold.Chemscore.Internal_Hbond.Weighted>
0.0000

> <Gold.Chemscore.DEClash.Weighted>
0.0000

> <Gold.Chemscore.DEInternal.Weighted>
1.4292

> <Gold.Chemscore.Rot.Weighted>
7.2128

> <Gold.Chemscore.Internal.Correction.Weighted>
   9.000000E+99

> <Gold.Protein.RotatedTorsions>
[ 6907 6896 6895 6894 ] final -165.07 input  -60.11 | X-H torsion
[ 7974 7965 7964 7962 ] final   76.75 input  175.53 | X-H torsion
[ 8008 7997 7996 7995 ] final   90.82 input   59.86 | X-H torsion
[ 10167 10162 10161 10158 ] final  174.93 input  -65.29 | X-H torsion
[ 10718 10713 10712 10709 ] final -159.86 input   66.30 | X-H torsion
[ 10763 10752 10751 10750 ] final -130.16 input  -60.55 | X-H torsion
[ 11005 11000 10999 10996 ] final  -93.58 input  -57.11 | X-H torsion

> <Gold.Protein.ActiveResidues>
 VAL166  LYS551  ARG553  GLY616  TRP617  ASP618  TYR619  PRO620  LYS621  CYS622 
 ASP623  PHE694  ASN695  SER759  ASP760  ASP761  ALA762  ILE779  LEU786  VAL792 
 PHE793  MET794  SER795  GLU796  ALA797  LYS798  CYS799  TRP800  GLU811  SER814 

> <Gold.Protein.RotatedAtoms>
  151.4218  133.3696  159.2756 H   0  0  0  0  0  0  0  0  0  0  0  0  # atno 6907 bound_to 6896
  150.9288  134.8705  159.7548 H   0  0  0  0  0  0  0  0  0  0  0  0  # atno 6908 bound_to 6896
  152.5018  134.4161  159.9517 H   0  0  0  0  0  0  0  0  0  0  0  0  # atno 6909 bound_to 6896
  145.6989  139.2576  143.1717 H   0  0  0  0  0  0  0  0  0  0  0  0  # atno 7974 bound_to 7965
  156.0165  140.3345  155.6994 H   0  0  0  0  0  0  0  0  0  0  0  0  # atno 8008 bound_to 7997
  155.6084  140.0663  157.2731 H   0  0  0  0  0  0  0  0  0  0  0  0  # atno 8009 bound_to 7997
  154.4300  140.1798  156.1234 H   0  0  0  0  0  0  0  0  0  0  0  0  # atno 8010 bound_to 7997
  139.5159  144.3090  152.0309 H   0  0  0  0  0  0  0  0  0  0  0  0  # atno 10167 bound_to 10162
  156.5741  130.8701  151.2846 H   0  0  0  0  0  0  0  0  0  0  0  0  # atno 10718 bound_to 10713
  154.8756  135.3872  154.4037 H   0  0  0  0  0  0  0  0  0  0  0  0  # atno 10763 bound_to 10752
  153.4759  135.7030  153.5971 H   0  0  0  0  0  0  0  0  0  0  0  0  # atno 10764 bound_to 10752
  153.4408  135.3856  155.2195 H   0  0  0  0  0  0  0  0  0  0  0  0  # atno 10765 bound_to 10752
  141.1493  133.7897  157.0179 H   0  0  0  0  0  0  0  0  0  0  0  0  # atno 11005 bound_to 11000
  146.0816  140.7758  142.9639 LP  0  0  0  0  0  0  0  0  0  0  0  0  # atno 17320 bound_to 7965
  144.6974  140.3497  143.7184 LP  0  0  0  0  0  0  0  0  0  0  0  0  # atno 17321 bound_to 7965
  140.2535  144.4143  150.6212 LP  0  0  0  0  0  0  0  0  0  0  0  0  # atno 17342 bound_to 10162
  140.6207  143.2176  151.6699 LP  0  0  0  0  0  0  0  0  0  0  0  0  # atno 17343 bound_to 10162
  157.7341  130.9742  150.2014 LP  0  0  0  0  0  0  0  0  0  0  0  0  # atno 17370 bound_to 10713
  156.2689  130.3719  149.8052 LP  0  0  0  0  0  0  0  0  0  0  0  0  # atno 17371 bound_to 10713
  140.0835  134.9634  157.1662 LP  0  0  0  0  0  0  0  0  0  0  0  0  # atno 17394 bound_to 11000
  140.3544  134.2563  155.7194 LP  0  0  0  0  0  0  0  0  0  0  0  0  # atno 17395 bound_to 11000

$$$$
