AV-unprocessed.smi:3254|AV-procd|sdf|12454|dock5
  -GOLD-   2272018353D 1   1.00000     0.00000
 Structure written by MMmdl.
 37 38  0  0  0  0  0  0  0  0  2 V2000
  152.0173  145.3136  158.9204 C   0  0  0  0  0  0  0  0  0  0  0  0
  152.0879  144.8012  160.3656 C   0  0  0  0  0  0  0  0  0  0  0  0
  152.7631  143.5085  160.4482 N   0  0  0  0  0  0  0  0  0  0  0  0
  153.3351  142.8933  159.2620 C   0  0  0  0  0  0  0  0  0  0  0  0
  153.7841  141.4814  159.6980 C   0  0  2  0  0  0  0  0  0  0  0  0
  152.9300  140.3742  159.0603 C   0  0  0  0  0  0  0  0  0  0  0  0
  152.9688  139.2260  159.5043 O   0  0  0  0  0  0  0  0  0  0  0  0
  152.1594  140.7332  158.0219 N   0  0  0  0  0  0  0  0  0  0  0  0
  151.2810  139.8320  157.2861 C   0  0  0  0  0  0  0  0  0  0  0  0
  151.7118  139.6974  155.8159 C   0  0  0  0  0  0  0  0  0  0  0  0
  150.5698  139.4308  154.9405 N   0  0  0  0  0  0  0  0  0  0  0  0
  149.4624  140.2190  154.7600 C   0  0  0  0  0  0  0  0  0  0  0  0
  148.6633  139.5681  153.8557 C   0  0  0  0  0  0  0  0  0  0  0  0
  149.3161  138.4110  153.5238 N   0  3  0  0  0  0  0  0  0  0  0  0
  150.4755  138.3291  154.1850 C   0  0  0  0  0  0  0  0  0  0  0  0
  153.6614  141.4760  161.2350 C   0  0  0  0  0  0  0  0  0  0  0  0
  152.9366  142.7731  161.5517 C   0  0  0  0  0  0  0  0  0  0  0  0
  152.5655  143.0685  162.6866 O   0  0  0  0  0  0  0  0  0  0  0  0
  151.4917  146.2674  158.8738 H   0  0  0  0  0  0  0  0  0  0  0  0
  151.4855  144.6099  158.2794 H   0  0  0  0  0  0  0  0  0  0  0  0
  153.0122  145.4645  158.5008 H   0  0  0  0  0  0  0  0  0  0  0  0
  152.6103  145.5249  160.9932 H   0  0  0  0  0  0  0  0  0  0  0  0
  151.0800  144.7134  160.7728 H   0  0  0  0  0  0  0  0  0  0  0  0
  152.6063  142.8777  158.4493 H   0  0  0  0  0  0  0  0  0  0  0  0
  154.1881  143.4843  158.9260 H   0  0  0  0  0  0  0  0  0  0  0  0
  154.8276  141.3320  159.4152 H   0  0  0  0  0  0  0  0  0  0  0  0
  152.1886  141.6960  157.7184 H   0  0  0  0  0  0  0  0  0  0  0  0
  151.3088  138.8570  157.7736 H   0  0  0  0  0  0  0  0  0  0  0  0
  150.2496  140.1832  157.3533 H   0  0  0  0  0  0  0  0  0  0  0  0
  152.1887  140.6123  155.4623 H   0  0  0  0  0  0  0  0  0  0  0  0
  152.4361  138.8903  155.6952 H   0  0  0  0  0  0  0  0  0  0  0  0
  149.3290  141.1595  155.2756 H   0  0  0  0  0  0  0  0  0  0  0  0
  147.7043  139.8342  153.4353 H   0  0  0  0  0  0  0  0  0  0  0  0
  151.1923  137.5299  154.1209 H   0  0  0  0  0  0  0  0  0  0  0  0
  153.1062  140.6232  161.6295 H   0  0  0  0  0  0  0  0  0  0  0  0
  154.6437  141.4849  161.7081 H   0  0  0  0  0  0  0  0  0  0  0  0
  148.9732  137.7160  152.8723 H   0  0  0  0  0  0  0  0  0  0  0  0
  1  2  1  0  0  0  0
  1 19  1  0  0  0  0
  1 20  1  0  0  0  0
  1 21  1  0  0  0  0
  2  3  1  0  0  0  0
  2 22  1  0  0  0  0
  2 23  1  0  0  0  0
  3 17  1  0  0  0  0
  3  4  1  0  0  0  0
  4  5  1  0  0  0  0
  4 24  1  0  0  0  0
  4 25  1  0  0  0  0
  5  6  1  0  0  0  0
  5 16  1  0  0  0  0
  5 26  1  0  0  0  0
  6  7  2  0  0  0  0
  6  8  1  0  0  0  0
  8  9  1  0  0  0  0
  8 27  1  0  0  0  0
  9 10  1  0  0  0  0
  9 28  1  0  0  0  0
  9 29  1  0  0  0  0
 10 11  1  0  0  0  0
 10 30  1  0  0  0  0
 10 31  1  0  0  0  0
 11 15  1  0  0  0  0
 11 12  1  0  0  0  0
 12 13  2  0  0  0  0
 12 32  1  0  0  0  0
 13 14  1  0  0  0  0
 13 33  1  0  0  0  0
 14 15  2  0  0  0  0
 14 37  1  0  0  0  0
 15 34  1  0  0  0  0
 16 17  1  0  0  0  0
 16 35  1  0  0  0  0
 16 36  1  0  0  0  0
 17 18  2  0  0  0  0
M  CHG  1  14   1
M  END
> <s_m_source_file>
AV-unprocessed.smi

> <i_m_source_file_index>
3254

> <i_lp_mmshare_version>
43012

> <i_f3d_flags>
0

> <s_epik_input>
W0NIM11bQ0gyXU4xW0NIMl1bQ0BIXShbQ0gyXUMxPU8pQyg9TylbTkhdW0NIMl1bQ0gyXW4yW2NIXVtjSF1uW2NIXTI=

> <s_epik_cmdline>
J2VwaWtfcHl0aG9uJywgJy1waCcsICc3LjAnLCAnLXRuJywgJzgnLCAnLW1hJywgJzIwMCcsICctbWV0YWxfYmluZGluZycsICctaW1hZScsICc8aW5maWxlLm1hZT4nLCAnLW9tYWUnLCAnPG91dGZpbGUubWFlPic=

> <r_lp_tautomer_probability>
1

> <r_epik_Ionization_Penalty>
0.274742

> <r_epik_Ionization_Penalty_Charging>
0

> <r_epik_Ionization_Penalty_Neutral>
0.274742

> <r_epik_State_Penalty>
0.267046

> <r_epik_Charging_Adjusted_Penalty>
0.267046

> <i_epik_Tot_Q>
1

> <i_epik_Tot_abs_Q>
1

> <r_epik_Metal_State_Penalty>
0.550456

> <b_epik_Metal_Only>
0

> <s_lp_Force_Field>
OPLS_2005

> <r_lp_Energy>
15.3275

> <b_lp_Chiralities_Consistent>
1

> <s_lp_Variant>
AV-unprocessed.smi:3254-2

> <Gold.Version>
5.8.1

> <Gold.Id.Protein>
6NUR|6NUR_protein|mol2

> <Gold.PLP.Fitness>
49.8576

> <Gold.PLP.PLP>
-44.8836

> <Gold.PLP.part.hbond>
-2.0000

> <Gold.PLP.part.metal>
0.0000

> <Gold.PLP.part.buried>
-5.0666

> <Gold.PLP.part.nonpolar>
-39.0251

> <Gold.PLP.part.repulsive>
0.8138

> <Gold.PLP.ligand.clash>
0.0000

> <Gold.PLP.ligand.torsion>
0.5277

> <Gold.PLP.Chemscore.Hbond>
2.0000

> <Gold.PLP.Chemscore.CHOScore>
0.0000

> <Gold.PLP.Chemscore.Metal>
0.0000

> <Gold.Chemscore.Hbonds>
donor molecule, donor type, donor heavy atom, donor atom, acceptor molecule, acceptor atom, score
      L1  H    14    37       P1  7948  2.00

> <Gold.PLP.Chemscore.Internal.Correction>
0.0295

> <Gold.Rescore>
     Score         DG    S(hbond)    S(metal)    S(lipo)     H(rot)  DE(clash)    DE(int)     intcor
     12.37     -12.73       1.00        0.00      83.26       2.28       0.07       0.29       ----

> <Gold.Chemscore.Fitness>
12.3708

> <Gold.Chemscore.DG>
-12.7268

> <Gold.Chemscore.ZeroCoef>
-5.4800

> <Gold.Chemscore.Hbond>
0.9988

> <Gold.Chemscore.Metal>
0.0000

> <Gold.Chemscore.Lipo>
83.2622

> <Gold.Chemscore.Internal_Hbond>
0.0000

> <Gold.Chemscore.DEClash>
0.0669

> <Gold.Chemscore.DEInternal>
0.2892

> <Gold.Chemscore.Rot>
2.2776

> <Gold.Chemscore.Internal.Correction>
   9.000000E+99

> <Gold.Chemscore.Hbonds>
donor molecule, donor type, donor heavy atom, donor atom, acceptor molecule, acceptor atom, score
      L1  H    14    37       P1  7948  0.99

> <Gold.Chemscore.Hbond.Weighted>
-3.3359

> <Gold.Chemscore.Metal.Weighted>
-0.0000

> <Gold.Chemscore.Lipo.Weighted>
-9.7417

> <Gold.Chemscore.Internal_Hbond.Weighted>
0.0000

> <Gold.Chemscore.DEClash.Weighted>
0.0669

> <Gold.Chemscore.DEInternal.Weighted>
0.2892

> <Gold.Chemscore.Rot.Weighted>
5.8307

> <Gold.Chemscore.Internal.Correction.Weighted>
   9.000000E+99

> <Gold.Protein.RotatedTorsions>
[ 6907 6896 6895 6894 ] final   57.81 input  -60.11 | X-H torsion
[ 7974 7965 7964 7962 ] final -132.72 input  175.53 | X-H torsion
[ 8008 7997 7996 7995 ] final  167.89 input   59.86 | X-H torsion
[ 10167 10162 10161 10158 ] final  -78.81 input  -65.29 | X-H torsion
[ 10718 10713 10712 10709 ] final   36.76 input   66.30 | X-H torsion
[ 10763 10752 10751 10750 ] final  133.31 input  -60.55 | X-H torsion
[ 11005 11000 10999 10996 ] final -169.94 input  -57.11 | X-H torsion

> <Gold.Protein.ActiveResidues>
 VAL166  LYS551  ARG553  GLY616  TRP617  ASP618  TYR619  PRO620  LYS621  CYS622 
 ASP623  PHE694  ASN695  SER759  ASP760  ASP761  ALA762  ILE779  LEU786  VAL792 
 PHE793  MET794  SER795  GLU796  ALA797  LYS798  CYS799  TRP800  GLU811  SER814 

> <Gold.Protein.RotatedAtoms>
  152.3766  134.6654  160.0157 H   0  0  0  0  0  0  0  0  0  0  0  0  # atno 6907 bound_to 6896
  151.6931  133.3305  159.3256 H   0  0  0  0  0  0  0  0  0  0  0  0  # atno 6908 bound_to 6896
  150.7714  134.6617  159.6388 H   0  0  0  0  0  0  0  0  0  0  0  0  # atno 6909 bound_to 6896
  144.9259  140.7070  143.4936 H   0  0  0  0  0  0  0  0  0  0  0  0  # atno 7974 bound_to 7965
  156.1594  140.1605  156.8637 H   0  0  0  0  0  0  0  0  0  0  0  0  # atno 8008 bound_to 7997
  154.5146  140.0792  156.8093 H   0  0  0  0  0  0  0  0  0  0  0  0  # atno 8009 bound_to 7997
  155.3737  140.3401  155.4246 H   0  0  0  0  0  0  0  0  0  0  0  0  # atno 8010 bound_to 7997
  140.4649  143.2443  151.8293 H   0  0  0  0  0  0  0  0  0  0  0  0  # atno 10167 bound_to 10162
  157.3388  130.7536  149.6897 H   0  0  0  0  0  0  0  0  0  0  0  0  # atno 10718 bound_to 10713
  153.8050  135.3137  155.3394 H   0  0  0  0  0  0  0  0  0  0  0  0  # atno 10763 bound_to 10752
  154.8074  135.4689  154.0430 H   0  0  0  0  0  0  0  0  0  0  0  0  # atno 10764 bound_to 10752
  153.1790  135.6890  153.8591 H   0  0  0  0  0  0  0  0  0  0  0  0  # atno 10765 bound_to 10752
  140.5251  134.5671  157.5059 H   0  0  0  0  0  0  0  0  0  0  0  0  # atno 11005 bound_to 11000
  145.3220  139.1785  143.4582 LP  0  0  0  0  0  0  0  0  0  0  0  0  # atno 17320 bound_to 7965
  146.3226  140.3239  142.8635 LP  0  0  0  0  0  0  0  0  0  0  0  0  # atno 17321 bound_to 7965
  139.4811  144.4963  151.9119 LP  0  0  0  0  0  0  0  0  0  0  0  0  # atno 17342 bound_to 10162
  140.4049  144.2445  150.5891 LP  0  0  0  0  0  0  0  0  0  0  0  0  # atno 17343 bound_to 10162
  155.9705  130.4174  150.4276 LP  0  0  0  0  0  0  0  0  0  0  0  0  # atno 17370 bound_to 10713
  157.2320  131.0506  151.2486 LP  0  0  0  0  0  0  0  0  0  0  0  0  # atno 17371 bound_to 10713
  139.9584  134.7494  156.0290 LP  0  0  0  0  0  0  0  0  0  0  0  0  # atno 17394 bound_to 11000
  141.1312  133.6586  156.3470 LP  0  0  0  0  0  0  0  0  0  0  0  0  # atno 17395 bound_to 11000

$$$$
