#       Name:                AV-unprocessed.smi:1516
#       Creating user name   scv26
#       Creation time:       Fri Mar 27 06:25:19 2020


#       File generated by GOLD software.
#

@<TRIPOS>MOLECULE
AV-unprocessed.smi:1516
    50    51     1
SMALL
NO_CHARGES


@<TRIPOS>ATOM
      1 ****        -4.7972  -5.1797  -2.0477 C.3            1 S1                 0.0000
      2 ****        -4.9571  -4.2321  -0.9422 N.am           1 S1                 0.0000
      3 ****        -5.7321  -4.7192   0.2017 C.3            1 S1                 0.0000
      4 ****        -4.4498  -2.9775  -0.9621 C.2            1 S1                 0.0000
      5 ****        -4.6360  -2.1805  -0.0398 O.2            1 S1                 0.0000
      6 ****        -3.6306  -2.5310  -2.1897 C.3            1 S1                 0.0000
      7 ****        -2.9134  -1.2749  -1.9774 N.am           1 S1                 0.0000
      8 ****        -1.7167  -1.1621  -1.3824 C.2            1 S1                 0.0000
      9 ****        -1.0725  -2.1257  -0.9675 O.2            1 S1                 0.0000
     10 ****        -1.3414   0.1247  -1.2858 N.am           1 S1                 0.0000
     11 ****        -0.1497   0.6562  -0.7237 C.ar           1 S1                 0.0000
     12 ****         1.0577  -0.0659  -0.5860 C.ar           1 S1                 0.0000
     13 ****         2.1792   0.5777  -0.0286 C.ar           1 S1                 0.0000
     14 ****         2.0730   1.9324   0.3762 C.ar           1 S1                 0.0000
     15 ****         3.1612   2.6380   0.9381 N.pl3          1 S1                 0.0000
     16 ****         2.8771   3.3979   2.1596 C.3            1 S1                 0.0000
     17 ****         3.9592   4.4583   2.4254 C.3            1 S1                 0.0000
     18 ****         5.3604   3.8315   2.4261 C.3            1 S1                 0.0000
     19 ****         5.5960   3.0812   1.1078 C.3            1 S1                 0.0000
     20 ****         4.4942   2.0370   0.8589 C.3            1 S1                 0.0000
     21 ****         0.9162   2.6217   0.2278 N.ar           1 S1                 0.0000
     22 ****        -0.1549   2.0019  -0.3092 C.ar           1 S1                 0.0000
     23 ****        -5.0357  -4.7188  -3.0070 H              1 S1                 0.0000
     24 ****        -5.4555  -6.0432  -1.9452 H              1 S1                 0.0000
     25 ****        -3.7717  -5.5493  -2.0862 H              1 S1                 0.0000
     26 ****        -5.3377  -4.3490   1.1496 H              1 S1                 0.0000
     27 ****        -5.7223  -5.8079   0.2649 H              1 S1                 0.0000
     28 ****        -6.7699  -4.3954   0.1160 H              1 S1                 0.0000
     29 ****        -2.9206  -3.3071  -2.4795 H              1 S1                 0.0000
     30 ****        -4.3091  -2.3920  -3.0316 H              1 S1                 0.0000
     31 ****        -3.3776  -0.4306  -2.2783 H              1 S1                 0.0000
     32 ****        -2.0167   0.8089  -1.5937 H              1 S1                 0.0000
     33 ****         1.1515  -1.0919  -0.9061 H              1 S1                 0.0000
     34 ****         3.0936   0.0152   0.0829 H              1 S1                 0.0000
     35 ****         1.9092   3.8961   2.1105 H              1 S1                 0.0000
     36 ****         2.8275   2.7004   2.9966 H              1 S1                 0.0000
     37 ****         3.9061   5.2324   1.6588 H              1 S1                 0.0000
     38 ****         3.7694   4.9526   3.3785 H              1 S1                 0.0000
     39 ****         6.1188   4.6029   2.5620 H              1 S1                 0.0000
     40 ****         5.4577   3.1427   3.2663 H              1 S1                 0.0000
     41 ****         5.6149   3.7941   0.2821 H              1 S1                 0.0000
     42 ****         6.5727   2.5967   1.1208 H              1 S1                 0.0000
     43 ****         4.5680   1.2330   1.5922 H              1 S1                 0.0000
     44 ****         4.6515   1.5966  -0.1262 H              1 S1                 0.0000
     45 ****        -1.0479   2.6022  -0.4047 H              1 S1                 0.0000
     46 ****        -5.1768  -2.4538   0.7557 LP             1 S1                 0.0000
     47 ****        -4.2462  -1.2608  -0.0874 LP             1 S1                 0.0000
     48 ****        -1.4376  -3.0513  -1.0668 LP             1 S1                 0.0000
     49 ****        -0.1841  -1.9827  -0.5313 LP             1 S1                 0.0000
     50 ****         0.8571   3.5784   0.5128 LP             1 S1                 0.0000
@<TRIPOS>BOND
    1    1    2 1     
    2    1   23 1     
    3    1   24 1     
    4    1   25 1     
    5    2    3 1     
    6    2    4 am    
    7    3   26 1     
    8    3   27 1     
    9    3   28 1     
   10    4    5 2     
   11    4    6 1     
   12    6    7 1     
   13    6   29 1     
   14    6   30 1     
   15    7    8 am    
   16    7   31 1     
   17    8    9 2     
   18    8   10 am    
   19   10   11 1     
   20   10   32 1     
   21   11   22 ar    
   22   11   12 ar    
   23   12   13 ar    
   24   12   33 1     
   25   13   14 ar    
   26   13   34 1     
   27   14   15 1     
   28   14   21 ar    
   29   15   20 1     
   30   15   16 1     
   31   16   17 1     
   32   16   35 1     
   33   16   36 1     
   34   17   18 1     
   35   17   37 1     
   36   17   38 1     
   37   18   19 1     
   38   18   39 1     
   39   18   40 1     
   40   19   20 1     
   41   19   41 1     
   42   19   42 1     
   43   20   43 1     
   44   20   44 1     
   45   21   22 ar    
   46   22   45 1     
   47    5   46 1     
   48    5   47 1     
   49    9   48 1     
   50    9   49 1     
   51   21   50 1     
@<TRIPOS>SUBSTRUCTURE
      1 S1             1
@<TRIPOS>SET
LONE_PAIRS      STATIC     ATOMS    <user>   **** ""
5 46 47 48 49 50
DONOR_HYDROGENS      STATIC     ATOMS    <user>   **** ""
2 31 32
ATOM$BLUE        STATIC     ATOMS    COLORGROUP SYSTEM
5 46 47 48 49 50
ATOM$RED        STATIC     ATOMS    COLORGROUP SYSTEM
2 31 32
