AV-unprocessed.smi:1843|AV-procd|sdf|7500|dock7
  -GOLD-   22720 9203D 1   1.00000     0.00000
 Structure written by MMmdl.
 37 39  0  0  0  0  0  0  0  0  1 V2000
  146.8073  139.6662  154.3172 O   0  0  0  0  0  0  0  0  0  0  0  0
  147.5010  138.8898  153.6597 C   0  0  0  0  0  0  0  0  0  0  0  0
  148.8447  138.8473  153.6706 N   0  0  0  0  0  0  0  0  0  0  0  0
  149.7442  139.6450  154.4263 C   0  0  0  0  0  0  0  0  0  0  0  0
  151.0435  139.3570  154.5833 N   0  0  0  0  0  0  0  0  0  0  0  0
  151.6931  140.3036  155.3630 N   0  0  0  0  0  0  0  0  0  0  0  0
  150.8701  141.2761  155.7730 C   0  0  0  0  0  0  0  0  0  0  0  0
  151.3400  142.4115  156.6201 C   0  0  0  0  0  0  0  0  0  0  0  0
  152.0863  142.1571  157.9092 C   0  0  0  0  0  0  0  0  0  0  0  0
  150.6932  142.7315  157.9501 C   0  0  0  0  0  0  0  0  0  0  0  0
  149.2032  141.1078  155.2314 S   0  0  0  0  0  0  0  0  0  0  0  0
  146.9936  137.9636  152.8338 N   0  0  0  0  0  0  0  0  0  0  0  0
  145.5700  137.7394  152.5909 C   0  0  2  0  0  0  0  0  0  0  0  0
  144.8893  137.3503  153.9221 C   0  0  0  0  0  0  0  0  0  0  0  0
  143.4202  136.9472  153.7285 C   0  0  0  0  0  0  0  0  0  0  0  0
  143.2925  135.8093  152.7074 C   0  0  0  0  0  0  0  0  0  0  0  0
  143.9222  136.2116  151.3673 C   0  0  0  0  0  0  0  0  0  0  0  0
  145.3972  136.6254  151.5320 C   0  0  1  0  0  0  0  0  0  0  0  0
  145.8525  137.0887  150.2764 O   0  0  0  0  0  0  0  0  0  0  0  0
  149.2750  138.1526  153.0786 H   0  0  0  0  0  0  0  0  0  0  0  0
  151.6651  143.2443  155.9994 H   0  0  0  0  0  0  0  0  0  0  0  0
  152.2122  141.1235  158.2253 H   0  0  0  0  0  0  0  0  0  0  0  0
  152.9134  142.8222  158.1488 H   0  0  0  0  0  0  0  0  0  0  0  0
  150.5902  143.7812  158.2172 H   0  0  0  0  0  0  0  0  0  0  0  0
  149.8984  142.0801  158.3080 H   0  0  0  0  0  0  0  0  0  0  0  0
  147.6364  137.3724  152.3277 H   0  0  0  0  0  0  0  0  0  0  0  0
  145.1069  138.6545  152.2152 H   0  0  0  0  0  0  0  0  0  0  0  0
  145.4269  136.5183  154.3796 H   0  0  0  0  0  0  0  0  0  0  0  0
  144.9485  138.1783  154.6296 H   0  0  0  0  0  0  0  0  0  0  0  0
  142.9907  136.6404  154.6826 H   0  0  0  0  0  0  0  0  0  0  0  0
  142.8440  137.8102  153.3922 H   0  0  0  0  0  0  0  0  0  0  0  0
  143.7807  134.9121  153.0902 H   0  0  0  0  0  0  0  0  0  0  0  0
  142.2422  135.5548  152.5636 H   0  0  0  0  0  0  0  0  0  0  0  0
  143.8420  135.3844  150.6607 H   0  0  0  0  0  0  0  0  0  0  0  0
  143.3512  137.0379  150.9408 H   0  0  0  0  0  0  0  0  0  0  0  0
  145.9839  135.7498  151.8138 H   0  0  0  0  0  0  0  0  0  0  0  0
  145.1849  137.6426  149.9011 H   0  0  0  0  0  0  0  0  0  0  0  0
  1  2  2  0  0  0  0
  2  3  1  0  0  0  0
  2 12  1  0  0  0  0
  3  4  1  0  0  0  0
  3 20  1  0  0  0  0
  4 11  1  0  0  0  0
  4  5  2  0  0  0  0
  5  6  1  0  0  0  0
  6  7  2  0  0  0  0
  7  8  1  0  0  0  0
  7 11  1  0  0  0  0
  8 10  1  0  0  0  0
  8  9  1  0  0  0  0
  8 21  1  0  0  0  0
  9 10  1  0  0  0  0
  9 22  1  0  0  0  0
  9 23  1  0  0  0  0
 10 24  1  0  0  0  0
 10 25  1  0  0  0  0
 12 13  1  0  0  0  0
 12 26  1  0  0  0  0
 13 18  1  0  0  0  0
 13 14  1  0  0  0  0
 13 27  1  0  0  0  0
 14 15  1  0  0  0  0
 14 28  1  0  0  0  0
 14 29  1  0  0  0  0
 15 16  1  0  0  0  0
 15 30  1  0  0  0  0
 15 31  1  0  0  0  0
 16 17  1  0  0  0  0
 16 32  1  0  0  0  0
 16 33  1  0  0  0  0
 17 18  1  0  0  0  0
 17 34  1  0  0  0  0
 17 35  1  0  0  0  0
 18 19  1  0  0  0  0
 18 36  1  0  0  0  0
 19 37  1  0  0  0  0
M  END
> <s_m_source_file>
AV-unprocessed.smi

> <i_m_source_file_index>
1843

> <i_lp_mmshare_version>
43012

> <i_f3d_flags>
0

> <s_epik_input>
W09IXVtDQEBIXTFbQ0gyXVtDSDJdW0NIMl1bQ0gyXVtDQEhdMVtOSF1DKD1PKVtOSF1jMm5uYyhzMilbQ0hdM1tDSDJdW0NIMl0z

> <s_epik_cmdline>
J2VwaWtfcHl0aG9uJywgJy1waCcsICc3LjAnLCAnLXRuJywgJzgnLCAnLW1hJywgJzIwMCcsICctbWV0YWxfYmluZGluZycsICctaW1hZScsICc8aW5maWxlLm1hZT4nLCAnLW9tYWUnLCAnPG91dGZpbGUubWFlPic=

> <r_lp_tautomer_probability>
1

> <r_epik_Ionization_Penalty>
0.000257313

> <r_epik_Ionization_Penalty_Charging>
0

> <r_epik_Ionization_Penalty_Neutral>
0.000257313

> <r_epik_State_Penalty>
-0

> <r_epik_Charging_Adjusted_Penalty>
0

> <i_epik_Tot_Q>
0

> <i_epik_Tot_abs_Q>
0

> <r_epik_Metal_State_Penalty>
0.147479

> <b_epik_Metal_Only>
0

> <s_lp_Force_Field>
OPLS_2005

> <r_lp_Energy>
7.85459

> <b_lp_Chiralities_Consistent>
1

> <s_lp_Variant>
AV-unprocessed.smi:1843-1

> <Gold.Version>
5.8.1

> <Gold.Id.Protein>
6NUR|6NUR_protein|mol2

> <Gold.PLP.Fitness>
40.7351

> <Gold.PLP.PLP>
-32.5714

> <Gold.PLP.part.hbond>
-7.6095

> <Gold.PLP.part.metal>
0.0000

> <Gold.PLP.part.buried>
-2.5106

> <Gold.PLP.part.nonpolar>
-23.1852

> <Gold.PLP.part.repulsive>
0.4097

> <Gold.PLP.ligand.clash>
0.0000

> <Gold.PLP.ligand.torsion>
0.1162

> <Gold.PLP.Chemscore.Hbond>
2.7550

> <Gold.PLP.Chemscore.CHOScore>
0.0000

> <Gold.PLP.Chemscore.Metal>
0.0000

> <Gold.Chemscore.Hbonds>
donor molecule, donor type, donor heavy atom, donor atom, acceptor molecule, acceptor atom, score
      L1  H     3    20       P1  7948  0.40
      L1  H    12    26       P1  7948  1.00
      L1  H    19    37       P1 10171  1.00

> <Gold.PLP.Chemscore.Internal.Correction>
0.1310

> <Gold.Rescore>
     Score         DG    S(hbond)    S(metal)    S(lipo)     H(rot)  DE(clash)    DE(int)     intcor
     16.68     -18.17       2.95        0.00      62.42       1.74       0.07       1.43       ----

> <Gold.Chemscore.Fitness>
16.6755

> <Gold.Chemscore.DG>
-18.1743

> <Gold.Chemscore.ZeroCoef>
-5.4800

> <Gold.Chemscore.Hbond>
2.9479

> <Gold.Chemscore.Metal>
0.0000

> <Gold.Chemscore.Lipo>
62.4244

> <Gold.Chemscore.Internal_Hbond>
0.0000

> <Gold.Chemscore.DEClash>
0.0716

> <Gold.Chemscore.DEInternal>
1.4271

> <Gold.Chemscore.Rot>
1.7404

> <Gold.Chemscore.Internal.Correction>
   9.000000E+99

> <Gold.Chemscore.Hbonds>
donor molecule, donor type, donor heavy atom, donor atom, acceptor molecule, acceptor atom, score
      L1  H     3    20       P1  7948  0.36
      L1  H    12    26       P1  7948  1.00
      L1  H    19    37       P1 10171  0.98
      P1  H  7954  7966       L1    19  0.03

> <Gold.Chemscore.Hbond.Weighted>
-9.8461

> <Gold.Chemscore.Metal.Weighted>
-0.0000

> <Gold.Chemscore.Lipo.Weighted>
-7.3037

> <Gold.Chemscore.Internal_Hbond.Weighted>
0.0000

> <Gold.Chemscore.DEClash.Weighted>
0.0716

> <Gold.Chemscore.DEInternal.Weighted>
1.4271

> <Gold.Chemscore.Rot.Weighted>
4.4555

> <Gold.Chemscore.Internal.Correction.Weighted>
   9.000000E+99

> <Gold.Protein.RotatedTorsions>
[ 6907 6896 6895 6894 ] final  148.36 input  -60.11 | X-H torsion
[ 7974 7965 7964 7962 ] final -109.86 input  175.53 | X-H torsion
[ 8008 7997 7996 7995 ] final  146.11 input   59.86 | X-H torsion
[ 10167 10162 10161 10158 ] final  -38.17 input  -65.29 | X-H torsion
[ 10718 10713 10712 10709 ] final   43.64 input   66.30 | X-H torsion
[ 10763 10752 10751 10750 ] final   11.29 input  -60.55 | X-H torsion
[ 11005 11000 10999 10996 ] final  115.93 input  -57.11 | X-H torsion

> <Gold.Protein.ActiveResidues>
 VAL166  LYS551  ARG553  GLY616  TRP617  ASP618  TYR619  PRO620  LYS621  CYS622 
 ASP623  PHE694  ASN695  SER759  ASP760  ASP761  ALA762  ILE779  LEU786  VAL792 
 PHE793  MET794  SER795  GLU796  ALA797  LYS798  CYS799  TRP800  GLU811  SER814 

> <Gold.Protein.RotatedAtoms>
  152.1426  133.4473  159.4773 H   0  0  0  0  0  0  0  0  0  0  0  0  # atno 6907 bound_to 6896
  150.6887  134.2287  159.4435 H   0  0  0  0  0  0  0  0  0  0  0  0  # atno 6908 bound_to 6896
  152.0179  134.9839  160.0620 H   0  0  0  0  0  0  0  0  0  0  0  0  # atno 6909 bound_to 6896
  145.1753  140.8945  143.3511 H   0  0  0  0  0  0  0  0  0  0  0  0  # atno 7974 bound_to 7965
  156.2865  140.2191  156.5323 H   0  0  0  0  0  0  0  0  0  0  0  0  # atno 8008 bound_to 7997
  154.7438  140.0485  157.0856 H   0  0  0  0  0  0  0  0  0  0  0  0  # atno 8009 bound_to 7997
  155.0196  140.3122  155.4801 H   0  0  0  0  0  0  0  0  0  0  0  0  # atno 8010 bound_to 7997
  140.7099  143.3294  151.2604 H   0  0  0  0  0  0  0  0  0  0  0  0  # atno 10167 bound_to 10162
  157.4182  130.7953  149.7491 H   0  0  0  0  0  0  0  0  0  0  0  0  # atno 10718 bound_to 10713
  153.1942  135.6846  153.8314 H   0  0  0  0  0  0  0  0  0  0  0  0  # atno 10763 bound_to 10752
  153.7602  135.3211  155.3337 H   0  0  0  0  0  0  0  0  0  0  0  0  # atno 10764 bound_to 10752
  154.8135  135.4702  154.0678 H   0  0  0  0  0  0  0  0  0  0  0  0  # atno 10765 bound_to 10752
  139.9025  134.9591  156.7120 H   0  0  0  0  0  0  0  0  0  0  0  0  # atno 11005 bound_to 11000
  145.0191  139.3440  143.6081 LP  0  0  0  0  0  0  0  0  0  0  0  0  # atno 17320 bound_to 7965
  146.3462  139.9484  142.8732 LP  0  0  0  0  0  0  0  0  0  0  0  0  # atno 17321 bound_to 7965
  139.6772  143.9918  152.2787 LP  0  0  0  0  0  0  0  0  0  0  0  0  # atno 17342 bound_to 10162
  139.9536  144.6604  150.8148 LP  0  0  0  0  0  0  0  0  0  0  0  0  # atno 17343 bound_to 10162
  155.9872  130.3969  150.3177 LP  0  0  0  0  0  0  0  0  0  0  0  0  # atno 17370 bound_to 10713
  157.1322  131.0275  151.2964 LP  0  0  0  0  0  0  0  0  0  0  0  0  # atno 17371 bound_to 10713
  140.7068  133.9258  155.8059 LP  0  0  0  0  0  0  0  0  0  0  0  0  # atno 17394 bound_to 11000
  141.0330  134.0729  157.3992 LP  0  0  0  0  0  0  0  0  0  0  0  0  # atno 17395 bound_to 11000

$$$$
