AV-unprocessed.smi:951|AV-procd|sdf|4252|dock4
  -GOLD-   22720 2163D 1   1.00000     0.00000
 Structure written by MMmdl.
 51 53  0  0  0  0  0  0  0  0  1 V2000
  150.8362  141.6504  158.3945 O   0  0  0  0  0  0  0  0  0  0  0  0
  151.5380  140.9378  157.6756 C   0  0  0  0  0  0  0  0  0  0  0  0
  152.5019  140.1376  158.1524 N   0  0  0  0  0  0  0  0  0  0  0  0
  152.8541  140.0244  159.5606 C   0  0  0  0  0  0  0  0  0  0  0  0
  153.7897  141.1675  159.9778 C   0  0  0  0  0  0  0  0  0  0  0  0
  153.0394  142.4616  160.2298 C   0  0  0  0  0  0  0  0  0  0  0  0
  152.7194  142.8656  161.5439 C   0  0  0  0  0  0  0  0  0  0  0  0
  152.0262  144.0785  161.7227 C   0  0  0  0  0  0  0  0  0  0  0  0
  151.6829  144.8373  160.5871 C   0  0  0  0  0  0  0  0  0  0  0  0
  152.0502  144.3478  159.3177 C   0  0  0  0  0  0  0  0  0  0  0  0
  152.7139  143.1858  159.1351 N   0  0  0  0  0  0  0  0  0  0  0  0
  151.3241  140.9136  156.1493 C   0  0  1  0  0  0  0  0  0  0  0  0
  152.2510  139.8652  155.5139 C   0  0  0  0  0  0  0  0  0  0  0  0
  151.5095  139.3963  154.2784 C   0  0  0  0  0  0  0  0  0  0  0  0
  150.0320  139.5471  154.6355 C   0  0  0  0  0  0  0  0  0  0  0  0
  149.9625  140.5404  155.7125 N   0  0  0  0  0  0  0  0  0  0  0  0
  148.8101  141.0970  156.1696 C   0  0  0  0  0  0  0  0  0  0  0  0
  148.8177  142.0329  156.9699 O   0  0  0  0  0  0  0  0  0  0  0  0
  147.4480  140.5544  155.6691 C   0  0  0  0  0  0  0  0  0  0  0  0
  147.2998  140.6877  154.1353 C   0  0  0  0  0  0  0  0  0  0  0  0
  146.9750  142.1211  153.6792 C   0  0  0  0  0  0  0  0  0  0  0  0
  145.7129  142.6479  154.3770 C   0  0  0  0  0  0  0  0  0  0  0  0
  145.8627  142.6003  155.9041 C   0  0  0  0  0  0  0  0  0  0  0  0
  146.2318  141.1857  156.3948 C   0  0  0  0  0  0  0  0  0  0  0  0
  153.0295  139.5789  157.4973 H   0  0  0  0  0  0  0  0  0  0  0  0
  151.9452  140.0477  160.1643 H   0  0  0  0  0  0  0  0  0  0  0  0
  153.3342  139.0602  159.7358 H   0  0  0  0  0  0  0  0  0  0  0  0
  154.3349  140.8940  160.8827 H   0  0  0  0  0  0  0  0  0  0  0  0
  154.5417  141.3345  159.2053 H   0  0  0  0  0  0  0  0  0  0  0  0
  152.9991  142.2633  162.3961 H   0  0  0  0  0  0  0  0  0  0  0  0
  151.7632  144.4206  162.7127 H   0  0  0  0  0  0  0  0  0  0  0  0
  151.1520  145.7724  160.6862 H   0  0  0  0  0  0  0  0  0  0  0  0
  151.8047  144.9040  158.4252 H   0  0  0  0  0  0  0  0  0  0  0  0
  151.5418  141.8971  155.7282 H   0  0  0  0  0  0  0  0  0  0  0  0
  153.2366  140.2677  155.2779 H   0  0  0  0  0  0  0  0  0  0  0  0
  152.3962  139.0111  156.1783 H   0  0  0  0  0  0  0  0  0  0  0  0
  151.7489  140.0582  153.4451 H   0  0  0  0  0  0  0  0  0  0  0  0
  151.7728  138.3807  153.9818 H   0  0  0  0  0  0  0  0  0  0  0  0
  149.4479  139.8386  153.7616 H   0  0  0  0  0  0  0  0  0  0  0  0
  149.6470  138.5952  155.0039 H   0  0  0  0  0  0  0  0  0  0  0  0
  147.3942  139.4944  155.9099 H   0  0  0  0  0  0  0  0  0  0  0  0
  148.2056  140.3435  153.6346 H   0  0  0  0  0  0  0  0  0  0  0  0
  146.5051  140.0211  153.7981 H   0  0  0  0  0  0  0  0  0  0  0  0
  147.8163  142.7828  153.8877 H   0  0  0  0  0  0  0  0  0  0  0  0
  146.8329  142.1398  152.5983 H   0  0  0  0  0  0  0  0  0  0  0  0
  145.5084  143.6695  154.0556 H   0  0  0  0  0  0  0  0  0  0  0  0
  144.8518  142.0505  154.0750 H   0  0  0  0  0  0  0  0  0  0  0  0
  146.6134  143.3238  156.2203 H   0  0  0  0  0  0  0  0  0  0  0  0
  144.9309  142.9166  156.3733 H   0  0  0  0  0  0  0  0  0  0  0  0
  145.3682  140.5356  156.2504 H   0  0  0  0  0  0  0  0  0  0  0  0
  146.4057  141.2067  157.4716 H   0  0  0  0  0  0  0  0  0  0  0  0
  1  2  2  0  0  0  0
  2  3  1  0  0  0  0
  2 12  1  0  0  0  0
  3  4  1  0  0  0  0
  3 25  1  0  0  0  0
  4  5  1  0  0  0  0
  4 26  1  0  0  0  0
  4 27  1  0  0  0  0
  5  6  1  0  0  0  0
  5 28  1  0  0  0  0
  5 29  1  0  0  0  0
  6 11  1  0  0  0  0
  6  7  2  0  0  0  0
  7  8  1  0  0  0  0
  7 30  1  0  0  0  0
  8  9  2  0  0  0  0
  8 31  1  0  0  0  0
  9 10  1  0  0  0  0
  9 32  1  0  0  0  0
 10 11  2  0  0  0  0
 10 33  1  0  0  0  0
 12 16  1  0  0  0  0
 12 13  1  0  0  0  0
 12 34  1  0  0  0  0
 13 14  1  0  0  0  0
 13 35  1  0  0  0  0
 13 36  1  0  0  0  0
 14 15  1  0  0  0  0
 14 37  1  0  0  0  0
 14 38  1  0  0  0  0
 15 16  1  0  0  0  0
 15 39  1  0  0  0  0
 15 40  1  0  0  0  0
 16 17  1  0  0  0  0
 17 18  2  0  0  0  0
 17 19  1  0  0  0  0
 19 24  1  0  0  0  0
 19 20  1  0  0  0  0
 19 41  1  0  0  0  0
 20 21  1  0  0  0  0
 20 42  1  0  0  0  0
 20 43  1  0  0  0  0
 21 22  1  0  0  0  0
 21 44  1  0  0  0  0
 21 45  1  0  0  0  0
 22 23  1  0  0  0  0
 22 46  1  0  0  0  0
 22 47  1  0  0  0  0
 23 24  1  0  0  0  0
 23 48  1  0  0  0  0
 23 49  1  0  0  0  0
 24 50  1  0  0  0  0
 24 51  1  0  0  0  0
M  END
> <s_m_source_file>
AV-unprocessed.smi

> <i_m_source_file_index>
951

> <i_lp_mmshare_version>
43012

> <i_f3d_flags>
0

> <s_epik_input>
bjFbY0hdW2NIXVtjSF1bY0hdYzFbQ0gyXVtDSDJdW05IXUMoPU8pW0NAQEhdMltDSDJdW0NIMl1bQ0gyXU4yQyg9TylbQ0hdM1tDSDJdW0NIMl1bQ0gyXVtDSDJdW0NIMl0z

> <s_epik_cmdline>
J2VwaWtfcHl0aG9uJywgJy1waCcsICc3LjAnLCAnLXRuJywgJzgnLCAnLW1hJywgJzIwMCcsICctbWV0YWxfYmluZGluZycsICctaW1hZScsICc8aW5maWxlLm1hZT4nLCAnLW9tYWUnLCAnPG91dGZpbGUubWFlPic=

> <r_epik_Ionization_Penalty>
0.0265505

> <r_epik_Ionization_Penalty_Charging>
0

> <r_epik_Ionization_Penalty_Neutral>
0.0265505

> <r_epik_State_Penalty>
0.02168

> <r_epik_Charging_Adjusted_Penalty>
0.02168

> <i_epik_Tot_Q>
0

> <i_epik_Tot_abs_Q>
0

> <r_epik_Metal_State_Penalty>
0.020746

> <b_epik_Metal_Only>
0

> <s_lp_Force_Field>
OPLS_2005

> <r_lp_Energy>
20.7073

> <b_lp_Chiralities_Consistent>
1

> <s_lp_Variant>
AV-unprocessed.smi:951-2

> <Gold.Version>
5.8.1

> <Gold.Id.Protein>
6NUR|6NUR_protein|mol2

> <Gold.PLP.Fitness>
47.4608

> <Gold.PLP.PLP>
-51.6632

> <Gold.PLP.part.hbond>
0.0000

> <Gold.PLP.part.metal>
0.0000

> <Gold.PLP.part.buried>
-7.5487

> <Gold.PLP.part.nonpolar>
-44.6605

> <Gold.PLP.part.repulsive>
1.1772

> <Gold.PLP.ligand.clash>
3.0648

> <Gold.PLP.ligand.torsion>
0.6158

> <Gold.PLP.Chemscore.Hbond>
0.0000

> <Gold.PLP.Chemscore.CHOScore>
0.0000

> <Gold.PLP.Chemscore.Metal>
0.0000

> <Gold.PLP.Chemscore.Internal.Correction>
0.0940

> <Gold.Rescore>
     Score         DG    S(hbond)    S(metal)    S(lipo)     H(rot)  DE(clash)    DE(int)     intcor
     10.04     -16.90       0.00        0.00     131.55       1.55       0.04       6.82       ----

> <Gold.Chemscore.Fitness>
10.0407

> <Gold.Chemscore.DG>
-16.9016

> <Gold.Chemscore.ZeroCoef>
-5.4800

> <Gold.Chemscore.Hbond>
0.0000

> <Gold.Chemscore.Metal>
0.0000

> <Gold.Chemscore.Lipo>
131.5473

> <Gold.Chemscore.Internal_Hbond>
0.0000

> <Gold.Chemscore.DEClash>
0.0368

> <Gold.Chemscore.DEInternal>
6.8241

> <Gold.Chemscore.Rot>
1.5506

> <Gold.Chemscore.Internal.Correction>
   9.000000E+99

> <Gold.Chemscore.Hbond.Weighted>
-0.0000

> <Gold.Chemscore.Metal.Weighted>
-0.0000

> <Gold.Chemscore.Lipo.Weighted>
-15.3910

> <Gold.Chemscore.Internal_Hbond.Weighted>
0.0000

> <Gold.Chemscore.DEClash.Weighted>
0.0368

> <Gold.Chemscore.DEInternal.Weighted>
6.8241

> <Gold.Chemscore.Rot.Weighted>
3.9695

> <Gold.Chemscore.Internal.Correction.Weighted>
   9.000000E+99

> <Gold.Protein.RotatedTorsions>
[ 6907 6896 6895 6894 ] final  112.65 input  -60.11 | X-H torsion
[ 7974 7965 7964 7962 ] final  172.47 input  175.53 | X-H torsion
[ 8008 7997 7996 7995 ] final   86.51 input   59.86 | X-H torsion
[ 10167 10162 10161 10158 ] final  -64.57 input  -65.29 | X-H torsion
[ 10718 10713 10712 10709 ] final   73.99 input   66.30 | X-H torsion
[ 10763 10752 10751 10750 ] final  -95.55 input  -60.55 | X-H torsion
[ 11005 11000 10999 10996 ] final  103.15 input  -57.11 | X-H torsion

> <Gold.Protein.ActiveResidues>
 VAL166  LYS551  ARG553  GLY616  TRP617  ASP618  TYR619  PRO620  LYS621  CYS622 
 ASP623  PHE694  ASN695  SER759  ASP760  ASP761  ALA762  ILE779  LEU786  VAL792 
 PHE793  MET794  SER795  GLU796  ALA797  LYS798  CYS799  TRP800  GLU811  SER814 

> <Gold.Protein.RotatedAtoms>
  152.4905  133.8487  159.7189 H   0  0  0  0  0  0  0  0  0  0  0  0  # atno 6907 bound_to 6896
  150.9030  133.7085  159.2881 H   0  0  0  0  0  0  0  0  0  0  0  0  # atno 6908 bound_to 6896
  151.4520  135.1035  159.9753 H   0  0  0  0  0  0  0  0  0  0  0  0  # atno 6909 bound_to 6896
  144.7267  139.9504  143.6432 H   0  0  0  0  0  0  0  0  0  0  0  0  # atno 7974 bound_to 7965
  155.9637  140.3391  155.6513 H   0  0  0  0  0  0  0  0  0  0  0  0  # atno 8008 bound_to 7997
  155.6765  140.0733  157.2519 H   0  0  0  0  0  0  0  0  0  0  0  0  # atno 8009 bound_to 7997
  154.4149  140.1682  156.1923 H   0  0  0  0  0  0  0  0  0  0  0  0  # atno 8010 bound_to 7997
  140.5792  143.2325  151.6378 H   0  0  0  0  0  0  0  0  0  0  0  0  # atno 10167 bound_to 10162
  157.6572  130.9656  150.1147 H   0  0  0  0  0  0  0  0  0  0  0  0  # atno 10718 bound_to 10713
  154.7159  135.5116  153.8737 H   0  0  0  0  0  0  0  0  0  0  0  0  # atno 10763 bound_to 10752
  153.0820  135.6634  154.0035 H   0  0  0  0  0  0  0  0  0  0  0  0  # atno 10764 bound_to 10752
  153.9867  135.3023  155.3395 H   0  0  0  0  0  0  0  0  0  0  0  0  # atno 10765 bound_to 10752
  139.8782  134.9252  156.5166 H   0  0  0  0  0  0  0  0  0  0  0  0  # atno 11005 bound_to 11000
  146.0716  139.3705  143.0519 LP  0  0  0  0  0  0  0  0  0  0  0  0  # atno 17320 bound_to 7965
  145.7960  140.9792  143.1024 LP  0  0  0  0  0  0  0  0  0  0  0  0  # atno 17321 bound_to 7965
  139.5160  144.3361  152.0782 LP  0  0  0  0  0  0  0  0  0  0  0  0  # atno 17342 bound_to 10162
  140.2509  144.4170  150.6222 LP  0  0  0  0  0  0  0  0  0  0  0  0  # atno 17343 bound_to 10162
  156.2034  130.3662  149.8759 LP  0  0  0  0  0  0  0  0  0  0  0  0  # atno 17370 bound_to 10713
  156.6657  130.8800  151.3554 LP  0  0  0  0  0  0  0  0  0  0  0  0  # atno 17371 bound_to 10713
  140.8481  133.8153  155.9141 LP  0  0  0  0  0  0  0  0  0  0  0  0  # atno 17394 bound_to 11000
  140.9171  134.2188  157.4950 LP  0  0  0  0  0  0  0  0  0  0  0  0  # atno 17395 bound_to 11000

$$$$
