AV-unprocessed.smi:977|AV-procd|sdf|4304|dock3
  -GOLD-   22720 2213D 1   1.00000     0.00000
 Structure written by MMmdl.
 37 38  0  0  0  0  0  0  0  0  1 V2000
  147.5241  141.5845  153.8623 C   0  0  0  0  0  0  0  0  0  0  0  0
  148.7556  140.7955  154.2107 C   0  0  0  0  0  0  0  0  0  0  0  0
  149.7421  141.3967  154.8598 N   0  0  0  0  0  0  0  0  0  0  0  0
  150.7745  140.4543  154.9874 O   0  0  0  0  0  0  0  0  0  0  0  0
  150.3826  139.2910  154.4053 C   0  0  0  0  0  0  0  0  0  0  0  0
  151.3572  138.1620  154.4210 C   0  0  0  0  0  0  0  0  0  0  0  0
  149.1141  139.4443  153.9292 C   0  0  0  0  0  0  0  0  0  0  0  0
  148.3884  138.4452  153.2339 N   0  0  0  0  0  0  0  0  0  0  0  0
  147.0549  138.3472  153.1276 C   0  0  0  0  0  0  0  0  0  0  0  0
  146.2496  139.1033  153.6701 O   0  0  0  0  0  0  0  0  0  0  0  0
  146.7023  137.3033  152.3638 N   0  0  0  0  0  0  0  0  0  0  0  0
  145.3338  136.9002  152.0431 C   0  0  2  0  0  0  0  0  0  0  0  0
  144.6116  136.5320  153.3476 C   0  0  0  0  0  0  0  0  0  0  0  0
  145.3337  135.7293  151.0376 C   0  0  2  0  0  0  0  0  0  0  0  0
  144.0021  134.9882  150.9012 C   0  0  0  0  0  0  0  0  0  0  0  0
  144.4510  133.6552  150.3495 C   0  0  0  0  0  0  0  0  0  0  0  0
  145.7576  133.4255  151.1039 C   0  0  0  0  0  0  0  0  0  0  0  0
  146.2539  134.7188  151.4430 O   0  0  0  0  0  0  0  0  0  0  0  0
  147.1061  141.2641  152.9080 H   0  0  0  0  0  0  0  0  0  0  0  0
  147.7429  142.6494  153.7787 H   0  0  0  0  0  0  0  0  0  0  0  0
  146.7541  141.4655  154.6243 H   0  0  0  0  0  0  0  0  0  0  0  0
  151.0380  137.3585  153.7569 H   0  0  0  0  0  0  0  0  0  0  0  0
  151.4543  137.7517  155.4261 H   0  0  0  0  0  0  0  0  0  0  0  0
  152.3421  138.4966  154.0953 H   0  0  0  0  0  0  0  0  0  0  0  0
  148.9334  137.6877  152.8486 H   0  0  0  0  0  0  0  0  0  0  0  0
  147.4403  136.7405  151.9668 H   0  0  0  0  0  0  0  0  0  0  0  0
  144.7972  137.7398  151.5974 H   0  0  0  0  0  0  0  0  0  0  0  0
  143.5716  136.2637  153.1602 H   0  0  0  0  0  0  0  0  0  0  0  0
  144.6114  137.3697  154.0456 H   0  0  0  0  0  0  0  0  0  0  0  0
  145.0890  135.6855  153.8421 H   0  0  0  0  0  0  0  0  0  0  0  0
  145.6433  136.0825  150.0522 H   0  0  0  0  0  0  0  0  0  0  0  0
  143.5366  134.8488  151.8780 H   0  0  0  0  0  0  0  0  0  0  0  0
  143.2914  135.5005  150.2520 H   0  0  0  0  0  0  0  0  0  0  0  0
  143.7227  132.8585  150.5036 H   0  0  0  0  0  0  0  0  0  0  0  0
  144.6440  133.7408  149.2793 H   0  0  0  0  0  0  0  0  0  0  0  0
  145.5759  132.8737  152.0269 H   0  0  0  0  0  0  0  0  0  0  0  0
  146.4815  132.8656  150.5115 H   0  0  0  0  0  0  0  0  0  0  0  0
  1  2  1  0  0  0  0
  1 19  1  0  0  0  0
  1 20  1  0  0  0  0
  1 21  1  0  0  0  0
  2  7  1  0  0  0  0
  2  3  2  0  0  0  0
  3  4  1  0  0  0  0
  4  5  1  0  0  0  0
  5  6  1  0  0  0  0
  5  7  2  0  0  0  0
  6 22  1  0  0  0  0
  6 23  1  0  0  0  0
  6 24  1  0  0  0  0
  7  8  1  0  0  0  0
  8  9  1  0  0  0  0
  8 25  1  0  0  0  0
  9 10  2  0  0  0  0
  9 11  1  0  0  0  0
 11 12  1  0  0  0  0
 11 26  1  0  0  0  0
 12 13  1  0  0  0  0
 12 14  1  0  0  0  0
 12 27  1  0  0  0  0
 13 28  1  0  0  0  0
 13 29  1  0  0  0  0
 13 30  1  0  0  0  0
 14 18  1  0  0  0  0
 14 15  1  0  0  0  0
 14 31  1  0  0  0  0
 15 16  1  0  0  0  0
 15 32  1  0  0  0  0
 15 33  1  0  0  0  0
 16 17  1  0  0  0  0
 16 34  1  0  0  0  0
 16 35  1  0  0  0  0
 17 18  1  0  0  0  0
 17 36  1  0  0  0  0
 17 37  1  0  0  0  0
M  END
> <s_m_source_file>
AV-unprocessed.smi

> <i_m_source_file_index>
977

> <i_lp_mmshare_version>
43012

> <i_f3d_flags>
0

> <s_epik_input>
W0NIM11jMW5vYyhbQ0gzXSljMVtOSF1DKD1PKVtOSF1bQ0BIXShbQ0gzXSlbQ0BASF0yW0NIMl1bQ0gyXVtDSDJdTzI=

> <s_epik_cmdline>
J2VwaWtfcHl0aG9uJywgJy1waCcsICc3LjAnLCAnLXRuJywgJzgnLCAnLW1hJywgJzIwMCcsICctbWV0YWxfYmluZGluZycsICctaW1hZScsICc8aW5maWxlLm1hZT4nLCAnLW9tYWUnLCAnPG91dGZpbGUubWFlPic=

> <r_lp_tautomer_probability>
1

> <r_epik_Ionization_Penalty>
3.41601e-05

> <r_epik_Ionization_Penalty_Charging>
0

> <r_epik_Ionization_Penalty_Neutral>
3.41601e-05

> <r_epik_State_Penalty>
-0

> <r_epik_Charging_Adjusted_Penalty>
0

> <i_epik_Tot_Q>
0

> <i_epik_Tot_abs_Q>
0

> <r_epik_Metal_State_Penalty>
-0

> <b_epik_Metal_Only>
0

> <s_lp_Force_Field>
OPLS_2005

> <r_lp_Energy>
19.4667

> <b_lp_Chiralities_Consistent>
1

> <s_lp_Variant>
AV-unprocessed.smi:977-1

> <Gold.Version>
5.8.1

> <Gold.Id.Protein>
6NUR|6NUR_protein|mol2

> <Gold.PLP.Fitness>
39.0889

> <Gold.PLP.PLP>
-32.3276

> <Gold.PLP.part.hbond>
-4.9726

> <Gold.PLP.part.metal>
0.0000

> <Gold.PLP.part.buried>
-1.3450

> <Gold.PLP.part.nonpolar>
-27.0131

> <Gold.PLP.part.repulsive>
0.9879

> <Gold.PLP.ligand.clash>
0.0000

> <Gold.PLP.ligand.torsion>
0.3660

> <Gold.PLP.Chemscore.Hbond>
2.4010

> <Gold.PLP.Chemscore.CHOScore>
0.0000

> <Gold.PLP.Chemscore.Metal>
0.0000

> <Gold.Chemscore.Hbonds>
donor molecule, donor type, donor heavy atom, donor atom, acceptor molecule, acceptor atom, score
      L1  H     8    25       P1  7948  0.96
      L1  H    11    26       P1  7948  1.00
      P1  H  7989  7998       L1     4  0.38

> <Gold.PLP.Chemscore.Internal.Correction>
0.2903

> <Gold.Rescore>
     Score         DG    S(hbond)    S(metal)    S(lipo)     H(rot)  DE(clash)    DE(int)     intcor
     15.34     -17.02       1.93        0.00      70.32       1.22       0.11       1.58       ----

> <Gold.Chemscore.Fitness>
15.3374

> <Gold.Chemscore.DG>
-17.0204

> <Gold.Chemscore.ZeroCoef>
-5.4800

> <Gold.Chemscore.Hbond>
1.9269

> <Gold.Chemscore.Metal>
0.0000

> <Gold.Chemscore.Lipo>
70.3236

> <Gold.Chemscore.Internal_Hbond>
0.0000

> <Gold.Chemscore.DEClash>
0.1063

> <Gold.Chemscore.DEInternal>
1.5767

> <Gold.Chemscore.Rot>
1.2200

> <Gold.Chemscore.Internal.Correction>
   9.000000E+99

> <Gold.Chemscore.Hbonds>
donor molecule, donor type, donor heavy atom, donor atom, acceptor molecule, acceptor atom, score
      L1  H     8    25       P1  7948  0.92
      L1  H    11    26       P1  7948  0.95

> <Gold.Chemscore.Hbond.Weighted>
-6.4357

> <Gold.Chemscore.Metal.Weighted>
-0.0000

> <Gold.Chemscore.Lipo.Weighted>
-8.2279

> <Gold.Chemscore.Internal_Hbond.Weighted>
0.0000

> <Gold.Chemscore.DEClash.Weighted>
0.1063

> <Gold.Chemscore.DEInternal.Weighted>
1.5767

> <Gold.Chemscore.Rot.Weighted>
3.1232

> <Gold.Chemscore.Internal.Correction.Weighted>
   9.000000E+99

> <Gold.Protein.RotatedTorsions>
[ 6907 6896 6895 6894 ] final  -83.67 input  -60.11 | X-H torsion
[ 7974 7965 7964 7962 ] final  -63.59 input  175.53 | X-H torsion
[ 8008 7997 7996 7995 ] final    8.50 input   59.86 | X-H torsion
[ 10167 10162 10161 10158 ] final  -40.47 input  -65.29 | X-H torsion
[ 10718 10713 10712 10709 ] final  -17.59 input   66.30 | X-H torsion
[ 10763 10752 10751 10750 ] final   -8.98 input  -60.55 | X-H torsion
[ 11005 11000 10999 10996 ] final -133.45 input  -57.11 | X-H torsion

> <Gold.Protein.ActiveResidues>
 VAL166  LYS551  ARG553  GLY616  TRP617  ASP618  TYR619  PRO620  LYS621  CYS622 
 ASP623  PHE694  ASN695  SER759  ASP760  ASP761  ALA762  ILE779  LEU786  VAL792 
 PHE793  MET794  SER795  GLU796  ALA797  LYS798  CYS799  TRP800  GLU811  SER814 

> <Gold.Protein.RotatedAtoms>
  150.6883  134.3476  159.4894 H   0  0  0  0  0  0  0  0  0  0  0  0  # atno 6907 bound_to 6896
  152.1321  134.9124  160.0567 H   0  0  0  0  0  0  0  0  0  0  0  0  # atno 6908 bound_to 6896
  152.0290  133.3895  159.4326 H   0  0  0  0  0  0  0  0  0  0  0  0  # atno 6909 bound_to 6896
  145.7772  140.8781  143.0349 H   0  0  0  0  0  0  0  0  0  0  0  0  # atno 7974 bound_to 7965
  154.7676  140.2796  155.6163 H   0  0  0  0  0  0  0  0  0  0  0  0  # atno 8008 bound_to 7997
  156.2928  140.2647  156.2398 H   0  0  0  0  0  0  0  0  0  0  0  0  # atno 8009 bound_to 7997
  154.9939  140.0373  157.2321 H   0  0  0  0  0  0  0  0  0  0  0  0  # atno 8010 bound_to 7997
  140.7033  143.3151  151.2929 H   0  0  0  0  0  0  0  0  0  0  0  0  # atno 10167 bound_to 10162
  156.5714  130.4750  149.6361 H   0  0  0  0  0  0  0  0  0  0  0  0  # atno 10718 bound_to 10713
  153.4482  135.7014  153.6125 H   0  0  0  0  0  0  0  0  0  0  0  0  # atno 10763 bound_to 10752
  153.4471  135.3766  155.2262 H   0  0  0  0  0  0  0  0  0  0  0  0  # atno 10764 bound_to 10752
  154.8728  135.3988  154.3891 H   0  0  0  0  0  0  0  0  0  0  0  0  # atno 10765 bound_to 10752
  140.9080  134.1605  157.4411 H   0  0  0  0  0  0  0  0  0  0  0  0  # atno 11005 bound_to 11000
  144.6802  139.9938  143.7484 LP  0  0  0  0  0  0  0  0  0  0  0  0  # atno 17320 bound_to 7965
  146.0110  139.3170  143.0870 LP  0  0  0  0  0  0  0  0  0  0  0  0  # atno 17321 bound_to 7965
  139.6587  144.0229  152.2677 LP  0  0  0  0  0  0  0  0  0  0  0  0  # atno 17342 bound_to 10162
  139.9789  144.6442  150.7919 LP  0  0  0  0  0  0  0  0  0  0  0  0  # atno 17343 bound_to 10162
  156.2711  130.7017  151.1815 LP  0  0  0  0  0  0  0  0  0  0  0  0  # atno 17370 bound_to 10713
  157.7347  131.0579  150.5509 LP  0  0  0  0  0  0  0  0  0  0  0  0  # atno 17371 bound_to 10713
  139.8752  134.9924  156.5596 LP  0  0  0  0  0  0  0  0  0  0  0  0  # atno 17394 bound_to 11000
  140.8147  133.8401  155.8841 LP  0  0  0  0  0  0  0  0  0  0  0  0  # atno 17395 bound_to 11000

$$$$
