#       Name:                AV-unprocessed.smi:1734
#       Creating user name   scv26
#       Creation time:       Fri Mar 27 08:19:22 2020


#       File generated by GOLD software.
#

@<TRIPOS>MOLECULE
AV-unprocessed.smi:1734
    58    60     1
SMALL
NO_CHARGES


@<TRIPOS>ATOM
      1 ****        -5.2181  -0.9446   0.9507 C.3            1 S1                 0.0000
      2 ****        -5.1201   0.5723   0.9717 C.ar           1 S1                 0.0000
      3 ****        -6.3039   1.3404   0.9598 C.ar           1 S1                 0.0000
      4 ****        -6.2120   2.7425   0.9767 C.ar           1 S1                 0.0000
      5 ****        -4.9316   3.3211   1.0049 C.ar           1 S1                 0.0000
      6 ****        -3.7953   2.5951   1.0168 N.ar           1 S1                 0.0000
      7 ****        -3.8662   1.2402   1.0013 C.ar           1 S1                 0.0000
      8 ****        -2.7092   0.4107   1.0165 N.am           1 S1                 0.0000
      9 ****        -1.4161   0.7791   1.0405 C.2            1 S1                 0.0000
     10 ****        -1.0031   1.9392   1.0327 O.2            1 S1                 0.0000
     11 ****        -0.6079  -0.2902   1.0696 N.am           1 S1                 0.0000
     12 ****         0.8505  -0.2336   1.0946 C.3            1 S1                 0.0000
     13 ****         1.4666   0.0795  -0.2992 C.3            1 S1                 0.0000
     14 ****         0.9215  -0.8564  -1.4236 C.3            1 S1                 0.0000
     15 ****         0.8996  -2.3583  -1.1251 C.3            1 S1                 0.0000
     16 ****         1.3436  -2.9920  -2.4394 C.3            1 S1                 0.0000
     17 ****         2.2317  -2.0291  -2.9800 O.3            1 S1                 0.0000
     18 ****         1.6327  -0.7562  -2.7860 C.3            1 S1                 0.0000
     19 ****         2.9304   0.2772  -0.3009 N.3            1 S1                 0.0000
     20 ****         3.3573   1.4415   0.4721 C.3            1 S1                 0.0000
     21 ****         4.8647   1.7025   0.3233 C.3            1 S1                 0.0000
     22 ****         5.5840   0.5413   0.7241 O.3            1 S1                 0.0000
     23 ****         5.2385  -0.6076  -0.0424 C.3            1 S1                 0.0000
     24 ****         3.7295  -0.8872   0.0750 C.3            1 S1                 0.0000
     25 ****        -6.2570  -1.2754   0.9668 H              1 S1                 0.0000
     26 ****        -4.7175  -1.3741   1.8188 H              1 S1                 0.0000
     27 ****        -4.7532  -1.3429   0.0484 H              1 S1                 0.0000
     28 ****        -7.2730   0.8637   0.9382 H              1 S1                 0.0000
     29 ****        -7.0992   3.3582   0.9683 H              1 S1                 0.0000
     30 ****        -4.8155   4.3947   1.0191 H              1 S1                 0.0000
     31 ****        -2.8912  -0.5818   1.0185 H              1 S1                 0.0000
     32 ****        -1.0280  -1.2080   1.0745 H              1 S1                 0.0000
     33 ****         1.1483   0.5081   1.8355 H              1 S1                 0.0000
     34 ****         1.2104  -1.1902   1.4714 H              1 S1                 0.0000
     35 ****         1.0591   1.0533  -0.5744 H              1 S1                 0.0000
     36 ****        -0.1130  -0.5589  -1.6019 H              1 S1                 0.0000
     37 ****         1.5939  -2.6291  -0.3324 H              1 S1                 0.0000
     38 ****        -0.0865  -2.7074  -0.8179 H              1 S1                 0.0000
     39 ****         1.8306  -3.9572  -2.2990 H              1 S1                 0.0000
     40 ****         0.4962  -3.1274  -3.1136 H              1 S1                 0.0000
     41 ****         0.9046  -0.5873  -3.5809 H              1 S1                 0.0000
     42 ****         2.3721   0.0415  -2.8512 H              1 S1                 0.0000
     43 ****         2.8045   2.3254   0.1520 H              1 S1                 0.0000
     44 ****         3.1373   1.2968   1.5296 H              1 S1                 0.0000
     45 ****         5.1142   1.9595  -0.7073 H              1 S1                 0.0000
     46 ****         5.1677   2.5433   0.9472 H              1 S1                 0.0000
     47 ****         5.5195  -0.4523  -1.0855 H              1 S1                 0.0000
     48 ****         5.8104  -1.4626   0.3181 H              1 S1                 0.0000
     49 ****         3.4968  -1.1896   1.0963 H              1 S1                 0.0000
     50 ****         3.5009  -1.7299  -0.5730 H              1 S1                 0.0000
     51 ****        -2.9062   3.0524   1.0369 LP             1 S1                 0.0000
     52 ****        -1.6510   2.7005   1.0067 LP             1 S1                 0.0000
     53 ****        -0.0198   2.1201   1.0524 LP             1 S1                 0.0000
     54 ****         2.3694  -2.1986  -3.9558 LP             1 S1                 0.0000
     55 ****         3.1119  -2.0700  -2.5071 LP             1 S1                 0.0000
     56 ****         3.1174   0.4419  -1.2693 LP             1 S1                 0.0000
     57 ****         5.3838   0.3567   1.6863 LP             1 S1                 0.0000
     58 ****         6.5624   0.7170   0.6150 LP             1 S1                 0.0000
@<TRIPOS>BOND
    1    1    2 1     
    2    1   25 1     
    3    1   26 1     
    4    1   27 1     
    5    2    7 ar    
    6    2    3 ar    
    7    3    4 ar    
    8    3   28 1     
    9    4    5 ar    
   10    4   29 1     
   11    5    6 ar    
   12    5   30 1     
   13    6    7 ar    
   14    7    8 1     
   15    8    9 am    
   16    8   31 1     
   17    9   10 2     
   18    9   11 am    
   19   11   12 1     
   20   11   32 1     
   21   12   13 1     
   22   12   33 1     
   23   12   34 1     
   24   13   14 1     
   25   13   19 1     
   26   13   35 1     
   27   14   18 1     
   28   14   15 1     
   29   14   36 1     
   30   15   16 1     
   31   15   37 1     
   32   15   38 1     
   33   16   17 1     
   34   16   39 1     
   35   16   40 1     
   36   17   18 1     
   37   18   41 1     
   38   18   42 1     
   39   19   24 1     
   40   19   20 1     
   41   20   21 1     
   42   20   43 1     
   43   20   44 1     
   44   21   22 1     
   45   21   45 1     
   46   21   46 1     
   47   22   23 1     
   48   23   24 1     
   49   23   47 1     
   50   23   48 1     
   51   24   49 1     
   52   24   50 1     
   53    6   51 1     
   54   10   52 1     
   55   10   53 1     
   56   17   54 1     
   57   17   55 1     
   58   19   56 1     
   59   22   57 1     
   60   22   58 1     
@<TRIPOS>SUBSTRUCTURE
      1 S1             1
@<TRIPOS>SET
LONE_PAIRS      STATIC     ATOMS    <user>   **** ""
8 51 52 53 54 55 56 57 58
DONOR_HYDROGENS      STATIC     ATOMS    <user>   **** ""
2 31 32
ATOM$BLUE        STATIC     ATOMS    COLORGROUP SYSTEM
8 51 52 53 54 55 56 57 58
ATOM$RED        STATIC     ATOMS    COLORGROUP SYSTEM
2 31 32
