#       Name:                AV-unprocessed.smi:2511
#       Creating user name   scv26
#       Creation time:       Fri Mar 27 13:52:45 2020


#       File generated by GOLD software.
#

@<TRIPOS>MOLECULE
AV-unprocessed.smi:2511
    45    46     1
SMALL
NO_CHARGES


@<TRIPOS>ATOM
      1 ****        -6.9140   0.9674   0.2374 N.am           1 S1                 0.0000
      2 ****        -6.4420  -0.2138   0.6503 C.2            1 S1                 0.0000
      3 ****        -7.1854  -1.1364   0.9811 O.2            1 S1                 0.0000
      4 ****        -4.9446  -0.3721   0.6479 C.ar           1 S1                 0.0000
      5 ****        -4.3716  -1.6634   0.6947 C.ar           1 S1                 0.0000
      6 ****        -2.9696  -1.7922   0.6986 C.ar           1 S1                 0.0000
      7 ****        -2.1746  -0.6230   0.6519 C.ar           1 S1                 0.0000
      8 ****        -0.7536  -0.6152   0.6642 N.am           1 S1                 0.0000
      9 ****         0.1002  -1.6028   0.3302 C.2            1 S1                 0.0000
     10 ****        -0.2369  -2.7223  -0.0483 O.2            1 S1                 0.0000
     11 ****         1.3995  -1.2647   0.4212 N.am           1 S1                 0.0000
     12 ****         2.5840  -2.0824   0.1377 C.3            1 S1                 0.0000
     13 ****         3.7922  -1.1740  -0.1602 C.3            1 S1                 0.0000
     14 ****         4.2939  -0.4442   1.0974 C.3            1 S1                 0.0000
     15 ****         4.6120  -1.4330   2.2299 C.3            1 S1                 0.0000
     16 ****         3.3971  -2.3220   2.5694 C.3            1 S1                 0.0000
     17 ****         3.7026  -3.3070   3.7167 C.3            1 S1                 0.0000
     18 ****         4.6793  -4.1474   3.3735 F              1 S1                 0.0000
     19 ****         4.0747  -2.6369   4.8074 F              1 S1                 0.0000
     20 ****         2.6116  -4.0128   4.0145 F              1 S1                 0.0000
     21 ****         2.9027  -3.0509   1.2992 C.3            1 S1                 0.0000
     22 ****        -2.8399   0.6192   0.6285 C.ar           1 S1                 0.0000
     23 ****        -4.1831   0.7488   0.6228 N.ar           1 S1                 0.0000
     24 ****        -7.9091   1.1352   0.2199 H              1 S1                 0.0000
     25 ****        -6.2666   1.6865  -0.0516 H              1 S1                 0.0000
     26 ****        -4.9898  -2.5489   0.7283 H              1 S1                 0.0000
     27 ****        -2.5389  -2.7798   0.7499 H              1 S1                 0.0000
     28 ****        -0.3295   0.2729   0.8896 H              1 S1                 0.0000
     29 ****         1.5900  -0.3183   0.7177 H              1 S1                 0.0000
     30 ****         2.3907  -2.6670  -0.7634 H              1 S1                 0.0000
     31 ****         4.6032  -1.7807  -0.5652 H              1 S1                 0.0000
     32 ****         3.5395  -0.4509  -0.9367 H              1 S1                 0.0000
     33 ****         5.1826   0.1391   0.8553 H              1 S1                 0.0000
     34 ****         3.5425   0.2699   1.4363 H              1 S1                 0.0000
     35 ****         5.4581  -2.0571   1.9392 H              1 S1                 0.0000
     36 ****         4.9292  -0.8781   3.1133 H              1 S1                 0.0000
     37 ****         2.5947  -1.6678   2.9142 H              1 S1                 0.0000
     38 ****         2.0286  -3.6591   1.5331 H              1 S1                 0.0000
     39 ****         3.6702  -3.7519   0.9690 H              1 S1                 0.0000
     40 ****        -2.2776   1.5414   0.6077 H              1 S1                 0.0000
     41 ****        -8.1775  -1.0162   0.9461 LP             1 S1                 0.0000
     42 ****        -6.7976  -2.0066   1.2850 LP             1 S1                 0.0000
     43 ****        -1.2068  -2.9528  -0.1261 LP             1 S1                 0.0000
     44 ****         0.4588  -3.4028  -0.2784 LP             1 S1                 0.0000
     45 ****        -4.6081   1.6537   0.6005 LP             1 S1                 0.0000
@<TRIPOS>BOND
    1    1    2 am    
    2    1   24 1     
    3    1   25 1     
    4    2    3 2     
    5    2    4 1     
    6    4   23 ar    
    7    4    5 ar    
    8    5    6 ar    
    9    5   26 1     
   10    6    7 ar    
   11    6   27 1     
   12    7    8 1     
   13    7   22 ar    
   14    8    9 am    
   15    8   28 1     
   16    9   10 2     
   17    9   11 am    
   18   11   12 1     
   19   11   29 1     
   20   12   21 1     
   21   12   13 1     
   22   12   30 1     
   23   13   14 1     
   24   13   31 1     
   25   13   32 1     
   26   14   15 1     
   27   14   33 1     
   28   14   34 1     
   29   15   16 1     
   30   15   35 1     
   31   15   36 1     
   32   16   17 1     
   33   16   21 1     
   34   16   37 1     
   35   17   18 1     
   36   17   19 1     
   37   17   20 1     
   38   21   38 1     
   39   21   39 1     
   40   22   23 ar    
   41   22   40 1     
   42    3   41 1     
   43    3   42 1     
   44   10   43 1     
   45   10   44 1     
   46   23   45 1     
@<TRIPOS>SUBSTRUCTURE
      1 S1             1
@<TRIPOS>SET
LONE_PAIRS      STATIC     ATOMS    <user>   **** ""
5 41 42 43 44 45
DONOR_HYDROGENS      STATIC     ATOMS    <user>   **** ""
4 24 25 28 29
ATOM$BLUE        STATIC     ATOMS    COLORGROUP SYSTEM
5 41 42 43 44 45
ATOM$RED        STATIC     ATOMS    COLORGROUP SYSTEM
4 24 25 28 29
