AV-unprocessed.smi:2505|AV-procd|sdf|9855|dock6
  -GOLD-   2272013483D 1   1.00000     0.00000
 Structure written by MMmdl.
 48 52  0  0  0  0  0  0  0  0  1 V2000
  145.8238  138.6157  153.5071 O   0  0  0  0  0  0  0  0  0  0  0  0
  146.7146  137.8925  153.0670 C   0  0  0  0  0  0  0  0  0  0  0  0
  148.0329  138.0961  153.2533 N   0  0  0  0  0  0  0  0  0  0  0  0
  148.6745  139.1200  153.9985 C   0  0  0  0  0  0  0  0  0  0  0  0
  148.0203  140.2223  154.6019 C   0  0  0  0  0  0  0  0  0  0  0  0
  148.7009  141.1493  155.3106 N   0  0  0  0  0  0  0  0  0  0  0  0
  150.0225  140.9841  155.4134 C   0  0  0  0  0  0  0  0  0  0  0  0
  150.7647  141.9960  156.2302 C   0  0  0  0  0  0  0  0  0  0  0  0
  151.6053  141.5705  157.4168 C   0  0  0  0  0  0  0  0  0  0  0  0
  150.3254  142.3259  157.6425 C   0  0  0  0  0  0  0  0  0  0  0  0
  150.7403  139.9760  154.9103 N   0  0  0  0  0  0  0  0  0  0  0  0
  150.0681  139.0439  154.2016 C   0  0  0  0  0  0  0  0  0  0  0  0
  146.4315  136.8298  152.2947 N   0  0  0  0  0  0  0  0  0  0  0  0
  145.1067  136.3353  151.8991 C   0  0  2  0  0  0  0  0  0  0  0  0
  144.1808  136.0019  153.0948 C   0  0  2  0  0  0  0  0  0  0  0  0
  144.4799  136.4155  154.5159 C   0  0  0  0  0  0  0  0  0  0  0  0
  145.1494  135.1688  155.1018 C   0  0  0  0  0  0  0  0  0  0  0  0
  145.5992  134.4273  153.9701 O   0  0  0  0  0  0  0  0  0  0  0  0
  144.6139  134.5520  152.9481 C   0  0  2  0  0  0  0  0  0  0  0  0
  145.1347  134.8346  151.5245 C   0  0  0  0  0  0  0  0  0  0  0  0
  146.4420  134.1646  151.0996 C   0  0  0  0  0  0  0  0  0  0  0  0
  146.0671  132.8158  150.4834 C   0  0  0  0  0  0  0  0  0  0  0  0
  144.6324  132.9832  149.9748 C   0  0  0  0  0  0  0  0  0  0  0  0
  144.2026  134.3921  150.3969 C   0  0  0  0  0  0  0  0  0  0  0  0
  148.6493  137.4659  152.7613 H   0  0  0  0  0  0  0  0  0  0  0  0
  146.9532  140.3698  154.5490 H   0  0  0  0  0  0  0  0  0  0  0  0
  151.1373  142.8085  155.6095 H   0  0  0  0  0  0  0  0  0  0  0  0
  151.6164  140.5145  157.6798 H   0  0  0  0  0  0  0  0  0  0  0  0
  152.5395  142.1023  157.5851 H   0  0  0  0  0  0  0  0  0  0  0  0
  150.4028  143.3631  157.9619 H   0  0  0  0  0  0  0  0  0  0  0  0
  149.4848  141.7724  158.0566 H   0  0  0  0  0  0  0  0  0  0  0  0
  150.6503  138.2310  153.7923 H   0  0  0  0  0  0  0  0  0  0  0  0
  147.2187  136.3400  151.8939 H   0  0  0  0  0  0  0  0  0  0  0  0
  144.6168  136.9393  151.1335 H   0  0  0  0  0  0  0  0  0  0  0  0
  143.1334  136.1257  152.8150 H   0  0  0  0  0  0  0  0  0  0  0  0
  145.1402  137.2799  154.5668 H   0  0  0  0  0  0  0  0  0  0  0  0
  143.5751  136.6686  155.0692 H   0  0  0  0  0  0  0  0  0  0  0  0
  145.9730  135.4109  155.7735 H   0  0  0  0  0  0  0  0  0  0  0  0
  144.4241  134.5680  155.6524 H   0  0  0  0  0  0  0  0  0  0  0  0
  143.8004  133.8301  153.0331 H   0  0  0  0  0  0  0  0  0  0  0  0
  146.9445  134.7757  150.3482 H   0  0  0  0  0  0  0  0  0  0  0  0
  147.1442  134.0415  151.9246 H   0  0  0  0  0  0  0  0  0  0  0  0
  146.7571  132.5270  149.6902 H   0  0  0  0  0  0  0  0  0  0  0  0
  146.0981  132.0371  151.2467 H   0  0  0  0  0  0  0  0  0  0  0  0
  144.5672  132.8587  148.8934 H   0  0  0  0  0  0  0  0  0  0  0  0
  143.9857  132.2331  150.4316 H   0  0  0  0  0  0  0  0  0  0  0  0
  143.1519  134.4155  150.6886 H   0  0  0  0  0  0  0  0  0  0  0  0
  144.3044  135.0671  149.5460 H   0  0  0  0  0  0  0  0  0  0  0  0
  1  2  2  0  0  0  0
  2  3  1  0  0  0  0
  2 13  1  0  0  0  0
  3  4  1  0  0  0  0
  3 25  1  0  0  0  0
  4 12  1  0  0  0  0
  4  5  2  0  0  0  0
  5  6  1  0  0  0  0
  5 26  1  0  0  0  0
  6  7  2  0  0  0  0
  7  8  1  0  0  0  0
  7 11  1  0  0  0  0
  8 10  1  0  0  0  0
  8  9  1  0  0  0  0
  8 27  1  0  0  0  0
  9 10  1  0  0  0  0
  9 28  1  0  0  0  0
  9 29  1  0  0  0  0
 10 30  1  0  0  0  0
 10 31  1  0  0  0  0
 11 12  2  0  0  0  0
 12 32  1  0  0  0  0
 13 14  1  0  0  0  0
 13 33  1  0  0  0  0
 14 20  1  0  0  0  0
 14 15  1  0  0  0  0
 14 34  1  0  0  0  0
 15 19  1  0  0  0  0
 15 16  1  0  0  0  0
 15 35  1  0  0  0  0
 16 17  1  0  0  0  0
 16 36  1  0  0  0  0
 16 37  1  0  0  0  0
 17 18  1  0  0  0  0
 17 38  1  0  0  0  0
 17 39  1  0  0  0  0
 18 19  1  0  0  0  0
 19 20  1  0  0  0  0
 19 40  1  0  0  0  0
 20 24  1  0  0  0  0
 20 21  1  0  0  0  0
 21 22  1  0  0  0  0
 21 41  1  0  0  0  0
 21 42  1  0  0  0  0
 22 23  1  0  0  0  0
 22 43  1  0  0  0  0
 22 44  1  0  0  0  0
 23 24  1  0  0  0  0
 23 45  1  0  0  0  0
 23 46  1  0  0  0  0
 24 47  1  0  0  0  0
 24 48  1  0  0  0  0
M  END
> <s_m_source_file>
AV-unprocessed.smi

> <i_m_source_file_index>
2505

> <i_lp_mmshare_version>
43012

> <i_f3d_flags>
0

> <s_epik_input>
W0NIMl0xW0NIMl1bQ0hdMWMobltjSF0yKW5bY0hdYzJbTkhdQyg9TylbTkhdW0NAQEhdM1tDQEBIXShbQ0gyXVtDSDJdTzQpW0NASF00QzM1W0NIMl1bQ0gyXVtDSDJdW0NIMl01

> <s_epik_cmdline>
J2VwaWtfcHl0aG9uJywgJy1waCcsICc3LjAnLCAnLXRuJywgJzgnLCAnLW1hJywgJzIwMCcsICctbWV0YWxfYmluZGluZycsICctaW1hZScsICc8aW5maWxlLm1hZT4nLCAnLW9tYWUnLCAnPG91dGZpbGUubWFlPic=

> <r_lp_tautomer_probability>
1

> <r_epik_Ionization_Penalty>
2.6075e-05

> <r_epik_Ionization_Penalty_Charging>
0

> <r_epik_Ionization_Penalty_Neutral>
2.6075e-05

> <r_epik_State_Penalty>
-0

> <r_epik_Charging_Adjusted_Penalty>
0

> <i_epik_Tot_Q>
0

> <i_epik_Tot_abs_Q>
0

> <r_epik_Metal_State_Penalty>
-0

> <b_epik_Metal_Only>
0

> <s_lp_Force_Field>
OPLS_2005

> <r_lp_Energy>
63.7277

> <b_lp_Chiralities_Consistent>
1

> <s_lp_Variant>
AV-unprocessed.smi:2505-3

> <Gold.Version>
5.8.1

> <Gold.Id.Protein>
6NUR|6NUR_protein|mol2

> <Gold.PLP.Fitness>
42.8272

> <Gold.PLP.PLP>
-34.2202

> <Gold.PLP.part.hbond>
-3.1311

> <Gold.PLP.part.metal>
0.0000

> <Gold.PLP.part.buried>
-4.9907

> <Gold.PLP.part.nonpolar>
-27.3770

> <Gold.PLP.part.repulsive>
1.2367

> <Gold.PLP.ligand.clash>
0.0000

> <Gold.PLP.ligand.torsion>
0.2458

> <Gold.PLP.Chemscore.Hbond>
2.9280

> <Gold.PLP.Chemscore.CHOScore>
0.0000

> <Gold.PLP.Chemscore.Metal>
0.0000

> <Gold.Chemscore.Hbonds>
donor molecule, donor type, donor heavy atom, donor atom, acceptor molecule, acceptor atom, score
      L1  H     3    25       P1  7948  1.00
      L1  H    13    33       P1  7948  0.93
      P1  H  7989  7998       L1    11  1.00

> <Gold.PLP.Chemscore.Internal.Correction>
0.3147

> <Gold.Rescore>
     Score         DG    S(hbond)    S(metal)    S(lipo)     H(rot)  DE(clash)    DE(int)     intcor
     15.65     -19.65       2.11        0.00      86.54       1.17       0.54       3.46       ----

> <Gold.Chemscore.Fitness>
15.6467

> <Gold.Chemscore.DG>
-19.6459

> <Gold.Chemscore.ZeroCoef>
-5.4800

> <Gold.Chemscore.Hbond>
2.1100

> <Gold.Chemscore.Metal>
0.0000

> <Gold.Chemscore.Lipo>
86.5385

> <Gold.Chemscore.Internal_Hbond>
0.0000

> <Gold.Chemscore.DEClash>
0.5403

> <Gold.Chemscore.DEInternal>
3.4589

> <Gold.Chemscore.Rot>
1.1744

> <Gold.Chemscore.Internal.Correction>
   9.000000E+99

> <Gold.Chemscore.Hbonds>
donor molecule, donor type, donor heavy atom, donor atom, acceptor molecule, acceptor atom, score
      L1  H     3    25       P1  7948  0.93
      L1  H    13    33       P1  7948  0.90
      P1  H  7989  7998       L1    11  0.07

> <Gold.Chemscore.Hbond.Weighted>
-7.0473

> <Gold.Chemscore.Metal.Weighted>
-0.0000

> <Gold.Chemscore.Lipo.Weighted>
-10.1250

> <Gold.Chemscore.Internal_Hbond.Weighted>
0.0000

> <Gold.Chemscore.DEClash.Weighted>
0.5403

> <Gold.Chemscore.DEInternal.Weighted>
3.4589

> <Gold.Chemscore.Rot.Weighted>
3.0064

> <Gold.Chemscore.Internal.Correction.Weighted>
   9.000000E+99

> <Gold.Protein.RotatedTorsions>
[ 6907 6896 6895 6894 ] final   49.57 input  -60.11 | X-H torsion
[ 7974 7965 7964 7962 ] final  123.25 input  175.53 | X-H torsion
[ 8008 7997 7996 7995 ] final  143.98 input   59.86 | X-H torsion
[ 10167 10162 10161 10158 ] final  -13.45 input  -65.29 | X-H torsion
[ 10718 10713 10712 10709 ] final  -25.11 input   66.30 | X-H torsion
[ 10763 10752 10751 10750 ] final  118.21 input  -60.55 | X-H torsion
[ 11005 11000 10999 10996 ] final  -40.59 input  -57.11 | X-H torsion

> <Gold.Protein.ActiveResidues>
 VAL166  LYS551  ARG553  GLY616  TRP617  ASP618  TYR619  PRO620  LYS621  CYS622 
 ASP623  PHE694  ASN695  SER759  ASP760  ASP761  ALA762  ILE779  LEU786  VAL792 
 PHE793  MET794  SER795  GLU796  ALA797  LYS798  CYS799  TRP800  GLU811  SER814 

> <Gold.Protein.RotatedAtoms>
  152.2922  134.7708  160.0375 H   0  0  0  0  0  0  0  0  0  0  0  0  # atno 6907 bound_to 6896
  151.8251  133.3395  159.3604 H   0  0  0  0  0  0  0  0  0  0  0  0  # atno 6908 bound_to 6896
  150.7235  134.5466  159.5818 H   0  0  0  0  0  0  0  0  0  0  0  0  # atno 6909 bound_to 6896
  145.0981  139.3538  143.4826 H   0  0  0  0  0  0  0  0  0  0  0  0  # atno 7974 bound_to 7965
  156.2918  140.2248  156.4980 H   0  0  0  0  0  0  0  0  0  0  0  0  # atno 8008 bound_to 7997
  154.7714  140.0466  157.1076 H   0  0  0  0  0  0  0  0  0  0  0  0  # atno 8009 bound_to 7997
  154.9869  140.3085  155.4926 H   0  0  0  0  0  0  0  0  0  0  0  0  # atno 8010 bound_to 7997
  140.7182  143.5425  150.9393 H   0  0  0  0  0  0  0  0  0  0  0  0  # atno 10167 bound_to 10162
  156.4687  130.4519  149.6883 H   0  0  0  0  0  0  0  0  0  0  0  0  # atno 10718 bound_to 10713
  153.5641  135.3515  155.2811 H   0  0  0  0  0  0  0  0  0  0  0  0  # atno 10763 bound_to 10752
  154.8691  135.4143  154.2798 H   0  0  0  0  0  0  0  0  0  0  0  0  # atno 10764 bound_to 10752
  153.3550  135.7057  153.6827 H   0  0  0  0  0  0  0  0  0  0  0  0  # atno 10765 bound_to 10752
  141.0185  133.6874  156.2342 H   0  0  0  0  0  0  0  0  0  0  0  0  # atno 11005 bound_to 11000
  146.3530  140.0845  142.8616 LP  0  0  0  0  0  0  0  0  0  0  0  0  # atno 17320 bound_to 7965
  145.0988  140.9332  143.4725 LP  0  0  0  0  0  0  0  0  0  0  0  0  # atno 17321 bound_to 7965
  139.9148  143.6676  152.3108 LP  0  0  0  0  0  0  0  0  0  0  0  0  # atno 17342 bound_to 10162
  139.7072  144.7626  151.1172 LP  0  0  0  0  0  0  0  0  0  0  0  0  # atno 17343 bound_to 10162
  156.3641  130.7497  151.2472 LP  0  0  0  0  0  0  0  0  0  0  0  0  # atno 17370 bound_to 10713
  157.7493  131.0342  150.4305 LP  0  0  0  0  0  0  0  0  0  0  0  0  # atno 17371 bound_to 10713
  140.6613  134.4965  157.5583 LP  0  0  0  0  0  0  0  0  0  0  0  0  # atno 17394 bound_to 11000
  139.9132  134.8301  156.1456 LP  0  0  0  0  0  0  0  0  0  0  0  0  # atno 17395 bound_to 11000

$$$$
