AV-unprocessed.smi:646|AV-procd|sdf|3166|dock3
  -GOLD-   22720 0 83D 1   1.00000     0.00000
 Structure written by MMmdl.
 44 45  0  0  0  0  0  0  0  0  1 V2000
  145.8054  137.1443  162.2499 C   0  0  0  0  0  0  0  0  0  0  0  0
  147.0604  137.3267  161.6063 O   0  0  0  0  0  0  0  0  0  0  0  0
  147.6904  136.1639  161.0516 C   0  0  2  0  0  0  0  0  0  0  0  0
  147.5963  134.9817  162.0248 C   0  0  0  0  0  0  0  0  0  0  0  0
  149.0582  136.5382  160.4486 C   0  0  0  0  0  0  0  0  0  0  0  0
  148.3034  136.9741  159.1943 C   0  0  1  0  0  0  0  0  0  0  0  0
  149.0084  136.6341  157.9651 N   0  0  0  0  0  0  0  0  0  0  0  0
  150.2559  137.0294  157.6725 C   0  0  0  0  0  0  0  0  0  0  0  0
  150.9799  137.6374  158.4604 O   0  0  0  0  0  0  0  0  0  0  0  0
  150.7463  136.7260  156.2579 C   0  0  0  0  0  0  0  0  0  0  0  0
  151.4878  137.9265  155.7275 C   0  0  0  0  0  0  0  0  0  0  0  0
  150.9846  138.9667  154.8945 C   0  0  0  0  0  0  0  0  0  0  0  0
  149.5977  139.1311  154.3429 C   0  0  0  0  0  0  0  0  0  0  0  0
  151.9157  139.8584  154.6003 N   0  0  0  0  0  0  0  0  0  0  0  0
  153.0796  139.4222  155.2401 O   0  0  0  0  0  0  0  0  0  0  0  0
  152.8007  138.2701  155.9010 C   0  0  0  0  0  0  0  0  0  0  0  0
  153.9304  137.6371  156.6403 C   0  0  0  0  0  0  0  0  0  0  0  0
  147.1806  135.9786  159.5853 C   0  0  0  0  0  0  0  0  0  0  0  0
  147.2876  134.5523  159.0097 C   0  0  0  0  0  0  0  0  0  0  0  0
  145.7483  136.4379  159.2919 C   0  0  0  0  0  0  0  0  0  0  0  0
  145.5343  138.0644  162.7675 H   0  0  0  0  0  0  0  0  0  0  0  0
  145.8284  136.3438  162.9885 H   0  0  0  0  0  0  0  0  0  0  0  0
  145.0140  136.9355  161.5302 H   0  0  0  0  0  0  0  0  0  0  0  0
  147.9832  134.0630  161.5853 H   0  0  0  0  0  0  0  0  0  0  0  0
  146.5638  134.7932  162.3197 H   0  0  0  0  0  0  0  0  0  0  0  0
  148.1785  135.1505  162.9303 H   0  0  0  0  0  0  0  0  0  0  0  0
  149.5983  137.3423  160.9475 H   0  0  0  0  0  0  0  0  0  0  0  0
  149.7037  135.6720  160.2922 H   0  0  0  0  0  0  0  0  0  0  0  0
  147.9895  138.0189  159.2539 H   0  0  0  0  0  0  0  0  0  0  0  0
  148.4866  136.1375  157.2579 H   0  0  0  0  0  0  0  0  0  0  0  0
  151.3845  135.8419  156.2811 H   0  0  0  0  0  0  0  0  0  0  0  0
  149.8937  136.4683  155.6285 H   0  0  0  0  0  0  0  0  0  0  0  0
  148.8475  138.9668  155.1163 H   0  0  0  0  0  0  0  0  0  0  0  0
  149.4118  138.4142  153.5429 H   0  0  0  0  0  0  0  0  0  0  0  0
  149.4394  140.1313  153.9376 H   0  0  0  0  0  0  0  0  0  0  0  0
  153.7683  136.5660  156.7601 H   0  0  0  0  0  0  0  0  0  0  0  0
  154.0352  138.0768  157.6319 H   0  0  0  0  0  0  0  0  0  0  0  0
  154.8706  137.7753  156.1061 H   0  0  0  0  0  0  0  0  0  0  0  0
  147.0743  134.5308  157.9404 H   0  0  0  0  0  0  0  0  0  0  0  0
  146.5818  133.8739  159.4902 H   0  0  0  0  0  0  0  0  0  0  0  0
  148.2826  134.1271  159.1419 H   0  0  0  0  0  0  0  0  0  0  0  0
  145.5027  136.3348  158.2343 H   0  0  0  0  0  0  0  0  0  0  0  0
  145.5958  137.4871  159.5456 H   0  0  0  0  0  0  0  0  0  0  0  0
  145.0200  135.8574  159.8586 H   0  0  0  0  0  0  0  0  0  0  0  0
  1  2  1  0  0  0  0
  1 21  1  0  0  0  0
  1 22  1  0  0  0  0
  1 23  1  0  0  0  0
  2  3  1  0  0  0  0
  3 18  1  0  0  0  0
  3  4  1  0  0  0  0
  3  5  1  0  0  0  0
  4 24  1  0  0  0  0
  4 25  1  0  0  0  0
  4 26  1  0  0  0  0
  5  6  1  0  0  0  0
  5 27  1  0  0  0  0
  5 28  1  0  0  0  0
  6  7  1  0  0  0  0
  6 18  1  0  0  0  0
  6 29  1  0  0  0  0
  7  8  1  0  0  0  0
  7 30  1  0  0  0  0
  8  9  2  0  0  0  0
  8 10  1  0  0  0  0
 10 11  1  0  0  0  0
 10 31  1  0  0  0  0
 10 32  1  0  0  0  0
 11 16  2  0  0  0  0
 11 12  1  0  0  0  0
 12 13  1  0  0  0  0
 12 14  2  0  0  0  0
 13 33  1  0  0  0  0
 13 34  1  0  0  0  0
 13 35  1  0  0  0  0
 14 15  1  0  0  0  0
 15 16  1  0  0  0  0
 16 17  1  0  0  0  0
 17 36  1  0  0  0  0
 17 37  1  0  0  0  0
 17 38  1  0  0  0  0
 18 19  1  0  0  0  0
 18 20  1  0  0  0  0
 19 39  1  0  0  0  0
 19 40  1  0  0  0  0
 19 41  1  0  0  0  0
 20 42  1  0  0  0  0
 20 43  1  0  0  0  0
 20 44  1  0  0  0  0
M  END
> <s_m_source_file>
AV-unprocessed.smi

> <i_m_source_file_index>
646

> <i_lp_mmshare_version>
43012

> <i_f3d_flags>
0

> <s_epik_input>
W0NIM11PW0NAQF0xKFtDSDNdKVtDSDJdW0NASF0oQzEoW0NIM10pW0NIM10pW05IXUMoPU8pW0NIMl1jMmMoW0NIM10pbm9jMltDSDNd

> <s_epik_cmdline>
J2VwaWtfcHl0aG9uJywgJy1waCcsICc3LjAnLCAnLXRuJywgJzgnLCAnLW1hJywgJzIwMCcsICctbWV0YWxfYmluZGluZycsICctaW1hZScsICc8aW5maWxlLm1hZT4nLCAnLW9tYWUnLCAnPG91dGZpbGUubWFlPic=

> <r_lp_tautomer_probability>
1

> <r_epik_Ionization_Penalty>
2.13169e-08

> <r_epik_Ionization_Penalty_Charging>
0

> <r_epik_Ionization_Penalty_Neutral>
2.13169e-08

> <r_epik_State_Penalty>
-0

> <r_epik_Charging_Adjusted_Penalty>
0

> <i_epik_Tot_Q>
0

> <i_epik_Tot_abs_Q>
0

> <r_epik_Metal_State_Penalty>
-0

> <b_epik_Metal_Only>
0

> <s_lp_Force_Field>
OPLS_2005

> <r_lp_Energy>
15.8314

> <b_lp_Chiralities_Consistent>
1

> <s_lp_Variant>
AV-unprocessed.smi:646-2

> <Gold.Version>
5.8.1

> <Gold.Id.Protein>
6NUR|6NUR_protein|mol2

> <Gold.PLP.Fitness>
35.2839

> <Gold.PLP.PLP>
-27.7203

> <Gold.PLP.part.hbond>
-4.0000

> <Gold.PLP.part.metal>
0.0000

> <Gold.PLP.part.buried>
-3.4978

> <Gold.PLP.part.nonpolar>
-20.2553

> <Gold.PLP.part.repulsive>
0.1299

> <Gold.PLP.ligand.clash>
0.0000

> <Gold.PLP.ligand.torsion>
1.0090

> <Gold.PLP.Chemscore.Hbond>
3.0658

> <Gold.PLP.Chemscore.CHOScore>
0.0000

> <Gold.PLP.Chemscore.Metal>
0.0000

> <Gold.Chemscore.Hbonds>
donor molecule, donor type, donor heavy atom, donor atom, acceptor molecule, acceptor atom, score
      P1  H  6931  6943       L1     2  0.25
      P1  H  6934  6947       L1     2  0.96
      P1  H  7989  7998       L1    14  0.87
      P1  H  7997  8008       L1    15  1.00

> <Gold.PLP.Chemscore.Internal.Correction>
0.3844

> <Gold.Rescore>
     Score         DG    S(hbond)    S(metal)    S(lipo)     H(rot)  DE(clash)    DE(int)     intcor
     16.25     -19.25       2.82        0.00      69.97       1.49       0.02       2.98       ----

> <Gold.Chemscore.Fitness>
16.2526

> <Gold.Chemscore.DG>
-19.2545

> <Gold.Chemscore.ZeroCoef>
-5.4800

> <Gold.Chemscore.Hbond>
2.8173

> <Gold.Chemscore.Metal>
0.0000

> <Gold.Chemscore.Lipo>
69.9704

> <Gold.Chemscore.Internal_Hbond>
0.0000

> <Gold.Chemscore.DEClash>
0.0239

> <Gold.Chemscore.DEInternal>
2.9781

> <Gold.Chemscore.Rot>
1.4928

> <Gold.Chemscore.Internal.Correction>
   9.000000E+99

> <Gold.Chemscore.Hbonds>
donor molecule, donor type, donor heavy atom, donor atom, acceptor molecule, acceptor atom, score
      P1  H  6931  6943       L1     2  0.01
      P1  H  6934  6947       L1     2  0.69
      P1  H  7989  7998       L1    14  0.80
      P1  H  7997  8008       L1    15  0.70

> <Gold.Chemscore.Hbond.Weighted>
-9.4097

> <Gold.Chemscore.Metal.Weighted>
-0.0000

> <Gold.Chemscore.Lipo.Weighted>
-8.1865

> <Gold.Chemscore.Internal_Hbond.Weighted>
0.0000

> <Gold.Chemscore.DEClash.Weighted>
0.0239

> <Gold.Chemscore.DEInternal.Weighted>
2.9781

> <Gold.Chemscore.Rot.Weighted>
3.8217

> <Gold.Chemscore.Internal.Correction.Weighted>
   9.000000E+99

> <Gold.Protein.RotatedTorsions>
[ 6907 6896 6895 6894 ] final  107.67 input  -60.11 | X-H torsion
[ 7974 7965 7964 7962 ] final -152.73 input  175.53 | X-H torsion
[ 8008 7997 7996 7995 ] final  -22.94 input   59.86 | X-H torsion
[ 10167 10162 10161 10158 ] final -146.21 input  -65.29 | X-H torsion
[ 10718 10713 10712 10709 ] final   66.13 input   66.30 | X-H torsion
[ 10763 10752 10751 10750 ] final  171.32 input  -60.55 | X-H torsion
[ 11005 11000 10999 10996 ] final  128.44 input  -57.11 | X-H torsion

> <Gold.Protein.ActiveResidues>
 VAL166  LYS551  ARG553  GLY616  TRP617  ASP618  TYR619  PRO620  LYS621  CYS622 
 ASP623  PHE694  ASN695  SER759  ASP760  ASP761  ALA762  ILE779  LEU786  VAL792 
 PHE793  MET794  SER795  GLU796  ALA797  LYS798  CYS799  TRP800  GLU811  SER814 

> <Gold.Protein.RotatedAtoms>
  152.5144  133.9200  159.7529 H   0  0  0  0  0  0  0  0  0  0  0  0  # atno 6907 bound_to 6896
  150.9574  133.6474  159.2767 H   0  0  0  0  0  0  0  0  0  0  0  0  # atno 6908 bound_to 6896
  151.3731  135.0931  159.9525 H   0  0  0  0  0  0  0  0  0  0  0  0  # atno 6909 bound_to 6896
  144.7778  140.4622  143.5861 H   0  0  0  0  0  0  0  0  0  0  0  0  # atno 7974 bound_to 7965
  154.4614  140.1994  156.0235 H   0  0  0  0  0  0  0  0  0  0  0  0  # atno 8008 bound_to 7997
  156.0847  140.3266  155.7709 H   0  0  0  0  0  0  0  0  0  0  0  0  # atno 8009 bound_to 7997
  155.5055  140.0557  157.2923 H   0  0  0  0  0  0  0  0  0  0  0  0  # atno 8010 bound_to 7997
  139.7735  143.8204  152.2628 H   0  0  0  0  0  0  0  0  0  0  0  0  # atno 10167 bound_to 10162
  157.6150  130.9251  150.0068 H   0  0  0  0  0  0  0  0  0  0  0  0  # atno 10718 bound_to 10713
  154.4102  135.2756  155.2042 H   0  0  0  0  0  0  0  0  0  0  0  0  # atno 10763 bound_to 10752
  154.4031  135.6040  153.5912 H   0  0  0  0  0  0  0  0  0  0  0  0  # atno 10764 bound_to 10752
  152.9831  135.5931  154.4382 H   0  0  0  0  0  0  0  0  0  0  0  0  # atno 10765 bound_to 10752
  139.9561  134.9612  156.9002 H   0  0  0  0  0  0  0  0  0  0  0  0  # atno 11005 bound_to 11000
  145.6135  139.1516  143.3062 LP  0  0  0  0  0  0  0  0  0  0  0  0  # atno 17320 bound_to 7965
  146.1969  140.6250  142.9120 LP  0  0  0  0  0  0  0  0  0  0  0  0  # atno 17321 bound_to 7965
  139.8245  144.7281  150.9529 LP  0  0  0  0  0  0  0  0  0  0  0  0  # atno 17342 bound_to 10162
  140.7815  143.4127  151.0966 LP  0  0  0  0  0  0  0  0  0  0  0  0  # atno 17343 bound_to 10162
  156.1268  130.3644  149.9797 LP  0  0  0  0  0  0  0  0  0  0  0  0  # atno 17370 bound_to 10713
  156.7866  130.9241  151.3646 LP  0  0  0  0  0  0  0  0  0  0  0  0  # atno 17371 bound_to 10713
  140.5607  134.0538  155.7398 LP  0  0  0  0  0  0  0  0  0  0  0  0  # atno 17394 bound_to 11000
  141.1232  133.9426  157.2688 LP  0  0  0  0  0  0  0  0  0  0  0  0  # atno 17395 bound_to 11000

$$$$
