AV-unprocessed.smi:2008|AV-procd|sdf|8143|dock8
  -GOLD-   2272010383D 1   1.00000     0.00000
 Structure written by MMmdl.
 46 47  0  0  0  0  0  0  0  0  2 V2000
  152.0186  141.1350  159.4032 C   0  0  0  0  0  0  0  0  0  0  0  0
  152.6699  140.6146  158.2492 O   0  0  0  0  0  0  0  0  0  0  0  0
  151.9024  140.3196  157.1411 C   0  0  0  0  0  0  0  0  0  0  0  0
  150.5947  140.8375  157.0682 C   0  0  0  0  0  0  0  0  0  0  0  0
  149.8091  140.5373  155.9396 C   0  0  0  0  0  0  0  0  0  0  0  0
  150.3472  139.7303  154.9162 C   0  0  0  0  0  0  0  0  0  0  0  0
  149.5142  139.4506  153.7965 N   0  0  0  0  0  0  0  0  0  0  0  0
  148.1982  139.1770  153.7540 C   0  0  0  0  0  0  0  0  0  0  0  0
  147.4499  139.0842  154.7260 O   0  0  0  0  0  0  0  0  0  0  0  0
  147.7805  139.0063  152.4915 N   0  0  0  0  0  0  0  0  0  0  0  0
  146.4047  138.7201  152.1006 C   0  0  0  0  0  0  0  0  0  0  0  0
  145.7752  137.6332  152.9949 C   0  0  0  0  0  0  0  0  0  0  0  0
  145.9969  136.2503  152.4910 N   0  3  2  0  0  0  0  0  0  0  0  0
  145.1078  135.9283  151.3416 C   0  0  0  0  0  0  0  0  0  0  0  0
  145.4936  134.5914  150.6890 C   0  0  0  0  0  0  0  0  0  0  0  0
  145.4871  133.4550  151.7169 C   0  0  0  0  0  0  0  0  0  0  0  0
  146.3960  133.8176  152.8993 C   0  0  0  0  0  0  0  0  0  0  0  0
  146.0193  135.1745  153.5326 C   0  0  2  0  0  0  0  0  0  0  0  0
  144.7212  135.0898  154.3640 C   0  0  0  0  0  0  0  0  0  0  0  0
  151.6730  139.2578  155.0847 C   0  0  0  0  0  0  0  0  0  0  0  0
  152.4315  139.5428  156.1645 N   0  0  0  0  0  0  0  0  0  0  0  0
  152.7577  141.3168  160.1833 H   0  0  0  0  0  0  0  0  0  0  0  0
  151.2856  140.4310  159.8000 H   0  0  0  0  0  0  0  0  0  0  0  0
  151.5243  142.0836  159.1885 H   0  0  0  0  0  0  0  0  0  0  0  0
  150.2011  141.4528  157.8639 H   0  0  0  0  0  0  0  0  0  0  0  0
  148.8030  140.9239  155.8649 H   0  0  0  0  0  0  0  0  0  0  0  0
  149.9834  139.4759  152.9030 H   0  0  0  0  0  0  0  0  0  0  0  0
  148.4582  139.0985  151.7485 H   0  0  0  0  0  0  0  0  0  0  0  0
  145.8098  139.6348  152.1289 H   0  0  0  0  0  0  0  0  0  0  0  0
  146.4351  138.3968  151.0608 H   0  0  0  0  0  0  0  0  0  0  0  0
  146.1310  137.7254  154.0213 H   0  0  0  0  0  0  0  0  0  0  0  0
  144.6989  137.8050  153.0367 H   0  0  0  0  0  0  0  0  0  0  0  0
  144.0673  135.9064  151.6672 H   0  0  0  0  0  0  0  0  0  0  0  0
  145.1796  136.7166  150.5912 H   0  0  0  0  0  0  0  0  0  0  0  0
  144.8056  134.3615  149.8747 H   0  0  0  0  0  0  0  0  0  0  0  0
  146.4849  134.6752  150.2415 H   0  0  0  0  0  0  0  0  0  0  0  0
  144.4699  133.2728  152.0650 H   0  0  0  0  0  0  0  0  0  0  0  0
  145.8262  132.5278  151.2534 H   0  0  0  0  0  0  0  0  0  0  0  0
  146.3666  133.0269  153.6500 H   0  0  0  0  0  0  0  0  0  0  0  0
  147.4287  133.8614  152.5501 H   0  0  0  0  0  0  0  0  0  0  0  0
  146.8253  135.4036  154.2285 H   0  0  0  0  0  0  0  0  0  0  0  0
  144.7836  134.2793  155.0908 H   0  0  0  0  0  0  0  0  0  0  0  0
  143.8435  134.9028  153.7460 H   0  0  0  0  0  0  0  0  0  0  0  0
  144.5421  136.0028  154.9309 H   0  0  0  0  0  0  0  0  0  0  0  0
  152.1658  138.6343  154.3572 H   0  0  0  0  0  0  0  0  0  0  0  0
  146.9290  136.2603  152.1017 H   0  0  0  0  0  0  0  0  0  0  0  0
  1  2  1  0  0  0  0
  1 22  1  0  0  0  0
  1 23  1  0  0  0  0
  1 24  1  0  0  0  0
  2  3  1  0  0  0  0
  3 21  1  0  0  0  0
  3  4  2  0  0  0  0
  4  5  1  0  0  0  0
  4 25  1  0  0  0  0
  5  6  2  0  0  0  0
  5 26  1  0  0  0  0
  6  7  1  0  0  0  0
  6 20  1  0  0  0  0
  7  8  1  0  0  0  0
  7 27  1  0  0  0  0
  8  9  2  0  0  0  0
  8 10  1  0  0  0  0
 10 11  1  0  0  0  0
 10 28  1  0  0  0  0
 11 12  1  0  0  0  0
 11 29  1  0  0  0  0
 11 30  1  0  0  0  0
 12 13  1  0  0  0  0
 12 31  1  0  0  0  0
 12 32  1  0  0  0  0
 13 18  1  0  0  0  0
 13 14  1  0  0  0  0
 13 46  1  0  0  0  0
 14 15  1  0  0  0  0
 14 33  1  0  0  0  0
 14 34  1  0  0  0  0
 15 16  1  0  0  0  0
 15 35  1  0  0  0  0
 15 36  1  0  0  0  0
 16 17  1  0  0  0  0
 16 37  1  0  0  0  0
 16 38  1  0  0  0  0
 17 18  1  0  0  0  0
 17 39  1  0  0  0  0
 17 40  1  0  0  0  0
 18 19  1  0  0  0  0
 18 41  1  0  0  0  0
 19 42  1  0  0  0  0
 19 43  1  0  0  0  0
 19 44  1  0  0  0  0
 20 21  2  0  0  0  0
 20 45  1  0  0  0  0
M  CHG  1  13   1
M  END
> <s_m_source_file>
AV-unprocessed.smi

> <i_m_source_file_index>
2008

> <i_lp_mmshare_version>
43012

> <i_f3d_flags>
0

> <s_epik_input>
W0NIM11PYzFbY0hdW2NIXWMoW2NIXW4xKVtOSF1DKD1PKVtOSF1bQ0gyXVtDSDJdTjJbQ0gyXVtDSDJdW0NIMl1bQ0gyXVtDQEhdMltDSDNd

> <s_epik_cmdline>
J2VwaWtfcHl0aG9uJywgJy1waCcsICc3LjAnLCAnLXRuJywgJzgnLCAnLW1hJywgJzIwMCcsICctbWV0YWxfYmluZGluZycsICctaW1hZScsICc8aW5maWxlLm1hZT4nLCAnLW9tYWUnLCAnPG91dGZpbGUubWFlPic=

> <r_lp_tautomer_probability>
1

> <r_epik_Ionization_Penalty>
0.00219526

> <r_epik_Ionization_Penalty_Charging>
0.00211816

> <r_epik_Ionization_Penalty_Neutral>
7.71003e-05

> <r_epik_State_Penalty>
0.00145254

> <r_epik_Charging_Adjusted_Penalty>
0.0035707

> <i_epik_Tot_Q>
1

> <i_epik_Tot_abs_Q>
1

> <r_epik_Metal_State_Penalty>
-0

> <b_epik_Metal_Only>
0

> <s_lp_Force_Field>
OPLS_2005

> <r_lp_Energy>
23.262

> <b_lp_Chiralities_Consistent>
1

> <s_lp_Variant>
AV-unprocessed.smi:2008-3

> <Gold.Version>
5.8.1

> <Gold.Id.Protein>
6NUR|6NUR_protein|mol2

> <Gold.PLP.Fitness>
46.9650

> <Gold.PLP.PLP>
-34.6854

> <Gold.PLP.part.hbond>
-5.1439

> <Gold.PLP.part.metal>
0.0000

> <Gold.PLP.part.buried>
-2.9267

> <Gold.PLP.part.nonpolar>
-26.2688

> <Gold.PLP.part.repulsive>
0.2926

> <Gold.PLP.ligand.clash>
0.0000

> <Gold.PLP.ligand.torsion>
1.0046

> <Gold.PLP.Chemscore.Hbond>
4.7440

> <Gold.PLP.Chemscore.CHOScore>
0.0000

> <Gold.PLP.Chemscore.Metal>
0.0000

> <Gold.Chemscore.Hbonds>
donor molecule, donor type, donor heavy atom, donor atom, acceptor molecule, acceptor atom, score
      L1  H     7    27       P1  7957  0.77
      L1  H    10    28       P1  7957  0.91
      L1  H    13    46       P1  7948  2.00
      P1  H  7997  8010       L1    21  0.66

> <Gold.PLP.Chemscore.Internal.Correction>
0.0568

> <Gold.Rescore>
     Score         DG    S(hbond)    S(metal)    S(lipo)     H(rot)  DE(clash)    DE(int)     intcor
     17.83     -21.10       3.57        0.00      68.99       1.71       0.02       3.25       ----

> <Gold.Chemscore.Fitness>
17.8273

> <Gold.Chemscore.DG>
-21.0970

> <Gold.Chemscore.ZeroCoef>
-5.4800

> <Gold.Chemscore.Hbond>
3.5702

> <Gold.Chemscore.Metal>
0.0000

> <Gold.Chemscore.Lipo>
68.9908

> <Gold.Chemscore.Internal_Hbond>
0.0000

> <Gold.Chemscore.DEClash>
0.0210

> <Gold.Chemscore.DEInternal>
3.2487

> <Gold.Chemscore.Rot>
1.7107

> <Gold.Chemscore.Internal.Correction>
   9.000000E+99

> <Gold.Chemscore.Hbonds>
donor molecule, donor type, donor heavy atom, donor atom, acceptor molecule, acceptor atom, score
      L1  H     7    27       P1  7957  0.76
      L1  H    10    28       P1  7957  0.80
      L1  H    13    46       P1  7948  0.94
      P1  H  7997  8010       L1    21  0.06

> <Gold.Chemscore.Hbond.Weighted>
-11.9245

> <Gold.Chemscore.Metal.Weighted>
-0.0000

> <Gold.Chemscore.Lipo.Weighted>
-8.0719

> <Gold.Chemscore.Internal_Hbond.Weighted>
0.0000

> <Gold.Chemscore.DEClash.Weighted>
0.0210

> <Gold.Chemscore.DEInternal.Weighted>
3.2487

> <Gold.Chemscore.Rot.Weighted>
4.3794

> <Gold.Chemscore.Internal.Correction.Weighted>
   9.000000E+99

> <Gold.Protein.RotatedTorsions>
[ 6907 6896 6895 6894 ] final  -41.80 input  -60.11 | X-H torsion
[ 7974 7965 7964 7962 ] final -157.02 input  175.53 | X-H torsion
[ 8008 7997 7996 7995 ] final   61.25 input   59.86 | X-H torsion
[ 10167 10162 10161 10158 ] final    9.79 input  -65.29 | X-H torsion
[ 10718 10713 10712 10709 ] final   49.42 input   66.30 | X-H torsion
[ 10763 10752 10751 10750 ] final   15.72 input  -60.55 | X-H torsion
[ 11005 11000 10999 10996 ] final  117.97 input  -57.11 | X-H torsion

> <Gold.Protein.ActiveResidues>
 VAL166  LYS551  ARG553  GLY616  TRP617  ASP618  TYR619  PRO620  LYS621  CYS622 
 ASP623  PHE694  ASN695  SER759  ASP760  ASP761  ALA762  ILE779  LEU786  VAL792 
 PHE793  MET794  SER795  GLU796  ALA797  LYS798  CYS799  TRP800  GLU811  SER814 

> <Gold.Protein.RotatedAtoms>
  150.9625  134.9011  159.7738 H   0  0  0  0  0  0  0  0  0  0  0  0  # atno 6907 bound_to 6896
  152.5161  134.3653  159.9309 H   0  0  0  0  0  0  0  0  0  0  0  0  # atno 6908 bound_to 6896
  151.3665  133.3830  159.2730 H   0  0  0  0  0  0  0  0  0  0  0  0  # atno 6909 bound_to 6896
  144.7567  140.4027  143.6007 H   0  0  0  0  0  0  0  0  0  0  0  0  # atno 7974 bound_to 7965
  155.5954  140.3493  155.4578 H   0  0  0  0  0  0  0  0  0  0  0  0  # atno 8008 bound_to 7997
  156.0269  140.1266  157.0323 H   0  0  0  0  0  0  0  0  0  0  0  0  # atno 8009 bound_to 7997
  154.4337  140.1051  156.6030 H   0  0  0  0  0  0  0  0  0  0  0  0  # atno 8010 bound_to 7997
  140.6234  143.8155  150.7202 H   0  0  0  0  0  0  0  0  0  0  0  0  # atno 10167 bound_to 10162
  157.4785  130.8300  149.8066 H   0  0  0  0  0  0  0  0  0  0  0  0  # atno 10718 bound_to 10713
  153.1499  135.6776  153.8898 H   0  0  0  0  0  0  0  0  0  0  0  0  # atno 10763 bound_to 10752
  153.8328  135.3115  155.3421 H   0  0  0  0  0  0  0  0  0  0  0  0  # atno 10764 bound_to 10752
  154.7854  135.4865  154.0020 H   0  0  0  0  0  0  0  0  0  0  0  0  # atno 10765 bound_to 10752
  139.9093  134.9616  156.7432 H   0  0  0  0  0  0  0  0  0  0  0  0  # atno 11005 bound_to 11000
  145.6757  139.1608  143.2729 LP  0  0  0  0  0  0  0  0  0  0  0  0  # atno 17320 bound_to 7965
  146.1584  140.6824  142.9289 LP  0  0  0  0  0  0  0  0  0  0  0  0  # atno 17321 bound_to 7965
  140.1750  143.4162  152.1974 LP  0  0  0  0  0  0  0  0  0  0  0  0  # atno 17342 bound_to 10162
  139.5458  144.7297  151.4588 LP  0  0  0  0  0  0  0  0  0  0  0  0  # atno 17343 bound_to 10162
  156.0109  130.3834  150.2268 LP  0  0  0  0  0  0  0  0  0  0  0  0  # atno 17370 bound_to 10713
  157.0454  131.0047  151.3270 LP  0  0  0  0  0  0  0  0  0  0  0  0  # atno 17371 bound_to 10713
  140.6832  133.9455  155.7923 LP  0  0  0  0  0  0  0  0  0  0  0  0  # atno 17394 bound_to 11000
  141.0495  134.0506  157.3802 LP  0  0  0  0  0  0  0  0  0  0  0  0  # atno 17395 bound_to 11000

$$$$
