AV-unprocessed.smi:2955|AV-procd|sdf|11303|dock10
  -GOLD-   2272016203D 1   1.00000     0.00000
 Structure written by MMmdl.
 46 48  0  0  0  0  0  0  0  0  2 V2000
  147.6977  136.0525  161.8440 C   0  0  0  0  0  0  0  0  0  0  0  0
  148.2009  135.9004  160.4234 C   0  0  0  0  0  0  0  0  0  0  0  0
  147.8596  134.7627  159.6650 C   0  0  0  0  0  0  0  0  0  0  0  0
  148.3303  134.6310  158.3458 C   0  0  0  0  0  0  0  0  0  0  0  0
  149.1415  135.6348  157.7839 C   0  0  0  0  0  0  0  0  0  0  0  0
  149.4938  136.7789  158.5285 C   0  0  0  0  0  0  0  0  0  0  0  0
  150.2929  137.7108  157.9014 O   0  0  0  0  0  0  0  0  0  0  0  0
  150.5957  138.9117  158.5960 C   0  0  0  0  0  0  0  0  0  0  0  0
  151.6118  139.7077  157.7698 C   0  0  0  0  0  0  0  0  0  0  0  0
  151.2077  141.1122  157.6199 N   0  0  0  0  0  0  0  0  0  0  0  0
  150.3203  141.6920  156.7591 C   0  0  0  0  0  0  0  0  0  0  0  0
  149.4883  141.0027  155.7165 C   0  0  2  0  0  0  0  0  0  0  0  0
  150.3504  140.0790  154.8437 C   0  0  0  0  0  0  0  0  0  0  0  0
  148.7833  141.9600  154.8735 N   0  0  0  0  0  0  0  0  0  0  0  0
  147.9247  141.6193  153.9045 C   0  0  0  0  0  0  0  0  0  0  0  0
  147.6480  140.4544  153.6320 O   0  0  0  0  0  0  0  0  0  0  0  0
  150.3015  143.0262  157.0435 N   0  3  0  0  0  0  0  0  0  0  0  0
  151.2000  143.3053  158.0732 C   0  0  0  0  0  0  0  0  0  0  0  0
  151.5325  144.5066  158.6915 C   0  0  0  0  0  0  0  0  0  0  0  0
  152.5011  144.4444  159.7149 C   0  0  0  0  0  0  0  0  0  0  0  0
  153.0987  143.2226  160.0868 C   0  0  0  0  0  0  0  0  0  0  0  0
  152.7520  142.0109  159.4534 C   0  0  0  0  0  0  0  0  0  0  0  0
  151.7909  142.0807  158.4448 C   0  0  0  0  0  0  0  0  0  0  0  0
  149.0140  136.9041  159.8574 C   0  0  0  0  0  0  0  0  0  0  0  0
  147.1586  135.1636  162.1733 H   0  0  0  0  0  0  0  0  0  0  0  0
  147.0236  136.9063  161.9155 H   0  0  0  0  0  0  0  0  0  0  0  0
  148.5325  136.2152  162.5262 H   0  0  0  0  0  0  0  0  0  0  0  0
  147.2371  133.9889  160.0900 H   0  0  0  0  0  0  0  0  0  0  0  0
  148.0691  133.7594  157.7640 H   0  0  0  0  0  0  0  0  0  0  0  0
  149.4988  135.5246  156.7705 H   0  0  0  0  0  0  0  0  0  0  0  0
  149.6909  139.5038  158.7420 H   0  0  0  0  0  0  0  0  0  0  0  0
  151.0182  138.6835  159.5761 H   0  0  0  0  0  0  0  0  0  0  0  0
  152.5894  139.6878  158.2511 H   0  0  0  0  0  0  0  0  0  0  0  0
  151.7520  139.2646  156.7837 H   0  0  0  0  0  0  0  0  0  0  0  0
  148.7477  140.3762  156.2153 H   0  0  0  0  0  0  0  0  0  0  0  0
  150.8591  139.3304  155.4520 H   0  0  0  0  0  0  0  0  0  0  0  0
  151.1110  140.6352  154.2945 H   0  0  0  0  0  0  0  0  0  0  0  0
  149.7386  139.5472  154.1141 H   0  0  0  0  0  0  0  0  0  0  0  0
  148.9595  142.9412  155.0343 H   0  0  0  0  0  0  0  0  0  0  0  0
  147.5083  142.5022  153.3943 H   0  0  0  0  0  0  0  0  0  0  0  0
  151.0772  145.4439  158.4070 H   0  0  0  0  0  0  0  0  0  0  0  0
  152.7922  145.3519  160.2239 H   0  0  0  0  0  0  0  0  0  0  0  0
  153.8382  143.2140  160.8745 H   0  0  0  0  0  0  0  0  0  0  0  0
  153.2181  141.0816  159.7458 H   0  0  0  0  0  0  0  0  0  0  0  0
  149.2566  137.7638  160.4633 H   0  0  0  0  0  0  0  0  0  0  0  0
  149.7161  143.6962  156.5615 H   0  0  0  0  0  0  0  0  0  0  0  0
  1  2  1  0  0  0  0
  1 25  1  0  0  0  0
  1 26  1  0  0  0  0
  1 27  1  0  0  0  0
  2 24  1  0  0  0  0
  2  3  2  0  0  0  0
  3  4  1  0  0  0  0
  3 28  1  0  0  0  0
  4  5  2  0  0  0  0
  4 29  1  0  0  0  0
  5  6  1  0  0  0  0
  5 30  1  0  0  0  0
  6  7  1  0  0  0  0
  6 24  2  0  0  0  0
  7  8  1  0  0  0  0
  8  9  1  0  0  0  0
  8 31  1  0  0  0  0
  8 32  1  0  0  0  0
  9 10  1  0  0  0  0
  9 33  1  0  0  0  0
  9 34  1  0  0  0  0
 10 23  1  0  0  0  0
 10 11  1  0  0  0  0
 11 12  1  0  0  0  0
 11 17  2  0  0  0  0
 12 13  1  0  0  0  0
 12 14  1  0  0  0  0
 12 35  1  0  0  0  0
 13 36  1  0  0  0  0
 13 37  1  0  0  0  0
 13 38  1  0  0  0  0
 14 15  1  0  0  0  0
 14 39  1  0  0  0  0
 15 16  2  0  0  0  0
 15 40  1  0  0  0  0
 17 18  1  0  0  0  0
 17 46  1  0  0  0  0
 18 23  2  0  0  0  0
 18 19  1  0  0  0  0
 19 20  2  0  0  0  0
 19 41  1  0  0  0  0
 20 21  1  0  0  0  0
 20 42  1  0  0  0  0
 21 22  2  0  0  0  0
 21 43  1  0  0  0  0
 22 23  1  0  0  0  0
 22 44  1  0  0  0  0
 24 45  1  0  0  0  0
M  CHG  1  17   1
M  END
> <s_m_source_file>
AV-unprocessed.smi

> <i_m_source_file_index>
2955

> <i_lp_mmshare_version>
43012

> <i_f3d_flags>
0

> <s_epik_input>
W0NIM11jMVtjSF1bY0hdW2NIXWMoW2NIXTEpT1tDSDJdW0NIMl1uKGMobjIpW0NASF0oW0NIM10pW05IXVtDSF09TyljKGMyMylbY0hdW2NIXVtjSF1bY0hdMw==

> <s_epik_cmdline>
J2VwaWtfcHl0aG9uJywgJy1waCcsICc3LjAnLCAnLXRuJywgJzgnLCAnLW1hJywgJzIwMCcsICctbWV0YWxfYmluZGluZycsICctaW1hZScsICc8aW5maWxlLm1hZT4nLCAnLW9tYWUnLCAnPG91dGZpbGUubWFlPic=

> <r_lp_tautomer_probability>
1

> <r_epik_Ionization_Penalty>
1.15027

> <r_epik_Ionization_Penalty_Charging>
1.15027

> <r_epik_Ionization_Penalty_Neutral>
5.5802e-08

> <r_epik_State_Penalty>
1.21159

> <r_epik_Charging_Adjusted_Penalty>
2.36186

> <i_epik_Tot_Q>
1

> <i_epik_Tot_abs_Q>
1

> <r_epik_Metal_State_Penalty>
1.29223

> <b_epik_Metal_Only>
0

> <s_lp_Force_Field>
OPLS_2005

> <r_lp_Energy>
18.7975

> <b_lp_Chiralities_Consistent>
1

> <s_lp_Variant>
AV-unprocessed.smi:2955-3

> <Gold.Version>
5.8.1

> <Gold.Id.Protein>
6NUR|6NUR_protein|mol2

> <Gold.PLP.Fitness>
55.1334

> <Gold.PLP.PLP>
-47.6802

> <Gold.PLP.part.hbond>
-2.0000

> <Gold.PLP.part.metal>
0.0000

> <Gold.PLP.part.buried>
-4.8922

> <Gold.PLP.part.nonpolar>
-40.8722

> <Gold.PLP.part.repulsive>
0.3642

> <Gold.PLP.ligand.clash>
0.0000

> <Gold.PLP.ligand.torsion>
0.8351

> <Gold.PLP.Chemscore.Hbond>
3.0000

> <Gold.PLP.Chemscore.CHOScore>
0.0000

> <Gold.PLP.Chemscore.Metal>
0.0000

> <Gold.Chemscore.Hbonds>
donor molecule, donor type, donor heavy atom, donor atom, acceptor molecule, acceptor atom, score
      L1  H    14    39       P1  8028  1.00
      L1  H    17    46       P1  8028  2.00

> <Gold.PLP.Chemscore.Internal.Correction>
0.1235

> <Gold.Rescore>
     Score         DG    S(hbond)    S(metal)    S(lipo)     H(rot)  DE(clash)    DE(int)     intcor
     19.52     -20.40       1.97        0.00     122.08       2.32       0.00       0.88       ----

> <Gold.Chemscore.Fitness>
19.5230

> <Gold.Chemscore.DG>
-20.4028

> <Gold.Chemscore.ZeroCoef>
-5.4800

> <Gold.Chemscore.Hbond>
1.9713

> <Gold.Chemscore.Metal>
0.0000

> <Gold.Chemscore.Lipo>
122.0814

> <Gold.Chemscore.Internal_Hbond>
0.0000

> <Gold.Chemscore.DEClash>
0.0038

> <Gold.Chemscore.DEInternal>
0.8760

> <Gold.Chemscore.Rot>
2.3223

> <Gold.Chemscore.Internal.Correction>
   9.000000E+99

> <Gold.Chemscore.Hbonds>
donor molecule, donor type, donor heavy atom, donor atom, acceptor molecule, acceptor atom, score
      L1  H    14    39       P1  8028  1.00
      L1  H    17    46       P1  8028  0.98

> <Gold.Chemscore.Hbond.Weighted>
-6.5843

> <Gold.Chemscore.Metal.Weighted>
-0.0000

> <Gold.Chemscore.Lipo.Weighted>
-14.2835

> <Gold.Chemscore.Internal_Hbond.Weighted>
0.0000

> <Gold.Chemscore.DEClash.Weighted>
0.0038

> <Gold.Chemscore.DEInternal.Weighted>
0.8760

> <Gold.Chemscore.Rot.Weighted>
5.9450

> <Gold.Chemscore.Internal.Correction.Weighted>
   9.000000E+99

> <Gold.Protein.RotatedTorsions>
[ 6907 6896 6895 6894 ] final  153.40 input  -60.11 | X-H torsion
[ 7974 7965 7964 7962 ] final  -72.78 input  175.53 | X-H torsion
[ 8008 7997 7996 7995 ] final  -25.77 input   59.86 | X-H torsion
[ 10167 10162 10161 10158 ] final   53.90 input  -65.29 | X-H torsion
[ 10718 10713 10712 10709 ] final  108.04 input   66.30 | X-H torsion
[ 10763 10752 10751 10750 ] final  -20.33 input  -60.55 | X-H torsion
[ 11005 11000 10999 10996 ] final -172.89 input  -57.11 | X-H torsion

> <Gold.Protein.ActiveResidues>
 VAL166  LYS551  ARG553  GLY616  TRP617  ASP618  TYR619  PRO620  LYS621  CYS622 
 ASP623  PHE694  ASN695  SER759  ASP760  ASP761  ALA762  ILE779  LEU786  VAL792 
 PHE793  MET794  SER795  GLU796  ALA797  LYS798  CYS799  TRP800  GLU811  SER814 

> <Gold.Protein.RotatedAtoms>
  152.0732  133.4117  159.4468 H   0  0  0  0  0  0  0  0  0  0  0  0  # atno 6907 bound_to 6896
  150.6863  134.3067  159.4738 H   0  0  0  0  0  0  0  0  0  0  0  0  # atno 6908 bound_to 6896
  152.0901  134.9412  160.0622 H   0  0  0  0  0  0  0  0  0  0  0  0  # atno 6909 bound_to 6896
  145.6606  140.9253  143.0936 H   0  0  0  0  0  0  0  0  0  0  0  0  # atno 7974 bound_to 7965
  154.4459  140.1917  156.0671 H   0  0  0  0  0  0  0  0  0  0  0  0  # atno 8008 bound_to 7997
  156.0539  140.3305  155.7356 H   0  0  0  0  0  0  0  0  0  0  0  0  # atno 8009 bound_to 7997
  155.5515  140.0595  157.2839 H   0  0  0  0  0  0  0  0  0  0  0  0  # atno 8010 bound_to 7997
  140.2359  144.3636  150.6397 H   0  0  0  0  0  0  0  0  0  0  0  0  # atno 10167 bound_to 10162
  157.6603  131.0885  150.6245 H   0  0  0  0  0  0  0  0  0  0  0  0  # atno 10718 bound_to 10713
  153.6187  135.6993  153.5319 H   0  0  0  0  0  0  0  0  0  0  0  0  # atno 10763 bound_to 10752
  153.2956  135.4144  155.1206 H   0  0  0  0  0  0  0  0  0  0  0  0  # atno 10764 bound_to 10752
  154.8548  135.3636  154.5727 H   0  0  0  0  0  0  0  0  0  0  0  0  # atno 10765 bound_to 10752
  140.4919  134.5976  157.4957 H   0  0  0  0  0  0  0  0  0  0  0  0  # atno 11005 bound_to 11000
  144.7090  139.8444  143.7420 LP  0  0  0  0  0  0  0  0  0  0  0  0  # atno 17320 bound_to 7965
  146.1128  139.4135  143.0277 LP  0  0  0  0  0  0  0  0  0  0  0  0  # atno 17321 bound_to 7965
  140.6150  143.2172  151.6810 LP  0  0  0  0  0  0  0  0  0  0  0  0  # atno 17342 bound_to 10162
  139.5094  144.3579  152.0590 LP  0  0  0  0  0  0  0  0  0  0  0  0  # atno 17343 bound_to 10162
  156.6549  130.4495  149.5707 LP  0  0  0  0  0  0  0  0  0  0  0  0  # atno 17370 bound_to 10713
  156.2110  130.6679  151.1269 LP  0  0  0  0  0  0  0  0  0  0  0  0  # atno 17371 bound_to 10713
  139.9764  134.7208  155.9942 LP  0  0  0  0  0  0  0  0  0  0  0  0  # atno 17394 bound_to 11000
  141.1480  133.6553  156.3925 LP  0  0  0  0  0  0  0  0  0  0  0  0  # atno 17395 bound_to 11000

$$$$
