AV-unprocessed.smi:3324|AV-procd|sdf|12783|dock4
  -GOLD-   2272019133D 1   1.00000     0.00000
 Structure written by MMmdl.
 30 30  0  0  0  0  0  0  0  0  3 V2000
  149.0990  135.6496  159.4458 O   0  0  0  0  0  0  0  0  0  0  0  0
  148.5088  136.7158  159.6455 C   0  0  0  0  0  0  0  0  0  0  0  0
  148.5356  137.7782  158.5452 C   0  0  0  0  0  0  0  0  0  0  0  0
  149.9240  138.2334  158.3387 N   0  3  0  0  0  0  0  0  0  0  0  0
  150.0840  139.6989  158.3351 C   0  0  0  0  0  0  0  0  0  0  0  0
  151.5404  140.0928  158.0540 C   0  0  0  0  0  0  0  0  0  0  0  0
  151.7240  141.5301  158.1030 N   0  0  0  0  0  0  0  0  0  0  0  0
  152.5942  142.2586  158.8866 C   0  0  0  0  0  0  0  0  0  0  0  0
  152.4098  143.5764  158.5801 C   0  0  0  0  0  0  0  0  0  0  0  0
  151.3916  143.5532  157.5861 C   0  0  0  0  0  0  0  0  0  0  0  0
  150.9842  142.3263  157.3020 N   0  0  0  0  0  0  0  0  0  0  0  0
  147.8012  137.1502  160.7239 N   0  5  0  0  0  0  0  0  0  0  0  0
  147.2169  136.2526  161.7215 C   0  0  0  0  0  0  0  0  0  0  0  0
  145.6797  136.3516  161.7114 C   0  0  0  0  0  0  0  0  0  0  0  0
  145.3148  137.5570  162.1478 F   0  0  0  0  0  0  0  0  0  0  0  0
  145.2055  136.1874  160.4752 F   0  0  0  0  0  0  0  0  0  0  0  0
  145.1430  135.4303  162.5131 F   0  0  0  0  0  0  0  0  0  0  0  0
  148.1423  137.3619  157.6165 H   0  0  0  0  0  0  0  0  0  0  0  0
  147.8983  138.6201  158.8213 H   0  0  0  0  0  0  0  0  0  0  0  0
  150.4860  137.8403  159.0810 H   0  0  0  0  0  0  0  0  0  0  0  0
  149.4275  140.1288  157.5772 H   0  0  0  0  0  0  0  0  0  0  0  0
  149.7667  140.0950  159.3009 H   0  0  0  0  0  0  0  0  0  0  0  0
  152.2103  139.6303  158.7808 H   0  0  0  0  0  0  0  0  0  0  0  0
  151.8478  139.7380  157.0692 H   0  0  0  0  0  0  0  0  0  0  0  0
  153.2651  141.7850  159.5884 H   0  0  0  0  0  0  0  0  0  0  0  0
  152.9235  144.4278  159.0017 H   0  0  0  0  0  0  0  0  0  0  0  0
  150.9403  144.3851  157.0659 H   0  0  0  0  0  0  0  0  0  0  0  0
  147.5040  135.2155  161.5415 H   0  0  0  0  0  0  0  0  0  0  0  0
  147.5782  136.4890  162.7233 H   0  0  0  0  0  0  0  0  0  0  0  0
  150.2500  137.8618  157.4584 H   0  0  0  0  0  0  0  0  0  0  0  0
  1  2  2  0  0  0  0
  2  3  1  0  0  0  0
  2 12  1  0  0  0  0
  3  4  1  0  0  0  0
  3 18  1  0  0  0  0
  3 19  1  0  0  0  0
  4  5  1  0  0  0  0
  4 20  1  0  0  0  0
  4 30  1  0  0  0  0
  5  6  1  0  0  0  0
  5 21  1  0  0  0  0
  5 22  1  0  0  0  0
  6  7  1  0  0  0  0
  6 23  1  0  0  0  0
  6 24  1  0  0  0  0
  7 11  1  0  0  0  0
  7  8  1  0  0  0  0
  8  9  2  0  0  0  0
  8 25  1  0  0  0  0
  9 10  1  0  0  0  0
  9 26  1  0  0  0  0
 10 11  2  0  0  0  0
 10 27  1  0  0  0  0
 12 13  1  0  0  0  0
 13 14  1  0  0  0  0
 13 28  1  0  0  0  0
 13 29  1  0  0  0  0
 14 15  1  0  0  0  0
 14 16  1  0  0  0  0
 14 17  1  0  0  0  0
M  CHG  1   4   1
M  CHG  1  12  -1
M  END
> <s_m_source_file>
AV-unprocessed.smi

> <i_m_source_file_index>
3324

> <i_lp_mmshare_version>
43012

> <i_f3d_flags>
0

> <s_epik_input>
RkMoRikoRilbQ0gyXVtOSF1DKD1PKVtDSDJdW05IXVtDSDJdW0NIMl1uMVtjSF1bY0hdW2NIXW4x

> <s_epik_cmdline>
J2VwaWtfcHl0aG9uJywgJy1waCcsICc3LjAnLCAnLXRuJywgJzgnLCAnLW1hJywgJzIwMCcsICctbWV0YWxfYmluZGluZycsICctaW1hZScsICc8aW5maWxlLm1hZT4nLCAnLW9tYWUnLCAnPG91dGZpbGUubWFlPic=

> <r_lp_tautomer_probability>
1

> <r_epik_Ionization_Penalty>
6.17309

> <r_epik_Ionization_Penalty_Charging>
6.17309

> <r_epik_Ionization_Penalty_Neutral>
2.40201e-06

> <r_epik_State_Penalty>
6.46579

> <r_epik_Charging_Adjusted_Penalty>
12.6389

> <i_epik_Tot_Q>
0

> <i_epik_Tot_abs_Q>
2

> <r_epik_Metal_State_Penalty>
2.40143

> <b_epik_Metal_Only>
1

> <s_lp_Force_Field>
OPLS_2005

> <r_lp_Energy>
2.56422

> <b_lp_Chiralities_Consistent>
1

> <s_lp_Variant>
AV-unprocessed.smi:3324-3

> <Gold.Version>
5.8.1

> <Gold.Id.Protein>
6NUR|6NUR_protein|mol2

> <Gold.PLP.Fitness>
45.5642

> <Gold.PLP.PLP>
-30.2820

> <Gold.PLP.part.hbond>
-3.0000

> <Gold.PLP.part.metal>
0.0000

> <Gold.PLP.part.buried>
-4.9379

> <Gold.PLP.part.nonpolar>
-23.7762

> <Gold.PLP.part.repulsive>
0.2352

> <Gold.PLP.ligand.clash>
0.0000

> <Gold.PLP.ligand.torsion>
0.5310

> <Gold.PLP.Chemscore.Hbond>
4.3920

> <Gold.PLP.Chemscore.CHOScore>
0.9994

> <Gold.PLP.Chemscore.Metal>
0.0000

> <Gold.Chemscore.Hbonds>
donor molecule, donor type, donor heavy atom, donor atom, acceptor molecule, acceptor atom, score
      P1  H  6896  6909       L1     1  1.00
      P1  H  6931  6943       L1    12  1.70
      P1  H  6934  6947       L1    12  1.73
      L1  C    10    27       P1  8028  1.00

> <Gold.PLP.Chemscore.Internal.Correction>
0.1701

> <Gold.Rescore>
     Score         DG    S(hbond)    S(metal)    S(lipo)     H(rot)  DE(clash)    DE(int)     intcor
     11.79     -12.42       2.11        0.00      61.05       2.83       0.01       0.61       ----

> <Gold.Chemscore.Fitness>
11.7936

> <Gold.Chemscore.DG>
-12.4159

> <Gold.Chemscore.ZeroCoef>
-5.4800

> <Gold.Chemscore.Hbond>
2.1103

> <Gold.Chemscore.Metal>
0.0000

> <Gold.Chemscore.Lipo>
61.0522

> <Gold.Chemscore.Internal_Hbond>
0.0000

> <Gold.Chemscore.DEClash>
0.0089

> <Gold.Chemscore.DEInternal>
0.6134

> <Gold.Chemscore.Rot>
2.8342

> <Gold.Chemscore.Internal.Correction>
   9.000000E+99

> <Gold.Chemscore.Hbonds>
donor molecule, donor type, donor heavy atom, donor atom, acceptor molecule, acceptor atom, score
      P1  H  6896  6909       L1     1  0.99
      P1  H  6931  6943       L1    12  0.15
      P1  H  6934  6947       L1    12  0.70

> <Gold.Chemscore.Hbond.Weighted>
-7.0483

> <Gold.Chemscore.Metal.Weighted>
-0.0000

> <Gold.Chemscore.Lipo.Weighted>
-7.1431

> <Gold.Chemscore.Internal_Hbond.Weighted>
0.0000

> <Gold.Chemscore.DEClash.Weighted>
0.0089

> <Gold.Chemscore.DEInternal.Weighted>
0.6134

> <Gold.Chemscore.Rot.Weighted>
7.2555

> <Gold.Chemscore.Internal.Correction.Weighted>
   9.000000E+99

> <Gold.Protein.RotatedTorsions>
[ 6907 6896 6895 6894 ] final   48.91 input  -60.11 | X-H torsion
[ 7974 7965 7964 7962 ] final -175.38 input  175.53 | X-H torsion
[ 8008 7997 7996 7995 ] final  140.16 input   59.86 | X-H torsion
[ 10167 10162 10161 10158 ] final  -99.08 input  -65.29 | X-H torsion
[ 10718 10713 10712 10709 ] final -130.44 input   66.30 | X-H torsion
[ 10763 10752 10751 10750 ] final   -5.21 input  -60.55 | X-H torsion
[ 11005 11000 10999 10996 ] final  -40.50 input  -57.11 | X-H torsion

> <Gold.Protein.ActiveResidues>
 VAL166  LYS551  ARG553  GLY616  TRP617  ASP618  TYR619  PRO620  LYS621  CYS622 
 ASP623  PHE694  ASN695  SER759  ASP760  ASP761  ALA762  ILE779  LEU786  VAL792 
 PHE793  MET794  SER795  GLU796  ALA797  LYS798  CYS799  TRP800  GLU811  SER814 

> <Gold.Protein.RotatedAtoms>
  152.2848  134.7788  160.0389 H   0  0  0  0  0  0  0  0  0  0  0  0  # atno 6907 bound_to 6896
  151.8354  133.3410  159.3634 H   0  0  0  0  0  0  0  0  0  0  0  0  # atno 6908 bound_to 6896
  150.7205  134.5371  159.5773 H   0  0  0  0  0  0  0  0  0  0  0  0  # atno 6909 bound_to 6896
  144.7128  140.1330  143.6397 H   0  0  0  0  0  0  0  0  0  0  0  0  # atno 7974 bound_to 7965
  156.2982  140.2348  156.4356 H   0  0  0  0  0  0  0  0  0  0  0  0  # atno 8008 bound_to 7997
  154.8231  140.0437  157.1445 H   0  0  0  0  0  0  0  0  0  0  0  0  # atno 8009 bound_to 7997
  154.9292  140.3014  155.5180 H   0  0  0  0  0  0  0  0  0  0  0  0  # atno 8010 bound_to 7997
  140.2662  143.3374  152.0579 H   0  0  0  0  0  0  0  0  0  0  0  0  # atno 10167 bound_to 10162
  156.2144  130.6939  151.0686 H   0  0  0  0  0  0  0  0  0  0  0  0  # atno 10718 bound_to 10713
  153.3954  135.7003  153.6465 H   0  0  0  0  0  0  0  0  0  0  0  0  # atno 10763 bound_to 10752
  153.5020  135.3650  155.2545 H   0  0  0  0  0  0  0  0  0  0  0  0  # atno 10764 bound_to 10752
  154.8706  135.4114  154.3278 H   0  0  0  0  0  0  0  0  0  0  0  0  # atno 10765 bound_to 10752
  141.0179  133.6877  156.2329 H   0  0  0  0  0  0  0  0  0  0  0  0  # atno 11005 bound_to 11000
  145.9270  139.2581  143.1348 LP  0  0  0  0  0  0  0  0  0  0  0  0  # atno 17320 bound_to 7965
  145.9562  140.8871  143.0234 LP  0  0  0  0  0  0  0  0  0  0  0  0  # atno 17321 bound_to 7965
  139.5002  144.6686  151.6296 LP  0  0  0  0  0  0  0  0  0  0  0  0  # atno 17342 bound_to 10162
  140.5926  143.9752  150.6334 LP  0  0  0  0  0  0  0  0  0  0  0  0  # atno 17343 bound_to 10162
  157.7055  131.0758  150.6679 LP  0  0  0  0  0  0  0  0  0  0  0  0  # atno 17370 bound_to 10713
  156.6740  130.4548  149.5648 LP  0  0  0  0  0  0  0  0  0  0  0  0  # atno 17371 bound_to 10713
  140.6624  134.4954  157.5584 LP  0  0  0  0  0  0  0  0  0  0  0  0  # atno 17394 bound_to 11000
  139.9128  134.8309  156.1469 LP  0  0  0  0  0  0  0  0  0  0  0  0  # atno 17395 bound_to 11000

$$$$
