AV-unprocessed.smi:831|AV-procd|sdf|3874|dock10
  -GOLD-   22720 1333D 1   1.00000     0.00000
 Structure written by MMmdl.
 50 51  0  0  0  0  0  0  0  0  1 V2000
  147.4569  133.3830  152.5466 C   0  0  0  0  0  0  0  0  0  0  0  0
  148.2205  132.3162  153.3441 C   0  0  0  0  0  0  0  0  0  0  0  0
  147.3583  131.0591  153.5396 C   0  0  0  0  0  0  0  0  0  0  0  0
  148.7085  132.8759  154.6899 C   0  0  0  0  0  0  0  0  0  0  0  0
  149.3451  134.1294  154.4679 O   0  0  0  0  0  0  0  0  0  0  0  0
  149.3743  135.0033  155.5919 C   0  0  2  0  0  0  0  0  0  0  0  0
  147.9749  135.6217  155.7209 C   0  0  0  0  0  0  0  0  0  0  0  0
  150.4384  136.0993  155.3718 C   0  0  0  0  0  0  0  0  0  0  0  0
  151.4000  136.1638  156.1356 O   0  0  0  0  0  0  0  0  0  0  0  0
  150.2998  136.9864  154.3727 N   0  0  0  0  0  0  0  0  0  0  0  0
  151.2038  138.0776  154.0260 C   0  0  0  0  0  0  0  0  0  0  0  0
  151.4063  139.0957  155.1390 C   0  0  0  0  0  0  0  0  0  0  0  0
  150.5466  140.1994  155.3287 C   0  0  0  0  0  0  0  0  0  0  0  0
  150.7987  141.0889  156.3901 C   0  0  0  0  0  0  0  0  0  0  0  0
  151.9042  140.8547  157.2415 C   0  0  0  0  0  0  0  0  0  0  0  0
  152.1756  141.7372  158.3094 N   0  0  0  0  0  0  0  0  0  0  0  0
  151.5293  143.0482  158.2997 C   0  0  0  0  0  0  0  0  0  0  0  0
  152.1631  143.9643  159.3603 C   0  0  0  0  0  0  0  0  0  0  0  0
  152.1052  143.3329  160.6349 O   0  0  0  0  0  0  0  0  0  0  0  0
  152.8338  142.1100  160.6533 C   0  0  0  0  0  0  0  0  0  0  0  0
  152.2290  141.1274  159.6357 C   0  0  0  0  0  0  0  0  0  0  0  0
  152.7199  139.7861  157.0650 N   0  0  0  0  0  0  0  0  0  0  0  0
  152.4748  138.9374  156.0446 C   0  0  0  0  0  0  0  0  0  0  0  0
  146.5634  133.7118  153.0783 H   0  0  0  0  0  0  0  0  0  0  0  0
  147.1441  132.9982  151.5756 H   0  0  0  0  0  0  0  0  0  0  0  0
  148.0790  134.2600  152.3661 H   0  0  0  0  0  0  0  0  0  0  0  0
  149.0975  132.0356  152.7594 H   0  0  0  0  0  0  0  0  0  0  0  0
  146.4668  131.2777  154.1282 H   0  0  0  0  0  0  0  0  0  0  0  0
  147.9117  130.2749  154.0567 H   0  0  0  0  0  0  0  0  0  0  0  0
  147.0330  130.6523  152.5820 H   0  0  0  0  0  0  0  0  0  0  0  0
  147.8639  133.0217  155.3651 H   0  0  0  0  0  0  0  0  0  0  0  0
  149.3816  132.1607  155.1640 H   0  0  0  0  0  0  0  0  0  0  0  0
  149.5640  134.4129  156.4873 H   0  0  0  0  0  0  0  0  0  0  0  0
  147.9220  136.3069  156.5676 H   0  0  0  0  0  0  0  0  0  0  0  0
  147.2238  134.8470  155.8777 H   0  0  0  0  0  0  0  0  0  0  0  0
  147.6943  136.1743  154.8232 H   0  0  0  0  0  0  0  0  0  0  0  0
  149.4684  136.9044  153.8061 H   0  0  0  0  0  0  0  0  0  0  0  0
  152.1821  137.6714  153.7659 H   0  0  0  0  0  0  0  0  0  0  0  0
  150.8182  138.5930  153.1449 H   0  0  0  0  0  0  0  0  0  0  0  0
  149.6979  140.3711  154.6833 H   0  0  0  0  0  0  0  0  0  0  0  0
  150.1350  141.9261  156.5474 H   0  0  0  0  0  0  0  0  0  0  0  0
  151.6281  143.5112  157.3169 H   0  0  0  0  0  0  0  0  0  0  0  0
  150.4637  142.9279  158.4992 H   0  0  0  0  0  0  0  0  0  0  0  0
  153.1979  144.1973  159.1041 H   0  0  0  0  0  0  0  0  0  0  0  0
  151.6260  144.9117  159.4083 H   0  0  0  0  0  0  0  0  0  0  0  0
  153.8863  142.2975  160.4346 H   0  0  0  0  0  0  0  0  0  0  0  0
  152.7890  141.6859  161.6566 H   0  0  0  0  0  0  0  0  0  0  0  0
  151.2165  140.8557  159.9376 H   0  0  0  0  0  0  0  0  0  0  0  0
  152.8161  140.2104  159.6366 H   0  0  0  0  0  0  0  0  0  0  0  0
  153.1541  138.1030  155.9499 H   0  0  0  0  0  0  0  0  0  0  0  0
  1  2  1  0  0  0  0
  1 24  1  0  0  0  0
  1 25  1  0  0  0  0
  1 26  1  0  0  0  0
  2  3  1  0  0  0  0
  2  4  1  0  0  0  0
  2 27  1  0  0  0  0
  3 28  1  0  0  0  0
  3 29  1  0  0  0  0
  3 30  1  0  0  0  0
  4  5  1  0  0  0  0
  4 31  1  0  0  0  0
  4 32  1  0  0  0  0
  5  6  1  0  0  0  0
  6  7  1  0  0  0  0
  6  8  1  0  0  0  0
  6 33  1  0  0  0  0
  7 34  1  0  0  0  0
  7 35  1  0  0  0  0
  7 36  1  0  0  0  0
  8  9  2  0  0  0  0
  8 10  1  0  0  0  0
 10 11  1  0  0  0  0
 10 37  1  0  0  0  0
 11 12  1  0  0  0  0
 11 38  1  0  0  0  0
 11 39  1  0  0  0  0
 12 23  1  0  0  0  0
 12 13  2  0  0  0  0
 13 14  1  0  0  0  0
 13 40  1  0  0  0  0
 14 15  2  0  0  0  0
 14 41  1  0  0  0  0
 15 16  1  0  0  0  0
 15 22  1  0  0  0  0
 16 21  1  0  0  0  0
 16 17  1  0  0  0  0
 17 18  1  0  0  0  0
 17 42  1  0  0  0  0
 17 43  1  0  0  0  0
 18 19  1  0  0  0  0
 18 44  1  0  0  0  0
 18 45  1  0  0  0  0
 19 20  1  0  0  0  0
 20 21  1  0  0  0  0
 20 46  1  0  0  0  0
 20 47  1  0  0  0  0
 21 48  1  0  0  0  0
 21 49  1  0  0  0  0
 22 23  2  0  0  0  0
 23 50  1  0  0  0  0
M  END
> <s_m_source_file>
AV-unprocessed.smi

> <i_m_source_file_index>
831

> <i_lp_mmshare_version>
43012

> <i_f3d_flags>
0

> <s_epik_input>
W0NIM11bQ0hdKFtDSDNdKVtDSDJdT1tDQEhdKFtDSDNdKUMoPU8pW05IXVtDSDJdYzFbY0hdW2NIXWMobltjSF0xKU4yW0NIMl1bQ0gyXU9bQ0gyXVtDSDJdMg==

> <s_epik_cmdline>
J2VwaWtfcHl0aG9uJywgJy1waCcsICc3LjAnLCAnLXRuJywgJzgnLCAnLW1hJywgJzIwMCcsICctbWV0YWxfYmluZGluZycsICctaW1hZScsICc8aW5maWxlLm1hZT4nLCAnLW9tYWUnLCAnPG91dGZpbGUubWFlPic=

> <r_lp_tautomer_probability>
1

> <r_epik_Ionization_Penalty>
0.00456501

> <r_epik_Ionization_Penalty_Charging>
0

> <r_epik_Ionization_Penalty_Neutral>
0.00456501

> <r_epik_State_Penalty>
0.00329791

> <r_epik_Charging_Adjusted_Penalty>
0.00329791

> <i_epik_Tot_Q>
0

> <i_epik_Tot_abs_Q>
0

> <r_epik_Metal_State_Penalty>
-0

> <b_epik_Metal_Only>
0

> <s_lp_Force_Field>
OPLS_2005

> <r_lp_Energy>
23.9744

> <b_lp_Chiralities_Consistent>
1

> <s_lp_Variant>
AV-unprocessed.smi:831-1

> <Gold.Version>
5.8.1

> <Gold.Id.Protein>
6NUR|6NUR_protein|mol2

> <Gold.PLP.Fitness>
50.9422

> <Gold.PLP.PLP>
-44.1128

> <Gold.PLP.part.hbond>
-3.9602

> <Gold.PLP.part.metal>
0.0000

> <Gold.PLP.part.buried>
-2.9256

> <Gold.PLP.part.nonpolar>
-36.6097

> <Gold.PLP.part.repulsive>
0.3053

> <Gold.PLP.ligand.clash>
0.0000

> <Gold.PLP.ligand.torsion>
0.9450

> <Gold.PLP.Chemscore.Hbond>
2.7680

> <Gold.PLP.Chemscore.CHOScore>
0.0000

> <Gold.PLP.Chemscore.Metal>
0.0000

> <Gold.Chemscore.Hbonds>
donor molecule, donor type, donor heavy atom, donor atom, acceptor molecule, acceptor atom, score
      L1  H    10    37       P1  7948  0.61
      P1  H  7997  8009       L1    22  0.90
      P1  H 10752 10763       L1     9  0.70

> <Gold.PLP.Chemscore.Internal.Correction>
0.4153

> <Gold.Rescore>
     Score         DG    S(hbond)    S(metal)    S(lipo)     H(rot)  DE(clash)    DE(int)     intcor
     18.24     -19.91       2.20        0.00     102.53       1.92       0.45       1.22       ----

> <Gold.Chemscore.Fitness>
18.2425

> <Gold.Chemscore.DG>
-19.9144

> <Gold.Chemscore.ZeroCoef>
-5.4800

> <Gold.Chemscore.Hbond>
2.1986

> <Gold.Chemscore.Metal>
0.0000

> <Gold.Chemscore.Lipo>
102.5287

> <Gold.Chemscore.Internal_Hbond>
0.0000

> <Gold.Chemscore.DEClash>
0.4533

> <Gold.Chemscore.DEInternal>
1.2186

> <Gold.Chemscore.Rot>
1.9159

> <Gold.Chemscore.Internal.Correction>
   9.000000E+99

> <Gold.Chemscore.Hbonds>
donor molecule, donor type, donor heavy atom, donor atom, acceptor molecule, acceptor atom, score
      L1  H    10    37       P1  7948  0.54
      P1  H  7997  8009       L1    22  0.17
      P1  H 10752 10763       L1     9  0.27

> <Gold.Chemscore.Hbond.Weighted>
-7.3433

> <Gold.Chemscore.Metal.Weighted>
-0.0000

> <Gold.Chemscore.Lipo.Weighted>
-11.9959

> <Gold.Chemscore.Internal_Hbond.Weighted>
0.0000

> <Gold.Chemscore.DEClash.Weighted>
0.4533

> <Gold.Chemscore.DEInternal.Weighted>
1.2186

> <Gold.Chemscore.Rot.Weighted>
4.9047

> <Gold.Chemscore.Internal.Correction.Weighted>
   9.000000E+99

> <Gold.Protein.RotatedTorsions>
[ 6907 6896 6895 6894 ] final -154.81 input  -60.11 | X-H torsion
[ 7974 7965 7964 7962 ] final   58.20 input  175.53 | X-H torsion
[ 8008 7997 7996 7995 ] final  173.03 input   59.86 | X-H torsion
[ 10167 10162 10161 10158 ] final  -23.84 input  -65.29 | X-H torsion
[ 10718 10713 10712 10709 ] final  -42.31 input   66.30 | X-H torsion
[ 10763 10752 10751 10750 ] final   77.65 input  -60.55 | X-H torsion
[ 11005 11000 10999 10996 ] final -136.51 input  -57.11 | X-H torsion

> <Gold.Protein.ActiveResidues>
 VAL166  LYS551  ARG553  GLY616  TRP617  ASP618  TYR619  PRO620  LYS621  CYS622 
 ASP623  PHE694  ASN695  SER759  ASP760  ASP761  ALA762  ILE779  LEU786  VAL792 
 PHE793  MET794  SER795  GLU796  ALA797  LYS798  CYS799  TRP800  GLU811  SER814 

> <Gold.Protein.RotatedAtoms>
  151.2631  133.4292  159.2616 H   0  0  0  0  0  0  0  0  0  0  0  0  # atno 6907 bound_to 6896
  151.0512  134.9674  159.8223 H   0  0  0  0  0  0  0  0  0  0  0  0  # atno 6908 bound_to 6896
  152.5383  134.2586  159.8979 H   0  0  0  0  0  0  0  0  0  0  0  0  # atno 6909 bound_to 6896
  145.9208  139.3728  143.0479 H   0  0  0  0  0  0  0  0  0  0  0  0  # atno 7974 bound_to 7965
  156.1116  140.1470  156.9330 H   0  0  0  0  0  0  0  0  0  0  0  0  # atno 8008 bound_to 7997
  154.4771  140.0891  156.7331 H   0  0  0  0  0  0  0  0  0  0  0  0  # atno 8009 bound_to 7997
  155.4586  140.3437  155.4312 H   0  0  0  0  0  0  0  0  0  0  0  0  # atno 8010 bound_to 7997
  140.7288  143.4407  151.0662 H   0  0  0  0  0  0  0  0  0  0  0  0  # atno 10167 bound_to 10162
  156.2609  130.4197  149.8543 H   0  0  0  0  0  0  0  0  0  0  0  0  # atno 10718 bound_to 10713
  153.0815  135.4906  154.8512 H   0  0  0  0  0  0  0  0  0  0  0  0  # atno 10763 bound_to 10752
  154.7156  135.3029  154.9131 H   0  0  0  0  0  0  0  0  0  0  0  0  # atno 10764 bound_to 10752
  153.9811  135.6789  153.4803 H   0  0  0  0  0  0  0  0  0  0  0  0  # atno 10765 bound_to 10752
  140.8799  134.1945  157.4598 H   0  0  0  0  0  0  0  0  0  0  0  0  # atno 11005 bound_to 11000
  145.8552  140.9506  143.0729 LP  0  0  0  0  0  0  0  0  0  0  0  0  # atno 17320 bound_to 7965
  144.6753  140.0459  143.7480 LP  0  0  0  0  0  0  0  0  0  0  0  0  # atno 17321 bound_to 7965
  139.8073  143.8000  152.3168 LP  0  0  0  0  0  0  0  0  0  0  0  0  # atno 17342 bound_to 10162
  139.8037  144.7364  150.9790 LP  0  0  0  0  0  0  0  0  0  0  0  0  # atno 17343 bound_to 10162
  156.6058  130.8566  151.3443 LP  0  0  0  0  0  0  0  0  0  0  0  0  # atno 17370 bound_to 10713
  157.7250  130.9610  150.1597 LP  0  0  0  0  0  0  0  0  0  0  0  0  # atno 17371 bound_to 10713
  139.8719  134.9812  156.5107 LP  0  0  0  0  0  0  0  0  0  0  0  0  # atno 17394 bound_to 11000
  140.8474  133.8158  155.9135 LP  0  0  0  0  0  0  0  0  0  0  0  0  # atno 17395 bound_to 11000

$$$$
