AV-unprocessed.smi:2591|AV-procd|sdf|10158|dock3
  -GOLD-   2272014173D 1   1.00000     0.00000
 Structure written by MMmdl.
 34 35  0  0  0  0  0  0  0  0  1 V2000
  147.0039  141.9510  153.7962 C   0  0  0  0  0  0  0  0  0  0  0  0
  148.0444  140.9341  153.7839 N   0  0  0  0  0  0  0  0  0  0  0  0
  147.5009  139.6034  154.0187 C   0  0  0  0  0  0  0  0  0  0  0  0
  148.6044  138.5324  154.0088 C   0  0  0  0  0  0  0  0  0  0  0  0
  149.5994  138.8617  154.9737 O   0  0  0  0  0  0  0  0  0  0  0  0
  150.1934  140.1427  154.7565 C   0  0  2  0  0  0  0  0  0  0  0  0
  151.2669  140.3804  155.8285 C   0  0  0  0  0  0  0  0  0  0  0  0
  152.3981  139.9142  155.6843 O   0  0  0  0  0  0  0  0  0  0  0  0
  150.8709  141.0925  156.9011 N   0  0  0  0  0  0  0  0  0  0  0  0
  151.6273  141.4593  158.0455 C   0  0  0  0  0  0  0  0  0  0  0  0
  151.3191  142.7282  158.5847 C   0  0  0  0  0  0  0  0  0  0  0  0
  152.0053  143.1880  159.7295 C   0  0  0  0  0  0  0  0  0  0  0  0
  151.6970  144.5511  160.3294 C   0  0  0  0  0  0  0  0  0  0  0  0
  152.2141  145.5265  159.5818 F   0  0  0  0  0  0  0  0  0  0  0  0
  150.3762  144.7139  160.3944 F   0  0  0  0  0  0  0  0  0  0  0  0
  152.2038  144.6533  161.5587 F   0  0  0  0  0  0  0  0  0  0  0  0
  152.9965  142.3582  160.2919 C   0  0  0  0  0  0  0  0  0  0  0  0
  153.2438  141.1111  159.6907 C   0  0  0  0  0  0  0  0  0  0  0  0
  152.5799  140.6713  158.6020 N   0  0  0  0  0  0  0  0  0  0  0  0
  149.0835  141.2190  154.7651 C   0  0  0  0  0  0  0  0  0  0  0  0
  146.2506  141.7425  153.0358 H   0  0  0  0  0  0  0  0  0  0  0  0
  147.4241  142.9350  153.5861 H   0  0  0  0  0  0  0  0  0  0  0  0
  146.5061  141.9941  154.7660 H   0  0  0  0  0  0  0  0  0  0  0  0
  146.9831  139.5789  154.9790 H   0  0  0  0  0  0  0  0  0  0  0  0
  146.7577  139.3668  153.2566 H   0  0  0  0  0  0  0  0  0  0  0  0
  148.1863  137.5545  154.2468 H   0  0  0  0  0  0  0  0  0  0  0  0
  149.0587  138.4551  153.0199 H   0  0  0  0  0  0  0  0  0  0  0  0
  150.6928  140.1409  153.7858 H   0  0  0  0  0  0  0  0  0  0  0  0
  149.9123  141.4091  156.8920 H   0  0  0  0  0  0  0  0  0  0  0  0
  150.5603  143.3444  158.1240 H   0  0  0  0  0  0  0  0  0  0  0  0
  153.5579  142.6664  161.1617 H   0  0  0  0  0  0  0  0  0  0  0  0
  153.9960  140.4490  160.0934 H   0  0  0  0  0  0  0  0  0  0  0  0
  149.5194  142.1971  154.5563 H   0  0  0  0  0  0  0  0  0  0  0  0
  148.6413  141.2809  155.7612 H   0  0  0  0  0  0  0  0  0  0  0  0
  1  2  1  0  0  0  0
  1 21  1  0  0  0  0
  1 22  1  0  0  0  0
  1 23  1  0  0  0  0
  2 20  1  0  0  0  0
  2  3  1  0  0  0  0
  3  4  1  0  0  0  0
  3 24  1  0  0  0  0
  3 25  1  0  0  0  0
  4  5  1  0  0  0  0
  4 26  1  0  0  0  0
  4 27  1  0  0  0  0
  5  6  1  0  0  0  0
  6  7  1  0  0  0  0
  6 20  1  0  0  0  0
  6 28  1  0  0  0  0
  7  8  2  0  0  0  0
  7  9  1  0  0  0  0
  9 10  1  0  0  0  0
  9 29  1  0  0  0  0
 10 19  1  0  0  0  0
 10 11  2  0  0  0  0
 11 12  1  0  0  0  0
 11 30  1  0  0  0  0
 12 13  1  0  0  0  0
 12 17  2  0  0  0  0
 13 14  1  0  0  0  0
 13 15  1  0  0  0  0
 13 16  1  0  0  0  0
 17 18  1  0  0  0  0
 17 31  1  0  0  0  0
 18 19  2  0  0  0  0
 18 32  1  0  0  0  0
 20 33  1  0  0  0  0
 20 34  1  0  0  0  0
M  END
> <s_m_source_file>
AV-unprocessed.smi

> <i_m_source_file_index>
2591

> <i_lp_mmshare_version>
43012

> <i_f3d_flags>
0

> <s_epik_input>
W0NIM11OMVtDSDJdW0NIMl1PW0NASF0oW0NIMl0xKUMoPU8pW05IXWMyW2NIXWMoQyhGKShGKUYpW2NIXVtjSF1uMg==

> <s_epik_cmdline>
J2VwaWtfcHl0aG9uJywgJy1waCcsICc3LjAnLCAnLXRuJywgJzgnLCAnLW1hJywgJzIwMCcsICctbWV0YWxfYmluZGluZycsICctaW1hZScsICc8aW5maWxlLm1hZT4nLCAnLW9tYWUnLCAnPG91dGZpbGUubWFlPic=

> <r_epik_Ionization_Penalty>
0.526245

> <r_epik_Ionization_Penalty_Charging>
0

> <r_epik_Ionization_Penalty_Neutral>
0.526245

> <r_epik_State_Penalty>
0.534659

> <r_epik_Charging_Adjusted_Penalty>
0.534659

> <i_epik_Tot_Q>
0

> <i_epik_Tot_abs_Q>
0

> <r_epik_Metal_State_Penalty>
0.534657

> <b_epik_Metal_Only>
0

> <s_lp_Force_Field>
OPLS_2005

> <r_lp_Energy>
21.9247

> <b_lp_Chiralities_Consistent>
1

> <s_lp_Variant>
AV-unprocessed.smi:2591-6

> <Gold.Version>
5.8.1

> <Gold.Id.Protein>
6NUR|6NUR_protein|mol2

> <Gold.PLP.Fitness>
41.8340

> <Gold.PLP.PLP>
-41.1760

> <Gold.PLP.part.hbond>
-1.2907

> <Gold.PLP.part.metal>
0.0000

> <Gold.PLP.part.buried>
-2.6343

> <Gold.PLP.part.nonpolar>
-35.9581

> <Gold.PLP.part.repulsive>
0.3292

> <Gold.PLP.ligand.clash>
0.4095

> <Gold.PLP.ligand.torsion>
1.5111

> <Gold.PLP.Chemscore.Hbond>
1.0000

> <Gold.PLP.Chemscore.CHOScore>
0.0000

> <Gold.PLP.Chemscore.Metal>
0.0000

> <Gold.Chemscore.Hbonds>
donor molecule, donor type, donor heavy atom, donor atom, acceptor molecule, acceptor atom, score
      P1  H  7997  8009       L1     8  0.99

> <Gold.PLP.Chemscore.Internal.Correction>
1.0897

> <Gold.Rescore>
     Score         DG    S(hbond)    S(metal)    S(lipo)     H(rot)  DE(clash)    DE(int)     intcor
     13.24     -16.21       0.99        0.00      85.15       1.00       0.79       2.17       ----

> <Gold.Chemscore.Fitness>
13.2389

> <Gold.Chemscore.DG>
-16.2056

> <Gold.Chemscore.ZeroCoef>
-5.4800

> <Gold.Chemscore.Hbond>
0.9948

> <Gold.Chemscore.Metal>
0.0000

> <Gold.Chemscore.Lipo>
85.1541

> <Gold.Chemscore.Internal_Hbond>
0.0000

> <Gold.Chemscore.DEClash>
0.7928

> <Gold.Chemscore.DEInternal>
2.1739

> <Gold.Chemscore.Rot>
1.0000

> <Gold.Chemscore.Internal.Correction>
   9.000000E+99

> <Gold.Chemscore.Hbonds>
donor molecule, donor type, donor heavy atom, donor atom, acceptor molecule, acceptor atom, score
      P1  H  7997  8009       L1     8  0.92

> <Gold.Chemscore.Hbond.Weighted>
-3.3226

> <Gold.Chemscore.Metal.Weighted>
-0.0000

> <Gold.Chemscore.Lipo.Weighted>
-9.9630

> <Gold.Chemscore.Internal_Hbond.Weighted>
0.0000

> <Gold.Chemscore.DEClash.Weighted>
0.7928

> <Gold.Chemscore.DEInternal.Weighted>
2.1739

> <Gold.Chemscore.Rot.Weighted>
2.5600

> <Gold.Chemscore.Internal.Correction.Weighted>
   9.000000E+99

> <Gold.Protein.RotatedTorsions>
[ 6907 6896 6895 6894 ] final  -49.52 input  -60.11 | X-H torsion
[ 7974 7965 7964 7962 ] final   -5.11 input  175.53 | X-H torsion
[ 8008 7997 7996 7995 ] final -145.12 input   59.86 | X-H torsion
[ 10167 10162 10161 10158 ] final -110.19 input  -65.29 | X-H torsion
[ 10718 10713 10712 10709 ] final -142.41 input   66.30 | X-H torsion
[ 10763 10752 10751 10750 ] final   29.72 input  -60.55 | X-H torsion
[ 11005 11000 10999 10996 ] final   97.71 input  -57.11 | X-H torsion

> <Gold.Protein.ActiveResidues>
 VAL166  LYS551  ARG553  GLY616  TRP617  ASP618  TYR619  PRO620  LYS621  CYS622 
 ASP623  PHE694  ASN695  SER759  ASP760  ASP761  ALA762  ILE779  LEU786  VAL792 
 PHE793  MET794  SER795  GLU796  ALA797  LYS798  CYS799  TRP800  GLU811  SER814 

> <Gold.Protein.RotatedAtoms>
  150.8797  134.8185  159.7215 H   0  0  0  0  0  0  0  0  0  0  0  0  # atno 6907 bound_to 6896
  152.4769  134.4816  159.9677 H   0  0  0  0  0  0  0  0  0  0  0  0  # atno 6908 bound_to 6896
  151.4893  133.3490  159.2886 H   0  0  0  0  0  0  0  0  0  0  0  0  # atno 6909 bound_to 6896
  146.2359  140.1972  142.8333 H   0  0  0  0  0  0  0  0  0  0  0  0  # atno 7974 bound_to 7965
  155.5380  140.0605  157.2875 H   0  0  0  0  0  0  0  0  0  0  0  0  # atno 8008 bound_to 7997
  154.4461  140.1924  156.0606 H   0  0  0  0  0  0  0  0  0  0  0  0  # atno 8009 bound_to 7997
  156.0605  140.3273  155.7459 H   0  0  0  0  0  0  0  0  0  0  0  0  # atno 8010 bound_to 7997
  140.1471  143.4230  152.1521 H   0  0  0  0  0  0  0  0  0  0  0  0  # atno 10167 bound_to 10162
  156.3456  130.7660  151.1804 H   0  0  0  0  0  0  0  0  0  0  0  0  # atno 10718 bound_to 10713
  153.0414  135.6482  154.0934 H   0  0  0  0  0  0  0  0  0  0  0  0  # atno 10763 bound_to 10752
  154.0640  135.2886  155.3321 H   0  0  0  0  0  0  0  0  0  0  0  0  # atno 10764 bound_to 10752
  154.6639  135.5381  153.8117 H   0  0  0  0  0  0  0  0  0  0  0  0  # atno 10765 bound_to 10752
  139.8775  134.9014  156.4347 H   0  0  0  0  0  0  0  0  0  0  0  0  # atno 11005 bound_to 11000
  144.9811  140.8460  143.5397 LP  0  0  0  0  0  0  0  0  0  0  0  0  # atno 17320 bound_to 7965
  145.1965  139.2274  143.5215 LP  0  0  0  0  0  0  0  0  0  0  0  0  # atno 17321 bound_to 7965
  139.5443  144.7285  151.4632 LP  0  0  0  0  0  0  0  0  0  0  0  0  # atno 17342 bound_to 10162
  140.6725  143.8263  150.7017 LP  0  0  0  0  0  0  0  0  0  0  0  0  # atno 17343 bound_to 10162
  157.7453  131.0442  150.4782 LP  0  0  0  0  0  0  0  0  0  0  0  0  # atno 17370 bound_to 10713
  156.4969  130.4108  149.6375 LP  0  0  0  0  0  0  0  0  0  0  0  0  # atno 17371 bound_to 10713
  140.9042  133.7758  155.9715 LP  0  0  0  0  0  0  0  0  0  0  0  0  # atno 17394 bound_to 11000
  140.8618  134.2831  157.5231 LP  0  0  0  0  0  0  0  0  0  0  0  0  # atno 17395 bound_to 11000

$$$$
