AV-unprocessed.smi:1980|AV-procd|sdf|8017|dock9
  -GOLD-   2272010213D 1   1.00000     0.00000
 Structure written by MMmdl.
 44 45  0  0  0  0  0  0  0  0  1 V2000
  145.1199  135.7696  153.5492 C   0  0  0  0  0  0  0  0  0  0  0  0
  145.2916  135.7908  152.0227 C   0  0  2  0  0  0  0  0  0  0  0  0
  146.0826  134.6610  151.6623 O   0  0  0  0  0  0  0  0  0  0  0  0
  145.6184  133.4047  152.1471 C   0  0  0  0  0  0  0  0  0  0  0  0
  145.0178  132.6013  150.9875 C   0  0  0  0  0  0  0  0  0  0  0  0
  145.9680  132.3560  150.0864 F   0  0  0  0  0  0  0  0  0  0  0  0
  144.5386  131.4396  151.4308 F   0  0  0  0  0  0  0  0  0  0  0  0
  144.0420  133.2954  150.4023 F   0  0  0  0  0  0  0  0  0  0  0  0
  145.9626  137.0909  151.5498 C   0  0  0  0  0  0  0  0  0  0  0  0
  146.2024  137.2679  150.3552 O   0  0  0  0  0  0  0  0  0  0  0  0
  146.2474  137.9935  152.5015 N   0  0  0  0  0  0  0  0  0  0  0  0
  146.8832  139.2881  152.2833 C   0  0  0  0  0  0  0  0  0  0  0  0
  147.7747  139.7035  153.4398 C   0  0  0  0  0  0  0  0  0  0  0  0
  147.8444  141.0483  153.8518 C   0  0  0  0  0  0  0  0  0  0  0  0
  148.6822  141.3897  154.9305 C   0  0  0  0  0  0  0  0  0  0  0  0
  149.4357  140.3755  155.5693 C   0  0  0  0  0  0  0  0  0  0  0  0
  150.2857  140.6946  156.6515 N   0  0  0  0  0  0  0  0  0  0  0  0
  150.4724  142.1059  156.9842 C   0  0  0  0  0  0  0  0  0  0  0  0
  151.6358  142.2747  157.9762 C   0  0  0  0  0  0  0  0  0  0  0  0
  151.4093  141.4643  159.1245 O   0  0  0  0  0  0  0  0  0  0  0  0
  151.3439  140.0821  158.7907 C   0  0  0  0  0  0  0  0  0  0  0  0
  150.1708  139.8340  157.8268 C   0  0  0  0  0  0  0  0  0  0  0  0
  149.3597  139.0809  155.1714 N   0  0  0  0  0  0  0  0  0  0  0  0
  148.5549  138.7588  154.1368 C   0  0  0  0  0  0  0  0  0  0  0  0
  144.5386  136.6251  153.8955 H   0  0  0  0  0  0  0  0  0  0  0  0
  146.0825  135.7880  154.0620 H   0  0  0  0  0  0  0  0  0  0  0  0
  144.5974  134.8670  153.8663 H   0  0  0  0  0  0  0  0  0  0  0  0
  144.3026  135.7009  151.5688 H   0  0  0  0  0  0  0  0  0  0  0  0
  146.4450  132.8478  152.5909 H   0  0  0  0  0  0  0  0  0  0  0  0
  144.8634  133.5403  152.9223 H   0  0  0  0  0  0  0  0  0  0  0  0
  146.0093  137.7621  153.4551 H   0  0  0  0  0  0  0  0  0  0  0  0
  147.4696  139.2918  151.3629 H   0  0  0  0  0  0  0  0  0  0  0  0
  146.0965  140.0296  152.1423 H   0  0  0  0  0  0  0  0  0  0  0  0
  147.2617  141.8101  153.3548 H   0  0  0  0  0  0  0  0  0  0  0  0
  148.7243  142.4165  155.2611 H   0  0  0  0  0  0  0  0  0  0  0  0
  150.6818  142.6836  156.0829 H   0  0  0  0  0  0  0  0  0  0  0  0
  149.5520  142.4992  157.4181 H   0  0  0  0  0  0  0  0  0  0  0  0
  152.5862  142.0078  157.5109 H   0  0  0  0  0  0  0  0  0  0  0  0
  151.7151  143.3163  158.2871 H   0  0  0  0  0  0  0  0  0  0  0  0
  152.2872  139.7586  158.3473 H   0  0  0  0  0  0  0  0  0  0  0  0
  151.2073  139.5030  159.7041 H   0  0  0  0  0  0  0  0  0  0  0  0
  149.2256  140.0484  158.3272 H   0  0  0  0  0  0  0  0  0  0  0  0
  150.1541  138.7790  157.5583 H   0  0  0  0  0  0  0  0  0  0  0  0
  148.5354  137.7155  153.8589 H   0  0  0  0  0  0  0  0  0  0  0  0
  1  2  1  0  0  0  0
  1 25  1  0  0  0  0
  1 26  1  0  0  0  0
  1 27  1  0  0  0  0
  2  3  1  0  0  0  0
  2  9  1  0  0  0  0
  2 28  1  0  0  0  0
  3  4  1  0  0  0  0
  4  5  1  0  0  0  0
  4 29  1  0  0  0  0
  4 30  1  0  0  0  0
  5  6  1  0  0  0  0
  5  7  1  0  0  0  0
  5  8  1  0  0  0  0
  9 10  2  0  0  0  0
  9 11  1  0  0  0  0
 11 12  1  0  0  0  0
 11 31  1  0  0  0  0
 12 13  1  0  0  0  0
 12 32  1  0  0  0  0
 12 33  1  0  0  0  0
 13 24  1  0  0  0  0
 13 14  2  0  0  0  0
 14 15  1  0  0  0  0
 14 34  1  0  0  0  0
 15 16  2  0  0  0  0
 15 35  1  0  0  0  0
 16 17  1  0  0  0  0
 16 23  1  0  0  0  0
 17 22  1  0  0  0  0
 17 18  1  0  0  0  0
 18 19  1  0  0  0  0
 18 36  1  0  0  0  0
 18 37  1  0  0  0  0
 19 20  1  0  0  0  0
 19 38  1  0  0  0  0
 19 39  1  0  0  0  0
 20 21  1  0  0  0  0
 21 22  1  0  0  0  0
 21 40  1  0  0  0  0
 21 41  1  0  0  0  0
 22 42  1  0  0  0  0
 22 43  1  0  0  0  0
 23 24  2  0  0  0  0
 24 44  1  0  0  0  0
M  END
> <s_m_source_file>
AV-unprocessed.smi

> <i_m_source_file_index>
1980

> <i_lp_mmshare_version>
43012

> <i_f3d_flags>
0

> <s_epik_input>
RkMoRikoRilbQ0gyXU9bQ0BASF0oW0NIM10pQyg9TylbTkhdW0NIMl1jMVtjSF1bY0hdYyhuW2NIXTEpTjJbQ0gyXVtDSDJdT1tDSDJdW0NIMl0y

> <s_epik_cmdline>
J2VwaWtfcHl0aG9uJywgJy1waCcsICc3LjAnLCAnLXRuJywgJzgnLCAnLW1hJywgJzIwMCcsICctbWV0YWxfYmluZGluZycsICctaW1hZScsICc8aW5maWxlLm1hZT4nLCAnLW9tYWUnLCAnPG91dGZpbGUubWFlPic=

> <r_lp_tautomer_probability>
1

> <r_epik_Ionization_Penalty>
0.00436425

> <r_epik_Ionization_Penalty_Charging>
0

> <r_epik_Ionization_Penalty_Neutral>
0.00436425

> <r_epik_State_Penalty>
0.00314317

> <r_epik_Charging_Adjusted_Penalty>
0.00314317

> <i_epik_Tot_Q>
0

> <i_epik_Tot_abs_Q>
0

> <r_epik_Metal_State_Penalty>
-0

> <b_epik_Metal_Only>
0

> <s_lp_Force_Field>
OPLS_2005

> <r_lp_Energy>
19.3234

> <b_lp_Chiralities_Consistent>
1

> <s_lp_Variant>
AV-unprocessed.smi:1980-1

> <Gold.Version>
5.8.1

> <Gold.Id.Protein>
6NUR|6NUR_protein|mol2

> <Gold.PLP.Fitness>
37.2440

> <Gold.PLP.PLP>
-35.2123

> <Gold.PLP.part.hbond>
-1.3186

> <Gold.PLP.part.metal>
0.0000

> <Gold.PLP.part.buried>
-1.8854

> <Gold.PLP.part.nonpolar>
-35.8187

> <Gold.PLP.part.repulsive>
3.2342

> <Gold.PLP.ligand.clash>
1.6389

> <Gold.PLP.ligand.torsion>
1.0407

> <Gold.PLP.Chemscore.Hbond>
0.7680

> <Gold.PLP.Chemscore.CHOScore>
1.0000

> <Gold.PLP.Chemscore.Metal>
0.0000

> <Gold.Chemscore.Hbonds>
donor molecule, donor type, donor heavy atom, donor atom, acceptor molecule, acceptor atom, score
      P1  H  7954  7966       L1    10  0.68
      L1  C    24    44       P1  7948  1.00

> <Gold.PLP.Chemscore.Internal.Correction>
0.4480

> <Gold.Rescore>
     Score         DG    S(hbond)    S(metal)    S(lipo)     H(rot)  DE(clash)    DE(int)     intcor
      7.54     -10.78       0.89        0.00      74.33       2.49       2.20       1.04       ----

> <Gold.Chemscore.Fitness>
7.5378

> <Gold.Chemscore.DG>
-10.7768

> <Gold.Chemscore.ZeroCoef>
-5.4800

> <Gold.Chemscore.Hbond>
0.8904

> <Gold.Chemscore.Metal>
0.0000

> <Gold.Chemscore.Lipo>
74.3344

> <Gold.Chemscore.Internal_Hbond>
0.0000

> <Gold.Chemscore.DEClash>
2.1956

> <Gold.Chemscore.DEInternal>
1.0434

> <Gold.Chemscore.Rot>
2.4899

> <Gold.Chemscore.Internal.Correction>
   9.000000E+99

> <Gold.Chemscore.Hbonds>
donor molecule, donor type, donor heavy atom, donor atom, acceptor molecule, acceptor atom, score
      P1  H  7954  7966       L1    10  0.63

> <Gold.Chemscore.Hbond.Weighted>
-2.9738

> <Gold.Chemscore.Metal.Weighted>
-0.0000

> <Gold.Chemscore.Lipo.Weighted>
-8.6971

> <Gold.Chemscore.Internal_Hbond.Weighted>
0.0000

> <Gold.Chemscore.DEClash.Weighted>
2.1956

> <Gold.Chemscore.DEInternal.Weighted>
1.0434

> <Gold.Chemscore.Rot.Weighted>
6.3741

> <Gold.Chemscore.Internal.Correction.Weighted>
   9.000000E+99

> <Gold.Protein.RotatedTorsions>
[ 6907 6896 6895 6894 ] final    2.77 input  -60.11 | X-H torsion
[ 7974 7965 7964 7962 ] final  123.46 input  175.53 | X-H torsion
[ 8008 7997 7996 7995 ] final   70.66 input   59.86 | X-H torsion
[ 10167 10162 10161 10158 ] final   64.09 input  -65.29 | X-H torsion
[ 10718 10713 10712 10709 ] final  121.42 input   66.30 | X-H torsion
[ 10763 10752 10751 10750 ] final -105.72 input  -60.55 | X-H torsion
[ 11005 11000 10999 10996 ] final  -82.75 input  -57.11 | X-H torsion

> <Gold.Protein.ActiveResidues>
 VAL166  LYS551  ARG553  GLY616  TRP617  ASP618  TYR619  PRO620  LYS621  CYS622 
 ASP623  PHE694  ASN695  SER759  ASP760  ASP761  ALA762  ILE779  LEU786  VAL792 
 PHE793  MET794  SER795  GLU796  ALA797  LYS798  CYS799  TRP800  GLU811  SER814 

> <Gold.Protein.RotatedAtoms>
  151.6142  135.1037  160.0087 H   0  0  0  0  0  0  0  0  0  0  0  0  # atno 6907 bound_to 6896
  152.4192  133.7084  159.6475 H   0  0  0  0  0  0  0  0  0  0  0  0  # atno 6908 bound_to 6896
  150.8080  133.8401  159.3218 H   0  0  0  0  0  0  0  0  0  0  0  0  # atno 6909 bound_to 6896
  145.0956  139.3555  143.4838 H   0  0  0  0  0  0  0  0  0  0  0  0  # atno 7974 bound_to 7965
  155.7422  140.3490  155.5109 H   0  0  0  0  0  0  0  0  0  0  0  0  # atno 8008 bound_to 7997
  155.9084  140.1046  157.1319 H   0  0  0  0  0  0  0  0  0  0  0  0  # atno 8009 bound_to 7997
  154.4052  140.1272  156.4512 H   0  0  0  0  0  0  0  0  0  0  0  0  # atno 8010 bound_to 7997
  140.1259  144.4688  150.6893 H   0  0  0  0  0  0  0  0  0  0  0  0  # atno 10167 bound_to 10162
  157.5818  131.1074  150.8171 H   0  0  0  0  0  0  0  0  0  0  0  0  # atno 10718 bound_to 10713
  154.7965  135.4739  154.0173 H   0  0  0  0  0  0  0  0  0  0  0  0  # atno 10763 bound_to 10752
  153.1712  135.6825  153.8613 H   0  0  0  0  0  0  0  0  0  0  0  0  # atno 10764 bound_to 10752
  153.8194  135.3206  155.3386 H   0  0  0  0  0  0  0  0  0  0  0  0  # atno 10765 bound_to 10752
  141.1661  133.7260  156.8618 H   0  0  0  0  0  0  0  0  0  0  0  0  # atno 11005 bound_to 11000
  146.3531  140.0810  142.8617 LP  0  0  0  0  0  0  0  0  0  0  0  0  # atno 17320 bound_to 7965
  145.1015  140.9348  143.4710 LP  0  0  0  0  0  0  0  0  0  0  0  0  # atno 17321 bound_to 7965
  140.6845  143.2343  151.5297 LP  0  0  0  0  0  0  0  0  0  0  0  0  # atno 17342 bound_to 10162
  139.5544  144.2312  152.1587 LP  0  0  0  0  0  0  0  0  0  0  0  0  # atno 17343 bound_to 10162
  156.8616  130.5115  149.5303 LP  0  0  0  0  0  0  0  0  0  0  0  0  # atno 17370 bound_to 10713
  156.0865  130.5862  150.9657 LP  0  0  0  0  0  0  0  0  0  0  0  0  # atno 17371 bound_to 10713
  140.1843  134.9011  157.2985 LP  0  0  0  0  0  0  0  0  0  0  0  0  # atno 17394 bound_to 11000
  140.2360  134.3852  155.7501 LP  0  0  0  0  0  0  0  0  0  0  0  0  # atno 17395 bound_to 11000

$$$$
