AV-unprocessed.smi:36|AV-procd|sdf|288|dock9
  -GOLD-   2262016 73D 1   1.00000     0.00000
 Structure written by MMmdl.
 64 67  0  0  0  0  0  0  0  0  1 V2000
  147.0835  134.0351  160.7083 C   0  0  0  0  0  0  0  0  0  0  0  0
  146.9714  135.3537  161.4912 C   0  0  0  0  0  0  0  0  0  0  0  0
  147.4111  135.1363  162.9486 C   0  0  0  0  0  0  0  0  0  0  0  0
  147.8579  136.4275  160.8381 C   0  0  0  0  0  0  0  0  0  0  0  0
  145.1573  135.9518  161.4690 Si  0  0  0  0  0  0  0  0  0  0  0  0
  143.9981  134.6403  162.2111 C   0  0  0  0  0  0  0  0  0  0  0  0
  144.9593  137.5885  162.4130 C   0  0  0  0  0  0  0  0  0  0  0  0
  144.7189  136.2165  159.8568 O   0  0  0  0  0  0  0  0  0  0  0  0
  144.8320  135.2338  158.8500 C   0  0  0  0  0  0  0  0  0  0  0  0
  143.8934  135.5998  157.6828 C   0  0  1  0  0  0  0  0  0  0  0  0
  144.0822  136.9712  157.3381 O   0  0  0  0  0  0  0  0  0  0  0  0
  145.0234  137.1053  156.3097 C   0  0  1  0  0  0  0  0  0  0  0  0
  146.2408  137.7861  156.8556 N   0  0  0  0  0  0  0  0  0  0  0  0
  146.4640  138.1908  158.1219 C   0  0  0  0  0  0  0  0  0  0  0  0
  147.6316  138.7925  158.3328 N   0  0  0  0  0  0  0  0  0  0  0  0
  148.2073  138.7884  157.0671 C   0  0  0  0  0  0  0  0  0  0  0  0
  149.5093  139.3176  156.6070 C   0  0  0  0  0  0  0  0  0  0  0  0
  150.2789  139.8781  157.4904 N   0  0  0  0  0  0  0  0  0  0  0  0
  151.5098  140.3988  157.1130 C   0  0  0  0  0  0  0  0  0  0  0  0
  152.3770  139.8931  156.3952 O   0  0  0  0  0  0  0  0  0  0  0  0
  151.7838  141.7460  157.6974 C   0  0  0  0  0  0  0  0  0  0  0  0
  152.6188  141.8709  158.8279 C   0  0  0  0  0  0  0  0  0  0  0  0
  152.8834  143.1425  159.3735 C   0  0  0  0  0  0  0  0  0  0  0  0
  152.3163  144.2918  158.7897 C   0  0  0  0  0  0  0  0  0  0  0  0
  151.4842  144.1702  157.6598 C   0  0  0  0  0  0  0  0  0  0  0  0
  151.2187  142.8994  157.1130 C   0  0  0  0  0  0  0  0  0  0  0  0
  149.6534  139.0944  155.2316 N   0  0  0  0  0  0  0  0  0  0  0  0
  148.7154  138.4687  154.3960 C   0  0  0  0  0  0  0  0  0  0  0  0
  147.5618  137.9983  154.7886 N   0  0  0  0  0  0  0  0  0  0  0  0
  147.3706  138.1897  156.1499 C   0  0  0  0  0  0  0  0  0  0  0  0
  145.3666  135.6911  155.8228 C   0  0  0  0  0  0  0  0  0  0  0  0
  144.1975  134.8904  156.3585 C   0  0  1  0  0  0  0  0  0  0  0  0
  144.5080  133.5184  156.4942 O   0  0  0  0  0  0  0  0  0  0  0  0
  148.1090  133.6642  160.7024 H   0  0  0  0  0  0  0  0  0  0  0  0
  146.7750  134.1619  159.6704 H   0  0  0  0  0  0  0  0  0  0  0  0
  146.4559  133.2584  161.1462 H   0  0  0  0  0  0  0  0  0  0  0  0
  146.8054  134.3730  163.4376 H   0  0  0  0  0  0  0  0  0  0  0  0
  147.3175  136.0536  163.5311 H   0  0  0  0  0  0  0  0  0  0  0  0
  148.4515  134.8151  163.0050 H   0  0  0  0  0  0  0  0  0  0  0  0
  148.9067  136.1291  160.8359 H   0  0  0  0  0  0  0  0  0  0  0  0
  147.7874  137.3763  161.3710 H   0  0  0  0  0  0  0  0  0  0  0  0
  147.5667  136.6099  159.8033 H   0  0  0  0  0  0  0  0  0  0  0  0
  144.2445  134.4317  163.2517 H   0  0  0  0  0  0  0  0  0  0  0  0
  144.0581  133.6971  161.6697 H   0  0  0  0  0  0  0  0  0  0  0  0
  142.9578  134.9632  162.1846 H   0  0  0  0  0  0  0  0  0  0  0  0
  145.2476  137.4857  163.4587 H   0  0  0  0  0  0  0  0  0  0  0  0
  143.9268  137.9367  162.3941 H   0  0  0  0  0  0  0  0  0  0  0  0
  145.5749  138.3775  161.9814 H   0  0  0  0  0  0  0  0  0  0  0  0
  145.8688  135.1567  158.5247 H   0  0  0  0  0  0  0  0  0  0  0  0
  144.5552  134.2697  159.2768 H   0  0  0  0  0  0  0  0  0  0  0  0
  142.8592  135.4298  157.9837 H   0  0  0  0  0  0  0  0  0  0  0  0
  144.6545  137.7701  155.5279 H   0  0  0  0  0  0  0  0  0  0  0  0
  145.7525  138.0385  158.9196 H   0  0  0  0  0  0  0  0  0  0  0  0
  153.0588  140.9936  159.2800 H   0  0  0  0  0  0  0  0  0  0  0  0
  153.5218  143.2360  160.2394 H   0  0  0  0  0  0  0  0  0  0  0  0
  152.5197  145.2665  159.2081 H   0  0  0  0  0  0  0  0  0  0  0  0
  151.0498  145.0517  157.2118 H   0  0  0  0  0  0  0  0  0  0  0  0
  150.5806  142.8141  156.2451 H   0  0  0  0  0  0  0  0  0  0  0  0
  149.0278  138.3989  153.3532 H   0  0  0  0  0  0  0  0  0  0  0  0
  145.4571  135.6586  154.7368 H   0  0  0  0  0  0  0  0  0  0  0  0
  146.3071  135.3586  156.2660 H   0  0  0  0  0  0  0  0  0  0  0  0
  143.3459  134.9978  155.6852 H   0  0  0  0  0  0  0  0  0  0  0  0
  143.8385  133.0148  156.0569 H   0  0  0  0  0  0  0  0  0  0  0  0
  150.5105  139.4138  154.8038 H   0  0  0  0  0  0  0  0  0  0  0  0
  1  2  1  0  0  0  0
  1 34  1  0  0  0  0
  1 35  1  0  0  0  0
  1 36  1  0  0  0  0
  2  3  1  0  0  0  0
  2  4  1  0  0  0  0
  2  5  1  0  0  0  0
  3 37  1  0  0  0  0
  3 38  1  0  0  0  0
  3 39  1  0  0  0  0
  4 40  1  0  0  0  0
  4 41  1  0  0  0  0
  4 42  1  0  0  0  0
  5  6  1  0  0  0  0
  5  7  1  0  0  0  0
  5  8  1  0  0  0  0
  6 43  1  0  0  0  0
  6 44  1  0  0  0  0
  6 45  1  0  0  0  0
  7 46  1  0  0  0  0
  7 47  1  0  0  0  0
  7 48  1  0  0  0  0
  8  9  1  0  0  0  0
  9 10  1  0  0  0  0
  9 49  1  0  0  0  0
  9 50  1  0  0  0  0
 10 32  1  0  0  0  0
 10 11  1  0  0  0  0
 10 51  1  0  0  0  0
 11 12  1  0  0  0  0
 12 13  1  0  0  0  0
 12 31  1  0  0  0  0
 12 52  1  0  0  0  0
 13 30  1  0  0  0  0
 13 14  1  0  0  0  0
 14 15  2  0  0  0  0
 14 53  1  0  0  0  0
 15 16  1  0  0  0  0
 16 30  2  0  0  0  0
 16 17  1  0  0  0  0
 17 18  2  0  0  0  0
 17 27  1  0  0  0  0
 18 19  1  0  0  0  0
 19 20  2  0  0  0  0
 19 21  1  0  0  0  0
 21 26  1  0  0  0  0
 21 22  2  0  0  0  0
 22 23  1  0  0  0  0
 22 54  1  0  0  0  0
 23 24  2  0  0  0  0
 23 55  1  0  0  0  0
 24 25  1  0  0  0  0
 24 56  1  0  0  0  0
 25 26  2  0  0  0  0
 25 57  1  0  0  0  0
 26 58  1  0  0  0  0
 27 28  1  0  0  0  0
 27 64  1  0  0  0  0
 28 29  2  0  0  0  0
 28 59  1  0  0  0  0
 29 30  1  0  0  0  0
 31 32  1  0  0  0  0
 31 60  1  0  0  0  0
 31 61  1  0  0  0  0
 32 33  1  0  0  0  0
 32 62  1  0  0  0  0
 33 63  1  0  0  0  0
M  END
> <s_m_source_file>
AV-unprocessed.smi

> <i_m_source_file_index>
36

> <i_lp_mmshare_version>
43012

> <i_f3d_flags>
0

> <s_epik_input>
W0NIM11DKFtDSDNdKShbQ0gzXSlbU2ldKFtDSDNdKShbQ0gzXSlPW0NIMl1bQ0BASF0xT1tDQEhdKFtDSDJdW0NASF0xW09IXSluKFtjSF1uMiljKGMyMyluW2NIXW5jM1tOSF1DKD1PKWM0W2NIXVtjSF1bY0hdW2NIXVtjSF00

> <s_epik_cmdline>
J2VwaWtfcHl0aG9uJywgJy1waCcsICc3LjAnLCAnLXRuJywgJzgnLCAnLW1hJywgJzIwMCcsICctbWV0YWxfYmluZGluZycsICctaW1hZScsICc8aW5maWxlLm1hZT4nLCAnLW9tYWUnLCAnPG91dGZpbGUubWFlPic=

> <r_epik_Ionization_Penalty>
0.0850405

> <r_epik_Ionization_Penalty_Charging>
0.0850403

> <r_epik_Ionization_Penalty_Neutral>
1.47497e-07

> <r_epik_State_Penalty>
2.6133

> <r_epik_Charging_Adjusted_Penalty>
2.69834

> <i_epik_Tot_Q>
0

> <i_epik_Tot_abs_Q>
0

> <r_epik_Metal_State_Penalty>
2.92945

> <b_epik_Metal_Only>
0

> <s_epik_Chemistry_Notes>
This compound contains an acetal/aminal-like group ( X-CH(R)-Y where X, Y are N, S, or O) that may be acid/base labile, releasing an aldehyde.

> <s_lp_Force_Field>
OPLS_2005

> <r_lp_Energy>
49.0467

> <b_lp_Chiralities_Consistent>
1

> <s_lp_Variant>
AV-unprocessed.smi:36-10

> <Gold.Version>
5.8.1

> <Gold.Id.Protein>
6NUR|6NUR_protein|mol2

> <Gold.PLP.Fitness>
49.0844

> <Gold.PLP.PLP>
-43.4106

> <Gold.PLP.part.hbond>
-3.0000

> <Gold.PLP.part.metal>
0.0000

> <Gold.PLP.part.buried>
-6.0887

> <Gold.PLP.part.nonpolar>
-33.6752

> <Gold.PLP.part.repulsive>
0.1424

> <Gold.PLP.ligand.clash>
0.0000

> <Gold.PLP.ligand.torsion>
2.1051

> <Gold.PLP.Chemscore.Hbond>
1.9913

> <Gold.PLP.Chemscore.CHOScore>
1.1485

> <Gold.PLP.Chemscore.Metal>
0.0000

> <Gold.Chemscore.Hbonds>
donor molecule, donor type, donor heavy atom, donor atom, acceptor molecule, acceptor atom, score
      L1  H    33    63       P1 10957  0.81
      P1  H  7997  8008       L1    20  1.00
      L1  C    28    59       P1  7948  0.76
      L1  C    28    59       P1  7957  0.36

> <Gold.PLP.Chemscore.Internal.Correction>
0.4648

> <Gold.Rescore>
     Score         DG    S(hbond)    S(metal)    S(lipo)     H(rot)  DE(clash)    DE(int)     intcor
     15.68     -17.82       1.96        0.00     108.75       2.70       0.02       2.13       ----

> <Gold.Chemscore.Fitness>
15.6774

> <Gold.Chemscore.DG>
-17.8233

> <Gold.Chemscore.ZeroCoef>
-5.4800

> <Gold.Chemscore.Hbond>
1.9588

> <Gold.Chemscore.Metal>
0.0000

> <Gold.Chemscore.Lipo>
108.7459

> <Gold.Chemscore.Internal_Hbond>
0.0000

> <Gold.Chemscore.DEClash>
0.0180

> <Gold.Chemscore.DEInternal>
2.1279

> <Gold.Chemscore.Rot>
2.7041

> <Gold.Chemscore.Internal.Correction>
   9.000000E+99

> <Gold.Chemscore.Hbonds>
donor molecule, donor type, donor heavy atom, donor atom, acceptor molecule, acceptor atom, score
      L1  H    33    63       P1 10957  0.79
      P1  H  7997  8008       L1    20  0.93

> <Gold.Chemscore.Hbond.Weighted>
-6.5425

> <Gold.Chemscore.Metal.Weighted>
-0.0000

> <Gold.Chemscore.Lipo.Weighted>
-12.7233

> <Gold.Chemscore.Internal_Hbond.Weighted>
0.0000

> <Gold.Chemscore.DEClash.Weighted>
0.0180

> <Gold.Chemscore.DEInternal.Weighted>
2.1279

> <Gold.Chemscore.Rot.Weighted>
6.9225

> <Gold.Chemscore.Internal.Correction.Weighted>
   9.000000E+99

> <Gold.Protein.RotatedTorsions>
[ 6907 6896 6895 6894 ] final    5.76 input  -60.11 | X-H torsion
[ 7974 7965 7964 7962 ] final -117.92 input  175.53 | X-H torsion
[ 8008 7997 7996 7995 ] final  -59.72 input   59.86 | X-H torsion
[ 10167 10162 10161 10158 ] final  149.45 input  -65.29 | X-H torsion
[ 10718 10713 10712 10709 ] final   65.82 input   66.30 | X-H torsion
[ 10763 10752 10751 10750 ] final  -78.32 input  -60.55 | X-H torsion
[ 11005 11000 10999 10996 ] final  144.06 input  -57.11 | X-H torsion

> <Gold.Protein.ActiveResidues>
 VAL166  LYS551  ARG553  GLY616  TRP617  ASP618  TYR619  PRO620  LYS621  CYS622 
 ASP623  PHE694  ASN695  SER759  ASP760  ASP761  ALA762  ILE779  LEU786  VAL792 
 PHE793  MET794  SER795  GLU796  ALA797  LYS798  CYS799  TRP800  GLU811  SER814 

> <Gold.Protein.RotatedAtoms>
  151.6627  135.0987  160.0182 H   0  0  0  0  0  0  0  0  0  0  0  0  # atno 6907 bound_to 6896
  152.3937  133.6712  159.6267 H   0  0  0  0  0  0  0  0  0  0  0  0  # atno 6908 bound_to 6896
  150.7848  133.8827  159.3331 H   0  0  0  0  0  0  0  0  0  0  0  0  # atno 6909 bound_to 6896
  145.0797  140.8417  143.4046 H   0  0  0  0  0  0  0  0  0  0  0  0  # atno 7974 bound_to 7965
  154.4365  140.1055  156.6160 H   0  0  0  0  0  0  0  0  0  0  0  0  # atno 8008 bound_to 7997
  155.5759  140.3490  155.4508 H   0  0  0  0  0  0  0  0  0  0  0  0  # atno 8009 bound_to 7997
  156.0355  140.1270  157.0202 H   0  0  0  0  0  0  0  0  0  0  0  0  # atno 8010 bound_to 7997
  139.4861  144.5600  151.7247 H   0  0  0  0  0  0  0  0  0  0  0  0  # atno 10167 bound_to 10162
  157.6130  130.9235  150.0027 H   0  0  0  0  0  0  0  0  0  0  0  0  # atno 10718 bound_to 10713
  154.5244  135.5734  153.6707 H   0  0  0  0  0  0  0  0  0  0  0  0  # atno 10763 bound_to 10752
  152.9924  135.6189  154.2711 H   0  0  0  0  0  0  0  0  0  0  0  0  # atno 10764 bound_to 10752
  154.2634  135.2855  155.2748 H   0  0  0  0  0  0  0  0  0  0  0  0  # atno 10765 bound_to 10752
  140.0602  134.9208  157.1171 H   0  0  0  0  0  0  0  0  0  0  0  0  # atno 11005 bound_to 11000
  145.1193  139.2704  143.5597 LP  0  0  0  0  0  0  0  0  0  0  0  0  # atno 17320 bound_to 7965
  146.3531  140.0812  142.8617 LP  0  0  0  0  0  0  0  0  0  0  0  0  # atno 17321 bound_to 7965
  140.5169  144.0940  150.6011 LP  0  0  0  0  0  0  0  0  0  0  0  0  # atno 17342 bound_to 10162
  140.3884  143.2765  152.0089 LP  0  0  0  0  0  0  0  0  0  0  0  0  # atno 17343 bound_to 10162
  156.1240  130.3645  149.9840 LP  0  0  0  0  0  0  0  0  0  0  0  0  # atno 17370 bound_to 10713
  156.7914  130.9257  151.3646 LP  0  0  0  0  0  0  0  0  0  0  0  0  # atno 17371 bound_to 10713
  140.3781  134.2316  155.7173 LP  0  0  0  0  0  0  0  0  0  0  0  0  # atno 17394 bound_to 11000
  141.1970  133.8070  157.0648 LP  0  0  0  0  0  0  0  0  0  0  0  0  # atno 17395 bound_to 11000

$$$$
