#       Name:                AV-unprocessed.smi:110
#       Creating user name   scv26
#       Creation time:       Thu Mar 26 18:16:06 2020


#       File generated by GOLD software.
#

@<TRIPOS>MOLECULE
AV-unprocessed.smi:110
    57    61     1
SMALL
NO_CHARGES


@<TRIPOS>ATOM
      1 ****        -5.1066   0.7512   4.3000 O.3            1 S1                 0.0000
      2 ****        -4.7084  -0.4586   3.6917 C.3            1 S1                 0.0000
      3 ****        -3.2385  -0.7592   4.0260 C.3            1 S1                 0.0000
      4 ****        -2.4226   0.0344   3.1668 O.3            1 S1                 0.0000
      5 ****        -1.3437  -0.7160   2.7216 C.3            1 S1                 0.0000
      6 ****        -0.8628  -0.1471   1.4278 N.pl3          1 S1                 0.0000
      7 ****        -1.5349   0.6467   0.5251 C.2            1 S1                 0.0000
      8 ****        -0.8478   0.9886  -0.5312 N.2            1 S1                 0.0000
      9 ****         0.3920   0.3851  -0.3467 C.ar           1 S1                 0.0000
     10 ****         1.6061   0.3442  -1.0924 C.ar           1 S1                 0.0000
     11 ****         1.7698   0.9508  -2.2965 N.pl3          1 S1                 0.0000
     12 ****         0.6597   0.9446  -3.2618 C.3            1 S1                 0.0000
     13 ****         1.2470   1.1914  -4.6626 C.3            1 S1                 0.0000
     14 ****         2.6797   1.4435  -4.3278 C.ar           1 S1                 0.0000
     15 ****         3.7076   1.8016  -5.2172 C.ar           1 S1                 0.0000
     16 ****         5.0003   2.0087  -4.6914 C.ar           1 S1                 0.0000
     17 ****         5.2383   1.8624  -3.3054 C.ar           1 S1                 0.0000
     18 ****         4.1897   1.5018  -2.4307 C.ar           1 S1                 0.0000
     19 ****         2.9007   1.2818  -2.9628 C.ar           1 S1                 0.0000
     20 ****         2.6340  -0.3702  -0.5644 N.ar           1 S1                 0.0000
     21 ****         2.4943  -0.9965   0.6073 C.ar           1 S1                 0.0000
     22 ****         1.4271  -1.0424   1.4062 N.ar           1 S1                 0.0000
     23 ****         0.3888  -0.3283   0.8853 C.ar           1 S1                 0.0000
     24 ****        -1.8596  -2.1491   2.5826 C.3            1 S1                 0.0000
     25 ****        -2.5090  -2.3887   1.3468 O.3            1 S1                 0.0000
     26 ****        -2.8457  -2.2264   3.7410 C.3            1 S1                 0.0000
     27 ****        -2.2030  -2.7700   4.8781 O.3            1 S1                 0.0000
     28 ****        -3.0266  -0.5026   5.0659 H              1 S1                 0.0000
     29 ****        -0.5088  -0.6216   3.4177 H              1 S1                 0.0000
     30 ****        -1.0308  -2.8525   2.6754 H              1 S1                 0.0000
     31 ****        -3.7037  -2.8585   3.5072 H              1 S1                 0.0000
     32 ****        -6.0151   0.9080   4.0923 H              1 S1                 0.0000
     33 ****        -5.3537  -1.2446   4.0846 H              1 S1                 0.0000
     34 ****        -4.8698  -0.4140   2.6141 H              1 S1                 0.0000
     35 ****        -2.5565   0.9654   0.6729 H              1 S1                 0.0000
     36 ****         0.1147   0.0001  -3.2286 H              1 S1                 0.0000
     37 ****        -0.0380   1.7428  -3.0069 H              1 S1                 0.0000
     38 ****         1.1561   0.3147  -5.3045 H              1 S1                 0.0000
     39 ****         0.7955   2.0526  -5.1561 H              1 S1                 0.0000
     40 ****         3.5131   1.9189  -6.2731 H              1 S1                 0.0000
     41 ****         5.8101   2.2867  -5.3498 H              1 S1                 0.0000
     42 ****         6.2294   2.0325  -2.9115 H              1 S1                 0.0000
     43 ****         4.3830   1.4097  -1.3725 H              1 S1                 0.0000
     44 ****         3.3613  -1.5399   0.9526 H              1 S1                 0.0000
     45 ****        -3.1665  -1.7218   1.2212 H              1 S1                 0.0000
     46 ****        -1.9458  -3.6582   4.6821 H              1 S1                 0.0000
     47 ****        -4.5468   1.5033   3.9524 LP             1 S1                 0.0000
     48 ****        -4.9945   0.6827   5.2914 LP             1 S1                 0.0000
     49 ****        -2.0882   0.8317   3.6692 LP             1 S1                 0.0000
     50 ****        -2.9631   0.3375   2.3820 LP             1 S1                 0.0000
     51 ****        -1.1454   1.5558  -1.2990 LP             1 S1                 0.0000
     52 ****         3.5024  -0.4277  -1.0569 LP             1 S1                 0.0000
     53 ****         1.3929  -1.5367   2.2749 LP             1 S1                 0.0000
     54 ****        -2.9411  -3.2905   1.3616 LP             1 S1                 0.0000
     55 ****        -1.8427  -2.3506   0.6022 LP             1 S1                 0.0000
     56 ****        -2.8320  -2.7649   5.6556 LP             1 S1                 0.0000
     57 ****        -1.3939  -2.2260   5.1004 LP             1 S1                 0.0000
@<TRIPOS>BOND
    1    1    2 1     
    2    1   32 1     
    3    2    3 1     
    4    2   33 1     
    5    2   34 1     
    6    3   28 1     
    7    3   26 1     
    8    3    4 1     
    9    4    5 1     
   10    5   29 1     
   11    5    6 1     
   12    5   24 1     
   13    6   23 1     
   14    6    7 1     
   15    7    8 2     
   16    7   35 1     
   17    8    9 1     
   18    9   23 ar    
   19    9   10 ar    
   20   10   11 1     
   21   10   20 ar    
   22   11   19 1     
   23   11   12 1     
   24   12   13 1     
   25   12   36 1     
   26   12   37 1     
   27   13   14 1     
   28   13   38 1     
   29   13   39 1     
   30   14   19 ar    
   31   14   15 ar    
   32   15   16 ar    
   33   15   40 1     
   34   16   17 ar    
   35   16   41 1     
   36   17   18 ar    
   37   17   42 1     
   38   18   19 ar    
   39   18   43 1     
   40   20   21 ar    
   41   21   22 ar    
   42   21   44 1     
   43   22   23 ar    
   44   24   30 1     
   45   24   25 1     
   46   24   26 1     
   47   25   45 1     
   48   26   31 1     
   49   26   27 1     
   50   27   46 1     
   51    1   47 1     
   52    1   48 1     
   53    4   49 1     
   54    4   50 1     
   55    8   51 1     
   56   20   52 1     
   57   22   53 1     
   58   25   54 1     
   59   25   55 1     
   60   27   56 1     
   61   27   57 1     
@<TRIPOS>SUBSTRUCTURE
      1 S1             1
@<TRIPOS>SET
LONE_PAIRS      STATIC     ATOMS    <user>   **** ""
11 47 48 49 50 51 52 53 54 55 56 57
DONOR_HYDROGENS      STATIC     ATOMS    <user>   **** ""
3 32 45 46
ATOM$BLUE        STATIC     ATOMS    COLORGROUP SYSTEM
11 47 48 49 50 51 52 53 54 55 56 57
ATOM$RED        STATIC     ATOMS    COLORGROUP SYSTEM
3 32 45 46
