AV-unprocessed.smi:2850|AV-procd|sdf|10966|dock10
  -GOLD-   2272015423D 1   1.00000     0.00000
 Structure written by MMmdl.
 45 46  0  0  0  0  0  0  0  0  2 V2000
  152.7456  142.4895  161.6709 C   0  0  0  0  0  0  0  0  0  0  0  0
  152.5041  143.4357  160.1420 S   0  0  0  0  0  0  0  0  0  0  0  0
  152.1833  142.2728  158.8509 C   0  0  0  0  0  0  0  0  0  0  0  0
  151.0624  142.4225  158.0147 C   0  0  0  0  0  0  0  0  0  0  0  0
  150.8821  141.4564  157.0098 C   0  0  0  0  0  0  0  0  0  0  0  0
  151.8329  140.4198  156.9180 C   0  0  0  0  0  0  0  0  0  0  0  0
  151.6769  139.4465  155.9206 N   0  0  0  0  0  0  0  0  0  0  0  0
  152.4152  138.1895  155.9539 C   0  0  0  0  0  0  0  0  0  0  0  0
  151.4927  136.9614  155.8674 C   0  0  1  0  0  0  0  0  0  0  0  0
  150.6503  136.9732  154.5755 C   0  0  0  0  0  0  0  0  0  0  0  0
  149.8171  135.7508  154.4638 N   0  3  2  0  0  0  0  0  0  0  0  0
  148.6082  135.7721  155.3319 C   0  0  0  0  0  0  0  0  0  0  0  0
  147.8192  134.4457  155.2974 C   0  0  0  0  0  0  0  0  0  0  0  0
  147.4059  134.0595  153.8672 C   0  0  0  0  0  0  0  0  0  0  0  0
  146.5840  134.5312  156.2061 C   0  0  0  0  0  0  0  0  0  0  0  0
  150.6592  134.5349  154.5999 C   0  0  0  0  0  0  0  0  0  0  0  0
  151.5395  134.5954  155.8630 C   0  0  0  0  0  0  0  0  0  0  0  0
  152.3068  135.7928  155.8569 O   0  0  0  0  0  0  0  0  0  0  0  0
  152.8911  140.3404  157.7650 N   0  0  0  0  0  0  0  0  0  0  0  0
  153.0680  141.2578  158.7220 N   0  0  0  0  0  0  0  0  0  0  0  0
  152.9430  143.1661  162.5021 H   0  0  0  0  0  0  0  0  0  0  0  0
  153.5918  141.8096  161.5722 H   0  0  0  0  0  0  0  0  0  0  0  0
  151.8537  141.9077  161.9044 H   0  0  0  0  0  0  0  0  0  0  0  0
  150.3700  143.2421  158.1379 H   0  0  0  0  0  0  0  0  0  0  0  0
  150.0420  141.5125  156.3331 H   0  0  0  0  0  0  0  0  0  0  0  0
  151.1116  139.6528  155.1093 H   0  0  0  0  0  0  0  0  0  0  0  0
  153.1412  138.1771  155.1400 H   0  0  0  0  0  0  0  0  0  0  0  0
  152.9943  138.1541  156.8770 H   0  0  0  0  0  0  0  0  0  0  0  0
  150.8306  136.9407  156.7345 H   0  0  0  0  0  0  0  0  0  0  0  0
  150.0252  137.8654  154.5251 H   0  0  0  0  0  0  0  0  0  0  0  0
  151.3121  137.0166  153.7092 H   0  0  0  0  0  0  0  0  0  0  0  0
  148.8896  136.0197  156.3556 H   0  0  0  0  0  0  0  0  0  0  0  0
  147.9404  136.5709  155.0057 H   0  0  0  0  0  0  0  0  0  0  0  0
  148.4446  133.6455  155.6921 H   0  0  0  0  0  0  0  0  0  0  0  0
  146.7712  134.8238  153.4175 H   0  0  0  0  0  0  0  0  0  0  0  0
  146.8500  133.1214  153.8601 H   0  0  0  0  0  0  0  0  0  0  0  0
  148.2744  133.9252  153.2221 H   0  0  0  0  0  0  0  0  0  0  0  0
  145.8986  135.3110  155.8724 H   0  0  0  0  0  0  0  0  0  0  0  0
  146.8669  134.7549  157.2351 H   0  0  0  0  0  0  0  0  0  0  0  0
  146.0359  133.5886  156.2154 H   0  0  0  0  0  0  0  0  0  0  0  0
  150.0541  133.6293  154.5974 H   0  0  0  0  0  0  0  0  0  0  0  0
  151.3031  134.4712  153.7216 H   0  0  0  0  0  0  0  0  0  0  0  0
  150.9408  134.5368  156.7727 H   0  0  0  0  0  0  0  0  0  0  0  0
  152.2203  133.7443  155.8827 H   0  0  0  0  0  0  0  0  0  0  0  0
  149.4584  135.7498  153.5195 H   0  0  0  0  0  0  0  0  0  0  0  0
  1  2  1  0  0  0  0
  1 21  1  0  0  0  0
  1 22  1  0  0  0  0
  1 23  1  0  0  0  0
  2  3  1  0  0  0  0
  3 20  1  0  0  0  0
  3  4  2  0  0  0  0
  4  5  1  0  0  0  0
  4 24  1  0  0  0  0
  5  6  2  0  0  0  0
  5 25  1  0  0  0  0
  6  7  1  0  0  0  0
  6 19  1  0  0  0  0
  7  8  1  0  0  0  0
  7 26  1  0  0  0  0
  8  9  1  0  0  0  0
  8 27  1  0  0  0  0
  8 28  1  0  0  0  0
  9 18  1  0  0  0  0
  9 10  1  0  0  0  0
  9 29  1  0  0  0  0
 10 11  1  0  0  0  0
 10 30  1  0  0  0  0
 10 31  1  0  0  0  0
 11 12  1  0  0  0  0
 11 16  1  0  0  0  0
 11 45  1  0  0  0  0
 12 13  1  0  0  0  0
 12 32  1  0  0  0  0
 12 33  1  0  0  0  0
 13 14  1  0  0  0  0
 13 15  1  0  0  0  0
 13 34  1  0  0  0  0
 14 35  1  0  0  0  0
 14 36  1  0  0  0  0
 14 37  1  0  0  0  0
 15 38  1  0  0  0  0
 15 39  1  0  0  0  0
 15 40  1  0  0  0  0
 16 17  1  0  0  0  0
 16 41  1  0  0  0  0
 16 42  1  0  0  0  0
 17 18  1  0  0  0  0
 17 43  1  0  0  0  0
 17 44  1  0  0  0  0
 19 20  2  0  0  0  0
M  CHG  1  11   1
M  END
> <s_m_source_file>
AV-unprocessed.smi

> <i_m_source_file_index>
2850

> <i_lp_mmshare_version>
43012

> <i_f3d_flags>
0

> <s_epik_input>
W0NIM11TYzFbY0hdW2NIXWMobm4xKVtOSF1bQ0gyXVtDQEBIXTJbQ0gyXU4oW0NIMl1bQ0gyXU8yKVtDSDJdW0NIXShbQ0gzXSlbQ0gzXQ==

> <s_epik_cmdline>
J2VwaWtfcHl0aG9uJywgJy1waCcsICc3LjAnLCAnLXRuJywgJzgnLCAnLW1hJywgJzIwMCcsICctbWV0YWxfYmluZGluZycsICctaW1hZScsICc8aW5maWxlLm1hZT4nLCAnLW9tYWUnLCAnPG91dGZpbGUubWFlPic=

> <r_lp_tautomer_probability>
0.999978

> <r_epik_Ionization_Penalty>
0.0874875

> <r_epik_Ionization_Penalty_Charging>
0.0831532

> <r_epik_Ionization_Penalty_Neutral>
0.00433433

> <r_epik_State_Penalty>
0.0738301

> <r_epik_Charging_Adjusted_Penalty>
0.156983

> <i_epik_Tot_Q>
1

> <i_epik_Tot_abs_Q>
1

> <r_epik_Metal_State_Penalty>
0.073888

> <b_epik_Metal_Only>
0

> <s_lp_Force_Field>
OPLS_2005

> <r_lp_Energy>
26.339

> <b_lp_Chiralities_Consistent>
1

> <s_lp_Variant>
AV-unprocessed.smi:2850-2

> <Gold.Version>
5.8.1

> <Gold.Id.Protein>
6NUR|6NUR_protein|mol2

> <Gold.PLP.Fitness>
41.5252

> <Gold.PLP.PLP>
-29.8600

> <Gold.PLP.part.hbond>
-3.0000

> <Gold.PLP.part.metal>
0.0000

> <Gold.PLP.part.buried>
-3.4953

> <Gold.PLP.part.nonpolar>
-23.4167

> <Gold.PLP.part.repulsive>
0.1616

> <Gold.PLP.ligand.clash>
0.0000

> <Gold.PLP.ligand.torsion>
0.1911

> <Gold.PLP.Chemscore.Hbond>
3.9760

> <Gold.PLP.Chemscore.CHOScore>
0.0000

> <Gold.PLP.Chemscore.Metal>
0.0000

> <Gold.Chemscore.Hbonds>
donor molecule, donor type, donor heavy atom, donor atom, acceptor molecule, acceptor atom, score
      L1  H    11    45       P1  7948  2.00
      P1  H  7997  8009       L1    19  0.85
      P1  H 10752 10763       L1    18  0.20

> <Gold.PLP.Chemscore.Internal.Correction>
0.1194

> <Gold.Rescore>
     Score         DG    S(hbond)    S(metal)    S(lipo)     H(rot)  DE(clash)    DE(int)     intcor
     18.05     -18.45       2.37        0.00      78.14       1.60       0.14       0.25       ----

> <Gold.Chemscore.Fitness>
18.0506

> <Gold.Chemscore.DG>
-18.4490

> <Gold.Chemscore.ZeroCoef>
-5.4800

> <Gold.Chemscore.Hbond>
2.3724

> <Gold.Chemscore.Metal>
0.0000

> <Gold.Chemscore.Lipo>
78.1376

> <Gold.Chemscore.Internal_Hbond>
0.0000

> <Gold.Chemscore.DEClash>
0.1446

> <Gold.Chemscore.DEInternal>
0.2539

> <Gold.Chemscore.Rot>
1.6003

> <Gold.Chemscore.Internal.Correction>
   9.000000E+99

> <Gold.Chemscore.Hbonds>
donor molecule, donor type, donor heavy atom, donor atom, acceptor molecule, acceptor atom, score
      L1  H    11    45       P1  7948  0.30
      P1  H  7997  8009       L1    19  0.43
      P1  H 10752 10763       L1    18  0.05

> <Gold.Chemscore.Hbond.Weighted>
-7.9238

> <Gold.Chemscore.Metal.Weighted>
-0.0000

> <Gold.Chemscore.Lipo.Weighted>
-9.1421

> <Gold.Chemscore.Internal_Hbond.Weighted>
0.0000

> <Gold.Chemscore.DEClash.Weighted>
0.1446

> <Gold.Chemscore.DEInternal.Weighted>
0.2539

> <Gold.Chemscore.Rot.Weighted>
4.0968

> <Gold.Chemscore.Internal.Correction.Weighted>
   9.000000E+99

> <Gold.Protein.RotatedTorsions>
[ 6907 6896 6895 6894 ] final  132.45 input  -60.11 | X-H torsion
[ 7974 7965 7964 7962 ] final -131.42 input  175.53 | X-H torsion
[ 8008 7997 7996 7995 ] final  157.05 input   59.86 | X-H torsion
[ 10167 10162 10161 10158 ] final   78.84 input  -65.29 | X-H torsion
[ 10718 10713 10712 10709 ] final   70.15 input   66.30 | X-H torsion
[ 10763 10752 10751 10750 ] final   96.78 input  -60.55 | X-H torsion
[ 11005 11000 10999 10996 ] final  -70.58 input  -57.11 | X-H torsion

> <Gold.Protein.ActiveResidues>
 VAL166  LYS551  ARG553  GLY616  TRP617  ASP618  TYR619  PRO620  LYS621  CYS622 
 ASP623  PHE694  ASN695  SER759  ASP760  ASP761  ALA762  ILE779  LEU786  VAL792 
 PHE793  MET794  SER795  GLU796  ALA797  LYS798  CYS799  TRP800  GLU811  SER814 

> <Gold.Protein.RotatedAtoms>
  152.3322  133.5971  159.5817 H   0  0  0  0  0  0  0  0  0  0  0  0  # atno 6907 bound_to 6896
  150.7430  133.9850  159.3597 H   0  0  0  0  0  0  0  0  0  0  0  0  # atno 6908 bound_to 6896
  151.7724  135.0783  160.0413 H   0  0  0  0  0  0  0  0  0  0  0  0  # atno 6909 bound_to 6896
  144.9381  140.7207  143.4864 H   0  0  0  0  0  0  0  0  0  0  0  0  # atno 7974 bound_to 7965
  156.2386  140.1896  156.7050 H   0  0  0  0  0  0  0  0  0  0  0  0  # atno 8008 bound_to 7997
  154.6154  140.0616  156.9575 H   0  0  0  0  0  0  0  0  0  0  0  0  # atno 8009 bound_to 7997
  155.1947  140.3287  155.4355 H   0  0  0  0  0  0  0  0  0  0  0  0  # atno 8010 bound_to 7997
  139.9667  144.5923  150.8022 H   0  0  0  0  0  0  0  0  0  0  0  0  # atno 10167 bound_to 10162
  157.6384  130.9462  150.0611 H   0  0  0  0  0  0  0  0  0  0  0  0  # atno 10718 bound_to 10713
  153.2691  135.4206  155.0970 H   0  0  0  0  0  0  0  0  0  0  0  0  # atno 10763 bound_to 10752
  154.8449  135.3467  154.6270 H   0  0  0  0  0  0  0  0  0  0  0  0  # atno 10764 bound_to 10752
  153.6690  135.7044  153.5210 H   0  0  0  0  0  0  0  0  0  0  0  0  # atno 10765 bound_to 10752
  141.1577  133.6794  156.6774 H   0  0  0  0  0  0  0  0  0  0  0  0  # atno 11005 bound_to 11000
  145.3034  139.1842  143.4677 LP  0  0  0  0  0  0  0  0  0  0  0  0  # atno 17320 bound_to 7965
  146.3275  140.3029  142.8622 LP  0  0  0  0  0  0  0  0  0  0  0  0  # atno 17321 bound_to 7965
  140.7535  143.3010  151.3080 LP  0  0  0  0  0  0  0  0  0  0  0  0  # atno 17342 bound_to 10162
  139.6512  144.0358  152.2628 LP  0  0  0  0  0  0  0  0  0  0  0  0  # atno 17343 bound_to 10162
  156.1644  130.3644  149.9254 LP  0  0  0  0  0  0  0  0  0  0  0  0  # atno 17370 bound_to 10713
  156.7244  130.9019  151.3621 LP  0  0  0  0  0  0  0  0  0  0  0  0  # atno 17371 bound_to 10713
  140.3128  134.8072  157.4190 LP  0  0  0  0  0  0  0  0  0  0  0  0  # atno 17394 bound_to 11000
  140.1163  134.5278  155.8222 LP  0  0  0  0  0  0  0  0  0  0  0  0  # atno 17395 bound_to 11000

$$$$
