AV-unprocessed.smi:3330|AV-procd|sdf|12801|dock10
  -GOLD-   2272019163D 1   1.00000     0.00000
 Structure written by MMmdl.
 39 40  0  0  0  0  0  0  0  0  2 V2000
  148.9112  132.2978  153.2711 C   0  0  0  0  0  0  0  0  0  0  0  0
  147.6978  132.8324  152.4887 C   0  0  2  0  0  0  0  0  0  0  0  0
  147.3647  134.1996  152.9488 N   0  3  0  0  0  0  0  0  0  0  0  0
  147.2530  134.3767  154.4117 C   0  0  0  0  0  0  0  0  0  0  0  0
  147.0531  135.8571  154.7847 C   0  0  0  0  0  0  0  0  0  0  0  0
  145.8487  136.4328  154.1704 N   0  0  0  0  0  0  0  0  0  0  0  0
  144.7219  135.7443  153.9443 C   0  0  0  0  0  0  0  0  0  0  0  0
  144.5023  134.5635  154.2108 O   0  0  0  0  0  0  0  0  0  0  0  0
  143.7134  136.6696  153.2993 C   0  0  0  0  0  0  0  0  0  0  0  0
  144.4990  137.8841  153.2650 N   0  0  0  0  0  0  0  0  0  0  0  0
  145.7239  137.7148  153.7790 C   0  0  0  0  0  0  0  0  0  0  0  0
  146.5749  138.5961  153.8874 O   0  0  0  0  0  0  0  0  0  0  0  0
  146.4477  131.9208  152.6219 C   0  0  2  0  0  0  0  0  0  0  0  0
  146.7842  130.4191  152.5650 C   0  0  0  0  0  0  0  0  0  0  0  0
  145.4408  132.2337  151.6115 N   0  0  0  0  0  0  0  0  0  0  0  0
  145.5478  132.1262  150.2399 C   0  0  0  0  0  0  0  0  0  0  0  0
  144.3638  132.5436  149.7029 C   0  0  0  0  0  0  0  0  0  0  0  0
  143.5855  132.9029  150.8378 C   0  0  0  0  0  0  0  0  0  0  0  0
  144.2305  132.7153  151.9771 N   0  0  0  0  0  0  0  0  0  0  0  0
  149.2340  131.3261  152.8984 H   0  0  0  0  0  0  0  0  0  0  0  0
  148.6829  132.1893  154.3320 H   0  0  0  0  0  0  0  0  0  0  0  0
  149.7684  132.9654  153.1837 H   0  0  0  0  0  0  0  0  0  0  0  0
  147.9659  132.8823  151.4322 H   0  0  0  0  0  0  0  0  0  0  0  0
  148.1223  134.7956  152.6460 H   0  0  0  0  0  0  0  0  0  0  0  0
  146.4219  133.7804  154.7885 H   0  0  0  0  0  0  0  0  0  0  0  0
  148.1566  134.0044  154.8963 H   0  0  0  0  0  0  0  0  0  0  0  0
  147.0079  135.9606  155.8703 H   0  0  0  0  0  0  0  0  0  0  0  0
  147.9285  136.4310  154.4757 H   0  0  0  0  0  0  0  0  0  0  0  0
  143.4433  136.3359  152.2970 H   0  0  0  0  0  0  0  0  0  0  0  0
  142.8194  136.7838  153.9128 H   0  0  0  0  0  0  0  0  0  0  0  0
  144.1461  138.7570  152.9001 H   0  0  0  0  0  0  0  0  0  0  0  0
  145.9889  132.1181  153.5922 H   0  0  0  0  0  0  0  0  0  0  0  0
  147.4097  130.1116  153.4024 H   0  0  0  0  0  0  0  0  0  0  0  0
  147.3083  130.1622  151.6438 H   0  0  0  0  0  0  0  0  0  0  0  0
  145.8774  129.8149  152.6082 H   0  0  0  0  0  0  0  0  0  0  0  0
  146.4473  131.7642  149.7636 H   0  0  0  0  0  0  0  0  0  0  0  0
  144.0959  132.5901  148.6577 H   0  0  0  0  0  0  0  0  0  0  0  0
  142.5768  133.2881  150.8675 H   0  0  0  0  0  0  0  0  0  0  0  0
  146.5163  134.5134  152.4993 H   0  0  0  0  0  0  0  0  0  0  0  0
  1  2  1  0  0  0  0
  1 20  1  0  0  0  0
  1 21  1  0  0  0  0
  1 22  1  0  0  0  0
  2  3  1  0  0  0  0
  2 13  1  0  0  0  0
  2 23  1  0  0  0  0
  3  4  1  0  0  0  0
  3 24  1  0  0  0  0
  3 39  1  0  0  0  0
  4  5  1  0  0  0  0
  4 25  1  0  0  0  0
  4 26  1  0  0  0  0
  5  6  1  0  0  0  0
  5 27  1  0  0  0  0
  5 28  1  0  0  0  0
  6 11  1  0  0  0  0
  6  7  1  0  0  0  0
  7  8  2  0  0  0  0
  7  9  1  0  0  0  0
  9 10  1  0  0  0  0
  9 29  1  0  0  0  0
  9 30  1  0  0  0  0
 10 11  1  0  0  0  0
 10 31  1  0  0  0  0
 11 12  2  0  0  0  0
 13 14  1  0  0  0  0
 13 15  1  0  0  0  0
 13 32  1  0  0  0  0
 14 33  1  0  0  0  0
 14 34  1  0  0  0  0
 14 35  1  0  0  0  0
 15 19  1  0  0  0  0
 15 16  1  0  0  0  0
 16 17  2  0  0  0  0
 16 36  1  0  0  0  0
 17 18  1  0  0  0  0
 17 37  1  0  0  0  0
 18 19  2  0  0  0  0
 18 38  1  0  0  0  0
M  CHG  1   3   1
M  END
> <s_m_source_file>
AV-unprocessed.smi

> <i_m_source_file_index>
3330

> <i_lp_mmshare_version>
43012

> <i_f3d_flags>
0

> <s_epik_input>
bjFbY0hdW2NIXVtjSF1uMVtDQEBIXShbQ0gzXSlbQ0BIXShbQ0gzXSlbTkhdW0NIMl1bQ0gyXU4yQyg9TylbQ0gyXVtOSF1DMj1P

> <s_epik_cmdline>
J2VwaWtfcHl0aG9uJywgJy1waCcsICc3LjAnLCAnLXRuJywgJzgnLCAnLW1hJywgJzIwMCcsICctbWV0YWxfYmluZGluZycsICctaW1hZScsICc8aW5maWxlLm1hZT4nLCAnLW9tYWUnLCAnPG91dGZpbGUubWFlPic=

> <r_lp_tautomer_probability>
1

> <r_epik_Ionization_Penalty>
0.0124905

> <r_epik_Ionization_Penalty_Charging>
0.0123685

> <r_epik_Ionization_Penalty_Neutral>
0.000122059

> <r_epik_State_Penalty>
0.00957041

> <r_epik_Charging_Adjusted_Penalty>
0.0219389

> <i_epik_Tot_Q>
1

> <i_epik_Tot_abs_Q>
1

> <r_epik_Metal_State_Penalty>
0.0858301

> <b_epik_Metal_Only>
0

> <s_lp_Force_Field>
OPLS_2005

> <r_lp_Energy>
30.1395

> <b_lp_Chiralities_Consistent>
1

> <s_lp_Variant>
AV-unprocessed.smi:3330-1

> <Gold.Version>
5.8.1

> <Gold.Id.Protein>
6NUR|6NUR_protein|mol2

> <Gold.PLP.Fitness>
43.9994

> <Gold.PLP.PLP>
-30.7894

> <Gold.PLP.part.hbond>
-3.0000

> <Gold.PLP.part.metal>
0.0000

> <Gold.PLP.part.buried>
-4.4218

> <Gold.PLP.part.nonpolar>
-23.5571

> <Gold.PLP.part.repulsive>
0.4649

> <Gold.PLP.ligand.clash>
0.0000

> <Gold.PLP.ligand.torsion>
0.7315

> <Gold.PLP.Chemscore.Hbond>
2.8640

> <Gold.PLP.Chemscore.CHOScore>
2.0000

> <Gold.PLP.Chemscore.Metal>
0.0000

> <Gold.Chemscore.Hbonds>
donor molecule, donor type, donor heavy atom, donor atom, acceptor molecule, acceptor atom, score
      L1  H     3    24       P1  7948  2.00
      L1  H    10    31       P1 10175  1.00
      L1  C    16    36       P1 10747  0.53
      L1  C    18    38       P1 10186  1.00

> <Gold.PLP.Chemscore.Internal.Correction>
0.0809

> <Gold.Rescore>
     Score         DG    S(hbond)    S(metal)    S(lipo)     H(rot)  DE(clash)    DE(int)     intcor
     10.49     -12.44       1.91        0.00      63.32       2.67       0.05       1.90       ----

> <Gold.Chemscore.Fitness>
10.4924

> <Gold.Chemscore.DG>
-12.4424

> <Gold.Chemscore.ZeroCoef>
-5.4800

> <Gold.Chemscore.Hbond>
1.9104

> <Gold.Chemscore.Metal>
0.0000

> <Gold.Chemscore.Lipo>
63.3185

> <Gold.Chemscore.Internal_Hbond>
0.0000

> <Gold.Chemscore.DEClash>
0.0460

> <Gold.Chemscore.DEInternal>
1.9041

> <Gold.Chemscore.Rot>
2.6666

> <Gold.Chemscore.Internal.Correction>
   9.000000E+99

> <Gold.Chemscore.Hbonds>
donor molecule, donor type, donor heavy atom, donor atom, acceptor molecule, acceptor atom, score
      L1  H     3    24       P1  7948  0.70
      L1  H    10    31       P1 10175  1.00

> <Gold.Chemscore.Hbond.Weighted>
-6.3807

> <Gold.Chemscore.Metal.Weighted>
-0.0000

> <Gold.Chemscore.Lipo.Weighted>
-7.4083

> <Gold.Chemscore.Internal_Hbond.Weighted>
0.0000

> <Gold.Chemscore.DEClash.Weighted>
0.0460

> <Gold.Chemscore.DEInternal.Weighted>
1.9041

> <Gold.Chemscore.Rot.Weighted>
6.8265

> <Gold.Chemscore.Internal.Correction.Weighted>
   9.000000E+99

> <Gold.Protein.RotatedTorsions>
[ 6907 6896 6895 6894 ] final -157.55 input  -60.11 | X-H torsion
[ 7974 7965 7964 7962 ] final  146.06 input  175.53 | X-H torsion
[ 8008 7997 7996 7995 ] final   82.61 input   59.86 | X-H torsion
[ 10167 10162 10161 10158 ] final  151.26 input  -65.29 | X-H torsion
[ 10718 10713 10712 10709 ] final   43.81 input   66.30 | X-H torsion
[ 10763 10752 10751 10750 ] final   14.60 input  -60.55 | X-H torsion
[ 11005 11000 10999 10996 ] final -121.23 input  -57.11 | X-H torsion

> <Gold.Protein.ActiveResidues>
 VAL166  LYS551  ARG553  GLY616  TRP617  ASP618  TYR619  PRO620  LYS621  CYS622 
 ASP623  PHE694  ASN695  SER759  ASP760  ASP761  ALA762  ILE779  LEU786  VAL792 
 PHE793  MET794  SER795  GLU796  ALA797  LYS798  CYS799  TRP800  GLU811  SER814 

> <Gold.Protein.RotatedAtoms>
  151.3046  133.4107  159.2641 H   0  0  0  0  0  0  0  0  0  0  0  0  # atno 6907 bound_to 6896
  151.0166  134.9438  159.8047 H   0  0  0  0  0  0  0  0  0  0  0  0  # atno 6908 bound_to 6896
  152.5314  134.3009  159.9131 H   0  0  0  0  0  0  0  0  0  0  0  0  # atno 6909 bound_to 6896
  144.8702  139.5858  143.5890 H   0  0  0  0  0  0  0  0  0  0  0  0  # atno 7974 bound_to 7965
  155.9129  140.3426  155.6112 H   0  0  0  0  0  0  0  0  0  0  0  0  # atno 8008 bound_to 7997
  155.7366  140.0802  157.2283 H   0  0  0  0  0  0  0  0  0  0  0  0  # atno 8009 bound_to 7997
  154.4058  140.1578  156.2556 H   0  0  0  0  0  0  0  0  0  0  0  0  # atno 8010 bound_to 7997
  139.4842  144.5455  151.7491 H   0  0  0  0  0  0  0  0  0  0  0  0  # atno 10167 bound_to 10162
  157.4200  130.7964  149.7507 H   0  0  0  0  0  0  0  0  0  0  0  0  # atno 10718 bound_to 10713
  153.1606  135.6795  153.8748 H   0  0  0  0  0  0  0  0  0  0  0  0  # atno 10763 bound_to 10752
  153.8144  135.3138  155.3405 H   0  0  0  0  0  0  0  0  0  0  0  0  # atno 10764 bound_to 10752
  154.7929  135.4824  154.0184 H   0  0  0  0  0  0  0  0  0  0  0  0  # atno 10765 bound_to 10752
  141.0085  134.0299  157.3445 H   0  0  0  0  0  0  0  0  0  0  0  0  # atno 11005 bound_to 11000
  146.2925  139.7180  142.9151 LP  0  0  0  0  0  0  0  0  0  0  0  0  # atno 17320 bound_to 7965
  145.4145  141.0400  143.2998 LP  0  0  0  0  0  0  0  0  0  0  0  0  # atno 17321 bound_to 7965
  140.5001  144.1182  150.5969 LP  0  0  0  0  0  0  0  0  0  0  0  0  # atno 17342 bound_to 10162
  140.4072  143.2674  151.9877 LP  0  0  0  0  0  0  0  0  0  0  0  0  # atno 17343 bound_to 10162
  155.9877  130.3964  150.3150 LP  0  0  0  0  0  0  0  0  0  0  0  0  # atno 17370 bound_to 10713
  157.1297  131.0268  151.2974 LP  0  0  0  0  0  0  0  0  0  0  0  0  # atno 17371 bound_to 10713
  139.9077  135.0183  156.7557 LP  0  0  0  0  0  0  0  0  0  0  0  0  # atno 17394 bound_to 11000
  140.6772  133.9507  155.7890 LP  0  0  0  0  0  0  0  0  0  0  0  0  # atno 17395 bound_to 11000

$$$$
