AV-unprocessed.smi:2138|AV-procd|sdf|8711|dock9
  -GOLD-   2272011473D 1   1.00000     0.00000
 Structure written by MMmdl.
 46 47  0  0  0  0  0  0  0  0  1 V2000
  152.8174  142.8379  159.6965 C   0  0  0  0  0  0  0  0  0  0  0  0
  151.6828  142.8427  158.8480 O   0  0  0  0  0  0  0  0  0  0  0  0
  151.2917  141.5371  158.4580 C   0  0  0  0  0  0  0  0  0  0  0  0
  150.2375  141.6403  157.3526 C   0  0  0  0  0  0  0  0  0  0  0  0
  150.8619  141.3782  156.0995 O   0  0  0  0  0  0  0  0  0  0  0  0
  150.7241  140.1222  155.5444 C   0  0  0  0  0  0  0  0  0  0  0  0
  150.2922  139.0645  156.3687 C   0  0  0  0  0  0  0  0  0  0  0  0
  150.1434  137.7803  155.8100 C   0  0  0  0  0  0  0  0  0  0  0  0
  150.4399  137.5918  154.4381 C   0  0  0  0  0  0  0  0  0  0  0  0
  150.3185  136.3585  153.7401 N   0  0  0  0  0  0  0  0  0  0  0  0
  149.7184  135.2147  154.1194 C   0  0  0  0  0  0  0  0  0  0  0  0
  149.1661  135.0359  155.2046 O   0  0  0  0  0  0  0  0  0  0  0  0
  149.7625  134.0702  153.0936 C   0  0  1  0  0  0  0  0  0  0  0  0
  150.0985  132.7217  153.7579 C   0  0  0  0  0  0  0  0  0  0  0  0
  148.8213  131.9103  153.6162 C   0  0  0  0  0  0  0  0  0  0  0  0
  148.6907  130.7951  154.1185 O   0  0  0  0  0  0  0  0  0  0  0  0
  147.9023  132.5732  152.8988 N   0  0  0  0  0  0  0  0  0  0  0  0
  146.5449  132.1385  152.5458 C   0  0  0  0  0  0  0  0  0  0  0  0
  146.5526  130.7630  151.8563 C   0  0  0  0  0  0  0  0  0  0  0  0
  145.8112  133.2015  151.7098 C   0  0  0  0  0  0  0  0  0  0  0  0
  148.3995  133.8480  152.4044 C   0  0  0  0  0  0  0  0  0  0  0  0
  150.8602  138.7180  153.7001 C   0  0  0  0  0  0  0  0  0  0  0  0
  151.0035  139.9511  154.2290 N   0  0  0  0  0  0  0  0  0  0  0  0
  153.0747  143.8614  159.9695 H   0  0  0  0  0  0  0  0  0  0  0  0
  153.6808  142.3953  159.1982 H   0  0  0  0  0  0  0  0  0  0  0  0
  152.6210  142.2837  160.6153 H   0  0  0  0  0  0  0  0  0  0  0  0
  152.1563  140.9771  158.0983 H   0  0  0  0  0  0  0  0  0  0  0  0
  150.8820  140.9990  159.3143 H   0  0  0  0  0  0  0  0  0  0  0  0
  149.4418  140.9165  157.5369 H   0  0  0  0  0  0  0  0  0  0  0  0
  149.7960  142.6384  157.3582 H   0  0  0  0  0  0  0  0  0  0  0  0
  150.0726  139.2363  157.4122 H   0  0  0  0  0  0  0  0  0  0  0  0
  149.7961  136.9810  156.4445 H   0  0  0  0  0  0  0  0  0  0  0  0
  150.7743  136.3317  152.8395 H   0  0  0  0  0  0  0  0  0  0  0  0
  150.5145  134.2992  152.3364 H   0  0  0  0  0  0  0  0  0  0  0  0
  150.9095  132.2164  153.2327 H   0  0  0  0  0  0  0  0  0  0  0  0
  150.3806  132.8068  154.8087 H   0  0  0  0  0  0  0  0  0  0  0  0
  145.9873  132.0246  153.4767 H   0  0  0  0  0  0  0  0  0  0  0  0
  145.5359  130.4055  151.6926 H   0  0  0  0  0  0  0  0  0  0  0  0
  147.0679  130.0209  152.4674 H   0  0  0  0  0  0  0  0  0  0  0  0
  147.0468  130.7965  150.8851 H   0  0  0  0  0  0  0  0  0  0  0  0
  144.7723  132.9158  151.5428 H   0  0  0  0  0  0  0  0  0  0  0  0
  146.2725  133.3393  150.7318 H   0  0  0  0  0  0  0  0  0  0  0  0
  145.8080  134.1665  152.2177 H   0  0  0  0  0  0  0  0  0  0  0  0
  147.6829  134.6448  152.6129 H   0  0  0  0  0  0  0  0  0  0  0  0
  148.5194  133.7907  151.3218 H   0  0  0  0  0  0  0  0  0  0  0  0
  151.0904  138.6290  152.6484 H   0  0  0  0  0  0  0  0  0  0  0  0
  1  2  1  0  0  0  0
  1 24  1  0  0  0  0
  1 25  1  0  0  0  0
  1 26  1  0  0  0  0
  2  3  1  0  0  0  0
  3  4  1  0  0  0  0
  3 27  1  0  0  0  0
  3 28  1  0  0  0  0
  4  5  1  0  0  0  0
  4 29  1  0  0  0  0
  4 30  1  0  0  0  0
  5  6  1  0  0  0  0
  6 23  1  0  0  0  0
  6  7  2  0  0  0  0
  7  8  1  0  0  0  0
  7 31  1  0  0  0  0
  8  9  2  0  0  0  0
  8 32  1  0  0  0  0
  9 10  1  0  0  0  0
  9 22  1  0  0  0  0
 10 11  1  0  0  0  0
 10 33  1  0  0  0  0
 11 12  2  0  0  0  0
 11 13  1  0  0  0  0
 13 21  1  0  0  0  0
 13 14  1  0  0  0  0
 13 34  1  0  0  0  0
 14 15  1  0  0  0  0
 14 35  1  0  0  0  0
 14 36  1  0  0  0  0
 15 16  2  0  0  0  0
 15 17  1  0  0  0  0
 17 18  1  0  0  0  0
 17 21  1  0  0  0  0
 18 19  1  0  0  0  0
 18 20  1  0  0  0  0
 18 37  1  0  0  0  0
 19 38  1  0  0  0  0
 19 39  1  0  0  0  0
 19 40  1  0  0  0  0
 20 41  1  0  0  0  0
 20 42  1  0  0  0  0
 20 43  1  0  0  0  0
 21 44  1  0  0  0  0
 21 45  1  0  0  0  0
 22 23  2  0  0  0  0
 22 46  1  0  0  0  0
M  END
> <s_m_source_file>
AV-unprocessed.smi

> <i_m_source_file_index>
2138

> <i_lp_mmshare_version>
43012

> <i_f3d_flags>
0

> <s_epik_input>
W0NIM11PW0NIMl1bQ0gyXU9jMVtjSF1bY0hdYyhbY0hdbjEpW05IXUMoPU8pW0NAQEhdMltDSDJdQyg9TylOKFtDSDJdMilbQ0hdKFtDSDNdKVtDSDNd

> <s_epik_cmdline>
J2VwaWtfcHl0aG9uJywgJy1waCcsICc3LjAnLCAnLXRuJywgJzgnLCAnLW1hJywgJzIwMCcsICctbWV0YWxfYmluZGluZycsICctaW1hZScsICc8aW5maWxlLm1hZT4nLCAnLW9tYWUnLCAnPG91dGZpbGUubWFlPic=

> <r_lp_tautomer_probability>
1

> <r_epik_Ionization_Penalty>
1.72652e-05

> <r_epik_Ionization_Penalty_Charging>
0

> <r_epik_Ionization_Penalty_Neutral>
1.72652e-05

> <r_epik_State_Penalty>
-0

> <r_epik_Charging_Adjusted_Penalty>
0

> <i_epik_Tot_Q>
0

> <i_epik_Tot_abs_Q>
0

> <r_epik_Metal_State_Penalty>
-0

> <b_epik_Metal_Only>
0

> <s_lp_Force_Field>
OPLS_2005

> <r_lp_Energy>
21.5992

> <b_lp_Chiralities_Consistent>
1

> <s_lp_Variant>
AV-unprocessed.smi:2138-2

> <Gold.Version>
5.8.1

> <Gold.Id.Protein>
6NUR|6NUR_protein|mol2

> <Gold.PLP.Fitness>
42.8424

> <Gold.PLP.PLP>
-37.0238

> <Gold.PLP.part.hbond>
-3.0000

> <Gold.PLP.part.metal>
0.0000

> <Gold.PLP.part.buried>
-4.7322

> <Gold.PLP.part.nonpolar>
-28.2705

> <Gold.PLP.part.repulsive>
0.2645

> <Gold.PLP.ligand.clash>
0.0000

> <Gold.PLP.ligand.torsion>
1.2906

> <Gold.PLP.Chemscore.Hbond>
1.7691

> <Gold.PLP.Chemscore.CHOScore>
1.0000

> <Gold.PLP.Chemscore.Metal>
0.0000

> <Gold.Chemscore.Hbonds>
donor molecule, donor type, donor heavy atom, donor atom, acceptor molecule, acceptor atom, score
      L1  H    10    33       P1  7949  0.35
      P1  H  7989  7998       L1    23  0.50
      L1  C    22    46       P1  7949  0.12
      L1  C    22    46       P1  7957  0.29

> <Gold.PLP.Chemscore.Internal.Correction>
0.0926

> <Gold.Rescore>
     Score         DG    S(hbond)    S(metal)    S(lipo)     H(rot)  DE(clash)    DE(int)     intcor
     10.43     -12.95       0.92        0.00      81.32       2.00       0.01       2.51       ----

> <Gold.Chemscore.Fitness>
10.4345

> <Gold.Chemscore.DG>
-12.9545

> <Gold.Chemscore.ZeroCoef>
-5.4800

> <Gold.Chemscore.Hbond>
0.9249

> <Gold.Chemscore.Metal>
0.0000

> <Gold.Chemscore.Lipo>
81.3184

> <Gold.Chemscore.Internal_Hbond>
0.0000

> <Gold.Chemscore.DEClash>
0.0147

> <Gold.Chemscore.DEInternal>
2.5053

> <Gold.Chemscore.Rot>
2.0035

> <Gold.Chemscore.Internal.Correction>
   9.000000E+99

> <Gold.Chemscore.Hbonds>
donor molecule, donor type, donor heavy atom, donor atom, acceptor molecule, acceptor atom, score
      L1  H    10    33       P1  7949  0.01
      P1  H  7989  7998       L1    23  0.47

> <Gold.Chemscore.Hbond.Weighted>
-3.0892

> <Gold.Chemscore.Metal.Weighted>
-0.0000

> <Gold.Chemscore.Lipo.Weighted>
-9.5143

> <Gold.Chemscore.Internal_Hbond.Weighted>
0.0000

> <Gold.Chemscore.DEClash.Weighted>
0.0147

> <Gold.Chemscore.DEInternal.Weighted>
2.5053

> <Gold.Chemscore.Rot.Weighted>
5.1290

> <Gold.Chemscore.Internal.Correction.Weighted>
   9.000000E+99

> <Gold.Protein.RotatedTorsions>
[ 6907 6896 6895 6894 ] final  -31.63 input  -60.11 | X-H torsion
[ 7974 7965 7964 7962 ] final   43.75 input  175.53 | X-H torsion
[ 8008 7997 7996 7995 ] final   13.24 input   59.86 | X-H torsion
[ 10167 10162 10161 10158 ] final   56.15 input  -65.29 | X-H torsion
[ 10718 10713 10712 10709 ] final   75.18 input   66.30 | X-H torsion
[ 10763 10752 10751 10750 ] final  137.08 input  -60.55 | X-H torsion
[ 11005 11000 10999 10996 ] final -108.73 input  -57.11 | X-H torsion

> <Gold.Protein.ActiveResidues>
 VAL166  LYS551  ARG553  GLY616  TRP617  ASP618  TYR619  PRO620  LYS621  CYS622 
 ASP623  PHE694  ASN695  SER759  ASP760  ASP761  ALA762  ILE779  LEU786  VAL792 
 PHE793  MET794  SER795  GLU796  ALA797  LYS798  CYS799  TRP800  GLU811  SER814 

> <Gold.Protein.RotatedAtoms>
  151.0895  134.9907  159.8395 H   0  0  0  0  0  0  0  0  0  0  0  0  # atno 6907 bound_to 6896
  152.5428  134.2083  159.8749 H   0  0  0  0  0  0  0  0  0  0  0  0  # atno 6908 bound_to 6896
  151.2118  133.4508  159.2632 H   0  0  0  0  0  0  0  0  0  0  0  0  # atno 6909 bound_to 6896
  146.0629  139.5152  142.9647 H   0  0  0  0  0  0  0  0  0  0  0  0  # atno 7974 bound_to 7965
  154.8318  140.2900  155.5717 H   0  0  0  0  0  0  0  0  0  0  0  0  # atno 8008 bound_to 7997
  156.3006  140.2530  156.3175 H   0  0  0  0  0  0  0  0  0  0  0  0  # atno 8009 bound_to 7997
  154.9223  140.0385  157.1994 H   0  0  0  0  0  0  0  0  0  0  0  0  # atno 8010 bound_to 7997
  140.2118  144.3881  150.6486 H   0  0  0  0  0  0  0  0  0  0  0  0  # atno 10167 bound_to 10162
  157.6623  130.9714  150.1317 H   0  0  0  0  0  0  0  0  0  0  0  0  # atno 10718 bound_to 10713
  153.8672  135.3060  155.3440 H   0  0  0  0  0  0  0  0  0  0  0  0  # atno 10763 bound_to 10752
  154.7822  135.4829  153.9872 H   0  0  0  0  0  0  0  0  0  0  0  0  # atno 10764 bound_to 10752
  153.1427  135.6827  153.9097 H   0  0  0  0  0  0  0  0  0  0  0  0  # atno 10765 bound_to 10752
  141.0886  133.9096  157.2129 H   0  0  0  0  0  0  0  0  0  0  0  0  # atno 11005 bound_to 11000
  145.6529  141.0259  143.1750 LP  0  0  0  0  0  0  0  0  0  0  0  0  # atno 17320 bound_to 7965
  144.7185  139.8112  143.7390 LP  0  0  0  0  0  0  0  0  0  0  0  0  # atno 17321 bound_to 7965
  140.6318  143.2188  151.6479 LP  0  0  0  0  0  0  0  0  0  0  0  0  # atno 17342 bound_to 10162
  139.5177  144.3307  152.0829 LP  0  0  0  0  0  0  0  0  0  0  0  0  # atno 17343 bound_to 10162
  156.2162  130.3670  149.8610 LP  0  0  0  0  0  0  0  0  0  0  0  0  # atno 17370 bound_to 10713
  156.6475  130.8730  151.3525 LP  0  0  0  0  0  0  0  0  0  0  0  0  # atno 17371 bound_to 10713
  139.9707  135.0129  156.9505 LP  0  0  0  0  0  0  0  0  0  0  0  0  # atno 17394 bound_to 11000
  140.5306  134.0817  155.7315 LP  0  0  0  0  0  0  0  0  0  0  0  0  # atno 17395 bound_to 11000

$$$$
