AV-unprocessed.smi:3249|AV-procd|sdf|12420|dock5
  -GOLD-   2272018303D 1   1.00000     0.00000
 Structure written by MMmdl.
 44 45  0  0  0  0  0  0  0  0  2 V2000
  150.7421  136.1238  155.2350 C   0  0  0  0  0  0  0  0  0  0  0  0
  150.5222  137.5743  154.9157 C   0  0  0  0  0  0  0  0  0  0  0  0
  151.4994  138.6041  154.8079 C   0  0  0  0  0  0  0  0  0  0  0  0
  150.9739  139.7818  154.5140 N   0  0  0  0  0  0  0  0  0  0  0  0
  149.6457  139.5485  154.4214 N   0  0  0  0  0  0  0  0  0  0  0  0
  148.7293  140.6383  154.1102 C   0  0  1  0  0  0  0  0  0  0  0  0
  147.3872  140.0688  153.6123 C   0  0  0  0  0  0  0  0  0  0  0  0
  148.5637  141.6215  155.3007 C   0  0  1  0  0  0  0  0  0  0  0  0
  148.1892  140.9177  156.6178 C   0  0  0  0  0  0  0  0  0  0  0  0
  149.8095  142.3930  155.5100 N   0  3  0  0  0  0  0  0  0  0  0  0
  150.7858  141.7612  156.4220 C   0  0  0  0  0  0  0  0  0  0  0  0
  151.0165  142.6121  157.6799 C   0  0  2  0  0  0  0  0  0  0  0  0
  151.6326  143.9912  157.3642 C   0  0  0  0  0  0  0  0  0  0  0  0
  151.9338  144.7566  158.6580 C   0  0  0  0  0  0  0  0  0  0  0  0
  152.7850  143.8861  159.5880 C   0  0  0  0  0  0  0  0  0  0  0  0
  152.1228  142.5139  159.7894 C   0  0  0  0  0  0  0  0  0  0  0  0
  151.9062  141.8895  158.5273 O   0  0  0  0  0  0  0  0  0  0  0  0
  149.3471  138.2236  154.6633 C   0  0  0  0  0  0  0  0  0  0  0  0
  151.8011  135.8645  155.2359 H   0  0  0  0  0  0  0  0  0  0  0  0
  150.2534  135.4731  154.5096 H   0  0  0  0  0  0  0  0  0  0  0  0
  150.3474  135.8647  156.2174 H   0  0  0  0  0  0  0  0  0  0  0  0
  152.5696  138.5306  154.9347 H   0  0  0  0  0  0  0  0  0  0  0  0
  149.1765  141.1905  153.2818 H   0  0  0  0  0  0  0  0  0  0  0  0
  146.7334  140.8548  153.2347 H   0  0  0  0  0  0  0  0  0  0  0  0
  146.8540  139.5467  154.4073 H   0  0  0  0  0  0  0  0  0  0  0  0
  147.5418  139.3611  152.7971 H   0  0  0  0  0  0  0  0  0  0  0  0
  147.7520  142.3133  155.0673 H   0  0  0  0  0  0  0  0  0  0  0  0
  147.2232  140.4168  156.5507 H   0  0  0  0  0  0  0  0  0  0  0  0
  148.1191  141.6342  157.4367 H   0  0  0  0  0  0  0  0  0  0  0  0
  148.9334  140.1698  156.8931 H   0  0  0  0  0  0  0  0  0  0  0  0
  150.2557  142.5212  154.6129 H   0  0  0  0  0  0  0  0  0  0  0  0
  150.4044  140.7819  156.7139 H   0  0  0  0  0  0  0  0  0  0  0  0
  151.7272  141.5927  155.8974 H   0  0  0  0  0  0  0  0  0  0  0  0
  150.0654  142.7383  158.2009 H   0  0  0  0  0  0  0  0  0  0  0  0
  152.5548  143.8619  156.7960 H   0  0  0  0  0  0  0  0  0  0  0  0
  150.9595  144.5774  156.7383 H   0  0  0  0  0  0  0  0  0  0  0  0
  152.4477  145.6925  158.4369 H   0  0  0  0  0  0  0  0  0  0  0  0
  150.9997  145.0206  159.1552 H   0  0  0  0  0  0  0  0  0  0  0  0
  153.7781  143.7514  159.1576 H   0  0  0  0  0  0  0  0  0  0  0  0
  152.9245  144.3836  160.5481 H   0  0  0  0  0  0  0  0  0  0  0  0
  152.7653  141.8731  160.3933 H   0  0  0  0  0  0  0  0  0  0  0  0
  151.1777  142.6123  160.3258 H   0  0  0  0  0  0  0  0  0  0  0  0
  148.3325  137.8540  154.6357 H   0  0  0  0  0  0  0  0  0  0  0  0
  149.5629  143.3010  155.8774 H   0  0  0  0  0  0  0  0  0  0  0  0
  1  2  1  0  0  0  0
  1 19  1  0  0  0  0
  1 20  1  0  0  0  0
  1 21  1  0  0  0  0
  2 18  2  0  0  0  0
  2  3  1  0  0  0  0
  3  4  2  0  0  0  0
  3 22  1  0  0  0  0
  4  5  1  0  0  0  0
  5  6  1  0  0  0  0
  5 18  1  0  0  0  0
  6  7  1  0  0  0  0
  6  8  1  0  0  0  0
  6 23  1  0  0  0  0
  7 24  1  0  0  0  0
  7 25  1  0  0  0  0
  7 26  1  0  0  0  0
  8  9  1  0  0  0  0
  8 10  1  0  0  0  0
  8 27  1  0  0  0  0
  9 28  1  0  0  0  0
  9 29  1  0  0  0  0
  9 30  1  0  0  0  0
 10 11  1  0  0  0  0
 10 31  1  0  0  0  0
 10 44  1  0  0  0  0
 11 12  1  0  0  0  0
 11 32  1  0  0  0  0
 11 33  1  0  0  0  0
 12 17  1  0  0  0  0
 12 13  1  0  0  0  0
 12 34  1  0  0  0  0
 13 14  1  0  0  0  0
 13 35  1  0  0  0  0
 13 36  1  0  0  0  0
 14 15  1  0  0  0  0
 14 37  1  0  0  0  0
 14 38  1  0  0  0  0
 15 16  1  0  0  0  0
 15 39  1  0  0  0  0
 15 40  1  0  0  0  0
 16 17  1  0  0  0  0
 16 41  1  0  0  0  0
 16 42  1  0  0  0  0
 18 43  1  0  0  0  0
M  CHG  1  10   1
M  END
> <s_m_source_file>
AV-unprocessed.smi

> <i_m_source_file_index>
3249

> <i_lp_mmshare_version>
43012

> <i_f3d_flags>
0

> <s_epik_input>
W0NIM11jMVtjSF1ubihbY0hdMSlbQ0BIXShbQ0gzXSlbQ0BIXShbQ0gzXSlbTkhdW0NIMl1bQ0BASF0yW0NIMl1bQ0gyXVtDSDJdW0NIMl1PMg==

> <s_epik_cmdline>
J2VwaWtfcHl0aG9uJywgJy1waCcsICc3LjAnLCAnLXRuJywgJzgnLCAnLW1hJywgJzIwMCcsICctbWV0YWxfYmluZGluZycsICctaW1hZScsICc8aW5maWxlLm1hZT4nLCAnLW9tYWUnLCAnPG91dGZpbGUubWFlPic=

> <r_lp_tautomer_probability>
1

> <r_epik_Ionization_Penalty>
0.00659207

> <r_epik_Ionization_Penalty_Charging>
0.00656881

> <r_epik_Ionization_Penalty_Neutral>
2.32662e-05

> <r_epik_State_Penalty>
0.0048654

> <r_epik_Charging_Adjusted_Penalty>
0.0114342

> <i_epik_Tot_Q>
1

> <i_epik_Tot_abs_Q>
1

> <r_epik_Metal_State_Penalty>
-0

> <b_epik_Metal_Only>
0

> <s_lp_Force_Field>
OPLS_2005

> <r_lp_Energy>
19.2424

> <b_lp_Chiralities_Consistent>
1

> <s_lp_Variant>
AV-unprocessed.smi:3249-4

> <Gold.Version>
5.8.1

> <Gold.Id.Protein>
6NUR|6NUR_protein|mol2

> <Gold.PLP.Fitness>
47.1814

> <Gold.PLP.PLP>
-41.2973

> <Gold.PLP.part.hbond>
-1.9106

> <Gold.PLP.part.metal>
0.0000

> <Gold.PLP.part.buried>
-2.7548

> <Gold.PLP.part.nonpolar>
-37.3334

> <Gold.PLP.part.repulsive>
0.2920

> <Gold.PLP.ligand.clash>
0.4653

> <Gold.PLP.ligand.torsion>
1.2093

> <Gold.PLP.Chemscore.Hbond>
2.8880

> <Gold.PLP.Chemscore.CHOScore>
0.0000

> <Gold.PLP.Chemscore.Metal>
0.0000

> <Gold.Chemscore.Hbonds>
donor molecule, donor type, donor heavy atom, donor atom, acceptor molecule, acceptor atom, score
      L1  H    10    44       P1  8028  1.95
      P1  H  7989  7998       L1     4  1.00

> <Gold.PLP.Chemscore.Internal.Correction>
0.1040

> <Gold.Rescore>
     Score         DG    S(hbond)    S(metal)    S(lipo)     H(rot)  DE(clash)    DE(int)     intcor
     18.91     -21.58       1.96        0.00     115.17       1.53       0.05       2.63       ----

> <Gold.Chemscore.Fitness>
18.9066

> <Gold.Chemscore.DG>
-21.5829

> <Gold.Chemscore.ZeroCoef>
-5.4800

> <Gold.Chemscore.Hbond>
1.9621

> <Gold.Chemscore.Metal>
0.0000

> <Gold.Chemscore.Lipo>
115.1674

> <Gold.Chemscore.Internal_Hbond>
0.0000

> <Gold.Chemscore.DEClash>
0.0462

> <Gold.Chemscore.DEInternal>
2.6300

> <Gold.Chemscore.Rot>
1.5333

> <Gold.Chemscore.Internal.Correction>
   9.000000E+99

> <Gold.Chemscore.Hbonds>
donor molecule, donor type, donor heavy atom, donor atom, acceptor molecule, acceptor atom, score
      L1  H    10    44       P1  8028  0.91
      P1  H  7989  7998       L1     4  0.95

> <Gold.Chemscore.Hbond.Weighted>
-6.5535

> <Gold.Chemscore.Metal.Weighted>
-0.0000

> <Gold.Chemscore.Lipo.Weighted>
-13.4746

> <Gold.Chemscore.Internal_Hbond.Weighted>
0.0000

> <Gold.Chemscore.DEClash.Weighted>
0.0462

> <Gold.Chemscore.DEInternal.Weighted>
2.6300

> <Gold.Chemscore.Rot.Weighted>
3.9252

> <Gold.Chemscore.Internal.Correction.Weighted>
   9.000000E+99

> <Gold.Protein.RotatedTorsions>
[ 6907 6896 6895 6894 ] final  -43.38 input  -60.11 | X-H torsion
[ 7974 7965 7964 7962 ] final  154.02 input  175.53 | X-H torsion
[ 8008 7997 7996 7995 ] final   10.57 input   59.86 | X-H torsion
[ 10167 10162 10161 10158 ] final -102.01 input  -65.29 | X-H torsion
[ 10718 10713 10712 10709 ] final   72.98 input   66.30 | X-H torsion
[ 10763 10752 10751 10750 ] final   90.74 input  -60.55 | X-H torsion
[ 11005 11000 10999 10996 ] final  -51.26 input  -57.11 | X-H torsion

> <Gold.Protein.ActiveResidues>
 VAL166  LYS551  ARG553  GLY616  TRP617  ASP618  TYR619  PRO620  LYS621  CYS622 
 ASP623  PHE694  ASN695  SER759  ASP760  ASP761  ALA762  ILE779  LEU786  VAL792 
 PHE793  MET794  SER795  GLU796  ALA797  LYS798  CYS799  TRP800  GLU811  SER814 

> <Gold.Protein.RotatedAtoms>
  150.9446  134.8852  159.7633 H   0  0  0  0  0  0  0  0  0  0  0  0  # atno 6907 bound_to 6896
  152.5094  134.3893  159.9388 H   0  0  0  0  0  0  0  0  0  0  0  0  # atno 6908 bound_to 6896
  151.3912  133.3748  159.2756 H   0  0  0  0  0  0  0  0  0  0  0  0  # atno 6909 bound_to 6896
  144.8116  139.6878  143.6139 H   0  0  0  0  0  0  0  0  0  0  0  0  # atno 7974 bound_to 7965
  154.7952  140.2842  155.5962 H   0  0  0  0  0  0  0  0  0  0  0  0  # atno 8008 bound_to 7997
  156.2970  140.2597  156.2737 H   0  0  0  0  0  0  0  0  0  0  0  0  # atno 8009 bound_to 7997
  154.9623  140.0377  157.2185 H   0  0  0  0  0  0  0  0  0  0  0  0  # atno 8010 bound_to 7997
  140.2352  143.3578  152.0851 H   0  0  0  0  0  0  0  0  0  0  0  0  # atno 10167 bound_to 10162
  157.6526  130.9605  150.1004 H   0  0  0  0  0  0  0  0  0  0  0  0  # atno 10718 bound_to 10713
  153.2008  135.4423  155.0264 H   0  0  0  0  0  0  0  0  0  0  0  0  # atno 10763 bound_to 10752
  154.8145  135.3309  154.7215 H   0  0  0  0  0  0  0  0  0  0  0  0  # atno 10764 bound_to 10752
  153.7661  135.6988  153.4971 H   0  0  0  0  0  0  0  0  0  0  0  0  # atno 10765 bound_to 10752
  141.0861  133.6642  156.3851 H   0  0  0  0  0  0  0  0  0  0  0  0  # atno 11005 bound_to 11000
  146.2415  139.6011  142.9488 LP  0  0  0  0  0  0  0  0  0  0  0  0  # atno 17320 bound_to 7965
  145.5311  141.0427  143.2382 LP  0  0  0  0  0  0  0  0  0  0  0  0  # atno 17321 bound_to 7965
  139.5096  144.6870  151.5862 LP  0  0  0  0  0  0  0  0  0  0  0  0  # atno 17342 bound_to 10162
  140.6155  143.9357  150.6485 LP  0  0  0  0  0  0  0  0  0  0  0  0  # atno 17343 bound_to 10162
  156.1928  130.3655  149.8887 LP  0  0  0  0  0  0  0  0  0  0  0  0  # atno 17370 bound_to 10713
  156.6811  130.8858  151.3576 LP  0  0  0  0  0  0  0  0  0  0  0  0  # atno 17371 bound_to 10713
  140.5360  134.6167  157.5365 LP  0  0  0  0  0  0  0  0  0  0  0  0  # atno 17394 bound_to 11000
  139.9679  134.7341  156.0100 LP  0  0  0  0  0  0  0  0  0  0  0  0  # atno 17395 bound_to 11000

$$$$
