AV-unprocessed.smi:2136|AV-procd|sdf|8705|dock9
  -GOLD-   2272011463D 1   1.00000     0.00000
 Structure written by MMmdl.
 43 44  0  0  0  0  0  0  0  0  2 V2000
  156.2900  135.8124  157.5838 C   0  0  0  0  0  0  0  0  0  0  0  0
  154.6567  135.0370  157.9277 S   0  0  0  0  0  0  0  0  0  0  0  0
  153.6259  135.8156  157.2253 O   0  0  0  0  0  0  0  0  0  0  0  0
  154.7694  133.5957  157.6563 O   0  0  0  0  0  0  0  0  0  0  0  0
  154.4794  135.2463  159.6611 N   0  0  0  0  0  0  0  0  0  0  0  0
  155.3589  134.3657  160.4700 C   0  0  0  0  0  0  0  0  0  0  0  0
  155.0183  134.3700  161.9649 C   0  0  0  0  0  0  0  0  0  0  0  0
  155.0465  135.7898  162.5159 C   0  0  0  0  0  0  0  0  0  0  0  0
  154.0177  136.6133  161.7487 C   0  0  0  0  0  0  0  0  0  0  0  0
  154.2789  136.6232  160.2222 C   0  0  2  0  0  0  0  0  0  0  0  0
  153.1799  137.4769  159.5722 C   0  0  0  0  0  0  0  0  0  0  0  0
  152.0384  137.0289  159.4650 O   0  0  0  0  0  0  0  0  0  0  0  0
  153.5331  138.7002  159.1444 N   0  0  0  0  0  0  0  0  0  0  0  0
  152.6275  139.6662  158.5363 C   0  0  0  0  0  0  0  0  0  0  0  0
  152.1278  140.6987  159.5599 C   0  0  0  0  0  0  0  0  0  0  0  0
  151.9572  142.0739  158.9452 C   0  0  0  0  0  0  0  0  0  0  0  0
  152.7526  143.1599  159.3734 C   0  0  0  0  0  0  0  0  0  0  0  0
  152.5667  144.4276  158.7834 C   0  0  0  0  0  0  0  0  0  0  0  0
  151.5883  144.5808  157.7796 C   0  0  0  0  0  0  0  0  0  0  0  0
  150.8452  143.5189  157.3970 N   0  3  0  0  0  0  0  0  0  0  0  0
  150.9933  142.2891  157.9365 C   0  0  0  0  0  0  0  0  0  0  0  0
  156.5217  135.7055  156.5244 H   0  0  0  0  0  0  0  0  0  0  0  0
  157.0645  135.3213  158.1715 H   0  0  0  0  0  0  0  0  0  0  0  0
  156.2548  136.8717  157.8362 H   0  0  0  0  0  0  0  0  0  0  0  0
  155.2898  133.3410  160.1062 H   0  0  0  0  0  0  0  0  0  0  0  0
  156.3939  134.6782  160.3294 H   0  0  0  0  0  0  0  0  0  0  0  0
  154.0350  133.9247  162.1240 H   0  0  0  0  0  0  0  0  0  0  0  0
  155.7310  133.7481  162.5071 H   0  0  0  0  0  0  0  0  0  0  0  0
  154.8129  135.7890  163.5808 H   0  0  0  0  0  0  0  0  0  0  0  0
  156.0415  136.2233  162.4064 H   0  0  0  0  0  0  0  0  0  0  0  0
  153.0240  136.2132  161.9581 H   0  0  0  0  0  0  0  0  0  0  0  0
  154.0196  137.6339  162.1349 H   0  0  0  0  0  0  0  0  0  0  0  0
  155.2180  137.1566  160.0670 H   0  0  0  0  0  0  0  0  0  0  0  0
  154.4910  138.9902  159.2806 H   0  0  0  0  0  0  0  0  0  0  0  0
  153.1257  140.1620  157.7010 H   0  0  0  0  0  0  0  0  0  0  0  0
  151.7833  139.1203  158.1141 H   0  0  0  0  0  0  0  0  0  0  0  0
  151.1774  140.3739  159.9861 H   0  0  0  0  0  0  0  0  0  0  0  0
  152.8267  140.7764  160.3938 H   0  0  0  0  0  0  0  0  0  0  0  0
  153.4960  143.0253  160.1458 H   0  0  0  0  0  0  0  0  0  0  0  0
  153.1656  145.2699  159.0973 H   0  0  0  0  0  0  0  0  0  0  0  0
  151.3789  145.5130  157.2754 H   0  0  0  0  0  0  0  0  0  0  0  0
  150.3395  141.5207  157.5491 H   0  0  0  0  0  0  0  0  0  0  0  0
  150.1414  143.6515  156.6701 H   0  0  0  0  0  0  0  0  0  0  0  0
  1  2  1  0  0  0  0
  1 22  1  0  0  0  0
  1 23  1  0  0  0  0
  1 24  1  0  0  0  0
  2  3  2  0  0  0  0
  2  4  2  0  0  0  0
  2  5  1  0  0  0  0
  5 10  1  0  0  0  0
  5  6  1  0  0  0  0
  6  7  1  0  0  0  0
  6 25  1  0  0  0  0
  6 26  1  0  0  0  0
  7  8  1  0  0  0  0
  7 27  1  0  0  0  0
  7 28  1  0  0  0  0
  8  9  1  0  0  0  0
  8 29  1  0  0  0  0
  8 30  1  0  0  0  0
  9 10  1  0  0  0  0
  9 31  1  0  0  0  0
  9 32  1  0  0  0  0
 10 11  1  0  0  0  0
 10 33  1  0  0  0  0
 11 12  2  0  0  0  0
 11 13  1  0  0  0  0
 13 14  1  0  0  0  0
 13 34  1  0  0  0  0
 14 15  1  0  0  0  0
 14 35  1  0  0  0  0
 14 36  1  0  0  0  0
 15 16  1  0  0  0  0
 15 37  1  0  0  0  0
 15 38  1  0  0  0  0
 16 21  1  0  0  0  0
 16 17  2  0  0  0  0
 17 18  1  0  0  0  0
 17 39  1  0  0  0  0
 18 19  2  0  0  0  0
 18 40  1  0  0  0  0
 19 20  1  0  0  0  0
 19 41  1  0  0  0  0
 20 21  2  0  0  0  0
 20 43  1  0  0  0  0
 21 42  1  0  0  0  0
M  CHG  1  20   1
M  END
> <s_m_source_file>
AV-unprocessed.smi

> <i_m_source_file_index>
2136

> <i_lp_mmshare_version>
43012

> <i_f3d_flags>
0

> <s_epik_input>
W0NIM11TKD1PKSg9TylOMVtDSDJdW0NIMl1bQ0gyXVtDSDJdW0NASF0xQyg9TylbTkhdW0NIMl1bQ0gyXWMyW2NIXVtjSF1bY0hdbltjSF0y

> <s_epik_cmdline>
J2VwaWtfcHl0aG9uJywgJy1waCcsICc3LjAnLCAnLXRuJywgJzgnLCAnLW1hJywgJzIwMCcsICctbWV0YWxfYmluZGluZycsICctaW1hZScsICc8aW5maWxlLm1hZT4nLCAnLW9tYWUnLCAnPG91dGZpbGUubWFlPic=

> <r_epik_Ionization_Penalty>
2.2835

> <r_epik_Ionization_Penalty_Charging>
2.2835

> <r_epik_Ionization_Penalty_Neutral>
1.35461e-07

> <r_epik_State_Penalty>
2.43297

> <r_epik_Charging_Adjusted_Penalty>
4.71647

> <i_epik_Tot_Q>
1

> <i_epik_Tot_abs_Q>
1

> <r_epik_Metal_State_Penalty>
2.44557

> <b_epik_Metal_Only>
0

> <s_lp_Force_Field>
OPLS_2005

> <r_lp_Energy>
10.903

> <b_lp_Chiralities_Consistent>
1

> <s_lp_Variant>
AV-unprocessed.smi:2136-4

> <Gold.Version>
5.8.1

> <Gold.Id.Protein>
6NUR|6NUR_protein|mol2

> <Gold.PLP.Fitness>
47.2143

> <Gold.PLP.PLP>
-36.1636

> <Gold.PLP.part.hbond>
-4.0000

> <Gold.PLP.part.metal>
0.0000

> <Gold.PLP.part.buried>
-5.1499

> <Gold.PLP.part.nonpolar>
-27.5364

> <Gold.PLP.part.repulsive>
0.0743

> <Gold.PLP.ligand.clash>
0.0000

> <Gold.PLP.ligand.torsion>
0.9913

> <Gold.PLP.Chemscore.Hbond>
4.0932

> <Gold.PLP.Chemscore.CHOScore>
0.0000

> <Gold.PLP.Chemscore.Metal>
0.0000

> <Gold.Chemscore.Hbonds>
donor molecule, donor type, donor heavy atom, donor atom, acceptor molecule, acceptor atom, score
      L1  H    20    43       P1  8028  2.00
      P1  H  6896  6907       L1     5  0.04
      P1  H  6896  6909       L1    12  1.00
      P1  H 10752 10764       L1     3  1.00

> <Gold.PLP.Chemscore.Internal.Correction>
0.7538

> <Gold.Rescore>
     Score         DG    S(hbond)    S(metal)    S(lipo)     H(rot)  DE(clash)    DE(int)     intcor
     17.59     -21.25       2.78        0.00      98.06       1.95       0.26       3.40       ----

> <Gold.Chemscore.Fitness>
17.5919

> <Gold.Chemscore.DG>
-21.2521

> <Gold.Chemscore.ZeroCoef>
-5.4800

> <Gold.Chemscore.Hbond>
2.7793

> <Gold.Chemscore.Metal>
0.0000

> <Gold.Chemscore.Lipo>
98.0566

> <Gold.Chemscore.Internal_Hbond>
0.0000

> <Gold.Chemscore.DEClash>
0.2595

> <Gold.Chemscore.DEInternal>
3.4007

> <Gold.Chemscore.Rot>
1.9466

> <Gold.Chemscore.Internal.Correction>
   9.000000E+99

> <Gold.Chemscore.Hbonds>
donor molecule, donor type, donor heavy atom, donor atom, acceptor molecule, acceptor atom, score
      L1  H    20    43       P1  8028  0.96
      P1  H  6896  6909       L1    12  0.93
      P1  H 10752 10764       L1     3  0.82

> <Gold.Chemscore.Hbond.Weighted>
-9.2827

> <Gold.Chemscore.Metal.Weighted>
-0.0000

> <Gold.Chemscore.Lipo.Weighted>
-11.4726

> <Gold.Chemscore.Internal_Hbond.Weighted>
0.0000

> <Gold.Chemscore.DEClash.Weighted>
0.2595

> <Gold.Chemscore.DEInternal.Weighted>
3.4007

> <Gold.Chemscore.Rot.Weighted>
4.9832

> <Gold.Chemscore.Internal.Correction.Weighted>
   9.000000E+99

> <Gold.Protein.RotatedTorsions>
[ 6907 6896 6895 6894 ] final  113.41 input  -60.11 | X-H torsion
[ 7974 7965 7964 7962 ] final   74.60 input  175.53 | X-H torsion
[ 8008 7997 7996 7995 ] final  160.09 input   59.86 | X-H torsion
[ 10167 10162 10161 10158 ] final   92.68 input  -65.29 | X-H torsion
[ 10718 10713 10712 10709 ] final  -76.37 input   66.30 | X-H torsion
[ 10763 10752 10751 10750 ] final   -7.67 input  -60.55 | X-H torsion
[ 11005 11000 10999 10996 ] final   24.27 input  -57.11 | X-H torsion

> <Gold.Protein.ActiveResidues>
 VAL166  LYS551  ARG553  GLY616  TRP617  ASP618  TYR619  PRO620  LYS621  CYS622 
 ASP623  PHE694  ASN695  SER759  ASP760  ASP761  ALA762  ILE779  LEU786  VAL792 
 PHE793  MET794  SER795  GLU796  ALA797  LYS798  CYS799  TRP800  GLU811  SER814 

> <Gold.Protein.RotatedAtoms>
  152.4862  133.8379  159.7137 H   0  0  0  0  0  0  0  0  0  0  0  0  # atno 6907 bound_to 6896
  150.8951  133.7183  159.2900 H   0  0  0  0  0  0  0  0  0  0  0  0  # atno 6908 bound_to 6896
  151.4643  135.1044  159.9786 H   0  0  0  0  0  0  0  0  0  0  0  0  # atno 6909 bound_to 6896
  145.7262  139.2666  143.1568 H   0  0  0  0  0  0  0  0  0  0  0  0  # atno 7974 bound_to 7965
  156.2196  140.1813  156.7509 H   0  0  0  0  0  0  0  0  0  0  0  0  # atno 8008 bound_to 7997
  154.5844  140.0661  156.9179 H   0  0  0  0  0  0  0  0  0  0  0  0  # atno 8009 bound_to 7997
  155.2446  140.3324  155.4291 H   0  0  0  0  0  0  0  0  0  0  0  0  # atno 8010 bound_to 7997
  139.8253  144.6712  150.9467 H   0  0  0  0  0  0  0  0  0  0  0  0  # atno 10167 bound_to 10162
  156.0177  130.4464  150.3183 H   0  0  0  0  0  0  0  0  0  0  0  0  # atno 10718 bound_to 10713
  153.4296  135.7012  153.6240 H   0  0  0  0  0  0  0  0  0  0  0  0  # atno 10763 bound_to 10752
  153.4660  135.3725  155.2365 H   0  0  0  0  0  0  0  0  0  0  0  0  # atno 10764 bound_to 10752
  154.8725  135.4031  154.3677 H   0  0  0  0  0  0  0  0  0  0  0  0  # atno 10765 bound_to 10752
  140.3605  134.2130  155.7672 H   0  0  0  0  0  0  0  0  0  0  0  0  # atno 11005 bound_to 11000
  146.0580  140.8000  142.9749 LP  0  0  0  0  0  0  0  0  0  0  0  0  # atno 17320 bound_to 7965
  144.6904  140.3154  143.7241 LP  0  0  0  0  0  0  0  0  0  0  0  0  # atno 17321 bound_to 7965
  140.7810  143.4052  151.1082 LP  0  0  0  0  0  0  0  0  0  0  0  0  # atno 17342 bound_to 10162
  139.7710  143.8494  152.3120 LP  0  0  0  0  0  0  0  0  0  0  0  0  # atno 17343 bound_to 10162
  157.1284  131.0265  151.2979 LP  0  0  0  0  0  0  0  0  0  0  0  0  # atno 17370 bound_to 10713
  157.4571  130.7631  149.7202 LP  0  0  0  0  0  0  0  0  0  0  0  0  # atno 17371 bound_to 10713
  141.1985  133.8033  157.0578 LP  0  0  0  0  0  0  0  0  0  0  0  0  # atno 17394 bound_to 11000
  140.0630  134.9744  157.1338 LP  0  0  0  0  0  0  0  0  0  0  0  0  # atno 17395 bound_to 11000

$$$$
