AV-unprocessed.smi:2727|AV-procd|sdf|10523|dock8
  -GOLD-   2272014563D 1   1.00000     0.00000
 Structure written by MMmdl.
 40 41  0  0  0  0  0  0  0  0  1 V2000
  144.3329  136.4256  151.9980 O   0  0  0  0  0  0  0  0  0  0  0  0
  145.4982  136.1142  151.7304 C   0  0  0  0  0  0  0  0  0  0  0  0
  146.5206  136.9449  151.9855 N   0  0  0  0  0  0  0  0  0  0  0  0
  146.4027  138.2658  152.5945 C   0  0  0  0  0  0  0  0  0  0  0  0
  147.2648  138.3816  153.8683 C   0  0  0  0  0  0  0  0  0  0  0  0
  147.6637  139.8272  154.2152 C   0  0  0  0  0  0  0  0  0  0  0  0
  146.7829  140.6836  154.3154 O   0  0  0  0  0  0  0  0  0  0  0  0
  148.9749  140.1241  154.3917 N   0  0  0  0  0  0  0  0  0  0  0  0
  150.0094  139.0839  154.3365 C   0  0  0  0  0  0  0  0  0  0  0  0
  150.1407  138.3268  155.6739 C   0  0  0  0  0  0  0  0  0  0  0  0
  149.9216  139.1698  156.9496 C   0  0  0  0  0  0  0  0  0  0  0  0
  150.5494  140.5774  156.9249 C   0  0  0  0  0  0  0  0  0  0  0  0
  149.6628  141.6404  156.2416 C   0  0  0  0  0  0  0  0  0  0  0  0
  149.5005  141.4569  154.7207 C   0  0  0  0  0  0  0  0  0  0  0  0
  145.9692  134.9383  151.1628 N   0  0  0  0  0  0  0  0  0  0  0  0
  145.1352  134.0151  150.7917 C   0  0  0  0  0  0  0  0  0  0  0  0
  143.7467  133.9165  150.8340 N   0  0  0  0  0  0  0  0  0  0  0  0
  143.3884  132.7074  150.3070 C   0  0  0  0  0  0  0  0  0  0  0  0
  144.4985  132.0702  149.9473 C   0  0  0  0  0  0  0  0  0  0  0  0
  145.5827  132.8456  150.2308 O   0  0  0  0  0  0  0  0  0  0  0  0
  147.4512  136.6344  151.7464 H   0  0  0  0  0  0  0  0  0  0  0  0
  146.6767  139.0313  151.8658 H   0  0  0  0  0  0  0  0  0  0  0  0
  145.3525  138.4303  152.8379 H   0  0  0  0  0  0  0  0  0  0  0  0
  146.7254  137.9511  154.7127 H   0  0  0  0  0  0  0  0  0  0  0  0
  148.1721  137.7930  153.7345 H   0  0  0  0  0  0  0  0  0  0  0  0
  149.8141  138.3808  153.5250 H   0  0  0  0  0  0  0  0  0  0  0  0
  150.9757  139.5246  154.0897 H   0  0  0  0  0  0  0  0  0  0  0  0
  149.4311  137.4987  155.6883 H   0  0  0  0  0  0  0  0  0  0  0  0
  151.1286  137.8662  155.7109 H   0  0  0  0  0  0  0  0  0  0  0  0
  148.8535  139.2568  157.1535 H   0  0  0  0  0  0  0  0  0  0  0  0
  150.3304  138.6132  157.7935 H   0  0  0  0  0  0  0  0  0  0  0  0
  150.7068  140.8944  157.9563 H   0  0  0  0  0  0  0  0  0  0  0  0
  151.5397  140.5477  156.4690 H   0  0  0  0  0  0  0  0  0  0  0  0
  148.6839  141.6559  156.7213 H   0  0  0  0  0  0  0  0  0  0  0  0
  150.0944  142.6250  156.4239 H   0  0  0  0  0  0  0  0  0  0  0  0
  150.4636  141.6137  154.2337 H   0  0  0  0  0  0  0  0  0  0  0  0
  148.8689  142.2490  154.3188 H   0  0  0  0  0  0  0  0  0  0  0  0
  143.0826  134.5921  151.1841 H   0  0  0  0  0  0  0  0  0  0  0  0
  142.3479  132.4246  150.2447 H   0  0  0  0  0  0  0  0  0  0  0  0
  144.6769  131.1046  149.4977 H   0  0  0  0  0  0  0  0  0  0  0  0
  1  2  2  0  0  0  0
  2 15  1  0  0  0  0
  2  3  1  0  0  0  0
  3  4  1  0  0  0  0
  3 21  1  0  0  0  0
  4  5  1  0  0  0  0
  4 22  1  0  0  0  0
  4 23  1  0  0  0  0
  5  6  1  0  0  0  0
  5 24  1  0  0  0  0
  5 25  1  0  0  0  0
  6  7  2  0  0  0  0
  6  8  1  0  0  0  0
  8 14  1  0  0  0  0
  8  9  1  0  0  0  0
  9 10  1  0  0  0  0
  9 26  1  0  0  0  0
  9 27  1  0  0  0  0
 10 11  1  0  0  0  0
 10 28  1  0  0  0  0
 10 29  1  0  0  0  0
 11 12  1  0  0  0  0
 11 30  1  0  0  0  0
 11 31  1  0  0  0  0
 12 13  1  0  0  0  0
 12 32  1  0  0  0  0
 12 33  1  0  0  0  0
 13 14  1  0  0  0  0
 13 34  1  0  0  0  0
 13 35  1  0  0  0  0
 14 36  1  0  0  0  0
 14 37  1  0  0  0  0
 15 16  2  0  0  0  0
 16 20  1  0  0  0  0
 16 17  1  0  0  0  0
 17 38  1  0  0  0  0
 17 18  1  0  0  0  0
 18 39  1  0  0  0  0
 18 19  2  0  0  0  0
 19 40  1  0  0  0  0
 19 20  1  0  0  0  0
M  END
> <s_m_source_file>
AV-unprocessed.smi

> <i_m_source_file_index>
2727

> <i_lp_mmshare_version>
43012

> <i_f3d_flags>
0

> <s_epik_input>
bzFbY0hdW2NIXW5jMVtOSF1DKD1PKVtOSF1bQ0gyXVtDSDJdQyg9TylOMltDSDJdW0NIMl1bQ0gyXVtDSDJdW0NIMl1bQ0gyXTI=

> <s_epik_cmdline>
J2VwaWtfcHl0aG9uJywgJy1waCcsICc3LjAnLCAnLXRuJywgJzgnLCAnLW1hJywgJzIwMCcsICctbWV0YWxfYmluZGluZycsICctaW1hZScsICc8aW5maWxlLm1hZT4nLCAnLW9tYWUnLCAnPG91dGZpbGUubWFlPic=

> <r_lp_tautomer_probability>
0.107061

> <r_epik_Ionization_Penalty>
0.376272

> <r_epik_Ionization_Penalty_Charging>
0.375918

> <r_epik_Ionization_Penalty_Neutral>
0.000353756

> <r_epik_State_Penalty>
2.48665

> <r_epik_Charging_Adjusted_Penalty>
2.86256

> <i_epik_Tot_Q>
0

> <i_epik_Tot_abs_Q>
0

> <r_epik_Metal_State_Penalty>
4.1171

> <b_epik_Metal_Only>
0

> <s_lp_Force_Field>
OPLS_2005

> <r_lp_Energy>
47.9019

> <b_lp_Chiralities_Consistent>
1

> <s_lp_Variant>
AV-unprocessed.smi:2727-3

> <Gold.Version>
5.8.1

> <Gold.Id.Protein>
6NUR|6NUR_protein|mol2

> <Gold.PLP.Fitness>
36.7482

> <Gold.PLP.PLP>
-30.3070

> <Gold.PLP.part.hbond>
-1.7450

> <Gold.PLP.part.metal>
0.0000

> <Gold.PLP.part.buried>
-3.6907

> <Gold.PLP.part.nonpolar>
-26.3532

> <Gold.PLP.part.repulsive>
0.7694

> <Gold.PLP.ligand.clash>
0.0000

> <Gold.PLP.ligand.torsion>
0.1810

> <Gold.PLP.Chemscore.Hbond>
1.0000

> <Gold.PLP.Chemscore.CHOScore>
1.2634

> <Gold.PLP.Chemscore.Metal>
0.0000

> <Gold.Chemscore.Hbonds>
donor molecule, donor type, donor heavy atom, donor atom, acceptor molecule, acceptor atom, score
      L1  H     3    21       P1  7948  1.00
      L1  C    18    39       P1 10186  0.59
      L1  C    18    39       P1 10952  0.69

> <Gold.PLP.Chemscore.Internal.Correction>
0.0131

> <Gold.Rescore>
     Score         DG    S(hbond)    S(metal)    S(lipo)     H(rot)  DE(clash)    DE(int)     intcor
     12.10     -12.32       0.99        0.00      67.51       1.70       0.07       0.16       ----

> <Gold.Chemscore.Fitness>
12.1002

> <Gold.Chemscore.DG>
-12.3238

> <Gold.Chemscore.ZeroCoef>
-5.4800

> <Gold.Chemscore.Hbond>
0.9891

> <Gold.Chemscore.Metal>
0.0000

> <Gold.Chemscore.Lipo>
67.5101

> <Gold.Chemscore.Internal_Hbond>
0.0000

> <Gold.Chemscore.DEClash>
0.0682

> <Gold.Chemscore.DEInternal>
0.1554

> <Gold.Chemscore.Rot>
1.7025

> <Gold.Chemscore.Internal.Correction>
   9.000000E+99

> <Gold.Chemscore.Hbonds>
donor molecule, donor type, donor heavy atom, donor atom, acceptor molecule, acceptor atom, score
      L1  H     3    21       P1  7948  0.93

> <Gold.Chemscore.Hbond.Weighted>
-3.3035

> <Gold.Chemscore.Metal.Weighted>
-0.0000

> <Gold.Chemscore.Lipo.Weighted>
-7.8987

> <Gold.Chemscore.Internal_Hbond.Weighted>
0.0000

> <Gold.Chemscore.DEClash.Weighted>
0.0682

> <Gold.Chemscore.DEInternal.Weighted>
0.1554

> <Gold.Chemscore.Rot.Weighted>
4.3584

> <Gold.Chemscore.Internal.Correction.Weighted>
   9.000000E+99

> <Gold.Protein.RotatedTorsions>
[ 6907 6896 6895 6894 ] final  -93.32 input  -60.11 | X-H torsion
[ 7974 7965 7964 7962 ] final  -40.71 input  175.53 | X-H torsion
[ 8008 7997 7996 7995 ] final  116.50 input   59.86 | X-H torsion
[ 10167 10162 10161 10158 ] final  -70.72 input  -65.29 | X-H torsion
[ 10718 10713 10712 10709 ] final -124.41 input   66.30 | X-H torsion
[ 10763 10752 10751 10750 ] final  121.73 input  -60.55 | X-H torsion
[ 11005 11000 10999 10996 ] final  -63.08 input  -57.11 | X-H torsion

> <Gold.Protein.ActiveResidues>
 VAL166  LYS551  ARG553  GLY616  TRP617  ASP618  TYR619  PRO620  LYS621  CYS622 
 ASP623  PHE694  ASN695  SER759  ASP760  ASP761  ALA762  ILE779  LEU786  VAL792 
 PHE793  MET794  SER795  GLU796  ALA797  LYS798  CYS799  TRP800  GLU811  SER814 

> <Gold.Protein.RotatedAtoms>
  150.6920  134.1986  159.4312 H   0  0  0  0  0  0  0  0  0  0  0  0  # atno 6907 bound_to 6896
  151.9953  134.9955  160.0572 H   0  0  0  0  0  0  0  0  0  0  0  0  # atno 6908 bound_to 6896
  152.1629  133.4558  159.4907 H   0  0  0  0  0  0  0  0  0  0  0  0  # atno 6909 bound_to 6896
  146.0279  140.6768  142.9147 H   0  0  0  0  0  0  0  0  0  0  0  0  # atno 7974 bound_to 7965
  156.2442  140.2916  156.0532 H   0  0  0  0  0  0  0  0  0  0  0  0  # atno 8008 bound_to 7997
  155.1858  140.0405  157.2908 H   0  0  0  0  0  0  0  0  0  0  0  0  # atno 8009 bound_to 7997
  154.6229  140.2480  155.7535 H   0  0  0  0  0  0  0  0  0  0  0  0  # atno 8010 bound_to 7997
  140.5330  143.2320  151.7228 H   0  0  0  0  0  0  0  0  0  0  0  0  # atno 10167 bound_to 10162
  156.1585  130.6585  151.0016 H   0  0  0  0  0  0  0  0  0  0  0  0  # atno 10718 bound_to 10713
  153.6187  135.3417  155.3003 H   0  0  0  0  0  0  0  0  0  0  0  0  # atno 10763 bound_to 10752
  154.8604  135.4267  154.2231 H   0  0  0  0  0  0  0  0  0  0  0  0  # atno 10764 bound_to 10752
  153.3099  135.7031  153.7198 H   0  0  0  0  0  0  0  0  0  0  0  0  # atno 10765 bound_to 10752
  141.1381  133.6647  156.5625 H   0  0  0  0  0  0  0  0  0  0  0  0  # atno 11005 bound_to 11000
  144.7017  140.3683  143.7150 LP  0  0  0  0  0  0  0  0  0  0  0  0  # atno 17320 bound_to 7965
  145.7088  139.1679  143.2550 LP  0  0  0  0  0  0  0  0  0  0  0  0  # atno 17321 bound_to 7965
  139.4961  144.4085  152.0106 LP  0  0  0  0  0  0  0  0  0  0  0  0  # atno 17342 bound_to 10162
  140.3189  144.3451  150.6014 LP  0  0  0  0  0  0  0  0  0  0  0  0  # atno 17343 bound_to 10162
  157.6714  131.0860  150.7602 LP  0  0  0  0  0  0  0  0  0  0  0  0  # atno 17370 bound_to 10713
  156.7666  130.4815  149.5426 LP  0  0  0  0  0  0  0  0  0  0  0  0  # atno 17371 bound_to 10713
  140.3976  134.7385  157.4760 LP  0  0  0  0  0  0  0  0  0  0  0  0  # atno 17394 bound_to 11000
  140.0519  134.6118  155.8851 LP  0  0  0  0  0  0  0  0  0  0  0  0  # atno 17395 bound_to 11000

$$$$
