AV-unprocessed.smi:2952|AV-procd|sdf|11291|dock10
  -GOLD-   2272016183D 1   1.00000     0.00000
 Structure written by MMmdl.
 38 40  0  0  0  0  0  0  0  0  1 V2000
  148.1954  142.9289  157.7313 O   0  0  0  0  0  0  0  0  0  0  0  0
  149.1883  142.0271  158.1720 C   0  0  0  0  0  0  0  0  0  0  0  0
  150.4877  142.1836  157.3645 C   0  0  0  0  0  0  0  0  0  0  0  0
  151.5776  141.3752  157.8960 N   0  0  0  0  0  0  0  0  0  0  0  0
  152.1609  140.2698  157.3631 C   0  0  0  0  0  0  0  0  0  0  0  0
  151.7332  139.6859  156.0429 C   0  0  0  0  0  0  0  0  0  0  0  0
  151.2295  138.3150  156.1264 N   0  0  0  0  0  0  0  0  0  0  0  0
  152.1889  137.4081  156.7532 C   0  0  0  0  0  0  0  0  0  0  0  0
  151.6532  135.9680  156.8216 C   0  0  0  0  0  0  0  0  0  0  0  0
  151.3124  135.5232  155.5121 O   0  0  0  0  0  0  0  0  0  0  0  0
  150.3456  136.3578  154.8821 C   0  0  0  0  0  0  0  0  0  0  0  0
  150.8783  137.7995  154.8087 C   0  0  0  0  0  0  0  0  0  0  0  0
  153.1311  139.7206  158.0986 N   0  0  0  0  0  0  0  0  0  0  0  0
  153.1969  140.5555  159.1953 C   0  0  0  0  0  0  0  0  0  0  0  0
  154.0344  140.5138  160.3328 C   0  0  0  0  0  0  0  0  0  0  0  0
  153.9152  141.4912  161.3425 C   0  0  0  0  0  0  0  0  0  0  0  0
  152.9588  142.5215  161.2296 C   0  0  0  0  0  0  0  0  0  0  0  0
  152.8212  143.7110  162.4713 Cl  0  0  0  0  0  0  0  0  0  0  0  0
  152.1146  142.5799  160.1042 C   0  0  0  0  0  0  0  0  0  0  0  0
  152.2380  141.6021  159.0993 C   0  0  0  0  0  0  0  0  0  0  0  0
  148.4988  143.3458  156.9391 H   0  0  0  0  0  0  0  0  0  0  0  0
  149.3748  142.1988  159.2323 H   0  0  0  0  0  0  0  0  0  0  0  0
  148.8065  141.0107  158.0746 H   0  0  0  0  0  0  0  0  0  0  0  0
  150.3103  141.8744  156.3340 H   0  0  0  0  0  0  0  0  0  0  0  0
  150.7908  143.2284  157.3073 H   0  0  0  0  0  0  0  0  0  0  0  0
  150.9543  140.3359  155.6433 H   0  0  0  0  0  0  0  0  0  0  0  0
  152.5557  139.7183  155.3301 H   0  0  0  0  0  0  0  0  0  0  0  0
  153.1241  137.4150  156.1916 H   0  0  0  0  0  0  0  0  0  0  0  0
  152.4284  137.7478  157.7611 H   0  0  0  0  0  0  0  0  0  0  0  0
  152.4078  135.3020  157.2400 H   0  0  0  0  0  0  0  0  0  0  0  0
  150.7790  135.9119  157.4720 H   0  0  0  0  0  0  0  0  0  0  0  0
  150.1425  135.9767  153.8813 H   0  0  0  0  0  0  0  0  0  0  0  0
  149.4067  136.3205  155.4366 H   0  0  0  0  0  0  0  0  0  0  0  0
  150.1240  138.4398  154.3500 H   0  0  0  0  0  0  0  0  0  0  0  0
  151.7516  137.8282  154.1551 H   0  0  0  0  0  0  0  0  0  0  0  0
  154.7692  139.7281  160.4289 H   0  0  0  0  0  0  0  0  0  0  0  0
  154.5606  141.4481  162.2076 H   0  0  0  0  0  0  0  0  0  0  0  0
  151.3807  143.3668  160.0132 H   0  0  0  0  0  0  0  0  0  0  0  0
  1  2  1  0  0  0  0
  1 21  1  0  0  0  0
  2  3  1  0  0  0  0
  2 22  1  0  0  0  0
  2 23  1  0  0  0  0
  3  4  1  0  0  0  0
  3 24  1  0  0  0  0
  3 25  1  0  0  0  0
  4 20  1  0  0  0  0
  4  5  1  0  0  0  0
  5  6  1  0  0  0  0
  5 13  2  0  0  0  0
  6  7  1  0  0  0  0
  6 26  1  0  0  0  0
  6 27  1  0  0  0  0
  7 12  1  0  0  0  0
  7  8  1  0  0  0  0
  8  9  1  0  0  0  0
  8 28  1  0  0  0  0
  8 29  1  0  0  0  0
  9 10  1  0  0  0  0
  9 30  1  0  0  0  0
  9 31  1  0  0  0  0
 10 11  1  0  0  0  0
 11 12  1  0  0  0  0
 11 32  1  0  0  0  0
 11 33  1  0  0  0  0
 12 34  1  0  0  0  0
 12 35  1  0  0  0  0
 13 14  1  0  0  0  0
 14 20  2  0  0  0  0
 14 15  1  0  0  0  0
 15 16  2  0  0  0  0
 15 36  1  0  0  0  0
 16 17  1  0  0  0  0
 16 37  1  0  0  0  0
 17 18  1  0  0  0  0
 17 19  2  0  0  0  0
 19 20  1  0  0  0  0
 19 38  1  0  0  0  0
M  END
> <s_m_source_file>
AV-unprocessed.smi

> <i_m_source_file_index>
2952

> <i_lp_mmshare_version>
43012

> <i_f3d_flags>
0

> <s_epik_input>
W2NIXTFbY0hdYyhDbClbY0hdYyhjMTIpbihbQ0gyXVtDSDJdW09IXSljKG4yKVtDSDJdTjNbQ0gyXVtDSDJdT1tDSDJdW0NIMl0z

> <s_epik_cmdline>
J2VwaWtfcHl0aG9uJywgJy1waCcsICc3LjAnLCAnLXRuJywgJzgnLCAnLW1hJywgJzIwMCcsICctbWV0YWxfYmluZGluZycsICctaW1hZScsICc8aW5maWxlLm1hZT4nLCAnLW9tYWUnLCAnPG91dGZpbGUubWFlPic=

> <r_epik_Ionization_Penalty>
0.0905371

> <r_epik_Ionization_Penalty_Charging>
0

> <r_epik_Ionization_Penalty_Neutral>
0.0905371

> <r_epik_State_Penalty>
0.0787939

> <r_epik_Charging_Adjusted_Penalty>
0.0787939

> <i_epik_Tot_Q>
0

> <i_epik_Tot_abs_Q>
0

> <r_epik_Metal_State_Penalty>
8.42675e-05

> <b_epik_Metal_Only>
0

> <s_lp_Force_Field>
OPLS_2005

> <r_lp_Energy>
22.7724

> <b_lp_Chiralities_Consistent>
1

> <s_lp_Variant>
AV-unprocessed.smi:2952-1

> <Gold.Version>
5.8.1

> <Gold.Id.Protein>
6NUR|6NUR_protein|mol2

> <Gold.PLP.Fitness>
47.2854

> <Gold.PLP.PLP>
-38.5005

> <Gold.PLP.part.hbond>
-3.8775

> <Gold.PLP.part.metal>
0.0000

> <Gold.PLP.part.buried>
-3.3383

> <Gold.PLP.part.nonpolar>
-31.6748

> <Gold.PLP.part.repulsive>
0.0796

> <Gold.PLP.ligand.clash>
0.0000

> <Gold.PLP.ligand.torsion>
0.1100

> <Gold.PLP.Chemscore.Hbond>
3.0000

> <Gold.PLP.Chemscore.CHOScore>
0.0000

> <Gold.PLP.Chemscore.Metal>
0.0000

> <Gold.Chemscore.Hbonds>
donor molecule, donor type, donor heavy atom, donor atom, acceptor molecule, acceptor atom, score
      L1  H     1    21       P1  8028  1.00
      P1  H  7997  8008       L1    13  1.00
      P1  H 10752 10764       L1    10  1.00

> <Gold.PLP.Chemscore.Internal.Correction>
0.0049

> <Gold.Rescore>
     Score         DG    S(hbond)    S(metal)    S(lipo)     H(rot)  DE(clash)    DE(int)     intcor
     15.98     -17.70       1.46        0.00     109.38       2.13       0.25       1.47       ----

> <Gold.Chemscore.Fitness>
15.9774

> <Gold.Chemscore.DG>
-17.6963

> <Gold.Chemscore.ZeroCoef>
-5.4800

> <Gold.Chemscore.Hbond>
1.4551

> <Gold.Chemscore.Metal>
0.0000

> <Gold.Chemscore.Lipo>
109.3832

> <Gold.Chemscore.Internal_Hbond>
0.0000

> <Gold.Chemscore.DEClash>
0.2462

> <Gold.Chemscore.DEInternal>
1.4726

> <Gold.Chemscore.Rot>
2.1256

> <Gold.Chemscore.Internal.Correction>
   9.000000E+99

> <Gold.Chemscore.Hbonds>
donor molecule, donor type, donor heavy atom, donor atom, acceptor molecule, acceptor atom, score
      L1  H     1    21       P1  8028  0.30
      P1  H  7997  8008       L1    13  0.20
      P1  H 10752 10764       L1    10  0.29

> <Gold.Chemscore.Hbond.Weighted>
-4.8600

> <Gold.Chemscore.Metal.Weighted>
-0.0000

> <Gold.Chemscore.Lipo.Weighted>
-12.7978

> <Gold.Chemscore.Internal_Hbond.Weighted>
0.0000

> <Gold.Chemscore.DEClash.Weighted>
0.2462

> <Gold.Chemscore.DEInternal.Weighted>
1.4726

> <Gold.Chemscore.Rot.Weighted>
5.4415

> <Gold.Chemscore.Internal.Correction.Weighted>
   9.000000E+99

> <Gold.Protein.RotatedTorsions>
[ 6907 6896 6895 6894 ] final  -55.38 input  -60.11 | X-H torsion
[ 7974 7965 7964 7962 ] final -107.06 input  175.53 | X-H torsion
[ 8008 7997 7996 7995 ] final  -87.03 input   59.86 | X-H torsion
[ 10167 10162 10161 10158 ] final  -66.58 input  -65.29 | X-H torsion
[ 10718 10713 10712 10709 ] final  160.58 input   66.30 | X-H torsion
[ 10763 10752 10751 10750 ] final  -55.79 input  -60.55 | X-H torsion
[ 11005 11000 10999 10996 ] final  -75.73 input  -57.11 | X-H torsion

> <Gold.Protein.ActiveResidues>
 VAL166  LYS551  ARG553  GLY616  TRP617  ASP618  TYR619  PRO620  LYS621  CYS622 
 ASP623  PHE694  ASN695  SER759  ASP760  ASP761  ALA762  ILE779  LEU786  VAL792 
 PHE793  MET794  SER795  GLU796  ALA797  LYS798  CYS799  TRP800  GLU811  SER814 

> <Gold.Protein.RotatedAtoms>
  150.8257  134.7486  159.6810 H   0  0  0  0  0  0  0  0  0  0  0  0  # atno 6907 bound_to 6896
  152.4368  134.5668  159.9919 H   0  0  0  0  0  0  0  0  0  0  0  0  # atno 6908 bound_to 6896
  151.5841  133.3337  159.3050 H   0  0  0  0  0  0  0  0  0  0  0  0  # atno 6909 bound_to 6896
  145.2101  140.9092  143.3319 H   0  0  0  0  0  0  0  0  0  0  0  0  # atno 7974 bound_to 7965
  154.6586  140.0571  157.0036 H   0  0  0  0  0  0  0  0  0  0  0  0  # atno 8008 bound_to 7997
  155.1263  140.3252  155.4466 H   0  0  0  0  0  0  0  0  0  0  0  0  # atno 8009 bound_to 7997
  156.2608  140.1988  156.6384 H   0  0  0  0  0  0  0  0  0  0  0  0  # atno 8010 bound_to 7997
  140.5646  143.2314  151.6659 H   0  0  0  0  0  0  0  0  0  0  0  0  # atno 10167 bound_to 10162
  157.1484  131.0558  151.2292 H   0  0  0  0  0  0  0  0  0  0  0  0  # atno 10718 bound_to 10713
  154.1964  135.6418  153.5074 H   0  0  0  0  0  0  0  0  0  0  0  0  # atno 10763 bound_to 10752
  153.0022  135.5441  154.6361 H   0  0  0  0  0  0  0  0  0  0  0  0  # atno 10764 bound_to 10752
  154.5763  135.2921  155.0750 H   0  0  0  0  0  0  0  0  0  0  0  0  # atno 10765 bound_to 10752
  141.1648  133.6957  156.7561 H   0  0  0  0  0  0  0  0  0  0  0  0  # atno 11005 bound_to 11000
  144.9864  139.3732  143.6236 LP  0  0  0  0  0  0  0  0  0  0  0  0  # atno 17320 bound_to 7965
  146.3399  139.9027  142.8792 LP  0  0  0  0  0  0  0  0  0  0  0  0  # atno 17321 bound_to 7965
  139.5087  144.3603  152.0568 LP  0  0  0  0  0  0  0  0  0  0  0  0  # atno 17342 bound_to 10162
  140.2733  144.3940  150.6143 LP  0  0  0  0  0  0  0  0  0  0  0  0  # atno 17343 bound_to 10162
  157.4243  130.7455  149.6938 LP  0  0  0  0  0  0  0  0  0  0  0  0  # atno 17370 bound_to 10713
  155.9775  130.4062  150.3708 LP  0  0  0  0  0  0  0  0  0  0  0  0  # atno 17371 bound_to 10713
  140.2568  134.8498  157.3720 LP  0  0  0  0  0  0  0  0  0  0  0  0  # atno 17394 bound_to 11000
  140.1649  134.4681  155.7869 LP  0  0  0  0  0  0  0  0  0  0  0  0  # atno 17395 bound_to 11000

$$$$
