AV-unprocessed.smi:1584|AV-procd|sdf|6366|dock8
  -GOLD-   22720 6593D 1   1.00000     0.00000
 Structure written by MMmdl.
 39 40  0  0  0  0  0  0  0  0  1 V2000
  147.6644  142.2194  156.6844 C   0  0  0  0  0  0  0  0  0  0  0  0
  148.9769  141.4536  156.4702 C   0  0  1  0  0  0  0  0  0  0  0  0
  149.1175  140.9769  155.0077 C   0  0  0  0  0  0  0  0  0  0  0  0
  150.0813  139.9007  154.8546 N   0  0  0  0  0  0  0  0  0  0  0  0
  149.8436  138.5703  154.5790 C   0  0  0  0  0  0  0  0  0  0  0  0
  151.0564  137.9477  154.5053 C   0  0  0  0  0  0  0  0  0  0  0  0
  151.9882  138.9927  154.7599 C   0  0  0  0  0  0  0  0  0  0  0  0
  151.4014  140.1591  154.9742 N   0  0  0  0  0  0  0  0  0  0  0  0
  150.0974  142.3164  156.8433 N   0  0  0  0  0  0  0  0  0  0  0  0
  150.9970  142.0580  157.8061 C   0  0  0  0  0  0  0  0  0  0  0  0
  150.9390  141.0679  158.5361 O   0  0  0  0  0  0  0  0  0  0  0  0
  152.1481  143.0673  157.9545 C   0  0  2  0  0  0  0  0  0  0  0  0
  153.2156  142.5933  158.9510 C   0  0  0  0  0  0  0  0  0  0  0  0
  152.7182  142.6774  160.4004 C   0  0  0  0  0  0  0  0  0  0  0  0
  152.1004  143.9696  160.7236 N   0  0  0  0  0  0  0  0  0  0  0  0
  152.0242  144.2776  162.1528 C   0  0  0  0  0  0  0  0  0  0  0  0
  151.5714  144.8202  159.8106 C   0  0  0  0  0  0  0  0  0  0  0  0
  151.0342  145.8801  160.1347 O   0  0  0  0  0  0  0  0  0  0  0  0
  151.6466  144.4864  158.3080 C   0  0  0  0  0  0  0  0  0  0  0  0
  146.8034  141.5958  156.4420 H   0  0  0  0  0  0  0  0  0  0  0  0
  147.6162  143.1108  156.0580 H   0  0  0  0  0  0  0  0  0  0  0  0
  147.5586  142.5348  157.7229 H   0  0  0  0  0  0  0  0  0  0  0  0
  148.9479  140.5793  157.1233 H   0  0  0  0  0  0  0  0  0  0  0  0
  148.1556  140.6233  154.6336 H   0  0  0  0  0  0  0  0  0  0  0  0
  149.4149  141.8053  154.3632 H   0  0  0  0  0  0  0  0  0  0  0  0
  148.8433  138.1844  154.4496 H   0  0  0  0  0  0  0  0  0  0  0  0
  151.2492  136.9058  154.2984 H   0  0  0  0  0  0  0  0  0  0  0  0
  153.0662  138.9386  154.7956 H   0  0  0  0  0  0  0  0  0  0  0  0
  150.2201  143.1585  156.2999 H   0  0  0  0  0  0  0  0  0  0  0  0
  152.6279  143.1353  156.9764 H   0  0  0  0  0  0  0  0  0  0  0  0
  153.5307  141.5737  158.7246 H   0  0  0  0  0  0  0  0  0  0  0  0
  154.1055  143.2147  158.8410 H   0  0  0  0  0  0  0  0  0  0  0  0
  151.9876  141.8911  160.5945 H   0  0  0  0  0  0  0  0  0  0  0  0
  153.5586  142.4865  161.0690 H   0  0  0  0  0  0  0  0  0  0  0  0
  150.9924  144.4636  162.4548 H   0  0  0  0  0  0  0  0  0  0  0  0
  152.6131  145.1662  162.3837 H   0  0  0  0  0  0  0  0  0  0  0  0
  152.3980  143.4616  162.7723 H   0  0  0  0  0  0  0  0  0  0  0  0
  152.3241  145.2143  157.8603 H   0  0  0  0  0  0  0  0  0  0  0  0
  150.6723  144.6786  157.8556 H   0  0  0  0  0  0  0  0  0  0  0  0
  1  2  1  0  0  0  0
  1 20  1  0  0  0  0
  1 21  1  0  0  0  0
  1 22  1  0  0  0  0
  2  3  1  0  0  0  0
  2  9  1  0  0  0  0
  2 23  1  0  0  0  0
  3  4  1  0  0  0  0
  3 24  1  0  0  0  0
  3 25  1  0  0  0  0
  4  8  1  0  0  0  0
  4  5  1  0  0  0  0
  5  6  2  0  0  0  0
  5 26  1  0  0  0  0
  6  7  1  0  0  0  0
  6 27  1  0  0  0  0
  7  8  2  0  0  0  0
  7 28  1  0  0  0  0
  9 10  1  0  0  0  0
  9 29  1  0  0  0  0
 10 11  2  0  0  0  0
 10 12  1  0  0  0  0
 12 19  1  0  0  0  0
 12 13  1  0  0  0  0
 12 30  1  0  0  0  0
 13 14  1  0  0  0  0
 13 31  1  0  0  0  0
 13 32  1  0  0  0  0
 14 15  1  0  0  0  0
 14 33  1  0  0  0  0
 14 34  1  0  0  0  0
 15 16  1  0  0  0  0
 15 17  1  0  0  0  0
 16 35  1  0  0  0  0
 16 36  1  0  0  0  0
 16 37  1  0  0  0  0
 17 18  2  0  0  0  0
 17 19  1  0  0  0  0
 19 38  1  0  0  0  0
 19 39  1  0  0  0  0
M  END
> <s_m_source_file>
AV-unprocessed.smi

> <i_m_source_file_index>
1584

> <i_lp_mmshare_version>
43012

> <i_f3d_flags>
0

> <s_epik_input>
bjFbY0hdW2NIXVtjSF1uMVtDSDJdW0NAQEhdKFtDSDNdKVtOSF1DKD1PKVtDQEBIXTJbQ0gyXVtDSDJdTihbQ0gzXSlDKD1PKVtDSDJdMg==

> <s_epik_cmdline>
J2VwaWtfcHl0aG9uJywgJy1waCcsICc3LjAnLCAnLXRuJywgJzgnLCAnLW1hJywgJzIwMCcsICctbWV0YWxfYmluZGluZycsICctaW1hZScsICc8aW5maWxlLm1hZT4nLCAnLW9tYWUnLCAnPG91dGZpbGUubWFlPic=

> <r_lp_tautomer_probability>
1

> <r_epik_Ionization_Penalty>
0.000299422

> <r_epik_Ionization_Penalty_Charging>
0

> <r_epik_Ionization_Penalty_Neutral>
0.000299422

> <r_epik_State_Penalty>
-0

> <r_epik_Charging_Adjusted_Penalty>
0

> <i_epik_Tot_Q>
0

> <i_epik_Tot_abs_Q>
0

> <r_epik_Metal_State_Penalty>
-0

> <b_epik_Metal_Only>
0

> <s_lp_Force_Field>
OPLS_2005

> <r_lp_Energy>
11.5075

> <b_lp_Chiralities_Consistent>
1

> <s_lp_Variant>
AV-unprocessed.smi:1584-2

> <Gold.Version>
5.8.1

> <Gold.Id.Protein>
6NUR|6NUR_protein|mol2

> <Gold.PLP.Fitness>
44.1377

> <Gold.PLP.PLP>
-40.6654

> <Gold.PLP.part.hbond>
-3.0654

> <Gold.PLP.part.metal>
0.0000

> <Gold.PLP.part.buried>
-0.5141

> <Gold.PLP.part.nonpolar>
-36.3964

> <Gold.PLP.part.repulsive>
0.3280

> <Gold.PLP.ligand.clash>
0.0000

> <Gold.PLP.ligand.torsion>
0.3387

> <Gold.PLP.Chemscore.Hbond>
1.3664

> <Gold.PLP.Chemscore.CHOScore>
0.0000

> <Gold.PLP.Chemscore.Metal>
0.0000

> <Gold.Chemscore.Hbonds>
donor molecule, donor type, donor heavy atom, donor atom, acceptor molecule, acceptor atom, score
      L1  H     9    29       P1  8028  0.49
      P1  H  7989  7998       L1     8  0.95

> <Gold.PLP.Chemscore.Internal.Correction>
0.0504

> <Gold.Rescore>
     Score         DG    S(hbond)    S(metal)    S(lipo)     H(rot)  DE(clash)    DE(int)     intcor
     12.17     -13.91       0.68        0.00      89.30       1.67       0.58       1.16       ----

> <Gold.Chemscore.Fitness>
12.1672

> <Gold.Chemscore.DG>
-13.9093

> <Gold.Chemscore.ZeroCoef>
-5.4800

> <Gold.Chemscore.Hbond>
0.6781

> <Gold.Chemscore.Metal>
0.0000

> <Gold.Chemscore.Lipo>
89.3033

> <Gold.Chemscore.Internal_Hbond>
0.0000

> <Gold.Chemscore.DEClash>
0.5814

> <Gold.Chemscore.DEInternal>
1.1607

> <Gold.Chemscore.Rot>
1.6734

> <Gold.Chemscore.Internal.Correction>
   9.000000E+99

> <Gold.Chemscore.Hbonds>
donor molecule, donor type, donor heavy atom, donor atom, acceptor molecule, acceptor atom, score
      L1  H     9    29       P1  8028  0.48
      P1  H  7989  7998       L1     8  0.05

> <Gold.Chemscore.Hbond.Weighted>
-2.2648

> <Gold.Chemscore.Metal.Weighted>
-0.0000

> <Gold.Chemscore.Lipo.Weighted>
-10.4485

> <Gold.Chemscore.Internal_Hbond.Weighted>
0.0000

> <Gold.Chemscore.DEClash.Weighted>
0.5814

> <Gold.Chemscore.DEInternal.Weighted>
1.1607

> <Gold.Chemscore.Rot.Weighted>
4.2840

> <Gold.Chemscore.Internal.Correction.Weighted>
   9.000000E+99

> <Gold.Protein.RotatedTorsions>
[ 6907 6896 6895 6894 ] final -110.54 input  -60.11 | X-H torsion
[ 7974 7965 7964 7962 ] final  120.28 input  175.53 | X-H torsion
[ 8008 7997 7996 7995 ] final  -99.45 input   59.86 | X-H torsion
[ 10167 10162 10161 10158 ] final  -51.67 input  -65.29 | X-H torsion
[ 10718 10713 10712 10709 ] final  -54.16 input   66.30 | X-H torsion
[ 10763 10752 10751 10750 ] final  -62.39 input  -60.55 | X-H torsion
[ 11005 11000 10999 10996 ] final  109.23 input  -57.11 | X-H torsion

> <Gold.Protein.ActiveResidues>
 VAL166  LYS551  ARG553  GLY616  TRP617  ASP618  TYR619  PRO620  LYS621  CYS622 
 ASP623  PHE694  ASN695  SER759  ASP760  ASP761  ALA762  ILE779  LEU786  VAL792 
 PHE793  MET794  SER795  GLU796  ALA797  LYS798  CYS799  TRP800  GLU811  SER814 

> <Gold.Protein.RotatedAtoms>
  150.7631  133.9367  159.3443 H   0  0  0  0  0  0  0  0  0  0  0  0  # atno 6907 bound_to 6896
  151.7271  135.0880  160.0303 H   0  0  0  0  0  0  0  0  0  0  0  0  # atno 6908 bound_to 6896
  152.3613  133.6263  159.6053 H   0  0  0  0  0  0  0  0  0  0  0  0  # atno 6909 bound_to 6896
  145.1330  139.3315  143.4655 H   0  0  0  0  0  0  0  0  0  0  0  0  # atno 7974 bound_to 7965
  154.8150  140.0448  157.1370 H   0  0  0  0  0  0  0  0  0  0  0  0  # atno 8008 bound_to 7997
  154.9325  140.3041  155.5141 H   0  0  0  0  0  0  0  0  0  0  0  0  # atno 8009 bound_to 7997
  156.2975  140.2320  156.4386 H   0  0  0  0  0  0  0  0  0  0  0  0  # atno 8010 bound_to 7997
  140.6577  143.2611  151.4537 H   0  0  0  0  0  0  0  0  0  0  0  0  # atno 10167 bound_to 10162
  156.1474  130.4152  150.0001 H   0  0  0  0  0  0  0  0  0  0  0  0  # atno 10718 bound_to 10713
  154.2992  135.6238  153.5417 H   0  0  0  0  0  0  0  0  0  0  0  0  # atno 10763 bound_to 10752
  152.9842  135.5674  154.5303 H   0  0  0  0  0  0  0  0  0  0  0  0  # atno 10764 bound_to 10752
  154.4930  135.2868  155.1457 H   0  0  0  0  0  0  0  0  0  0  0  0  # atno 10765 bound_to 10752
  139.8858  134.9452  156.6094 H   0  0  0  0  0  0  0  0  0  0  0  0  # atno 11005 bound_to 11000
  146.3512  140.1337  142.8596 LP  0  0  0  0  0  0  0  0  0  0  0  0  # atno 17320 bound_to 7965
  145.0614  140.9090  143.4936 LP  0  0  0  0  0  0  0  0  0  0  0  0  # atno 17321 bound_to 7965
  139.5803  144.1725  152.1959 LP  0  0  0  0  0  0  0  0  0  0  0  0  # atno 17342 bound_to 10162
  140.1048  144.5508  150.6964 LP  0  0  0  0  0  0  0  0  0  0  0  0  # atno 17343 bound_to 10162
  156.7869  130.9242  151.3646 LP  0  0  0  0  0  0  0  0  0  0  0  0  # atno 17370 bound_to 10713
  157.6628  130.8981  149.9867 LP  0  0  0  0  0  0  0  0  0  0  0  0  # atno 17371 bound_to 10713
  140.7823  133.8650  155.8578 LP  0  0  0  0  0  0  0  0  0  0  0  0  # atno 17394 bound_to 11000
  140.9749  134.1482  157.4544 LP  0  0  0  0  0  0  0  0  0  0  0  0  # atno 17395 bound_to 11000

$$$$
