AV-unprocessed.smi:3270|AV-procd|sdf|12513|dock6
  -GOLD-   2272018423D 1   1.00000     0.00000
 Structure written by MMmdl.
 38 39  0  0  0  0  0  0  0  0  1 V2000
  142.9479  134.8937  152.6094 C   0  0  0  0  0  0  0  0  0  0  0  0
  144.0907  135.2245  151.6279 C   0  0  1  0  0  0  0  0  0  0  0  0
  145.2225  136.0468  152.2764 C   0  0  0  0  0  0  0  0  0  0  0  0
  145.8482  135.6034  153.2402 O   0  0  0  0  0  0  0  0  0  0  0  0
  145.4667  137.2578  151.7506 N   0  0  0  0  0  0  0  0  0  0  0  0
  146.4983  138.1720  152.2189 C   0  0  0  0  0  0  0  0  0  0  0  0
  146.1356  138.7167  153.6098 C   0  0  0  0  0  0  0  0  0  0  0  0
  147.0805  139.6894  154.1553 N   0  0  0  0  0  0  0  0  0  0  0  0
  146.9723  140.9992  153.5156 C   0  0  0  0  0  0  0  0  0  0  0  0
  147.9934  142.0015  154.0825 C   0  0  0  0  0  0  0  0  0  0  0  0
  149.3093  141.4750  153.9472 O   0  0  0  0  0  0  0  0  0  0  0  0
  149.4670  140.2196  154.6004 C   0  0  0  0  0  0  0  0  0  0  0  0
  148.4538  139.2128  154.0288 C   0  0  0  0  0  0  0  0  0  0  0  0
  144.6036  134.0170  150.9871 N   0  0  0  0  0  0  0  0  0  0  0  0
  143.8880  133.0289  150.3412 C   0  0  0  0  0  0  0  0  0  0  0  0
  144.7841  132.1071  149.8812 C   0  0  0  0  0  0  0  0  0  0  0  0
  146.0432  132.6244  150.2942 C   0  0  0  0  0  0  0  0  0  0  0  0
  145.9334  133.7667  150.9521 N   0  0  0  0  0  0  0  0  0  0  0  0
  142.4891  135.8006  153.0049 H   0  0  0  0  0  0  0  0  0  0  0  0
  143.2991  134.3026  153.4564 H   0  0  0  0  0  0  0  0  0  0  0  0
  142.1623  134.3236  152.1127 H   0  0  0  0  0  0  0  0  0  0  0  0
  143.6706  135.8507  150.8395 H   0  0  0  0  0  0  0  0  0  0  0  0
  144.9117  137.5561  150.9617 H   0  0  0  0  0  0  0  0  0  0  0  0
  147.4464  137.6347  152.2403 H   0  0  0  0  0  0  0  0  0  0  0  0
  146.6081  139.0005  151.5169 H   0  0  0  0  0  0  0  0  0  0  0  0
  145.1547  139.1886  153.5331 H   0  0  0  0  0  0  0  0  0  0  0  0
  146.0154  137.8877  154.3090 H   0  0  0  0  0  0  0  0  0  0  0  0
  147.1244  140.8997  152.4396 H   0  0  0  0  0  0  0  0  0  0  0  0
  145.9721  141.4080  153.6542 H   0  0  0  0  0  0  0  0  0  0  0  0
  147.9318  142.9494  153.5475 H   0  0  0  0  0  0  0  0  0  0  0  0
  147.7853  142.2119  155.1327 H   0  0  0  0  0  0  0  0  0  0  0  0
  150.4854  139.8628  154.4463 H   0  0  0  0  0  0  0  0  0  0  0  0
  149.3284  140.3404  155.6758 H   0  0  0  0  0  0  0  0  0  0  0  0
  148.5642  138.2595  154.5468 H   0  0  0  0  0  0  0  0  0  0  0  0
  148.6854  139.0259  152.9789 H   0  0  0  0  0  0  0  0  0  0  0  0
  142.8110  133.0634  150.2638 H   0  0  0  0  0  0  0  0  0  0  0  0
  144.5726  131.2016  149.3323 H   0  0  0  0  0  0  0  0  0  0  0  0
  147.0268  132.2073  150.1351 H   0  0  0  0  0  0  0  0  0  0  0  0
  1  2  1  0  0  0  0
  1 19  1  0  0  0  0
  1 20  1  0  0  0  0
  1 21  1  0  0  0  0
  2  3  1  0  0  0  0
  2 14  1  0  0  0  0
  2 22  1  0  0  0  0
  3  4  2  0  0  0  0
  3  5  1  0  0  0  0
  5  6  1  0  0  0  0
  5 23  1  0  0  0  0
  6  7  1  0  0  0  0
  6 24  1  0  0  0  0
  6 25  1  0  0  0  0
  7  8  1  0  0  0  0
  7 26  1  0  0  0  0
  7 27  1  0  0  0  0
  8 13  1  0  0  0  0
  8  9  1  0  0  0  0
  9 10  1  0  0  0  0
  9 28  1  0  0  0  0
  9 29  1  0  0  0  0
 10 11  1  0  0  0  0
 10 30  1  0  0  0  0
 10 31  1  0  0  0  0
 11 12  1  0  0  0  0
 12 13  1  0  0  0  0
 12 32  1  0  0  0  0
 12 33  1  0  0  0  0
 13 34  1  0  0  0  0
 13 35  1  0  0  0  0
 14 18  1  0  0  0  0
 14 15  1  0  0  0  0
 15 16  2  0  0  0  0
 15 36  1  0  0  0  0
 16 17  1  0  0  0  0
 16 37  1  0  0  0  0
 17 18  2  0  0  0  0
 17 38  1  0  0  0  0
M  END
> <s_m_source_file>
AV-unprocessed.smi

> <i_m_source_file_index>
3270

> <i_lp_mmshare_version>
43012

> <i_f3d_flags>
0

> <s_epik_input>
bjFbY0hdW2NIXVtjSF1uMVtDQEhdKFtDSDNdKUMoPU8pW05IXVtDSDJdW0NIMl1OMltDSDJdW0NIMl1PW0NIMl1bQ0gyXTI=

> <s_epik_cmdline>
J2VwaWtfcHl0aG9uJywgJy1waCcsICc3LjAnLCAnLXRuJywgJzgnLCAnLW1hJywgJzIwMCcsICctbWV0YWxfYmluZGluZycsICctaW1hZScsICc8aW5maWxlLm1hZT4nLCAnLW9tYWUnLCAnPG91dGZpbGUubWFlPic=

> <r_lp_tautomer_probability>
1

> <r_epik_Ionization_Penalty>
0.203323

> <r_epik_Ionization_Penalty_Charging>
0

> <r_epik_Ionization_Penalty_Neutral>
0.203323

> <r_epik_State_Penalty>
0.193192

> <r_epik_Charging_Adjusted_Penalty>
0.193192

> <i_epik_Tot_Q>
0

> <i_epik_Tot_abs_Q>
0

> <r_epik_Metal_State_Penalty>
0.193187

> <b_epik_Metal_Only>
0

> <s_lp_Force_Field>
OPLS_2005

> <r_lp_Energy>
25.3567

> <b_lp_Chiralities_Consistent>
1

> <s_lp_Variant>
AV-unprocessed.smi:3270-2

> <Gold.Version>
5.8.1

> <Gold.Id.Protein>
6NUR|6NUR_protein|mol2

> <Gold.PLP.Fitness>
44.4934

> <Gold.PLP.PLP>
-33.7470

> <Gold.PLP.part.hbond>
-3.0000

> <Gold.PLP.part.metal>
0.0000

> <Gold.PLP.part.buried>
-2.9351

> <Gold.PLP.part.nonpolar>
-28.5996

> <Gold.PLP.part.repulsive>
0.7102

> <Gold.PLP.ligand.clash>
0.0000

> <Gold.PLP.ligand.torsion>
0.2601

> <Gold.PLP.Chemscore.Hbond>
1.7200

> <Gold.PLP.Chemscore.CHOScore>
2.0000

> <Gold.PLP.Chemscore.Metal>
0.0000

> <Gold.Chemscore.Hbonds>
donor molecule, donor type, donor heavy atom, donor atom, acceptor molecule, acceptor atom, score
      L1  H     5    23       P1 10171  1.00
      P1  H  8011  8017       L1    11  0.65
      L1  C    15    36       P1 10186  1.00
      L1  C    17    38       P1 10747  1.00

> <Gold.PLP.Chemscore.Internal.Correction>
0.1065

> <Gold.Rescore>
     Score         DG    S(hbond)    S(metal)    S(lipo)     H(rot)  DE(clash)    DE(int)     intcor
     13.95     -15.53       1.58        0.00      80.79       1.83       0.09       1.49       ----

> <Gold.Chemscore.Fitness>
13.9500

> <Gold.Chemscore.DG>
-15.5276

> <Gold.Chemscore.ZeroCoef>
-5.4800

> <Gold.Chemscore.Hbond>
1.5800

> <Gold.Chemscore.Metal>
0.0000

> <Gold.Chemscore.Lipo>
80.7900

> <Gold.Chemscore.Internal_Hbond>
0.0000

> <Gold.Chemscore.DEClash>
0.0890

> <Gold.Chemscore.DEInternal>
1.4886

> <Gold.Chemscore.Rot>
1.8290

> <Gold.Chemscore.Internal.Correction>
   9.000000E+99

> <Gold.Chemscore.Hbonds>
donor molecule, donor type, donor heavy atom, donor atom, acceptor molecule, acceptor atom, score
      L1  H     5    23       P1 10171  1.00
      P1  H  8011  8017       L1    11  0.13

> <Gold.Chemscore.Hbond.Weighted>
-5.2773

> <Gold.Chemscore.Metal.Weighted>
-0.0000

> <Gold.Chemscore.Lipo.Weighted>
-9.4524

> <Gold.Chemscore.Internal_Hbond.Weighted>
0.0000

> <Gold.Chemscore.DEClash.Weighted>
0.0890

> <Gold.Chemscore.DEInternal.Weighted>
1.4886

> <Gold.Chemscore.Rot.Weighted>
4.6821

> <Gold.Chemscore.Internal.Correction.Weighted>
   9.000000E+99

> <Gold.Protein.RotatedTorsions>
[ 6907 6896 6895 6894 ] final -128.88 input  -60.11 | X-H torsion
[ 7974 7965 7964 7962 ] final   71.04 input  175.53 | X-H torsion
[ 8008 7997 7996 7995 ] final   76.51 input   59.86 | X-H torsion
[ 10167 10162 10161 10158 ] final -135.89 input  -65.29 | X-H torsion
[ 10718 10713 10712 10709 ] final   74.25 input   66.30 | X-H torsion
[ 10763 10752 10751 10750 ] final  -61.83 input  -60.55 | X-H torsion
[ 11005 11000 10999 10996 ] final  -76.61 input  -57.11 | X-H torsion

> <Gold.Protein.ActiveResidues>
 VAL166  LYS551  ARG553  GLY616  TRP617  ASP618  TYR619  PRO620  LYS621  CYS622 
 ASP623  PHE694  ASN695  SER759  ASP760  ASP761  ALA762  ILE779  LEU786  VAL792 
 PHE793  MET794  SER795  GLU796  ALA797  LYS798  CYS799  TRP800  GLU811  SER814 

> <Gold.Protein.RotatedAtoms>
  150.9226  133.6861  159.2828 H   0  0  0  0  0  0  0  0  0  0  0  0  # atno 6907 bound_to 6896
  151.4311  135.1008  159.9652 H   0  0  0  0  0  0  0  0  0  0  0  0  # atno 6908 bound_to 6896
  152.4987  133.8656  159.7327 H   0  0  0  0  0  0  0  0  0  0  0  0  # atno 6909 bound_to 6896
  145.7708  139.2842  143.1322 H   0  0  0  0  0  0  0  0  0  0  0  0  # atno 7974 bound_to 7965
  155.8284  140.3467  155.5557 H   0  0  0  0  0  0  0  0  0  0  0  0  # atno 8008 bound_to 7997
  155.8268  140.0921  157.1836 H   0  0  0  0  0  0  0  0  0  0  0  0  # atno 8009 bound_to 7997
  154.4004  140.1419  156.3553 H   0  0  0  0  0  0  0  0  0  0  0  0  # atno 8010 bound_to 7997
  139.8733  143.6930  152.2637 H   0  0  0  0  0  0  0  0  0  0  0  0  # atno 10167 bound_to 10162
  157.6584  130.9669  150.1185 H   0  0  0  0  0  0  0  0  0  0  0  0  # atno 10718 bound_to 10713
  154.2906  135.6254  153.5384 H   0  0  0  0  0  0  0  0  0  0  0  0  # atno 10763 bound_to 10752
  152.9853  135.5655  154.5394 H   0  0  0  0  0  0  0  0  0  0  0  0  # atno 10764 bound_to 10752
  154.5004  135.2871  155.1401 H   0  0  0  0  0  0  0  0  0  0  0  0  # atno 10765 bound_to 10752
  141.1655  133.6990  156.7694 H   0  0  0  0  0  0  0  0  0  0  0  0  # atno 11005 bound_to 11000
  146.0172  140.8381  142.9941 LP  0  0  0  0  0  0  0  0  0  0  0  0  # atno 17320 bound_to 7965
  144.6813  140.2575  143.7323 LP  0  0  0  0  0  0  0  0  0  0  0  0  # atno 17321 bound_to 7965
  139.7264  144.7592  151.0873 LP  0  0  0  0  0  0  0  0  0  0  0  0  # atno 17342 bound_to 10162
  140.7757  143.5143  150.9614 LP  0  0  0  0  0  0  0  0  0  0  0  0  # atno 17343 bound_to 10162
  156.2063  130.3663  149.8726 LP  0  0  0  0  0  0  0  0  0  0  0  0  # atno 17370 bound_to 10713
  156.6616  130.8784  151.3548 LP  0  0  0  0  0  0  0  0  0  0  0  0  # atno 17371 bound_to 10713
  140.2475  134.8566  157.3635 LP  0  0  0  0  0  0  0  0  0  0  0  0  # atno 17394 bound_to 11000
  140.1735  134.4579  155.7816 LP  0  0  0  0  0  0  0  0  0  0  0  0  # atno 17395 bound_to 11000

$$$$
