#       Name:                AV-unprocessed.smi:1925
#       Creating user name   scv26
#       Creation time:       Fri Mar 27 09:53:47 2020


#       File generated by GOLD software.
#

@<TRIPOS>MOLECULE
AV-unprocessed.smi:1925
    36    37     1
SMALL
NO_CHARGES


@<TRIPOS>ATOM
      1 ****         0.2748   1.6188   0.4808 O.2            1 S1                 0.0000
      2 ****        -0.2305   0.5322   0.7634 C.2            1 S1                 0.0000
      3 ****         0.4841  -0.5846   0.9625 N.am           1 S1                 0.0000
      4 ****         1.9359  -0.6800   0.8546 C.3            1 S1                 0.0000
      5 ****         2.4005  -0.7970  -0.6100 C.3            1 S1                 0.0000
      6 ****         3.9097  -0.9417  -0.7720 C.3            1 S1                 0.0000
      7 ****         4.0766  -1.9658  -1.8995 C.3            1 S1                 0.0000
      8 ****         2.7728  -2.1614  -2.4275 O.3            1 S1                 0.0000
      9 ****         1.8607  -2.0183  -1.3533 C.3            1 S1                 0.0000
     10 ****        -1.5471   0.2989   0.9061 N.am           1 S1                 0.0000
     11 ****        -2.6215   1.2180   0.7706 C.ar           1 S1                 0.0000
     12 ****        -3.9100   0.6606   0.9336 C.ar           1 S1                 0.0000
     13 ****        -5.0431   1.4888   0.8180 C.ar           1 S1                 0.0000
     14 ****        -4.8584   2.8555   0.5431 C.ar           1 S1                 0.0000
     15 ****        -3.5421   3.3302   0.3962 C.ar           1 S1                 0.0000
     16 ****        -2.4548   2.5381   0.5064 N.ar           1 S1                 0.0000
     17 ****        -0.0112  -1.4331   1.1941 H              1 S1                 0.0000
     18 ****         2.4026   0.1836   1.3315 H              1 S1                 0.0000
     19 ****         2.2578  -1.5548   1.4204 H              1 S1                 0.0000
     20 ****         2.0912   0.0934  -1.1599 H              1 S1                 0.0000
     21 ****         4.3658   0.0157  -1.0264 H              1 S1                 0.0000
     22 ****         4.3872  -1.3044   0.1389 H              1 S1                 0.0000
     23 ****         4.7657  -1.6280  -2.6738 H              1 S1                 0.0000
     24 ****         4.4477  -2.9122  -1.5038 H              1 S1                 0.0000
     25 ****         1.8886  -2.9116  -0.7270 H              1 S1                 0.0000
     26 ****         0.8403  -1.8776  -1.7104 H              1 S1                 0.0000
     27 ****        -1.8128  -0.6485   1.1301 H              1 S1                 0.0000
     28 ****        -4.0341  -0.3918   1.1439 H              1 S1                 0.0000
     29 ****        -6.0361   1.0817   0.9378 H              1 S1                 0.0000
     30 ****        -5.7026   3.5222   0.4473 H              1 S1                 0.0000
     31 ****        -3.3568   4.3729   0.1847 H              1 S1                 0.0000
     32 ****         1.2672   1.7000   0.3890 LP             1 S1                 0.0000
     33 ****        -0.3073   2.4202   0.3430 LP             1 S1                 0.0000
     34 ****         2.6966  -3.0771  -2.8221 LP             1 S1                 0.0000
     35 ****         2.5823  -1.4779  -3.1322 LP             1 S1                 0.0000
     36 ****        -1.5373   2.9198   0.3946 LP             1 S1                 0.0000
@<TRIPOS>BOND
    1    1    2 2     
    2    2    3 am    
    3    2   10 am    
    4    3    4 1     
    5    3   17 1     
    6    4    5 1     
    7    4   18 1     
    8    4   19 1     
    9    5    9 1     
   10    5    6 1     
   11    5   20 1     
   12    6    7 1     
   13    6   21 1     
   14    6   22 1     
   15    7    8 1     
   16    7   23 1     
   17    7   24 1     
   18    8    9 1     
   19    9   25 1     
   20    9   26 1     
   21   10   11 1     
   22   10   27 1     
   23   11   16 ar    
   24   11   12 ar    
   25   12   13 ar    
   26   12   28 1     
   27   13   14 ar    
   28   13   29 1     
   29   14   15 ar    
   30   14   30 1     
   31   15   16 ar    
   32   15   31 1     
   33    1   32 1     
   34    1   33 1     
   35    8   34 1     
   36    8   35 1     
   37   16   36 1     
@<TRIPOS>SUBSTRUCTURE
      1 S1             1
@<TRIPOS>SET
LONE_PAIRS      STATIC     ATOMS    <user>   **** ""
5 32 33 34 35 36
DONOR_HYDROGENS      STATIC     ATOMS    <user>   **** ""
2 17 27
ATOM$BLUE        STATIC     ATOMS    COLORGROUP SYSTEM
5 32 33 34 35 36
ATOM$RED        STATIC     ATOMS    COLORGROUP SYSTEM
2 17 27
