#       Name:                AV-unprocessed.smi:1960
#       Creating user name   scv26
#       Creation time:       Fri Mar 27 10:08:18 2020


#       File generated by GOLD software.
#

@<TRIPOS>MOLECULE
AV-unprocessed.smi:1960
    41    42     1
SMALL
NO_CHARGES


@<TRIPOS>ATOM
      1 ****        -3.1240   3.1741  -0.4003 C.3            1 S1                 0.0000
      2 ****        -4.5176   1.9758  -0.3227 S.o2           1 S1                 0.0000
      3 ****        -5.3549   2.3211   0.8363 O.2            1 S1                 0.0000
      4 ****        -5.1235   1.8898  -1.6603 O.2            1 S1                 0.0000
      5 ****        -3.7477   0.4510   0.0118 N.pl3          1 S1                 0.0000
      6 ****        -3.0386  -0.2690  -1.0650 C.3            1 S1                 0.0000
      7 ****        -1.5141  -0.0842  -0.9667 C.3            1 S1                 0.0000
      8 ****        -0.9900  -0.4700   0.4270 C.3            1 S1                 0.0000
      9 ****         0.4448  -0.2187   0.5326 N.am           1 S1                 0.0000
     10 ****         1.4077  -1.0376   0.0848 C.2            1 S1                 0.0000
     11 ****         1.1783  -2.1088  -0.4763 O.2            1 S1                 0.0000
     12 ****         2.6287  -0.5216   0.3113 N.am           1 S1                 0.0000
     13 ****         3.8997  -1.0750  -0.0033 C.ar           1 S1                 0.0000
     14 ****         5.0001  -0.1956  -0.0710 C.ar           1 S1                 0.0000
     15 ****         6.2739  -0.7221  -0.3648 C.ar           1 S1                 0.0000
     16 ****         6.5027  -2.0349  -0.5779 N.ar           1 S1                 0.0000
     17 ****         5.4511  -2.8774  -0.4988 C.ar           1 S1                 0.0000
     18 ****         4.1374  -2.4551  -0.2117 C.ar           1 S1                 0.0000
     19 ****        -1.7411   0.3415   1.4927 C.3            1 S1                 0.0000
     20 ****        -3.2638   0.1515   1.3746 C.3            1 S1                 0.0000
     21 ****        -3.5205   4.1666  -0.6121 H              1 S1                 0.0000
     22 ****        -2.4360   2.8923  -1.1954 H              1 S1                 0.0000
     23 ****        -2.6019   3.1990   0.5545 H              1 S1                 0.0000
     24 ****        -3.2814  -1.3293  -0.9869 H              1 S1                 0.0000
     25 ****        -3.3977   0.0567  -2.0408 H              1 S1                 0.0000
     26 ****        -1.0294  -0.6921  -1.7314 H              1 S1                 0.0000
     27 ****        -1.2494   0.9491  -1.1890 H              1 S1                 0.0000
     28 ****        -1.1825  -1.5304   0.6021 H              1 S1                 0.0000
     29 ****         0.7230   0.6429   0.9788 H              1 S1                 0.0000
     30 ****         2.6500   0.4064   0.7080 H              1 S1                 0.0000
     31 ****         4.8745   0.8649   0.0923 H              1 S1                 0.0000
     32 ****         7.1327  -0.0702  -0.4285 H              1 S1                 0.0000
     33 ****         5.6638  -3.9233  -0.6630 H              1 S1                 0.0000
     34 ****         3.3523  -3.1923  -0.1463 H              1 S1                 0.0000
     35 ****        -1.4148   0.0385   2.4882 H              1 S1                 0.0000
     36 ****        -1.4913   1.3980   1.4004 H              1 S1                 0.0000
     37 ****        -3.7816   0.7709   2.1063 H              1 S1                 0.0000
     38 ****        -3.5207  -0.8818   1.6107 H              1 S1                 0.0000
     39 ****         0.2344  -2.4070  -0.6179 LP             1 S1                 0.0000
     40 ****         1.9359  -2.6809  -0.7906 LP             1 S1                 0.0000
     41 ****         7.4205  -2.3722  -0.7874 LP             1 S1                 0.0000
@<TRIPOS>BOND
    1    1    2 1     
    2    1   21 1     
    3    1   22 1     
    4    1   23 1     
    5    2    3 2     
    6    2    4 2     
    7    2    5 1     
    8    5   20 1     
    9    5    6 1     
   10    6    7 1     
   11    6   24 1     
   12    6   25 1     
   13    7    8 1     
   14    7   26 1     
   15    7   27 1     
   16    8    9 1     
   17    8   19 1     
   18    8   28 1     
   19    9   10 am    
   20    9   29 1     
   21   10   11 2     
   22   10   12 am    
   23   12   13 1     
   24   12   30 1     
   25   13   18 ar    
   26   13   14 ar    
   27   14   15 ar    
   28   14   31 1     
   29   15   16 ar    
   30   15   32 1     
   31   16   17 ar    
   32   17   18 ar    
   33   17   33 1     
   34   18   34 1     
   35   19   20 1     
   36   19   35 1     
   37   19   36 1     
   38   20   37 1     
   39   20   38 1     
   40   11   39 1     
   41   11   40 1     
   42   16   41 1     
@<TRIPOS>SUBSTRUCTURE
      1 S1             1
@<TRIPOS>SET
LONE_PAIRS      STATIC     ATOMS    <user>   **** ""
5 3 4 39 40 41
DONOR_HYDROGENS      STATIC     ATOMS    <user>   **** ""
2 29 30
ATOM$BLUE        STATIC     ATOMS    COLORGROUP SYSTEM
5 3 4 39 40 41
ATOM$RED        STATIC     ATOMS    COLORGROUP SYSTEM
2 29 30
