AV-unprocessed.smi:601|AV-procd|sdf|3032|dock9
  -GOLD-   2262023543D 1   1.00000     0.00000
 Structure written by MMmdl.
 50 51  0  0  0  0  0  0  0  0  1 V2000
  150.4789  132.9434  156.4914 C   0  0  0  0  0  0  0  0  0  0  0  0
  150.0692  134.3283  155.9782 C   0  0  0  0  0  0  0  0  0  0  0  0
  150.0274  135.3805  157.0951 C   0  0  0  0  0  0  0  0  0  0  0  0
  148.7600  135.2692  157.9614 C   0  0  0  0  0  0  0  0  0  0  0  0
  148.6442  136.3828  158.9150 N   0  0  0  0  0  0  0  0  0  0  0  0
  147.9179  136.2531  160.0564 C   0  0  0  0  0  0  0  0  0  0  0  0
  147.7259  137.2066  160.8138 O   0  0  0  0  0  0  0  0  0  0  0  0
  147.3536  134.8614  160.4440 C   0  0  1  0  0  0  0  0  0  0  0  0
  147.7549  134.3710  161.8414 C   0  0  0  0  0  0  0  0  0  0  0  0
  146.7088  134.9719  162.7722 C   0  0  0  0  0  0  0  0  0  0  0  0
  145.5877  135.4317  161.8356 C   0  0  0  0  0  0  0  0  0  0  0  0
  145.9359  134.9142  160.5561 O   0  0  0  0  0  0  0  0  0  0  0  0
  149.2801  137.5867  158.5632 C   0  0  0  0  0  0  0  0  0  0  0  0
  148.6339  138.5555  157.8484 C   0  0  0  0  0  0  0  0  0  0  0  0
  147.3105  138.3798  157.4707 N   0  0  0  0  0  0  0  0  0  0  0  0
  149.2735  139.7412  157.4746 N   0  0  0  0  0  0  0  0  0  0  0  0
  148.6281  140.8008  156.7247 C   0  0  0  0  0  0  0  0  0  0  0  0
  149.2742  141.0315  155.3483 C   0  0  0  0  0  0  0  0  0  0  0  0
  148.2979  141.6505  154.3436 C   0  0  0  0  0  0  0  0  0  0  0  0
  150.6395  139.9405  157.7894 C   0  0  0  0  0  0  0  0  0  0  0  0
  151.2748  140.9422  157.4585 O   0  0  0  0  0  0  0  0  0  0  0  0
  151.2787  138.9346  158.5054 N   0  0  0  0  0  0  0  0  0  0  0  0
  150.6940  137.7437  158.9286 C   0  0  0  0  0  0  0  0  0  0  0  0
  151.3707  136.9253  159.5501 O   0  0  0  0  0  0  0  0  0  0  0  0
  152.2521  139.0769  158.7328 H   0  0  0  0  0  0  0  0  0  0  0  0
  150.5032  132.2184  155.6777 H   0  0  0  0  0  0  0  0  0  0  0  0
  149.7767  132.5777  157.2413 H   0  0  0  0  0  0  0  0  0  0  0  0
  151.4705  132.9694  156.9441 H   0  0  0  0  0  0  0  0  0  0  0  0
  150.7668  134.6451  155.2021 H   0  0  0  0  0  0  0  0  0  0  0  0
  149.0897  134.2592  155.5037 H   0  0  0  0  0  0  0  0  0  0  0  0
  150.9150  135.2755  157.7196 H   0  0  0  0  0  0  0  0  0  0  0  0
  150.0796  136.3756  156.6524 H   0  0  0  0  0  0  0  0  0  0  0  0
  147.8841  135.2488  157.3108 H   0  0  0  0  0  0  0  0  0  0  0  0
  148.7485  134.3162  158.4932 H   0  0  0  0  0  0  0  0  0  0  0  0
  147.6487  134.1264  159.6947 H   0  0  0  0  0  0  0  0  0  0  0  0
  147.6891  133.2829  161.8726 H   0  0  0  0  0  0  0  0  0  0  0  0
  148.7738  134.6380  162.1249 H   0  0  0  0  0  0  0  0  0  0  0  0
  146.3572  134.2333  163.4932 H   0  0  0  0  0  0  0  0  0  0  0  0
  147.1123  135.8184  163.3292 H   0  0  0  0  0  0  0  0  0  0  0  0
  144.6085  135.0683  162.1478 H   0  0  0  0  0  0  0  0  0  0  0  0
  145.5444  136.5209  161.7891 H   0  0  0  0  0  0  0  0  0  0  0  0
  146.7952  137.5446  157.7094 H   0  0  0  0  0  0  0  0  0  0  0  0
  146.8269  139.0552  156.8963 H   0  0  0  0  0  0  0  0  0  0  0  0
  147.5763  140.5314  156.6322 H   0  0  0  0  0  0  0  0  0  0  0  0
  148.6337  141.7038  157.3380 H   0  0  0  0  0  0  0  0  0  0  0  0
  150.1427  141.6830  155.4499 H   0  0  0  0  0  0  0  0  0  0  0  0
  149.6441  140.0850  154.9524 H   0  0  0  0  0  0  0  0  0  0  0  0
  148.7791  141.8018  153.3771 H   0  0  0  0  0  0  0  0  0  0  0  0
  147.9378  142.6190  154.6917 H   0  0  0  0  0  0  0  0  0  0  0  0
  147.4323  141.0058  154.1876 H   0  0  0  0  0  0  0  0  0  0  0  0
  1  2  1  0  0  0  0
  1 26  1  0  0  0  0
  1 27  1  0  0  0  0
  1 28  1  0  0  0  0
  2  3  1  0  0  0  0
  2 29  1  0  0  0  0
  2 30  1  0  0  0  0
  3  4  1  0  0  0  0
  3 31  1  0  0  0  0
  3 32  1  0  0  0  0
  4  5  1  0  0  0  0
  4 33  1  0  0  0  0
  4 34  1  0  0  0  0
  5  6  1  0  0  0  0
  5 13  1  0  0  0  0
  6  7  2  0  0  0  0
  6  8  1  0  0  0  0
  8 12  1  0  0  0  0
  8  9  1  0  0  0  0
  8 35  1  0  0  0  0
  9 10  1  0  0  0  0
  9 36  1  0  0  0  0
  9 37  1  0  0  0  0
 10 11  1  0  0  0  0
 10 38  1  0  0  0  0
 10 39  1  0  0  0  0
 11 12  1  0  0  0  0
 11 40  1  0  0  0  0
 11 41  1  0  0  0  0
 13 23  1  0  0  0  0
 13 14  2  0  0  0  0
 14 15  1  0  0  0  0
 14 16  1  0  0  0  0
 15 42  1  0  0  0  0
 15 43  1  0  0  0  0
 16 17  1  0  0  0  0
 16 20  1  0  0  0  0
 17 18  1  0  0  0  0
 17 44  1  0  0  0  0
 17 45  1  0  0  0  0
 18 19  1  0  0  0  0
 18 46  1  0  0  0  0
 18 47  1  0  0  0  0
 19 48  1  0  0  0  0
 19 49  1  0  0  0  0
 19 50  1  0  0  0  0
 20 21  2  0  0  0  0
 20 22  1  0  0  0  0
 22 25  1  0  0  0  0
 22 23  1  0  0  0  0
 23 24  2  0  0  0  0
M  END
> <s_m_source_file>
AV-unprocessed.smi

> <i_m_source_file_index>
601

> <i_lp_mmshare_version>
43012

> <i_f3d_flags>
0

> <s_epik_input>
TzFbQ0gyXVtDSDJdW0NIMl1bQ0BIXTFDKD1PKU4oW0NIMl1bQ0gyXVtDSDJdW0NIM10pYzJjKFtOSDJdKW4oW0NIMl1bQ0gyXVtDSDNdKWMoPU8pW25IXWMyPU8=

> <s_epik_cmdline>
J2VwaWtfcHl0aG9uJywgJy1waCcsICc3LjAnLCAnLXRuJywgJzgnLCAnLW1hJywgJzIwMCcsICctbWV0YWxfYmluZGluZycsICctaW1hZScsICc8aW5maWxlLm1hZT4nLCAnLW9tYWUnLCAnPG91dGZpbGUubWFlPic=

> <r_lp_tautomer_probability>
1

> <r_epik_Ionization_Penalty>
6.19718e-05

> <r_epik_Ionization_Penalty_Charging>
2.78773e-05

> <r_epik_Ionization_Penalty_Neutral>
3.40944e-05

> <r_epik_State_Penalty>
-0

> <r_epik_Charging_Adjusted_Penalty>
2.78773e-05

> <i_epik_Tot_Q>
0

> <i_epik_Tot_abs_Q>
0

> <r_epik_Metal_State_Penalty>
0.0271358

> <b_epik_Metal_Only>
0

> <s_lp_Force_Field>
OPLS_2005

> <r_lp_Energy>
41.2463

> <b_lp_Chiralities_Consistent>
1

> <s_lp_Variant>
AV-unprocessed.smi:601-2

> <Gold.Version>
5.8.1

> <Gold.Id.Protein>
6NUR|6NUR_protein|mol2

> <Gold.PLP.Fitness>
39.7163

> <Gold.PLP.PLP>
-33.3171

> <Gold.PLP.part.hbond>
-3.0000

> <Gold.PLP.part.metal>
0.0000

> <Gold.PLP.part.buried>
-5.6662

> <Gold.PLP.part.nonpolar>
-24.8284

> <Gold.PLP.part.repulsive>
0.1603

> <Gold.PLP.ligand.clash>
0.0000

> <Gold.PLP.ligand.torsion>
2.1293

> <Gold.PLP.Chemscore.Hbond>
2.7440

> <Gold.PLP.Chemscore.CHOScore>
0.0000

> <Gold.PLP.Chemscore.Metal>
0.0000

> <Gold.Chemscore.Hbonds>
donor molecule, donor type, donor heavy atom, donor atom, acceptor molecule, acceptor atom, score
      P1  H  6896  6907       L1    24  1.00
      P1  H  6931  6943       L1     7  0.83
      P1  H  6934  6947       L1     7  0.90

> <Gold.PLP.Chemscore.Internal.Correction>
2.4259

> <Gold.Rescore>
     Score         DG    S(hbond)    S(metal)    S(lipo)     H(rot)  DE(clash)    DE(int)     intcor
     14.15     -17.38       2.73        0.00      66.75       1.96       0.02       3.21       ----

> <Gold.Chemscore.Fitness>
14.1529

> <Gold.Chemscore.DG>
-17.3799

> <Gold.Chemscore.ZeroCoef>
-5.4800

> <Gold.Chemscore.Hbond>
2.7270

> <Gold.Chemscore.Metal>
0.0000

> <Gold.Chemscore.Lipo>
66.7545

> <Gold.Chemscore.Internal_Hbond>
0.0000

> <Gold.Chemscore.DEClash>
0.0161

> <Gold.Chemscore.DEInternal>
3.2108

> <Gold.Chemscore.Rot>
1.9603

> <Gold.Chemscore.Internal.Correction>
   9.000000E+99

> <Gold.Chemscore.Hbonds>
donor molecule, donor type, donor heavy atom, donor atom, acceptor molecule, acceptor atom, score
      P1  H  6896  6907       L1    24  1.00
      P1  H  6931  6943       L1     7  0.80
      P1  H  6934  6947       L1     7  0.88

> <Gold.Chemscore.Hbond.Weighted>
-9.1081

> <Gold.Chemscore.Metal.Weighted>
-0.0000

> <Gold.Chemscore.Lipo.Weighted>
-7.8103

> <Gold.Chemscore.Internal_Hbond.Weighted>
0.0000

> <Gold.Chemscore.DEClash.Weighted>
0.0161

> <Gold.Chemscore.DEInternal.Weighted>
3.2108

> <Gold.Chemscore.Rot.Weighted>
5.0185

> <Gold.Chemscore.Internal.Correction.Weighted>
   9.000000E+99

> <Gold.Protein.RotatedTorsions>
[ 6907 6896 6895 6894 ] final   -3.80 input  -60.11 | X-H torsion
[ 7974 7965 7964 7962 ] final   67.29 input  175.53 | X-H torsion
[ 8008 7997 7996 7995 ] final   69.82 input   59.86 | X-H torsion
[ 10167 10162 10161 10158 ] final  100.36 input  -65.29 | X-H torsion
[ 10718 10713 10712 10709 ] final  -33.57 input   66.30 | X-H torsion
[ 10763 10752 10751 10750 ] final  134.53 input  -60.55 | X-H torsion
[ 11005 11000 10999 10996 ] final  -18.41 input  -57.11 | X-H torsion

> <Gold.Protein.ActiveResidues>
 VAL166  LYS551  ARG553  GLY616  TRP617  ASP618  TYR619  PRO620  LYS621  CYS622 
 ASP623  PHE694  ASN695  SER759  ASP760  ASP761  ALA762  ILE779  LEU786  VAL792 
 PHE793  MET794  SER795  GLU796  ALA797  LYS798  CYS799  TRP800  GLU811  SER814 

> <Gold.Protein.RotatedAtoms>
  151.5080  135.1064  159.9846 H   0  0  0  0  0  0  0  0  0  0  0  0  # atno 6907 bound_to 6896
  152.4674  133.7948  159.6932 H   0  0  0  0  0  0  0  0  0  0  0  0  # atno 6908 bound_to 6896
  150.8664  133.7505  159.3001 H   0  0  0  0  0  0  0  0  0  0  0  0  # atno 6909 bound_to 6896
  145.8164  139.3060  143.1069 H   0  0  0  0  0  0  0  0  0  0  0  0  # atno 7974 bound_to 7965
  155.7295  140.3492  155.5053 H   0  0  0  0  0  0  0  0  0  0  0  0  # atno 8008 bound_to 7997
  155.9196  140.1065  157.1239 H   0  0  0  0  0  0  0  0  0  0  0  0  # atno 8009 bound_to 7997
  154.4068  140.1252  156.4649 H   0  0  0  0  0  0  0  0  0  0  0  0  # atno 8010 bound_to 7997
  139.7534  144.6977  151.0398 H   0  0  0  0  0  0  0  0  0  0  0  0  # atno 10167 bound_to 10162
  156.3610  130.4324  149.7623 H   0  0  0  0  0  0  0  0  0  0  0  0  # atno 10718 bound_to 10713
  153.8250  135.3111  155.3414 H   0  0  0  0  0  0  0  0  0  0  0  0  # atno 10763 bound_to 10752
  154.7997  135.4734  154.0248 H   0  0  0  0  0  0  0  0  0  0  0  0  # atno 10764 bound_to 10752
  153.1669  135.6871  153.8752 H   0  0  0  0  0  0  0  0  0  0  0  0  # atno 10765 bound_to 10752
  140.8266  133.8028  155.9714 H   0  0  0  0  0  0  0  0  0  0  0  0  # atno 11005 bound_to 11000
  145.9722  140.8751  143.0156 LP  0  0  0  0  0  0  0  0  0  0  0  0  # atno 17320 bound_to 7965
  144.6752  140.1962  143.7391 LP  0  0  0  0  0  0  0  0  0  0  0  0  # atno 17321 bound_to 7965
  140.7800  143.4782  151.0054 LP  0  0  0  0  0  0  0  0  0  0  0  0  # atno 17342 bound_to 10162
  139.8469  143.7489  152.3179 LP  0  0  0  0  0  0  0  0  0  0  0  0  # atno 17343 bound_to 10162
  156.4787  130.8031  151.3046 LP  0  0  0  0  0  0  0  0  0  0  0  0  # atno 17370 bound_to 10713
  157.7473  131.0012  150.2956 LP  0  0  0  0  0  0  0  0  0  0  0  0  # atno 17371 bound_to 10713
  140.9043  134.2339  157.5023 LP  0  0  0  0  0  0  0  0  0  0  0  0  # atno 17394 bound_to 11000
  139.8706  134.9721  156.4760 LP  0  0  0  0  0  0  0  0  0  0  0  0  # atno 17395 bound_to 11000

$$$$
