AV-unprocessed.smi:798|AV-procd|sdf|3783|dock5
  -GOLD-   22720 1213D 1   1.00000     0.00000
 Structure written by MMmdl.
 33 35  0  0  0  0  0  0  0  0  2 V2000
  149.3702  141.7281  156.4030 O   0  0  0  0  0  0  0  0  0  0  0  0
  150.5469  141.3744  156.2990 C   0  0  0  0  0  0  0  0  0  0  0  0
  151.0590  140.5642  155.3449 N   0  5  0  0  0  0  0  0  0  0  0  0
  151.4710  139.3267  155.6658 C   0  0  0  0  0  0  0  0  0  0  0  0
  151.8226  138.4235  154.7364 N   0  0  0  0  0  0  0  0  0  0  0  0
  152.2138  137.2064  155.2781 N   0  0  0  0  0  0  0  0  0  0  0  0
  152.1370  137.2200  156.6087 C   0  0  0  0  0  0  0  0  0  0  0  0
  151.5788  138.7193  157.3203 S   0  0  0  0  0  0  0  0  0  0  0  0
  151.4541  141.7924  157.1934 N   0  0  0  0  0  0  0  0  0  0  0  0
  151.2014  142.6720  158.3366 C   0  0  2  0  0  0  0  0  0  0  0  0
  151.5110  144.1369  157.9590 C   0  0  1  0  0  0  0  0  0  0  0  0
  150.8809  145.0714  159.0077 C   0  0  0  0  0  0  0  0  0  0  0  0
  151.7785  144.8437  160.2391 C   0  0  0  0  0  0  0  0  0  0  0  0
  152.8060  143.8128  159.7301 C   0  0  2  0  0  0  0  0  0  0  0  0
  152.9942  144.2609  158.2864 C   0  0  0  0  0  0  0  0  0  0  0  0
  152.1188  142.4335  159.5751 C   0  0  2  0  0  0  0  0  0  0  0  0
  153.1199  141.2602  159.4674 C   0  0  0  0  0  0  0  0  0  0  0  0
  153.9181  141.1809  160.6299 O   0  0  0  0  0  0  0  0  0  0  0  0
  152.4078  136.3409  157.1740 H   0  0  0  0  0  0  0  0  0  0  0  0
  152.4040  141.4750  157.0675 H   0  0  0  0  0  0  0  0  0  0  0  0
  150.1506  142.5864  158.6202 H   0  0  0  0  0  0  0  0  0  0  0  0
  151.2412  144.3981  156.9348 H   0  0  0  0  0  0  0  0  0  0  0  0
  150.9337  146.1111  158.6825 H   0  0  0  0  0  0  0  0  0  0  0  0
  149.8342  144.8352  159.2028 H   0  0  0  0  0  0  0  0  0  0  0  0
  152.2723  145.7723  160.5277 H   0  0  0  0  0  0  0  0  0  0  0  0
  151.2188  144.4823  161.1026 H   0  0  0  0  0  0  0  0  0  0  0  0
  153.7195  143.7929  160.3250 H   0  0  0  0  0  0  0  0  0  0  0  0
  153.6264  143.5935  157.6991 H   0  0  0  0  0  0  0  0  0  0  0  0
  153.3735  145.2802  158.1953 H   0  0  0  0  0  0  0  0  0  0  0  0
  151.4892  142.2403  160.4453 H   0  0  0  0  0  0  0  0  0  0  0  0
  152.5897  140.3130  159.3696 H   0  0  0  0  0  0  0  0  0  0  0  0
  153.7668  141.3624  158.5959 H   0  0  0  0  0  0  0  0  0  0  0  0
  153.5788  141.7921  161.2658 H   0  0  0  0  0  0  0  0  0  0  0  0
  1  2  2  0  0  0  0
  2  3  1  0  0  0  0
  2  9  1  0  0  0  0
  3  4  1  0  0  0  0
  4  8  1  0  0  0  0
  4  5  2  0  0  0  0
  5  6  1  0  0  0  0
  6  7  2  0  0  0  0
  7  8  1  0  0  0  0
  7 19  1  0  0  0  0
  9 10  1  0  0  0  0
  9 20  1  0  0  0  0
 10 16  1  0  0  0  0
 10 11  1  0  0  0  0
 10 21  1  0  0  0  0
 11 15  1  0  0  0  0
 11 12  1  0  0  0  0
 11 22  1  0  0  0  0
 12 13  1  0  0  0  0
 12 23  1  0  0  0  0
 12 24  1  0  0  0  0
 13 14  1  0  0  0  0
 13 25  1  0  0  0  0
 13 26  1  0  0  0  0
 14 15  1  0  0  0  0
 14 16  1  0  0  0  0
 14 27  1  0  0  0  0
 15 28  1  0  0  0  0
 15 29  1  0  0  0  0
 16 17  1  0  0  0  0
 16 30  1  0  0  0  0
 17 18  1  0  0  0  0
 17 31  1  0  0  0  0
 17 32  1  0  0  0  0
 18 33  1  0  0  0  0
M  CHG  1   3  -1
M  END
> <s_m_source_file>
AV-unprocessed.smi

> <i_m_source_file_index>
798

> <i_lp_mmshare_version>
43012

> <i_f3d_flags>
0

> <s_epik_input>
W0NIMl0xW0NIMl1bQ0BASF0oW0NIMl0yKVtDQEBIXShbQ0gyXVtPSF0pW0NAQEhdKFtDQEhdMTIpW05IXUMoPU8pW05IXWMzbm5bY0hdczM=

> <s_epik_cmdline>
J2VwaWtfcHl0aG9uJywgJy1waCcsICc3LjAnLCAnLXRuJywgJzgnLCAnLW1hJywgJzIwMCcsICctbWV0YWxfYmluZGluZycsICctaW1hZScsICc8aW5maWxlLm1hZT4nLCAnLW9tYWUnLCAnPG91dGZpbGUubWFlPic=

> <r_lp_tautomer_probability>
1

> <r_epik_Ionization_Penalty>
4.53732

> <r_epik_Ionization_Penalty_Charging>
4.48632

> <r_epik_Ionization_Penalty_Neutral>
0.0510007

> <r_epik_State_Penalty>
4.48602

> <r_epik_Charging_Adjusted_Penalty>
8.97234

> <i_epik_Tot_Q>
-1

> <i_epik_Tot_abs_Q>
1

> <r_epik_Metal_State_Penalty>
0.812492

> <b_epik_Metal_Only>
1

> <s_lp_Force_Field>
OPLS_2005

> <r_lp_Energy>
47.4456

> <b_lp_Chiralities_Consistent>
1

> <s_lp_Variant>
AV-unprocessed.smi:798-15

> <Gold.Version>
5.8.1

> <Gold.Id.Protein>
6NUR|6NUR_protein|mol2

> <Gold.PLP.Fitness>
40.5264

> <Gold.PLP.PLP>
-37.3508

> <Gold.PLP.part.hbond>
-2.0000

> <Gold.PLP.part.metal>
0.0000

> <Gold.PLP.part.buried>
-6.3817

> <Gold.PLP.part.nonpolar>
-30.6027

> <Gold.PLP.part.repulsive>
0.3972

> <Gold.PLP.ligand.clash>
0.0000

> <Gold.PLP.ligand.torsion>
1.0387

> <Gold.PLP.Chemscore.Hbond>
1.7440

> <Gold.PLP.Chemscore.CHOScore>
0.0000

> <Gold.PLP.Chemscore.Metal>
0.0000

> <Gold.Chemscore.Hbonds>
donor molecule, donor type, donor heavy atom, donor atom, acceptor molecule, acceptor atom, score
      P1  H  7989  7998       L1     3  0.91
      P1  H 10752 10763       L1     6  0.80

> <Gold.PLP.Chemscore.Internal.Correction>
0.0210

> <Gold.Rescore>
     Score         DG    S(hbond)    S(metal)    S(lipo)     H(rot)  DE(clash)    DE(int)     intcor
     16.88     -17.96       1.78        0.00      97.75       1.92       0.00       1.07       ----

> <Gold.Chemscore.Fitness>
16.8772

> <Gold.Chemscore.DG>
-17.9558

> <Gold.Chemscore.ZeroCoef>
-5.4800

> <Gold.Chemscore.Hbond>
1.7834

> <Gold.Chemscore.Metal>
0.0000

> <Gold.Chemscore.Lipo>
97.7457

> <Gold.Chemscore.Internal_Hbond>
0.0000

> <Gold.Chemscore.DEClash>
0.0038

> <Gold.Chemscore.DEInternal>
1.0748

> <Gold.Chemscore.Rot>
1.9207

> <Gold.Chemscore.Internal.Correction>
   9.000000E+99

> <Gold.Chemscore.Hbonds>
donor molecule, donor type, donor heavy atom, donor atom, acceptor molecule, acceptor atom, score
      P1  H  7989  7998       L1     3  0.53
      P1  H 10752 10763       L1     6  0.65

> <Gold.Chemscore.Hbond.Weighted>
-5.9564

> <Gold.Chemscore.Metal.Weighted>
-0.0000

> <Gold.Chemscore.Lipo.Weighted>
-11.4362

> <Gold.Chemscore.Internal_Hbond.Weighted>
0.0000

> <Gold.Chemscore.DEClash.Weighted>
0.0038

> <Gold.Chemscore.DEInternal.Weighted>
1.0748

> <Gold.Chemscore.Rot.Weighted>
4.9169

> <Gold.Chemscore.Internal.Correction.Weighted>
   9.000000E+99

> <Gold.Protein.RotatedTorsions>
[ 6907 6896 6895 6894 ] final  -34.58 input  -60.11 | X-H torsion
[ 7974 7965 7964 7962 ] final -143.41 input  175.53 | X-H torsion
[ 8008 7997 7996 7995 ] final -160.07 input   59.86 | X-H torsion
[ 10167 10162 10161 10158 ] final -136.90 input  -65.29 | X-H torsion
[ 10718 10713 10712 10709 ] final  -41.10 input   66.30 | X-H torsion
[ 10763 10752 10751 10750 ] final   61.79 input  -60.55 | X-H torsion
[ 11005 11000 10999 10996 ] final  -75.62 input  -57.11 | X-H torsion

> <Gold.Protein.ActiveResidues>
 VAL166  LYS551  ARG553  GLY616  TRP617  ASP618  TYR619  PRO620  LYS621  CYS622 
 ASP623  PHE694  ASN695  SER759  ASP760  ASP761  ALA762  ILE779  LEU786  VAL792 
 PHE793  MET794  SER795  GLU796  ALA797  LYS798  CYS799  TRP800  GLU811  SER814 

> <Gold.Protein.RotatedAtoms>
  151.0508  134.9671  159.8210 H   0  0  0  0  0  0  0  0  0  0  0  0  # atno 6907 bound_to 6896
  152.5380  134.2540  159.8920 H   0  0  0  0  0  0  0  0  0  0  0  0  # atno 6908 bound_to 6896
  151.2555  133.4285  159.2647 H   0  0  0  0  0  0  0  0  0  0  0  0  # atno 6909 bound_to 6896
  144.8372  140.5838  143.5476 H   0  0  0  0  0  0  0  0  0  0  0  0  # atno 7974 bound_to 7965
  155.7719  140.0853  157.2103 H   0  0  0  0  0  0  0  0  0  0  0  0  # atno 8008 bound_to 7997
  154.3995  140.1523  156.3009 H   0  0  0  0  0  0  0  0  0  0  0  0  # atno 8009 bound_to 7997
  155.8738  140.3424  155.5842 H   0  0  0  0  0  0  0  0  0  0  0  0  # atno 8010 bound_to 7997
  139.8631  143.7052  152.2648 H   0  0  0  0  0  0  0  0  0  0  0  0  # atno 10167 bound_to 10162
  156.2740  130.4210  149.8407 H   0  0  0  0  0  0  0  0  0  0  0  0  # atno 10718 bound_to 10713
  152.9961  135.5488  154.6090 H   0  0  0  0  0  0  0  0  0  0  0  0  # atno 10763 bound_to 10752
  154.5415  135.2820  155.1094 H   0  0  0  0  0  0  0  0  0  0  0  0  # atno 10764 bound_to 10752
  154.2369  135.6423  153.5247 H   0  0  0  0  0  0  0  0  0  0  0  0  # atno 10765 bound_to 10752
  141.1647  133.6953  156.7545 H   0  0  0  0  0  0  0  0  0  0  0  0  # atno 11005 bound_to 11000
  145.4771  139.1498  143.3782 LP  0  0  0  0  0  0  0  0  0  0  0  0  # atno 17320 bound_to 7965
  146.2669  140.4905  142.8830 LP  0  0  0  0  0  0  0  0  0  0  0  0  # atno 17321 bound_to 7965
  139.7355  144.7572  151.0735 LP  0  0  0  0  0  0  0  0  0  0  0  0  # atno 17342 bound_to 10162
  140.7772  143.5036  150.9740 LP  0  0  0  0  0  0  0  0  0  0  0  0  # atno 17343 bound_to 10162
  156.5878  130.8493  151.3400 LP  0  0  0  0  0  0  0  0  0  0  0  0  # atno 17370 bound_to 10713
  157.7293  130.9669  150.1782 LP  0  0  0  0  0  0  0  0  0  0  0  0  # atno 17371 bound_to 10713
  140.2579  134.8489  157.3731 LP  0  0  0  0  0  0  0  0  0  0  0  0  # atno 17394 bound_to 11000
  140.1639  134.4694  155.7876 LP  0  0  0  0  0  0  0  0  0  0  0  0  # atno 17395 bound_to 11000

$$$$
