AV-unprocessed.smi:907|AV-procd|sdf|4110|dock2
  -GOLD-   22720 2 03D 1   1.00000     0.00000
 Structure written by MMmdl.
 54 57  0  0  0  0  0  0  0  0  3 V2000
  149.7254  140.7962  153.6332 O   0  0  0  0  0  0  0  0  0  0  0  0
  148.7194  140.9499  154.3269 C   0  0  0  0  0  0  0  0  0  0  0  0
  148.7934  141.2250  155.6406 N   0  0  0  0  0  0  0  0  0  0  0  0
  150.0343  141.4048  156.3861 C   0  0  0  0  0  0  0  0  0  0  0  0
  149.7683  141.6493  157.8811 C   0  0  0  0  0  0  0  0  0  0  0  0
  150.7060  142.6861  158.4676 C   0  0  0  0  0  0  0  0  0  0  0  0
  151.7207  142.3398  159.3860 C   0  0  0  0  0  0  0  0  0  0  0  0
  152.5671  143.3486  159.8910 C   0  0  0  0  0  0  0  0  0  0  0  0
  152.3819  144.6808  159.4665 C   0  0  0  0  0  0  0  0  0  0  0  0
  151.3547  144.9702  158.5450 C   0  0  0  0  0  0  0  0  0  0  0  0
  150.5643  143.9757  158.0837 N   0  3  0  0  0  0  0  0  0  0  0  0
  147.4600  140.7893  153.8501 N   0  0  0  0  0  0  0  0  0  0  0  0
  147.0946  140.2046  152.5533 C   0  0  0  0  0  0  0  0  0  0  0  0
  146.5487  138.7826  152.7827 C   0  0  0  0  0  0  0  0  0  0  0  0
  145.4027  138.7754  153.7375 N   0  3  0  0  0  0  0  0  0  0  0  0
  144.8610  137.4058  153.9714 C   0  0  2  0  0  0  0  0  0  0  0  0
  144.3144  136.7085  152.7012 C   0  0  0  0  0  0  0  0  0  0  0  0
  142.9259  136.2104  153.1454 C   0  0  2  0  0  0  0  0  0  0  0  0
  141.9637  137.4092  153.1940 C   0  0  0  0  0  0  0  0  0  0  0  0
  142.4672  138.1908  154.4203 C   0  0  0  0  0  0  0  0  0  0  0  0
  143.6429  137.3258  154.9258 C   0  0  1  0  0  0  0  0  0  0  0  0
  143.1348  135.9195  154.6268 C   0  0  0  0  0  0  0  0  0  0  0  0
  145.7195  139.5054  154.9987 C   0  0  0  0  0  0  0  0  0  0  0  0
  146.2840  140.9086  154.7145 C   0  0  0  0  0  0  0  0  0  0  0  0
  147.9305  141.3131  156.1578 H   0  0  0  0  0  0  0  0  0  0  0  0
  150.6740  140.5308  156.2514 H   0  0  0  0  0  0  0  0  0  0  0  0
  150.5726  142.2509  155.9579 H   0  0  0  0  0  0  0  0  0  0  0  0
  148.7375  141.9739  158.0310 H   0  0  0  0  0  0  0  0  0  0  0  0
  149.8813  140.7215  158.4437 H   0  0  0  0  0  0  0  0  0  0  0  0
  151.8516  141.3137  159.6986 H   0  0  0  0  0  0  0  0  0  0  0  0
  153.3493  143.1029  160.5943 H   0  0  0  0  0  0  0  0  0  0  0  0
  153.0196  145.4682  159.8415 H   0  0  0  0  0  0  0  0  0  0  0  0
  151.1433  145.9594  158.1658 H   0  0  0  0  0  0  0  0  0  0  0  0
  146.3292  140.8258  152.0855 H   0  0  0  0  0  0  0  0  0  0  0  0
  147.9166  140.1680  151.8385 H   0  0  0  0  0  0  0  0  0  0  0  0
  146.2511  138.3618  151.8230 H   0  0  0  0  0  0  0  0  0  0  0  0
  147.3439  138.1440  153.1712 H   0  0  0  0  0  0  0  0  0  0  0  0
  145.6639  136.7964  154.3912 H   0  0  0  0  0  0  0  0  0  0  0  0
  144.2309  137.3716  151.8395 H   0  0  0  0  0  0  0  0  0  0  0  0
  144.9584  135.8753  152.4169 H   0  0  0  0  0  0  0  0  0  0  0  0
  142.5500  135.3725  152.5574 H   0  0  0  0  0  0  0  0  0  0  0  0
  141.9897  138.0035  152.2798 H   0  0  0  0  0  0  0  0  0  0  0  0
  140.9359  137.0768  153.3461 H   0  0  0  0  0  0  0  0  0  0  0  0
  142.7631  139.2096  154.1701 H   0  0  0  0  0  0  0  0  0  0  0  0
  141.6838  138.2530  155.1768 H   0  0  0  0  0  0  0  0  0  0  0  0
  143.8909  137.4912  155.9747 H   0  0  0  0  0  0  0  0  0  0  0  0
  142.2116  135.6709  155.1537 H   0  0  0  0  0  0  0  0  0  0  0  0
  143.8743  135.1388  154.8149 H   0  0  0  0  0  0  0  0  0  0  0  0
  144.8263  139.6119  155.6134 H   0  0  0  0  0  0  0  0  0  0  0  0
  146.4390  138.9270  155.5808 H   0  0  0  0  0  0  0  0  0  0  0  0
  146.5018  141.4212  155.6526 H   0  0  0  0  0  0  0  0  0  0  0  0
  145.5316  141.5208  154.2147 H   0  0  0  0  0  0  0  0  0  0  0  0
  144.6626  139.3005  153.2942 H   0  0  0  0  0  0  0  0  0  0  0  0
  149.8279  144.2085  157.4174 H   0  0  0  0  0  0  0  0  0  0  0  0
  1  2  2  0  0  0  0
  2  3  1  0  0  0  0
  2 12  1  0  0  0  0
  3  4  1  0  0  0  0
  3 25  1  0  0  0  0
  4  5  1  0  0  0  0
  4 26  1  0  0  0  0
  4 27  1  0  0  0  0
  5  6  1  0  0  0  0
  5 28  1  0  0  0  0
  5 29  1  0  0  0  0
  6 11  1  0  0  0  0
  6  7  2  0  0  0  0
  7  8  1  0  0  0  0
  7 30  1  0  0  0  0
  8  9  2  0  0  0  0
  8 31  1  0  0  0  0
  9 10  1  0  0  0  0
  9 32  1  0  0  0  0
 10 11  2  0  0  0  0
 10 33  1  0  0  0  0
 11 54  1  0  0  0  0
 12 24  1  0  0  0  0
 12 13  1  0  0  0  0
 13 14  1  0  0  0  0
 13 34  1  0  0  0  0
 13 35  1  0  0  0  0
 14 15  1  0  0  0  0
 14 36  1  0  0  0  0
 14 37  1  0  0  0  0
 15 16  1  0  0  0  0
 15 23  1  0  0  0  0
 15 53  1  0  0  0  0
 16 21  1  0  0  0  0
 16 17  1  0  0  0  0
 16 38  1  0  0  0  0
 17 18  1  0  0  0  0
 17 39  1  0  0  0  0
 17 40  1  0  0  0  0
 18 22  1  0  0  0  0
 18 19  1  0  0  0  0
 18 41  1  0  0  0  0
 19 20  1  0  0  0  0
 19 42  1  0  0  0  0
 19 43  1  0  0  0  0
 20 21  1  0  0  0  0
 20 44  1  0  0  0  0
 20 45  1  0  0  0  0
 21 22  1  0  0  0  0
 21 46  1  0  0  0  0
 22 47  1  0  0  0  0
 22 48  1  0  0  0  0
 23 24  1  0  0  0  0
 23 49  1  0  0  0  0
 23 50  1  0  0  0  0
 24 51  1  0  0  0  0
 24 52  1  0  0  0  0
M  CHG  1  11   1
M  CHG  1  15   1
M  END
> <s_m_source_file>
AV-unprocessed.smi

> <i_m_source_file_index>
907

> <i_lp_mmshare_version>
43012

> <i_f3d_flags>
0

> <s_epik_input>
W0NIMl0xW0NIMl1bQ0BASF0oW0NIMl0yKVtDQEBIXShbQ0gyXVtDQEhdMTIpTihbQ0gyXVtDSDJdMylbQ0gyXVtDSDJdTjNDKD1PKVtOSF1bQ0gyXVtDSDJdYzRbY0hdW2NIXVtjSF1bY0hdbjQ=

> <s_epik_cmdline>
J2VwaWtfcHl0aG9uJywgJy1waCcsICc3LjAnLCAnLXRuJywgJzgnLCAnLW1hJywgJzIwMCcsICctbWV0YWxfYmluZGluZycsICctaW1hZScsICc8aW5maWxlLm1hZT4nLCAnLW9tYWUnLCAnPG91dGZpbGUubWFlPic=

> <r_epik_Ionization_Penalty>
1.63018

> <r_epik_Ionization_Penalty_Charging>
1.63015

> <r_epik_Ionization_Penalty_Neutral>
2.64641e-05

> <r_epik_State_Penalty>
1.72761

> <r_epik_Charging_Adjusted_Penalty>
3.35777

> <i_epik_Tot_Q>
2

> <i_epik_Tot_abs_Q>
2

> <r_epik_Metal_State_Penalty>
1.76501

> <b_epik_Metal_Only>
0

> <s_lp_Force_Field>
OPLS_2005

> <r_lp_Energy>
102.759

> <b_lp_Chiralities_Consistent>
1

> <s_lp_Variant>
AV-unprocessed.smi:907-5

> <Gold.Version>
5.8.1

> <Gold.Id.Protein>
6NUR|6NUR_protein|mol2

> <Gold.PLP.Fitness>
52.6316

> <Gold.PLP.PLP>
-39.3342

> <Gold.PLP.part.hbond>
-3.9714

> <Gold.PLP.part.metal>
0.0000

> <Gold.PLP.part.buried>
-4.8524

> <Gold.PLP.part.nonpolar>
-35.1844

> <Gold.PLP.part.repulsive>
3.8312

> <Gold.PLP.ligand.clash>
2.0318

> <Gold.PLP.ligand.torsion>
0.4338

> <Gold.PLP.Chemscore.Hbond>
5.3520

> <Gold.PLP.Chemscore.CHOScore>
0.0000

> <Gold.PLP.Chemscore.Metal>
0.0000

> <Gold.Chemscore.Hbonds>
donor molecule, donor type, donor heavy atom, donor atom, acceptor molecule, acceptor atom, score
      L1  H    11    54       P1  8028  2.00
      L1  H    15    53       P1 10175  2.00
      P1  H  7989  7998       L1     1  0.40
      P1  H  8011  8017       L1     1  0.89

> <Gold.PLP.Chemscore.Internal.Correction>
0.1409

> <Gold.Rescore>
     Score         DG    S(hbond)    S(metal)    S(lipo)     H(rot)  DE(clash)    DE(int)     intcor
     22.47     -24.84       3.08        0.00     109.40       1.46       2.04       0.34       ----

> <Gold.Chemscore.Fitness>
22.4672

> <Gold.Chemscore.DG>
-24.8433

> <Gold.Chemscore.ZeroCoef>
-5.4800

> <Gold.Chemscore.Hbond>
3.0819

> <Gold.Chemscore.Metal>
0.0000

> <Gold.Chemscore.Lipo>
109.4027

> <Gold.Chemscore.Internal_Hbond>
0.0000

> <Gold.Chemscore.DEClash>
2.0404

> <Gold.Chemscore.DEInternal>
0.3357

> <Gold.Chemscore.Rot>
1.4572

> <Gold.Chemscore.Internal.Correction>
   9.000000E+99

> <Gold.Chemscore.Hbonds>
donor molecule, donor type, donor heavy atom, donor atom, acceptor molecule, acceptor atom, score
      L1  H    11    54       P1  8028  0.37
      L1  H    15    53       P1 10175  1.00
      P1  H  7989  7998       L1     1  0.40
      P1  H  8011  8017       L1     1  0.50

> <Gold.Chemscore.Hbond.Weighted>
-10.2937

> <Gold.Chemscore.Metal.Weighted>
-0.0000

> <Gold.Chemscore.Lipo.Weighted>
-12.8001

> <Gold.Chemscore.Internal_Hbond.Weighted>
0.0000

> <Gold.Chemscore.DEClash.Weighted>
2.0404

> <Gold.Chemscore.DEInternal.Weighted>
0.3357

> <Gold.Chemscore.Rot.Weighted>
3.7305

> <Gold.Chemscore.Internal.Correction.Weighted>
   9.000000E+99

> <Gold.Protein.RotatedTorsions>
[ 6907 6896 6895 6894 ] final -144.43 input  -60.11 | X-H torsion
[ 7974 7965 7964 7962 ] final -138.83 input  175.53 | X-H torsion
[ 8008 7997 7996 7995 ] final -138.94 input   59.86 | X-H torsion
[ 10167 10162 10161 10158 ] final  -61.28 input  -65.29 | X-H torsion
[ 10718 10713 10712 10709 ] final  -43.09 input   66.30 | X-H torsion
[ 10763 10752 10751 10750 ] final  -37.22 input  -60.55 | X-H torsion
[ 11005 11000 10999 10996 ] final  136.41 input  -57.11 | X-H torsion

> <Gold.Protein.ActiveResidues>
 VAL166  LYS551  ARG553  GLY616  TRP617  ASP618  TYR619  PRO620  LYS621  CYS622 
 ASP623  PHE694  ASN695  SER759  ASP760  ASP761  ALA762  ILE779  LEU786  VAL792 
 PHE793  MET794  SER795  GLU796  ALA797  LYS798  CYS799  TRP800  GLU811  SER814 

> <Gold.Protein.RotatedAtoms>
  151.1139  133.5153  159.2604 H   0  0  0  0  0  0  0  0  0  0  0  0  # atno 6907 bound_to 6896
  151.1936  135.0412  159.8853 H   0  0  0  0  0  0  0  0  0  0  0  0  # atno 6908 bound_to 6896
  152.5452  134.0976  159.8357 H   0  0  0  0  0  0  0  0  0  0  0  0  # atno 6909 bound_to 6896
  144.8726  140.6390  143.5257 H   0  0  0  0  0  0  0  0  0  0  0  0  # atno 7974 bound_to 7965
  155.4366  140.0529  157.3014 H   0  0  0  0  0  0  0  0  0  0  0  0  # atno 8008 bound_to 7997
  154.4836  140.2092  155.9663 H   0  0  0  0  0  0  0  0  0  0  0  0  # atno 8009 bound_to 7997
  156.1243  140.3183  155.8258 H   0  0  0  0  0  0  0  0  0  0  0  0  # atno 8010 bound_to 7997
  140.6016  143.2363  151.5915 H   0  0  0  0  0  0  0  0  0  0  0  0  # atno 10167 bound_to 10162
  156.2527  130.4189  149.8631 H   0  0  0  0  0  0  0  0  0  0  0  0  # atno 10718 bound_to 10713
  153.8927  135.6810  153.4759 H   0  0  0  0  0  0  0  0  0  0  0  0  # atno 10763 bound_to 10752
  153.1172  135.4756  154.9133 H   0  0  0  0  0  0  0  0  0  0  0  0  # atno 10764 bound_to 10752
  154.7614  135.3212  154.8324 H   0  0  0  0  0  0  0  0  0  0  0  0  # atno 10765 bound_to 10752
  140.0044  134.9465  157.0144 H   0  0  0  0  0  0  0  0  0  0  0  0  # atno 11005 bound_to 11000
  145.4101  139.1581  143.4130 LP  0  0  0  0  0  0  0  0  0  0  0  0  # atno 17320 bound_to 7965
  146.2941  140.4205  142.8728 LP  0  0  0  0  0  0  0  0  0  0  0  0  # atno 17321 bound_to 7965
  139.5295  144.2958  152.1115 LP  0  0  0  0  0  0  0  0  0  0  0  0  # atno 17342 bound_to 10162
  140.2140  144.4534  150.6372 LP  0  0  0  0  0  0  0  0  0  0  0  0  # atno 17343 bound_to 10162
  156.6174  130.8612  151.3468 LP  0  0  0  0  0  0  0  0  0  0  0  0  # atno 17370 bound_to 10713
  157.7221  130.9572  150.1480 LP  0  0  0  0  0  0  0  0  0  0  0  0  # atno 17371 bound_to 10713
  140.4668  134.1428  155.7198 LP  0  0  0  0  0  0  0  0  0  0  0  0  # atno 17394 bound_to 11000
  141.1666  133.8690  157.1696 LP  0  0  0  0  0  0  0  0  0  0  0  0  # atno 17395 bound_to 11000

$$$$
