#       Name:                AV-unprocessed.smi:1830
#       Creating user name   scv26
#       Creation time:       Fri Mar 27 09:14:34 2020


#       File generated by GOLD software.
#

@<TRIPOS>MOLECULE
AV-unprocessed.smi:1830
    59    62     1
SMALL
NO_CHARGES


@<TRIPOS>ATOM
      1 ****         0.5163   1.1156   0.3541 O.2            1 S1                 0.0000
      2 ****        -0.2476   0.1972   0.0589 C.2            1 S1                 0.0000
      3 ****         0.1145  -1.0923   0.0223 N.am           1 S1                 0.0000
      4 ****         1.4602  -1.5983   0.2724 C.3            1 S1                 0.0000
      5 ****         2.2103  -1.8700  -1.0482 C.3            1 S1                 0.0000
      6 ****         3.5731  -2.5701  -0.8313 C.3            1 S1                 0.0000
      7 ****         4.5607  -1.6307  -0.3351 N.3            1 S1                 0.0000
      8 ****         5.9071  -2.1281  -0.1723 C.3            1 S1                 0.0000
      9 ****         6.7695  -0.8600  -0.0520 C.3            1 S1                 0.0000
     10 ****         5.9022   0.2555  -0.6757 C.3            1 S1                 0.0000
     11 ****         4.7031  -0.5156  -1.2307 C.3            1 S1                 0.0000
     12 ****         3.3772   0.2434  -1.3618 C.3            1 S1                 0.0000
     13 ****         2.3755  -0.6701  -1.8220 O.3            1 S1                 0.0000
     14 ****        -1.5461   0.3466  -0.2498 N.am           1 S1                 0.0000
     15 ****        -2.2978   1.5546  -0.2926 C.ar           1 S1                 0.0000
     16 ****        -1.7157   2.7822  -0.6999 C.ar           1 S1                 0.0000
     17 ****        -2.5080   3.9443  -0.7671 C.ar           1 S1                 0.0000
     18 ****        -3.8723   3.8594  -0.4372 C.ar           1 S1                 0.0000
     19 ****        -4.3989   2.6733  -0.0677 N.pl3          1 S1                 1.0000
     20 ****        -3.6858   1.5228   0.0145 C.ar           1 S1                 0.0000
     21 ****        -4.3372   0.3437   0.4361 N.3            1 S1                 0.0000
     22 ****        -3.9253  -0.1269   1.7567 C.3            1 S1                 0.0000
     23 ****        -5.1845  -0.6656   2.4402 C.3            1 S1                 0.0000
     24 ****        -6.3086   0.1037   1.7573 C.3            1 S1                 0.0000
     25 ****        -5.7911   0.2374   0.3268 C.3            1 S1                 0.0000
     26 ****        -0.5853  -1.7767  -0.2242 H              1 S1                 0.0000
     27 ****         2.0245  -0.9256   0.9196 H              1 S1                 0.0000
     28 ****         1.3581  -2.5301   0.8290 H              1 S1                 0.0000
     29 ****         1.5882  -2.5404  -1.6425 H              1 S1                 0.0000
     30 ****         3.4678  -3.4072  -0.1404 H              1 S1                 0.0000
     31 ****         3.9139  -2.9901  -1.7789 H              1 S1                 0.0000
     32 ****         5.9930  -2.7787   0.6982 H              1 S1                 0.0000
     33 ****         6.2072  -2.6982  -1.0530 H              1 S1                 0.0000
     34 ****         6.9858  -0.6321   0.9923 H              1 S1                 0.0000
     35 ****         7.7197  -0.9799  -0.5732 H              1 S1                 0.0000
     36 ****         5.5862   0.9600   0.0950 H              1 S1                 0.0000
     37 ****         6.4274   0.8134  -1.4513 H              1 S1                 0.0000
     38 ****         4.9781  -0.8898  -2.2193 H              1 S1                 0.0000
     39 ****         3.0852   0.6828  -0.4081 H              1 S1                 0.0000
     40 ****         3.4704   1.0613  -2.0760 H              1 S1                 0.0000
     41 ****        -2.0756  -0.5035  -0.3769 H              1 S1                 0.0000
     42 ****        -0.6749   2.8474  -0.9788 H              1 S1                 0.0000
     43 ****        -2.0753   4.8853  -1.0740 H              1 S1                 0.0000
     44 ****        -4.5547   4.6967  -0.4610 H              1 S1                 0.0000
     45 ****        -3.1592  -0.8983   1.6784 H              1 S1                 0.0000
     46 ****        -3.5098   0.6980   2.3382 H              1 S1                 0.0000
     47 ****        -5.2905  -1.7313   2.2331 H              1 S1                 0.0000
     48 ****        -5.1699  -0.5325   3.5221 H              1 S1                 0.0000
     49 ****        -7.2721  -0.4031   1.8159 H              1 S1                 0.0000
     50 ****        -6.4137   1.0904   2.2107 H              1 S1                 0.0000
     51 ****        -6.2710   1.0603  -0.2023 H              1 S1                 0.0000
     52 ****        -6.0153  -0.6703  -0.2346 H              1 S1                 0.0000
     53 ****        -5.3912   2.6426   0.1671 H              1 S1                 0.0000
     54 ****         1.4692   0.9187   0.5849 LP             1 S1                 0.0000
     55 ****         0.1843   2.0588   0.3631 LP             1 S1                 0.0000
     56 ****         4.1907  -1.4024   0.5654 LP             1 S1                 0.0000
     57 ****         1.5002  -0.1867  -1.8267 LP             1 S1                 0.0000
     58 ****         2.6129  -0.9389  -2.7555 LP             1 S1                 0.0000
     59 ****        -3.9949  -0.2568  -0.2866 LP             1 S1                 0.0000
@<TRIPOS>BOND
    1    1    2 2     
    2    2    3 am    
    3    2   14 am    
    4    3    4 1     
    5    3   26 1     
    6    4    5 1     
    7    4   27 1     
    8    4   28 1     
    9    5   13 1     
   10    5    6 1     
   11    5   29 1     
   12    6    7 1     
   13    6   30 1     
   14    6   31 1     
   15    7   11 1     
   16    7    8 1     
   17    8    9 1     
   18    8   32 1     
   19    8   33 1     
   20    9   10 1     
   21    9   34 1     
   22    9   35 1     
   23   10   11 1     
   24   10   36 1     
   25   10   37 1     
   26   11   12 1     
   27   11   38 1     
   28   12   13 1     
   29   12   39 1     
   30   12   40 1     
   31   14   15 1     
   32   14   41 1     
   33   15   20 ar    
   34   15   16 ar    
   35   16   17 ar    
   36   16   42 1     
   37   17   18 ar    
   38   17   43 1     
   39   18   19 ar    
   40   18   44 1     
   41   19   20 ar    
   42   19   53 1     
   43   20   21 1     
   44   21   25 1     
   45   21   22 1     
   46   22   23 1     
   47   22   45 1     
   48   22   46 1     
   49   23   24 1     
   50   23   47 1     
   51   23   48 1     
   52   24   25 1     
   53   24   49 1     
   54   24   50 1     
   55   25   51 1     
   56   25   52 1     
   57    1   54 1     
   58    1   55 1     
   59    7   56 1     
   60   13   57 1     
   61   13   58 1     
   62   21   59 1     
@<TRIPOS>SUBSTRUCTURE
      1 S1             1
@<TRIPOS>SET
LONE_PAIRS      STATIC     ATOMS    <user>   **** ""
6 54 55 56 57 58 59
DONOR_HYDROGENS      STATIC     ATOMS    <user>   **** ""
3 26 41 53
ATOM$BLUE        STATIC     ATOMS    COLORGROUP SYSTEM
6 54 55 56 57 58 59
ATOM$RED        STATIC     ATOMS    COLORGROUP SYSTEM
3 26 41 53
