AV-unprocessed.smi:109|AV-procd|sdf|1062|dock2
  -GOLD-   2262018143D 1   1.00000     0.00000
 Structure written by MMmdl.
 58 61  0  0  0  0  0  0  0  0  1 V2000
  155.7371  140.2754  157.9808 O   0  0  0  0  0  0  0  0  0  0  0  0
  155.0085  140.6777  159.1205 C   0  0  0  0  0  0  0  0  0  0  0  0
  153.5365  140.2546  158.9766 C   0  0  0  0  0  0  0  0  0  0  0  0
  152.6766  141.2160  158.1186 C   0  0  1  0  0  0  0  0  0  0  0  0
  151.6393  140.4543  157.4192 N   0  0  0  0  0  0  0  0  0  0  0  0
  151.9307  139.4563  156.5554 C   0  0  0  0  0  0  0  0  0  0  0  0
  152.8362  139.6210  155.5563 N   0  0  0  0  0  0  0  0  0  0  0  0
  153.1080  138.6101  154.7260 C   0  0  0  0  0  0  0  0  0  0  0  0
  152.5980  137.3770  154.7193 N   0  0  0  0  0  0  0  0  0  0  0  0
  151.6850  137.2062  155.7186 C   0  0  0  0  0  0  0  0  0  0  0  0
  151.2995  138.1911  156.6699 C   0  0  0  0  0  0  0  0  0  0  0  0
  150.3494  137.6642  157.5348 N   0  0  0  0  0  0  0  0  0  0  0  0
  150.1838  136.4393  157.1129 C   0  0  0  0  0  0  0  0  0  0  0  0
  150.9541  136.0776  156.0301 N   0  0  0  0  0  0  0  0  0  0  0  0
  150.9787  134.7570  155.3331 C   0  0  1  0  0  0  0  0  0  0  0  0
  151.1709  133.7696  156.2941 O   0  0  0  0  0  0  0  0  0  0  0  0
  150.4867  132.5691  155.9299 C   0  0  1  0  0  0  0  0  0  0  0  0
  149.6082  132.1321  157.1150 C   0  0  0  0  0  0  0  0  0  0  0  0
  148.6174  133.1047  157.3699 O   0  0  0  0  0  0  0  0  0  0  0  0
  149.6614  132.9232  154.6764 C   0  0  2  0  0  0  0  0  0  0  0  0
  150.3092  132.3789  153.5380 O   0  0  0  0  0  0  0  0  0  0  0  0
  149.6424  134.4495  154.6651 C   0  0  2  0  0  0  0  0  0  0  0  0
  149.5339  134.9746  153.3552 O   0  0  0  0  0  0  0  0  0  0  0  0
  152.0073  142.3538  158.9426 C   0  0  0  0  0  0  0  0  0  0  0  0
  151.3334  143.3951  158.0117 C   0  0  0  0  0  0  0  0  0  0  0  0
  150.6559  144.5316  158.7928 C   0  0  0  0  0  0  0  0  0  0  0  0
  151.6541  145.2388  159.7167 C   0  0  0  0  0  0  0  0  0  0  0  0
  152.3177  144.2320  160.6638 C   0  0  0  0  0  0  0  0  0  0  0  0
  152.9911  143.0873  159.8888 C   0  0  0  0  0  0  0  0  0  0  0  0
  151.8235  134.7892  154.6432 H   0  0  0  0  0  0  0  0  0  0  0  0
  151.2125  131.7855  155.7033 H   0  0  0  0  0  0  0  0  0  0  0  0
  148.6506  132.5149  154.7083 H   0  0  0  0  0  0  0  0  0  0  0  0
  148.8234  134.8105  155.2874 H   0  0  0  0  0  0  0  0  0  0  0  0
  155.9110  139.3488  158.0469 H   0  0  0  0  0  0  0  0  0  0  0  0
  155.4547  140.2220  160.0048 H   0  0  0  0  0  0  0  0  0  0  0  0
  155.1020  141.7586  159.2248 H   0  0  0  0  0  0  0  0  0  0  0  0
  153.4823  139.2459  158.5643 H   0  0  0  0  0  0  0  0  0  0  0  0
  153.1303  140.1967  159.9848 H   0  0  0  0  0  0  0  0  0  0  0  0
  153.3401  141.7027  157.4040 H   0  0  0  0  0  0  0  0  0  0  0  0
  150.6906  140.7460  157.6069 H   0  0  0  0  0  0  0  0  0  0  0  0
  153.8393  138.8185  153.9592 H   0  0  0  0  0  0  0  0  0  0  0  0
  149.4915  135.7591  157.5875 H   0  0  0  0  0  0  0  0  0  0  0  0
  149.1501  131.1591  156.9410 H   0  0  0  0  0  0  0  0  0  0  0  0
  150.2111  132.0449  158.0193 H   0  0  0  0  0  0  0  0  0  0  0  0
  147.8038  132.6626  157.5592 H   0  0  0  0  0  0  0  0  0  0  0  0
  150.4854  133.0787  152.9282 H   0  0  0  0  0  0  0  0  0  0  0  0
  148.6957  135.4035  153.2738 H   0  0  0  0  0  0  0  0  0  0  0  0
  151.2291  141.9054  159.5628 H   0  0  0  0  0  0  0  0  0  0  0  0
  152.0785  143.8157  157.3349 H   0  0  0  0  0  0  0  0  0  0  0  0
  150.5821  142.9220  157.3791 H   0  0  0  0  0  0  0  0  0  0  0  0
  150.2195  145.2504  158.0986 H   0  0  0  0  0  0  0  0  0  0  0  0
  149.8304  144.1300  159.3821 H   0  0  0  0  0  0  0  0  0  0  0  0
  152.4167  145.7410  159.1200 H   0  0  0  0  0  0  0  0  0  0  0  0
  151.1469  146.0145  160.2913 H   0  0  0  0  0  0  0  0  0  0  0  0
  153.0533  144.7397  161.2883 H   0  0  0  0  0  0  0  0  0  0  0  0
  151.5686  143.8210  161.3419 H   0  0  0  0  0  0  0  0  0  0  0  0
  153.4078  142.4008  160.6240 H   0  0  0  0  0  0  0  0  0  0  0  0
  153.8316  143.4788  159.3145 H   0  0  0  0  0  0  0  0  0  0  0  0
  1  2  1  0  0  0  0
  1 34  1  0  0  0  0
  2  3  1  0  0  0  0
  2 35  1  0  0  0  0
  2 36  1  0  0  0  0
  3  4  1  0  0  0  0
  3 37  1  0  0  0  0
  3 38  1  0  0  0  0
  4  5  1  0  0  0  0
  4 24  1  0  0  0  0
  4 39  1  0  0  0  0
  5  6  1  0  0  0  0
  5 40  1  0  0  0  0
  6 11  1  0  0  0  0
  6  7  2  0  0  0  0
  7  8  1  0  0  0  0
  8  9  2  0  0  0  0
  8 41  1  0  0  0  0
  9 10  1  0  0  0  0
 10 14  1  0  0  0  0
 10 11  2  0  0  0  0
 11 12  1  0  0  0  0
 12 13  2  0  0  0  0
 13 14  1  0  0  0  0
 13 42  1  0  0  0  0
 14 15  1  0  0  0  0
 15 30  1  0  0  0  0
 15 22  1  0  0  0  0
 15 16  1  0  0  0  0
 16 17  1  0  0  0  0
 17 31  1  0  0  0  0
 17 18  1  0  0  0  0
 17 20  1  0  0  0  0
 18 19  1  0  0  0  0
 18 43  1  0  0  0  0
 18 44  1  0  0  0  0
 19 45  1  0  0  0  0
 20 32  1  0  0  0  0
 20 21  1  0  0  0  0
 20 22  1  0  0  0  0
 21 46  1  0  0  0  0
 22 33  1  0  0  0  0
 22 23  1  0  0  0  0
 23 47  1  0  0  0  0
 24 29  1  0  0  0  0
 24 25  1  0  0  0  0
 24 48  1  0  0  0  0
 25 26  1  0  0  0  0
 25 49  1  0  0  0  0
 25 50  1  0  0  0  0
 26 27  1  0  0  0  0
 26 51  1  0  0  0  0
 26 52  1  0  0  0  0
 27 28  1  0  0  0  0
 27 53  1  0  0  0  0
 27 54  1  0  0  0  0
 28 29  1  0  0  0  0
 28 55  1  0  0  0  0
 28 56  1  0  0  0  0
 29 57  1  0  0  0  0
 29 58  1  0  0  0  0
M  END
> <s_m_source_file>
AV-unprocessed.smi

> <i_m_source_file_index>
109

> <i_lp_mmshare_version>
43012

> <i_f3d_flags>
0

> <s_epik_input>
W0NIMl0xW0NIMl1bQ0gyXVtDSDJdW0NIMl1bQ0hdMVtDQEhdKFtDSDJdW0NIMl1bT0hdKVtOSF1jKG5bY0hdbjIpYyhjMjMpbltjSF1uM1tDQEBIXTRPW0NASF0oW0NIMl1bT0hdKVtDQEBIXShbT0hdKVtDQEhdNFtPSF0=

> <s_epik_cmdline>
J2VwaWtfcHl0aG9uJywgJy1waCcsICc3LjAnLCAnLXRuJywgJzgnLCAnLW1hJywgJzIwMCcsICctbWV0YWxfYmluZGluZycsICctaW1hZScsICc8aW5maWxlLm1hZT4nLCAnLW9tYWUnLCAnPG91dGZpbGUubWFlPic=

> <r_lp_tautomer_probability>
1

> <r_epik_Ionization_Penalty>
0.000793976

> <r_epik_Ionization_Penalty_Charging>
0

> <r_epik_Ionization_Penalty_Neutral>
0.000793976

> <r_epik_State_Penalty>
-0

> <r_epik_Charging_Adjusted_Penalty>
0

> <i_epik_Tot_Q>
0

> <i_epik_Tot_abs_Q>
0

> <r_epik_Metal_State_Penalty>
-0

> <b_epik_Metal_Only>
0

> <s_epik_Chemistry_Notes>
This compound contains an acetal/aminal-like group ( X-CH(R)-Y where X, Y are N, S, or O) that may be acid/base labile, releasing an aldehyde.

> <s_lp_Force_Field>
OPLS_2005

> <r_lp_Energy>
55.705

> <b_lp_Chiralities_Consistent>
1

> <s_lp_Variant>
AV-unprocessed.smi:109-32

> <Gold.Version>
5.8.1

> <Gold.Id.Protein>
6NUR|6NUR_protein|mol2

> <Gold.PLP.Fitness>
52.9253

> <Gold.PLP.PLP>
-43.5851

> <Gold.PLP.part.hbond>
-5.0000

> <Gold.PLP.part.metal>
0.0000

> <Gold.PLP.part.buried>
-5.9177

> <Gold.PLP.part.nonpolar>
-32.8364

> <Gold.PLP.part.repulsive>
0.1037

> <Gold.PLP.ligand.clash>
0.0000

> <Gold.PLP.ligand.torsion>
1.1361

> <Gold.PLP.Chemscore.Hbond>
3.7857

> <Gold.PLP.Chemscore.CHOScore>
0.0000

> <Gold.PLP.Chemscore.Metal>
0.0000

> <Gold.Chemscore.Hbonds>
donor molecule, donor type, donor heavy atom, donor atom, acceptor molecule, acceptor atom, score
      P1  H  7997  8010       L1     7  1.00
      P1  H 10752 10764       L1     9  0.16

> <Gold.PLP.Chemscore.Internal.Correction>
0.2553

> <Gold.Rescore>
     Score         DG    S(hbond)    S(metal)    S(lipo)     H(rot)  DE(clash)    DE(int)     intcor
     13.59     -14.84       3.20        0.00     108.21       5.47       0.02       1.23       ----

> <Gold.Chemscore.Fitness>
13.5905

> <Gold.Chemscore.DG>
-14.8431

> <Gold.Chemscore.ZeroCoef>
-5.4800

> <Gold.Chemscore.Hbond>
3.2023

> <Gold.Chemscore.Metal>
0.0000

> <Gold.Chemscore.Lipo>
108.2145

> <Gold.Chemscore.Internal_Hbond>
0.0000

> <Gold.Chemscore.DEClash>
0.0222

> <Gold.Chemscore.DEInternal>
1.2304

> <Gold.Chemscore.Rot>
5.4662

> <Gold.Chemscore.Internal.Correction>
   9.000000E+99

> <Gold.Chemscore.Hbonds>
donor molecule, donor type, donor heavy atom, donor atom, acceptor molecule, acceptor atom, score
      L1  H    23    47       P1  7948  0.03
      P1  H  7997  8010       L1     7  0.43
      P1  H 10752 10764       L1     9  0.01

> <Gold.Chemscore.Hbond.Weighted>
-10.6955

> <Gold.Chemscore.Metal.Weighted>
-0.0000

> <Gold.Chemscore.Lipo.Weighted>
-12.6611

> <Gold.Chemscore.Internal_Hbond.Weighted>
0.0000

> <Gold.Chemscore.DEClash.Weighted>
0.0222

> <Gold.Chemscore.DEInternal.Weighted>
1.2304

> <Gold.Chemscore.Rot.Weighted>
13.9935

> <Gold.Chemscore.Internal.Correction.Weighted>
   9.000000E+99

> <Gold.Protein.RotatedTorsions>
[ 6907 6896 6895 6894 ] final  -15.80 input  -60.11 | X-H torsion
[ 7974 7965 7964 7962 ] final   32.22 input  175.53 | X-H torsion
[ 8008 7997 7996 7995 ] final   90.49 input   59.86 | X-H torsion
[ 10167 10162 10161 10158 ] final -104.95 input  -65.29 | X-H torsion
[ 10718 10713 10712 10709 ] final  -40.96 input   66.30 | X-H torsion
[ 10763 10752 10751 10750 ] final  -39.24 input  -60.55 | X-H torsion
[ 11005 11000 10999 10996 ] final -105.19 input  -57.11 | X-H torsion

> <Gold.Protein.ActiveResidues>
 VAL166  LYS551  ARG553  GLY616  TRP617  ASP618  TYR619  PRO620  LYS621  CYS622 
 ASP623  PHE694  ASN695  SER759  ASP760  ASP761  ALA762  ILE779  LEU786  VAL792 
 PHE793  MET794  SER795  GLU796  ALA797  LYS798  CYS799  TRP800  GLU811  SER814 

> <Gold.Protein.RotatedAtoms>
  151.3184  135.0812  159.9296 H   0  0  0  0  0  0  0  0  0  0  0  0  # atno 6907 bound_to 6896
  152.5262  133.9664  159.7751 H   0  0  0  0  0  0  0  0  0  0  0  0  # atno 6908 bound_to 6896
  150.9980  133.6032  159.2729 H   0  0  0  0  0  0  0  0  0  0  0  0  # atno 6909 bound_to 6896
  146.1500  139.6554  142.9105 H   0  0  0  0  0  0  0  0  0  0  0  0  # atno 7974 bound_to 7965
  156.0126  140.3349  155.6956 H   0  0  0  0  0  0  0  0  0  0  0  0  # atno 8008 bound_to 7997
  155.6136  140.0668  157.2716 H   0  0  0  0  0  0  0  0  0  0  0  0  # atno 8009 bound_to 7997
  154.4287  140.1789  156.1286 H   0  0  0  0  0  0  0  0  0  0  0  0  # atno 8010 bound_to 7997
  140.2038  143.3798  152.1107 H   0  0  0  0  0  0  0  0  0  0  0  0  # atno 10167 bound_to 10162
  156.2756  130.4211  149.8391 H   0  0  0  0  0  0  0  0  0  0  0  0  # atno 10718 bound_to 10713
  153.9261  135.6777  153.4746 H   0  0  0  0  0  0  0  0  0  0  0  0  # atno 10763 bound_to 10752
  153.1004  135.4831  154.8853 H   0  0  0  0  0  0  0  0  0  0  0  0  # atno 10764 bound_to 10752
  154.7453  135.3171  154.8613 H   0  0  0  0  0  0  0  0  0  0  0  0  # atno 10765 bound_to 10752
  141.1065  133.8786  157.1703 H   0  0  0  0  0  0  0  0  0  0  0  0  # atno 11005 bound_to 11000
  145.4845  141.0438  143.2627 LP  0  0  0  0  0  0  0  0  0  0  0  0  # atno 17320 bound_to 7965
  144.7893  139.6362  143.7120 LP  0  0  0  0  0  0  0  0  0  0  0  0  # atno 17321 bound_to 7965
  139.5206  144.7036  151.5422 LP  0  0  0  0  0  0  0  0  0  0  0  0  # atno 17342 bound_to 10162
  140.6372  143.8961  150.6658 LP  0  0  0  0  0  0  0  0  0  0  0  0  # atno 17343 bound_to 10162
  156.5857  130.8484  151.3395 LP  0  0  0  0  0  0  0  0  0  0  0  0  # atno 17370 bound_to 10713
  157.7298  130.9676  150.1804 LP  0  0  0  0  0  0  0  0  0  0  0  0  # atno 17371 bound_to 10713
  139.9938  135.0054  157.0036 LP  0  0  0  0  0  0  0  0  0  0  0  0  # atno 17394 bound_to 11000
  140.4888  134.1214  155.7229 LP  0  0  0  0  0  0  0  0  0  0  0  0  # atno 17395 bound_to 11000

$$$$
