AV-unprocessed.smi:3331|AV-procd|sdf|12821|dock7
  -GOLD-   2272019193D 1   1.00000     0.00000
 Structure written by MMmdl.
 47 48  0  0  0  0  0  0  0  0  2 V2000
  146.5565  130.5720  153.5999 C   0  0  0  0  0  0  0  0  0  0  0  0
  145.9753  131.7685  152.8341 C   0  0  2  0  0  0  0  0  0  0  0  0
  145.4986  131.3604  151.4224 C   0  0  0  0  0  0  0  0  0  0  0  0
  145.0254  132.5717  150.5875 C   0  0  2  0  0  0  0  0  0  0  0  0
  144.6754  132.1629  149.1500 C   0  0  0  0  0  0  0  0  0  0  0  0
  146.0880  133.6909  150.6184 C   0  0  0  0  0  0  0  0  0  0  0  0
  146.3591  134.0430  152.0183 N   0  0  0  0  0  0  0  0  0  0  0  0
  145.9384  135.2094  152.5695 C   0  0  0  0  0  0  0  0  0  0  0  0
  146.0634  135.4438  153.7732 O   0  0  0  0  0  0  0  0  0  0  0  0
  145.2806  136.2914  151.6856 C   0  0  1  0  0  0  0  0  0  0  0  0
  143.9951  136.8106  152.3511 C   0  0  0  0  0  0  0  0  0  0  0  0
  146.1952  137.4309  151.4366 N   0  3  0  0  0  0  0  0  0  0  0  0
  146.2484  138.4436  152.5132 C   0  0  0  0  0  0  0  0  0  0  0  0
  147.2749  139.5360  152.1847 C   0  0  0  0  0  0  0  0  0  0  0  0
  147.3637  140.5241  153.2417 N   0  0  0  0  0  0  0  0  0  0  0  0
  146.3971  140.8973  154.1515 C   0  0  0  0  0  0  0  0  0  0  0  0
  146.9408  141.8647  154.9468 C   0  0  0  0  0  0  0  0  0  0  0  0
  148.2611  142.0179  154.4388 C   0  0  0  0  0  0  0  0  0  0  0  0
  148.5114  141.2131  153.4183 N   0  0  0  0  0  0  0  0  0  0  0  0
  146.9902  132.9245  152.7306 C   0  0  0  0  0  0  0  0  0  0  0  0
  147.4345  130.1667  153.0959 H   0  0  0  0  0  0  0  0  0  0  0  0
  145.8237  129.7694  153.6879 H   0  0  0  0  0  0  0  0  0  0  0  0
  146.8545  130.8582  154.6089 H   0  0  0  0  0  0  0  0  0  0  0  0
  145.1095  132.1279  153.3929 H   0  0  0  0  0  0  0  0  0  0  0  0
  146.3178  130.8655  150.8987 H   0  0  0  0  0  0  0  0  0  0  0  0
  144.6967  130.6252  151.4988 H   0  0  0  0  0  0  0  0  0  0  0  0
  144.1156  132.9603  151.0478 H   0  0  0  0  0  0  0  0  0  0  0  0
  145.5473  131.7707  148.6255 H   0  0  0  0  0  0  0  0  0  0  0  0
  144.2988  133.0131  148.5807 H   0  0  0  0  0  0  0  0  0  0  0  0
  143.9046  131.3919  149.1382 H   0  0  0  0  0  0  0  0  0  0  0  0
  147.0098  133.3526  150.1427 H   0  0  0  0  0  0  0  0  0  0  0  0
  145.7494  134.5426  150.0268 H   0  0  0  0  0  0  0  0  0  0  0  0
  145.0332  135.8821  150.7064 H   0  0  0  0  0  0  0  0  0  0  0  0
  143.2832  136.0069  152.5409 H   0  0  0  0  0  0  0  0  0  0  0  0
  143.4948  137.5421  151.7158 H   0  0  0  0  0  0  0  0  0  0  0  0
  144.2073  137.2936  153.3060 H   0  0  0  0  0  0  0  0  0  0  0  0
  147.1281  137.0618  151.3213 H   0  0  0  0  0  0  0  0  0  0  0  0
  145.2646  138.8947  152.6478 H   0  0  0  0  0  0  0  0  0  0  0  0
  146.5085  137.9542  153.4529 H   0  0  0  0  0  0  0  0  0  0  0  0
  148.2639  139.1010  152.0318 H   0  0  0  0  0  0  0  0  0  0  0  0
  147.0045  140.0441  151.2579 H   0  0  0  0  0  0  0  0  0  0  0  0
  145.4144  140.4494  154.1579 H   0  0  0  0  0  0  0  0  0  0  0  0
  146.4671  142.3853  155.7659 H   0  0  0  0  0  0  0  0  0  0  0  0
  149.0390  142.6855  154.7791 H   0  0  0  0  0  0  0  0  0  0  0  0
  147.3714  133.1897  153.7145 H   0  0  0  0  0  0  0  0  0  0  0  0
  147.8689  132.5984  152.1717 H   0  0  0  0  0  0  0  0  0  0  0  0
  145.9168  137.8793  150.5752 H   0  0  0  0  0  0  0  0  0  0  0  0
  1  2  1  0  0  0  0
  1 21  1  0  0  0  0
  1 22  1  0  0  0  0
  1 23  1  0  0  0  0
  2 20  1  0  0  0  0
  2  3  1  0  0  0  0
  2 24  1  0  0  0  0
  3  4  1  0  0  0  0
  3 25  1  0  0  0  0
  3 26  1  0  0  0  0
  4  5  1  0  0  0  0
  4  6  1  0  0  0  0
  4 27  1  0  0  0  0
  5 28  1  0  0  0  0
  5 29  1  0  0  0  0
  5 30  1  0  0  0  0
  6  7  1  0  0  0  0
  6 31  1  0  0  0  0
  6 32  1  0  0  0  0
  7  8  1  0  0  0  0
  7 20  1  0  0  0  0
  8  9  2  0  0  0  0
  8 10  1  0  0  0  0
 10 11  1  0  0  0  0
 10 12  1  0  0  0  0
 10 33  1  0  0  0  0
 11 34  1  0  0  0  0
 11 35  1  0  0  0  0
 11 36  1  0  0  0  0
 12 13  1  0  0  0  0
 12 37  1  0  0  0  0
 12 47  1  0  0  0  0
 13 14  1  0  0  0  0
 13 38  1  0  0  0  0
 13 39  1  0  0  0  0
 14 15  1  0  0  0  0
 14 40  1  0  0  0  0
 14 41  1  0  0  0  0
 15 19  1  0  0  0  0
 15 16  1  0  0  0  0
 16 17  2  0  0  0  0
 16 42  1  0  0  0  0
 17 18  1  0  0  0  0
 17 43  1  0  0  0  0
 18 19  2  0  0  0  0
 18 44  1  0  0  0  0
 20 45  1  0  0  0  0
 20 46  1  0  0  0  0
M  CHG  1  12   1
M  END
> <s_m_source_file>
AV-unprocessed.smi

> <i_m_source_file_index>
3331

> <i_lp_mmshare_version>
43012

> <i_f3d_flags>
0

> <s_epik_input>
W0NIM11bQ0BASF0xW0NIMl1bQ0BASF0oW0NIM10pW0NIMl1OKFtDSDJdMSlDKD1PKVtDQEhdKFtDSDNdKVtOSF1bQ0gyXVtDSDJdbjJbY0hdW2NIXVtjSF1uMg==

> <s_epik_cmdline>
J2VwaWtfcHl0aG9uJywgJy1waCcsICc3LjAnLCAnLXRuJywgJzgnLCAnLW1hJywgJzIwMCcsICctbWV0YWxfYmluZGluZycsICctaW1hZScsICc8aW5maWxlLm1hZT4nLCAnLW9tYWUnLCAnPG91dGZpbGUubWFlPic=

> <r_lp_tautomer_probability>
1

> <r_epik_Ionization_Penalty>
0.189706

> <r_epik_Ionization_Penalty_Charging>
0.189703

> <r_epik_Ionization_Penalty_Neutral>
2.45875e-06

> <r_epik_State_Penalty>
0.179341

> <r_epik_Charging_Adjusted_Penalty>
0.369044

> <i_epik_Tot_Q>
1

> <i_epik_Tot_abs_Q>
1

> <r_epik_Metal_State_Penalty>
0.179578

> <b_epik_Metal_Only>
0

> <s_lp_Force_Field>
OPLS_2005

> <r_lp_Energy>
26.0913

> <b_lp_Chiralities_Consistent>
1

> <s_lp_Variant>
AV-unprocessed.smi:3331-5

> <Gold.Version>
5.8.1

> <Gold.Id.Protein>
6NUR|6NUR_protein|mol2

> <Gold.PLP.Fitness>
46.0407

> <Gold.PLP.PLP>
-32.7783

> <Gold.PLP.part.hbond>
-2.8550

> <Gold.PLP.part.metal>
0.0000

> <Gold.PLP.part.buried>
4.7660

> <Gold.PLP.part.nonpolar>
-36.3730

> <Gold.PLP.part.repulsive>
2.6238

> <Gold.PLP.ligand.clash>
0.0000

> <Gold.PLP.ligand.torsion>
0.9091

> <Gold.PLP.Chemscore.Hbond>
3.0592

> <Gold.PLP.Chemscore.CHOScore>
1.9558

> <Gold.PLP.Chemscore.Metal>
0.0000

> <Gold.Chemscore.Hbonds>
donor molecule, donor type, donor heavy atom, donor atom, acceptor molecule, acceptor atom, score
      L1  H    12    37       P1  7948  1.95
      L1  H    12    47       P1 10171  0.25
      P1  H  8011  8017       L1    19  0.82
      L1  C    16    42       P1 10175  1.00
      L1  C    18    44       P1  8028  0.99

> <Gold.PLP.Chemscore.Internal.Correction>
0.0357

> <Gold.Rescore>
     Score         DG    S(hbond)    S(metal)    S(lipo)     H(rot)  DE(clash)    DE(int)     intcor
     14.73     -15.53       1.19        0.00      89.66       1.73       0.09       0.72       ----

> <Gold.Chemscore.Fitness>
14.7266

> <Gold.Chemscore.DG>
-15.5335

> <Gold.Chemscore.ZeroCoef>
-5.4800

> <Gold.Chemscore.Hbond>
1.1917

> <Gold.Chemscore.Metal>
0.0000

> <Gold.Chemscore.Lipo>
89.6612

> <Gold.Chemscore.Internal_Hbond>
0.0000

> <Gold.Chemscore.DEClash>
0.0914

> <Gold.Chemscore.DEInternal>
0.7155

> <Gold.Chemscore.Rot>
1.7254

> <Gold.Chemscore.Internal.Correction>
   9.000000E+99

> <Gold.Chemscore.Hbonds>
donor molecule, donor type, donor heavy atom, donor atom, acceptor molecule, acceptor atom, score
      L1  H    12    37       P1  7948  0.92
      L1  H    12    47       P1 10171  0.25
      P1  H  8011  8017       L1    19  0.20

> <Gold.Chemscore.Hbond.Weighted>
-3.9802

> <Gold.Chemscore.Metal.Weighted>
-0.0000

> <Gold.Chemscore.Lipo.Weighted>
-10.4904

> <Gold.Chemscore.Internal_Hbond.Weighted>
0.0000

> <Gold.Chemscore.DEClash.Weighted>
0.0914

> <Gold.Chemscore.DEInternal.Weighted>
0.7155

> <Gold.Chemscore.Rot.Weighted>
4.4170

> <Gold.Chemscore.Internal.Correction.Weighted>
   9.000000E+99

> <Gold.Protein.RotatedTorsions>
[ 6907 6896 6895 6894 ] final  -28.26 input  -60.11 | X-H torsion
[ 7974 7965 7964 7962 ] final -169.65 input  175.53 | X-H torsion
[ 8008 7997 7996 7995 ] final   18.25 input   59.86 | X-H torsion
[ 10167 10162 10161 10158 ] final  144.78 input  -65.29 | X-H torsion
[ 10718 10713 10712 10709 ] final -172.36 input   66.30 | X-H torsion
[ 10763 10752 10751 10750 ] final   68.91 input  -60.55 | X-H torsion
[ 11005 11000 10999 10996 ] final -169.62 input  -57.11 | X-H torsion

> <Gold.Protein.ActiveResidues>
 VAL166  LYS551  ARG553  GLY616  TRP617  ASP618  TYR619  PRO620  LYS621  CYS622 
 ASP623  PHE694  ASN695  SER759  ASP760  ASP761  ALA762  ILE779  LEU786  VAL792 
 PHE793  MET794  SER795  GLU796  ALA797  LYS798  CYS799  TRP800  GLU811  SER814 

> <Gold.Protein.RotatedAtoms>
  151.1354  135.0152  159.8601 H   0  0  0  0  0  0  0  0  0  0  0  0  # atno 6907 bound_to 6896
  152.5452  134.1561  159.8549 H   0  0  0  0  0  0  0  0  0  0  0  0  # atno 6908 bound_to 6896
  151.1632  133.4786  159.2627 H   0  0  0  0  0  0  0  0  0  0  0  0  # atno 6909 bound_to 6896
  144.7182  140.2189  143.6318 H   0  0  0  0  0  0  0  0  0  0  0  0  # atno 7974 bound_to 7965
  154.9033  140.3004  155.5305 H   0  0  0  0  0  0  0  0  0  0  0  0  # atno 8008 bound_to 7997
  156.3018  140.2402  156.3999 H   0  0  0  0  0  0  0  0  0  0  0  0  # atno 8009 bound_to 7997
  154.8499  140.0410  157.1586 H   0  0  0  0  0  0  0  0  0  0  0  0  # atno 8010 bound_to 7997
  139.4939  144.5948  151.6606 H   0  0  0  0  0  0  0  0  0  0  0  0  # atno 10167 bound_to 10162
  156.7544  130.9390  151.3116 H   0  0  0  0  0  0  0  0  0  0  0  0  # atno 10718 bound_to 10713
  153.0259  135.5230  154.7207 H   0  0  0  0  0  0  0  0  0  0  0  0  # atno 10763 bound_to 10752
  154.6263  135.2895  155.0271 H   0  0  0  0  0  0  0  0  0  0  0  0  # atno 10764 bound_to 10752
  154.1239  135.6603  153.4961 H   0  0  0  0  0  0  0  0  0  0  0  0  # atno 10765 bound_to 10752
  140.5287  134.5637  157.5069 H   0  0  0  0  0  0  0  0  0  0  0  0  # atno 11005 bound_to 11000
  145.8520  139.2180  143.1767 LP  0  0  0  0  0  0  0  0  0  0  0  0  # atno 17320 bound_to 7965
  146.0252  140.8310  142.9903 LP  0  0  0  0  0  0  0  0  0  0  0  0  # atno 17321 bound_to 7965
  140.5583  144.0311  150.6158 LP  0  0  0  0  0  0  0  0  0  0  0  0  # atno 17342 bound_to 10162
  140.3388  143.3032  152.0610 LP  0  0  0  0  0  0  0  0  0  0  0  0  # atno 17343 bound_to 10162
  157.6763  130.9097  150.0157 LP  0  0  0  0  0  0  0  0  0  0  0  0  # atno 17370 bound_to 10713
  156.1380  130.3642  149.9627 LP  0  0  0  0  0  0  0  0  0  0  0  0  # atno 17371 bound_to 10713
  139.9566  134.7525  156.0328 LP  0  0  0  0  0  0  0  0  0  0  0  0  # atno 17394 bound_to 11000
  141.1293  133.6590  156.3422 LP  0  0  0  0  0  0  0  0  0  0  0  0  # atno 17395 bound_to 11000

$$$$
