AV-unprocessed.smi:1978|AV-procd|sdf|8000|dock9
  -GOLD-   2272010183D 1   1.00000     0.00000
 Structure written by MMmdl.
 44 45  0  0  0  0  0  0  0  0  3 V2000
  147.0650  135.7218  163.1382 C   0  0  0  0  0  0  0  0  0  0  0  0
  147.7442  135.7439  161.8116 C   0  0  0  0  0  0  0  0  0  0  0  0
  147.8473  134.8243  160.8067 C   0  0  0  0  0  0  0  0  0  0  0  0
  148.6282  135.4985  159.8283 C   0  0  0  0  0  0  0  0  0  0  0  0
  149.0152  134.9989  158.6444 N   0  5  0  0  0  0  0  0  0  0  0  0
  148.4013  135.3936  157.5062 C   0  0  0  0  0  0  0  0  0  0  0  0
  147.4286  136.1471  157.4216 O   0  0  0  0  0  0  0  0  0  0  0  0
  148.9458  134.8792  156.3940 N   0  0  0  0  0  0  0  0  0  0  0  0
  148.4826  135.1203  155.0307 C   0  0  0  0  0  0  0  0  0  0  0  0
  148.0595  133.8176  154.2902 C   0  0  2  0  0  0  0  0  0  0  0  0
  149.3003  132.9114  154.0909 C   0  0  0  0  0  0  0  0  0  0  0  0
  147.3622  134.0847  152.9840 N   0  3  1  0  0  0  0  0  0  0  0  0
  147.0008  132.8429  152.2333 C   0  0  0  0  0  0  0  0  0  0  0  0
  146.4916  133.1526  150.8163 C   0  0  0  0  0  0  0  0  0  0  0  0
  145.2995  134.1096  150.8491 C   0  0  0  0  0  0  0  0  0  0  0  0
  145.6829  135.3711  151.6287 C   0  0  0  0  0  0  0  0  0  0  0  0
  146.2110  135.0478  153.0425 C   0  0  1  0  0  0  0  0  0  0  0  0
  145.0796  134.5969  153.9941 C   0  0  0  0  0  0  0  0  0  0  0  0
  148.9833  136.7127  160.2137 N   0  0  0  0  0  0  0  0  0  0  0  0
  148.4154  136.8803  161.4822 O   0  0  0  0  0  0  0  0  0  0  0  0
  147.4692  134.9263  163.7642 H   0  0  0  0  0  0  0  0  0  0  0  0
  145.9951  135.5503  163.0205 H   0  0  0  0  0  0  0  0  0  0  0  0
  147.1996  136.6667  163.6652 H   0  0  0  0  0  0  0  0  0  0  0  0
  147.4280  133.8300  160.7738 H   0  0  0  0  0  0  0  0  0  0  0  0
  149.7449  134.2723  156.5072 H   0  0  0  0  0  0  0  0  0  0  0  0
  147.6683  135.8396  155.1069 H   0  0  0  0  0  0  0  0  0  0  0  0
  149.2846  135.6170  154.4841 H   0  0  0  0  0  0  0  0  0  0  0  0
  147.3586  133.2779  154.9282 H   0  0  0  0  0  0  0  0  0  0  0  0
  149.8728  132.7895  155.0097 H   0  0  0  0  0  0  0  0  0  0  0  0
  149.9752  133.3254  153.3414 H   0  0  0  0  0  0  0  0  0  0  0  0
  149.0373  131.8988  153.7909 H   0  0  0  0  0  0  0  0  0  0  0  0
  147.8605  132.1887  152.1126 H   0  0  0  0  0  0  0  0  0  0  0  0
  146.2566  132.2726  152.7899 H   0  0  0  0  0  0  0  0  0  0  0  0
  147.2979  133.5920  150.2270 H   0  0  0  0  0  0  0  0  0  0  0  0
  146.2103  132.2276  150.3118 H   0  0  0  0  0  0  0  0  0  0  0  0
  144.9991  134.3714  149.8341 H   0  0  0  0  0  0  0  0  0  0  0  0
  144.4402  133.6230  151.3113 H   0  0  0  0  0  0  0  0  0  0  0  0
  146.4522  135.9109  151.0743 H   0  0  0  0  0  0  0  0  0  0  0  0
  144.8279  136.0455  151.6893 H   0  0  0  0  0  0  0  0  0  0  0  0
  146.5828  136.0040  153.4065 H   0  0  0  0  0  0  0  0  0  0  0  0
  144.2833  135.3410  154.0226 H   0  0  0  0  0  0  0  0  0  0  0  0
  145.4290  134.4727  155.0185 H   0  0  0  0  0  0  0  0  0  0  0  0
  144.6292  133.6542  153.6862 H   0  0  0  0  0  0  0  0  0  0  0  0
  148.0545  134.5484  152.4135 H   0  0  0  0  0  0  0  0  0  0  0  0
  1  2  1  0  0  0  0
  1 21  1  0  0  0  0
  1 22  1  0  0  0  0
  1 23  1  0  0  0  0
  2 20  1  0  0  0  0
  2  3  2  0  0  0  0
  3  4  1  0  0  0  0
  3 24  1  0  0  0  0
  4  5  1  0  0  0  0
  4 19  2  0  0  0  0
  5  6  1  0  0  0  0
  6  7  2  0  0  0  0
  6  8  1  0  0  0  0
  8  9  1  0  0  0  0
  8 25  1  0  0  0  0
  9 10  1  0  0  0  0
  9 26  1  0  0  0  0
  9 27  1  0  0  0  0
 10 11  1  0  0  0  0
 10 12  1  0  0  0  0
 10 28  1  0  0  0  0
 11 29  1  0  0  0  0
 11 30  1  0  0  0  0
 11 31  1  0  0  0  0
 12 17  1  0  0  0  0
 12 13  1  0  0  0  0
 12 44  1  0  0  0  0
 13 14  1  0  0  0  0
 13 32  1  0  0  0  0
 13 33  1  0  0  0  0
 14 15  1  0  0  0  0
 14 34  1  0  0  0  0
 14 35  1  0  0  0  0
 15 16  1  0  0  0  0
 15 36  1  0  0  0  0
 15 37  1  0  0  0  0
 16 17  1  0  0  0  0
 16 38  1  0  0  0  0
 16 39  1  0  0  0  0
 17 18  1  0  0  0  0
 17 40  1  0  0  0  0
 18 41  1  0  0  0  0
 18 42  1  0  0  0  0
 18 43  1  0  0  0  0
 19 20  1  0  0  0  0
M  CHG  1   5  -1
M  CHG  1  12   1
M  END
> <s_m_source_file>
AV-unprocessed.smi

> <i_m_source_file_index>
1978

> <i_lp_mmshare_version>
43012

> <i_f3d_flags>
0

> <s_epik_input>
W0NIM11jMVtjSF1jKG5vMSlbTkhdQyg9TylbTkhdW0NIMl1bQ0BIXShbQ0gzXSlOMltDSDJdW0NIMl1bQ0gyXVtDSDJdW0NASF0yW0NIM10=

> <s_epik_cmdline>
J2VwaWtfcHl0aG9uJywgJy1waCcsICc3LjAnLCAnLXRuJywgJzgnLCAnLW1hJywgJzIwMCcsICctbWV0YWxfYmluZGluZycsICctaW1hZScsICc8aW5maWxlLm1hZT4nLCAnLW9tYWUnLCAnPG91dGZpbGUubWFlPic=

> <r_epik_Ionization_Penalty>
6.22372

> <r_epik_Ionization_Penalty_Charging>
6.22362

> <r_epik_Ionization_Penalty_Neutral>
9.65074e-05

> <r_epik_State_Penalty>
6.22363

> <r_epik_Charging_Adjusted_Penalty>
12.4472

> <i_epik_Tot_Q>
0

> <i_epik_Tot_abs_Q>
2

> <r_epik_Metal_State_Penalty>
2.16675

> <b_epik_Metal_Only>
1

> <s_lp_Force_Field>
OPLS_2005

> <r_lp_Energy>
12.8084

> <b_lp_Chiralities_Consistent>
1

> <s_lp_Variant>
AV-unprocessed.smi:1978-9

> <Gold.Version>
5.8.1

> <Gold.Id.Protein>
6NUR|6NUR_protein|mol2

> <Gold.PLP.Fitness>
42.5054

> <Gold.PLP.PLP>
-30.8410

> <Gold.PLP.part.hbond>
-4.6523

> <Gold.PLP.part.metal>
0.0000

> <Gold.PLP.part.buried>
-3.7549

> <Gold.PLP.part.nonpolar>
-23.8184

> <Gold.PLP.part.repulsive>
0.0257

> <Gold.PLP.ligand.clash>
0.0000

> <Gold.PLP.ligand.torsion>
0.7803

> <Gold.PLP.Chemscore.Hbond>
4.3767

> <Gold.PLP.Chemscore.CHOScore>
0.0000

> <Gold.PLP.Chemscore.Metal>
0.0000

> <Gold.Chemscore.Hbonds>
donor molecule, donor type, donor heavy atom, donor atom, acceptor molecule, acceptor atom, score
      L1  H    12    44       P1  7948  2.00
      P1  H  6896  6907       L1     5  1.50
      P1  H  6931  6943       L1    20  1.00

> <Gold.PLP.Chemscore.Internal.Correction>
0.0948

> <Gold.Rescore>
     Score         DG    S(hbond)    S(metal)    S(lipo)     H(rot)  DE(clash)    DE(int)     intcor
     14.19     -15.19       1.74        0.00      66.54       1.52       0.20       0.80       ----

> <Gold.Chemscore.Fitness>
14.1902

> <Gold.Chemscore.DG>
-15.1856

> <Gold.Chemscore.ZeroCoef>
-5.4800

> <Gold.Chemscore.Hbond>
1.7392

> <Gold.Chemscore.Metal>
0.0000

> <Gold.Chemscore.Lipo>
66.5400

> <Gold.Chemscore.Internal_Hbond>
0.0000

> <Gold.Chemscore.DEClash>
0.1963

> <Gold.Chemscore.DEInternal>
0.7991

> <Gold.Chemscore.Rot>
1.5190

> <Gold.Chemscore.Internal.Correction>
   9.000000E+99

> <Gold.Chemscore.Hbonds>
donor molecule, donor type, donor heavy atom, donor atom, acceptor molecule, acceptor atom, score
      L1  H    12    44       P1  7948  0.38
      P1  H  6896  6907       L1     5  0.09
      P1  H  6931  6943       L1    20  0.29

> <Gold.Chemscore.Hbond.Weighted>
-5.8091

> <Gold.Chemscore.Metal.Weighted>
-0.0000

> <Gold.Chemscore.Lipo.Weighted>
-7.7852

> <Gold.Chemscore.Internal_Hbond.Weighted>
0.0000

> <Gold.Chemscore.DEClash.Weighted>
0.1963

> <Gold.Chemscore.DEInternal.Weighted>
0.7991

> <Gold.Chemscore.Rot.Weighted>
3.8886

> <Gold.Chemscore.Internal.Correction.Weighted>
   9.000000E+99

> <Gold.Protein.RotatedTorsions>
[ 6907 6896 6895 6894 ] final -100.75 input  -60.11 | X-H torsion
[ 7974 7965 7964 7962 ] final  124.35 input  175.53 | X-H torsion
[ 8008 7997 7996 7995 ] final  135.80 input   59.86 | X-H torsion
[ 10167 10162 10161 10158 ] final   91.01 input  -65.29 | X-H torsion
[ 10718 10713 10712 10709 ] final  -88.51 input   66.30 | X-H torsion
[ 10763 10752 10751 10750 ] final -102.20 input  -60.55 | X-H torsion
[ 11005 11000 10999 10996 ] final    4.37 input  -57.11 | X-H torsion

> <Gold.Protein.ActiveResidues>
 VAL166  LYS551  ARG553  GLY616  TRP617  ASP618  TYR619  PRO620  LYS621  CYS622 
 ASP623  PHE694  ASN695  SER759  ASP760  ASP761  ALA762  ILE779  LEU786  VAL792 
 PHE793  MET794  SER795  GLU796  ALA797  LYS798  CYS799  TRP800  GLU811  SER814 

> <Gold.Protein.RotatedAtoms>
  150.7127  134.0840  159.3907 H   0  0  0  0  0  0  0  0  0  0  0  0  # atno 6907 bound_to 6896
  151.8824  135.0446  160.0499 H   0  0  0  0  0  0  0  0  0  0  0  0  # atno 6908 bound_to 6896
  152.2557  133.5218  159.5388 H   0  0  0  0  0  0  0  0  0  0  0  0  # atno 6909 bound_to 6896
  145.0854  139.3626  143.4888 H   0  0  0  0  0  0  0  0  0  0  0  0  # atno 7974 bound_to 7965
  156.3003  140.2461  156.3640 H   0  0  0  0  0  0  0  0  0  0  0  0  # atno 8008 bound_to 7997
  154.8850  140.0411  157.1824 H   0  0  0  0  0  0  0  0  0  0  0  0  # atno 8009 bound_to 7997
  154.8656  140.2927  155.5516 H   0  0  0  0  0  0  0  0  0  0  0  0  # atno 8010 bound_to 7997
  139.8416  144.6638  150.9276 H   0  0  0  0  0  0  0  0  0  0  0  0  # atno 10167 bound_to 10162
  155.9983  130.4838  150.5031 H   0  0  0  0  0  0  0  0  0  0  0  0  # atno 10718 bound_to 10713
  154.7716  135.4869  153.9661 H   0  0  0  0  0  0  0  0  0  0  0  0  # atno 10763 bound_to 10752
  153.1375  135.6766  153.9087 H   0  0  0  0  0  0  0  0  0  0  0  0  # atno 10764 bound_to 10752
  153.8771  135.3136  155.3422 H   0  0  0  0  0  0  0  0  0  0  0  0  # atno 10765 bound_to 10752
  140.5826  133.9998  155.8054 H   0  0  0  0  0  0  0  0  0  0  0  0  # atno 11005 bound_to 11000
  146.3531  140.0664  142.8626 LP  0  0  0  0  0  0  0  0  0  0  0  0  # atno 17320 bound_to 7965
  145.1128  140.9416  143.4646 LP  0  0  0  0  0  0  0  0  0  0  0  0  # atno 17321 bound_to 7965
  140.7797  143.3907  151.1314 LP  0  0  0  0  0  0  0  0  0  0  0  0  # atno 17342 bound_to 10162
  139.7553  143.8717  152.3087 LP  0  0  0  0  0  0  0  0  0  0  0  0  # atno 17343 bound_to 10162
  157.3013  131.0645  151.2066 LP  0  0  0  0  0  0  0  0  0  0  0  0  # atno 17370 bound_to 10713
  157.3045  130.6859  149.6182 LP  0  0  0  0  0  0  0  0  0  0  0  0  # atno 17371 bound_to 10713
  141.0986  133.9804  157.3117 LP  0  0  0  0  0  0  0  0  0  0  0  0  # atno 17394 bound_to 11000
  139.9310  135.0200  156.8400 LP  0  0  0  0  0  0  0  0  0  0  0  0  # atno 17395 bound_to 11000

$$$$
