AV-unprocessed.smi:3189|AV-procd|sdf|12192|dock1
  -GOLD-   2272018 33D 1   1.00000     0.00000
 Structure written by MMmdl.
 31 32  0  0  0  0  0  0  0  0  2 V2000
  150.7345  141.1167  155.7637 C   0  0  0  0  0  0  0  0  0  0  0  0
  149.4691  140.8925  154.9583 C   0  0  0  0  0  0  0  0  0  0  0  0
  148.6515  141.9511  154.7654 N   0  3  0  0  0  0  0  0  0  0  0  0
  147.4959  141.8713  154.0737 C   0  0  0  0  0  0  0  0  0  0  0  0
  147.0978  140.6437  153.5096 C   0  0  0  0  0  0  0  0  0  0  0  0
  147.9267  139.5042  153.6662 C   0  0  0  0  0  0  0  0  0  0  0  0
  147.5918  138.2239  153.1457 N   0  0  0  0  0  0  0  0  0  0  0  0
  146.3825  137.6354  153.0655 C   0  0  0  0  0  0  0  0  0  0  0  0
  145.3291  138.1526  153.4318 O   0  0  0  0  0  0  0  0  0  0  0  0
  146.3982  136.4293  152.4720 N   0  0  0  0  0  0  0  0  0  0  0  0
  145.2839  135.5595  152.2377 C   0  0  1  0  0  0  0  0  0  0  0  0
  144.9597  135.2270  150.7976 C   0  0  0  0  0  0  0  0  0  0  0  0
  145.5300  134.1629  151.6991 C   0  0  1  0  0  0  0  0  0  0  0  0
  146.9283  133.6235  151.4720 C   0  0  0  0  0  0  0  0  0  0  0  0
  149.1235  139.6329  154.4141 C   0  0  0  0  0  0  0  0  0  0  0  0
  150.1607  138.2669  154.6554 Cl  0  0  0  0  0  0  0  0  0  0  0  0
  151.6138  140.9138  155.1516 H   0  0  0  0  0  0  0  0  0  0  0  0
  150.7565  140.4543  156.6297 H   0  0  0  0  0  0  0  0  0  0  0  0
  150.8018  142.1442  156.1231 H   0  0  0  0  0  0  0  0  0  0  0  0
  146.9241  142.7847  153.9980 H   0  0  0  0  0  0  0  0  0  0  0  0
  146.1594  140.5963  152.9783 H   0  0  0  0  0  0  0  0  0  0  0  0
  148.3513  137.7245  152.7060 H   0  0  0  0  0  0  0  0  0  0  0  0
  147.2753  136.1371  152.0648 H   0  0  0  0  0  0  0  0  0  0  0  0
  144.4138  135.6888  152.8799 H   0  0  0  0  0  0  0  0  0  0  0  0
  143.9099  135.1406  150.5251 H   0  0  0  0  0  0  0  0  0  0  0  0
  145.6075  135.6336  150.0229 H   0  0  0  0  0  0  0  0  0  0  0  0
  144.8297  133.4040  152.0432 H   0  0  0  0  0  0  0  0  0  0  0  0
  147.5815  134.3867  151.0481 H   0  0  0  0  0  0  0  0  0  0  0  0
  146.8942  132.7802  150.7825 H   0  0  0  0  0  0  0  0  0  0  0  0
  147.3556  133.2839  152.4157 H   0  0  0  0  0  0  0  0  0  0  0  0
  148.9178  142.8510  155.1661 H   0  0  0  0  0  0  0  0  0  0  0  0
  1  2  1  0  0  0  0
  1 17  1  0  0  0  0
  1 18  1  0  0  0  0
  1 19  1  0  0  0  0
  2 15  1  0  0  0  0
  2  3  2  0  0  0  0
  3  4  1  0  0  0  0
  3 31  1  0  0  0  0
  4  5  2  0  0  0  0
  4 20  1  0  0  0  0
  5  6  1  0  0  0  0
  5 21  1  0  0  0  0
  6  7  1  0  0  0  0
  6 15  2  0  0  0  0
  7  8  1  0  0  0  0
  7 22  1  0  0  0  0
  8  9  2  0  0  0  0
  8 10  1  0  0  0  0
 10 11  1  0  0  0  0
 10 23  1  0  0  0  0
 11 13  1  0  0  0  0
 11 12  1  0  0  0  0
 11 24  1  0  0  0  0
 12 13  1  0  0  0  0
 12 25  1  0  0  0  0
 12 26  1  0  0  0  0
 13 14  1  0  0  0  0
 13 27  1  0  0  0  0
 14 28  1  0  0  0  0
 14 29  1  0  0  0  0
 14 30  1  0  0  0  0
 15 16  1  0  0  0  0
M  CHG  1   3   1
M  END
> <s_m_source_file>
AV-unprocessed.smi

> <i_m_source_file_index>
3189

> <i_lp_mmshare_version>
43012

> <i_f3d_flags>
0

> <s_epik_input>
W0NIM11jMW5bY0hdW2NIXWMoYzFDbClbTkhdQyg9TylbTkhdW0NAQEhdMltDSDJdW0NASF0yW0NIM10=

> <s_epik_cmdline>
J2VwaWtfcHl0aG9uJywgJy1waCcsICc3LjAnLCAnLXRuJywgJzgnLCAnLW1hJywgJzIwMCcsICctbWV0YWxfYmluZGluZycsICctaW1hZScsICc8aW5maWxlLm1hZT4nLCAnLW9tYWUnLCAnPG91dGZpbGUubWFlPic=

> <r_epik_Ionization_Penalty>
2.42914

> <r_epik_Ionization_Penalty_Charging>
2.42912

> <r_epik_Ionization_Penalty_Neutral>
2.15137e-05

> <r_epik_State_Penalty>
2.58904

> <r_epik_Charging_Adjusted_Penalty>
5.01816

> <i_epik_Tot_Q>
1

> <i_epik_Tot_abs_Q>
1

> <r_epik_Metal_State_Penalty>
2.59882

> <b_epik_Metal_Only>
0

> <s_lp_Force_Field>
OPLS_2005

> <r_lp_Energy>
38.4709

> <b_lp_Chiralities_Consistent>
1

> <s_lp_Variant>
AV-unprocessed.smi:3189-6

> <Gold.Version>
5.8.1

> <Gold.Id.Protein>
6NUR|6NUR_protein|mol2

> <Gold.PLP.Fitness>
41.0000

> <Gold.PLP.PLP>
-29.6062

> <Gold.PLP.part.hbond>
-3.0000

> <Gold.PLP.part.metal>
0.0000

> <Gold.PLP.part.buried>
-2.7232

> <Gold.PLP.part.nonpolar>
-24.6729

> <Gold.PLP.part.repulsive>
1.0278

> <Gold.PLP.ligand.clash>
0.0000

> <Gold.PLP.ligand.torsion>
0.3105

> <Gold.PLP.Chemscore.Hbond>
3.9920

> <Gold.PLP.Chemscore.CHOScore>
0.0000

> <Gold.PLP.Chemscore.Metal>
0.0000

> <Gold.Chemscore.Hbonds>
donor molecule, donor type, donor heavy atom, donor atom, acceptor molecule, acceptor atom, score
      L1  H     3    31       P1  8028  2.00
      L1  H     7    22       P1  7948  1.00
      L1  H    10    23       P1  7948  1.00

> <Gold.PLP.Chemscore.Internal.Correction>
0.0387

> <Gold.Rescore>
     Score         DG    S(hbond)    S(metal)    S(lipo)     H(rot)  DE(clash)    DE(int)     intcor
     19.33     -20.51       2.96        0.00      65.97       1.00       0.13       1.05       ----

> <Gold.Chemscore.Fitness>
19.3269

> <Gold.Chemscore.DG>
-20.5085

> <Gold.Chemscore.ZeroCoef>
-5.4800

> <Gold.Chemscore.Hbond>
2.9551

> <Gold.Chemscore.Metal>
0.0000

> <Gold.Chemscore.Lipo>
65.9706

> <Gold.Chemscore.Internal_Hbond>
0.0000

> <Gold.Chemscore.DEClash>
0.1349

> <Gold.Chemscore.DEInternal>
1.0467

> <Gold.Chemscore.Rot>
1.0000

> <Gold.Chemscore.Internal.Correction>
   9.000000E+99

> <Gold.Chemscore.Hbonds>
donor molecule, donor type, donor heavy atom, donor atom, acceptor molecule, acceptor atom, score
      L1  H     3    31       P1  8028  0.99
      L1  H     7    22       P1  7948  0.94
      L1  H    10    23       P1  7948  0.98

> <Gold.Chemscore.Hbond.Weighted>
-9.8699

> <Gold.Chemscore.Metal.Weighted>
-0.0000

> <Gold.Chemscore.Lipo.Weighted>
-7.7186

> <Gold.Chemscore.Internal_Hbond.Weighted>
0.0000

> <Gold.Chemscore.DEClash.Weighted>
0.1349

> <Gold.Chemscore.DEInternal.Weighted>
1.0467

> <Gold.Chemscore.Rot.Weighted>
2.5600

> <Gold.Chemscore.Internal.Correction.Weighted>
   9.000000E+99

> <Gold.Protein.RotatedTorsions>
[ 6907 6896 6895 6894 ] final  -41.41 input  -60.11 | X-H torsion
[ 7974 7965 7964 7962 ] final   33.26 input  175.53 | X-H torsion
[ 8008 7997 7996 7995 ] final   -3.29 input   59.86 | X-H torsion
[ 10167 10162 10161 10158 ] final  164.23 input  -65.29 | X-H torsion
[ 10718 10713 10712 10709 ] final  111.35 input   66.30 | X-H torsion
[ 10763 10752 10751 10750 ] final -113.15 input  -60.55 | X-H torsion
[ 11005 11000 10999 10996 ] final   96.08 input  -57.11 | X-H torsion

> <Gold.Protein.ActiveResidues>
 VAL166  LYS551  ARG553  GLY616  TRP617  ASP618  TYR619  PRO620  LYS621  CYS622 
 ASP623  PHE694  ASN695  SER759  ASP760  ASP761  ALA762  ILE779  LEU786  VAL792 
 PHE793  MET794  SER795  GLU796  ALA797  LYS798  CYS799  TRP800  GLU811  SER814 

> <Gold.Protein.RotatedAtoms>
  150.9671  134.9050  159.7765 H   0  0  0  0  0  0  0  0  0  0  0  0  # atno 6907 bound_to 6896
  152.5177  134.3592  159.9289 H   0  0  0  0  0  0  0  0  0  0  0  0  # atno 6908 bound_to 6896
  151.3602  133.3851  159.2723 H   0  0  0  0  0  0  0  0  0  0  0  0  # atno 6909 bound_to 6896
  146.1432  139.6420  142.9149 H   0  0  0  0  0  0  0  0  0  0  0  0  # atno 7974 bound_to 7965
  154.6265  140.2513  155.7485 H   0  0  0  0  0  0  0  0  0  0  0  0  # atno 8008 bound_to 7997
  156.2456  140.2916  156.0517 H   0  0  0  0  0  0  0  0  0  0  0  0  # atno 8009 bound_to 7997
  155.1813  140.0389  157.2873 H   0  0  0  0  0  0  0  0  0  0  0  0  # atno 8010 bound_to 7997
  139.4886  144.4256  151.9133 H   0  0  0  0  0  0  0  0  0  0  0  0  # atno 10167 bound_to 10162
  157.6449  131.0949  150.6736 H   0  0  0  0  0  0  0  0  0  0  0  0  # atno 10718 bound_to 10713
  154.8383  135.4465  154.1305 H   0  0  0  0  0  0  0  0  0  0  0  0  # atno 10763 bound_to 10752
  153.2516  135.6927  153.7679 H   0  0  0  0  0  0  0  0  0  0  0  0  # atno 10764 bound_to 10752
  153.6989  135.3375  155.3196 H   0  0  0  0  0  0  0  0  0  0  0  0  # atno 10765 bound_to 10752
  139.8784  134.8932  156.4106 H   0  0  0  0  0  0  0  0  0  0  0  0  # atno 11005 bound_to 11000
  145.4998  141.0438  143.2547 LP  0  0  0  0  0  0  0  0  0  0  0  0  # atno 17320 bound_to 7965
  144.7816  139.6513  143.7152 LP  0  0  0  0  0  0  0  0  0  0  0  0  # atno 17321 bound_to 7965
  140.3702  144.2865  150.5921 LP  0  0  0  0  0  0  0  0  0  0  0  0  # atno 17342 bound_to 10162
  140.5326  143.2240  151.8214 LP  0  0  0  0  0  0  0  0  0  0  0  0  # atno 17343 bound_to 10162
  156.7054  130.4636  149.5561 LP  0  0  0  0  0  0  0  0  0  0  0  0  # atno 17370 bound_to 10713
  156.1766  130.6472  151.0902 LP  0  0  0  0  0  0  0  0  0  0  0  0  # atno 17371 bound_to 10713
  140.9203  133.7650  155.9898 LP  0  0  0  0  0  0  0  0  0  0  0  0  # atno 17394 bound_to 11000
  140.8447  134.3025  157.5299 LP  0  0  0  0  0  0  0  0  0  0  0  0  # atno 17395 bound_to 11000

$$$$
