AV-unprocessed.smi:2226|AV-procd|sdf|9008|dock3
  -GOLD-   2272012213D 1   1.00000     0.00000
 Structure written by MMmdl.
 41 43  0  0  0  0  0  0  0  0  3 V2000
  149.3574  141.5398  157.5373 C   0  0  0  0  0  0  0  0  0  0  0  0
  148.3725  141.8605  156.4765 N   0  3  2  0  0  0  0  0  0  0  0  0
  147.0049  141.3427  156.7191 C   0  0  1  0  0  0  0  0  0  0  0  0
  146.0115  142.0866  155.7976 C   0  0  0  0  0  0  0  0  0  0  0  0
  146.4008  142.0530  154.3076 C   0  0  0  0  0  0  0  0  0  0  0  0
  147.9099  142.2746  154.0884 C   0  0  0  0  0  0  0  0  0  0  0  0
  148.8073  141.5238  155.0998 C   0  0  2  0  0  0  0  0  0  0  0  0
  148.8951  139.9906  154.8916 C   0  0  0  0  0  0  0  0  0  0  0  0
  147.6888  139.1661  155.4068 C   0  0  2  0  0  0  0  0  0  0  0  0
  146.7870  138.7939  154.3173 N   0  0  0  0  0  0  0  0  0  0  0  0
  146.7144  137.5839  153.7404 C   0  0  0  0  0  0  0  0  0  0  0  0
  147.4027  136.6226  154.0838 O   0  0  0  0  0  0  0  0  0  0  0  0
  145.8049  137.5579  152.7541 N   0  0  0  0  0  0  0  0  0  0  0  0
  145.4801  136.4320  151.9628 C   0  0  0  0  0  0  0  0  0  0  0  0
  146.3832  135.6249  151.4087 N   0  3  0  0  0  0  0  0  0  0  0  0
  145.7262  134.6435  150.7084 C   0  0  0  0  0  0  0  0  0  0  0  0
  144.3864  134.9025  150.8705 C   0  0  0  0  0  0  0  0  0  0  0  0
  144.2156  136.0241  151.6573 O   0  0  0  0  0  0  0  0  0  0  0  0
  146.9566  139.7971  156.6228 C   0  0  0  0  0  0  0  0  0  0  0  0
  149.5375  140.4686  157.6252 H   0  0  0  0  0  0  0  0  0  0  0  0
  149.0060  141.9027  158.5033 H   0  0  0  0  0  0  0  0  0  0  0  0
  150.3107  142.0264  157.3302 H   0  0  0  0  0  0  0  0  0  0  0  0
  146.7278  141.6089  157.7403 H   0  0  0  0  0  0  0  0  0  0  0  0
  145.0017  141.6965  155.9299 H   0  0  0  0  0  0  0  0  0  0  0  0
  145.9707  143.1300  156.1141 H   0  0  0  0  0  0  0  0  0  0  0  0
  146.0858  141.1180  153.8575 H   0  0  0  0  0  0  0  0  0  0  0  0
  145.8396  142.8171  153.7686 H   0  0  0  0  0  0  0  0  0  0  0  0
  148.1827  142.0121  153.0659 H   0  0  0  0  0  0  0  0  0  0  0  0
  148.1119  143.3424  154.1840 H   0  0  0  0  0  0  0  0  0  0  0  0
  149.8136  141.9230  154.9649 H   0  0  0  0  0  0  0  0  0  0  0  0
  149.1014  139.7631  153.8448 H   0  0  0  0  0  0  0  0  0  0  0  0
  149.7797  139.6404  155.4251 H   0  0  0  0  0  0  0  0  0  0  0  0
  148.1060  138.2174  155.7512 H   0  0  0  0  0  0  0  0  0  0  0  0
  146.1831  139.5228  153.9657 H   0  0  0  0  0  0  0  0  0  0  0  0
  147.3918  135.6877  151.4685 H   0  0  0  0  0  0  0  0  0  0  0  0
  146.2662  133.8744  150.1749 H   0  0  0  0  0  0  0  0  0  0  0  0
  143.4851  134.4219  150.5184 H   0  0  0  0  0  0  0  0  0  0  0  0
  147.4284  139.4011  157.5227 H   0  0  0  0  0  0  0  0  0  0  0  0
  145.9238  139.4525  156.6865 H   0  0  0  0  0  0  0  0  0  0  0  0
  148.2911  142.8673  156.4986 H   0  0  0  0  0  0  0  0  0  0  0  0
  145.3016  138.4095  152.5544 H   0  0  0  0  0  0  0  0  0  0  0  0
  1  2  1  0  0  0  0
  1 20  1  0  0  0  0
  1 21  1  0  0  0  0
  1 22  1  0  0  0  0
  2  7  1  0  0  0  0
  2  3  1  0  0  0  0
  2 40  1  0  0  0  0
  3 19  1  0  0  0  0
  3  4  1  0  0  0  0
  3 23  1  0  0  0  0
  4  5  1  0  0  0  0
  4 24  1  0  0  0  0
  4 25  1  0  0  0  0
  5  6  1  0  0  0  0
  5 26  1  0  0  0  0
  5 27  1  0  0  0  0
  6  7  1  0  0  0  0
  6 28  1  0  0  0  0
  6 29  1  0  0  0  0
  7  8  1  0  0  0  0
  7 30  1  0  0  0  0
  8  9  1  0  0  0  0
  8 31  1  0  0  0  0
  8 32  1  0  0  0  0
  9 10  1  0  0  0  0
  9 19  1  0  0  0  0
  9 33  1  0  0  0  0
 10 34  1  0  0  0  0
 10 11  1  0  0  0  0
 11 13  1  0  0  0  0
 11 12  2  0  0  0  0
 13 14  1  0  0  0  0
 13 41  1  0  0  0  0
 14 18  1  0  0  0  0
 14 15  2  0  0  0  0
 15 35  1  0  0  0  0
 15 16  1  0  0  0  0
 16 36  1  0  0  0  0
 16 17  2  0  0  0  0
 17 37  1  0  0  0  0
 17 18  1  0  0  0  0
 19 38  1  0  0  0  0
 19 39  1  0  0  0  0
M  CHG  1   2   1
M  CHG  1  15   1
M  END
> <s_m_source_file>
AV-unprocessed.smi

> <i_m_source_file_index>
2226

> <i_lp_mmshare_version>
43012

> <i_f3d_flags>
0

> <s_epik_input>
W0NIMl0xW0NIMl1bQ0gyXVtDQEhdKE4oW0NIM10pW0NIXTEyKVtDSDJdW0NASF0oW0NIMl0yKVtOSF1DKD1PKVtOSF1jM25bY0hdW2NIXW8z

> <s_epik_cmdline>
J2VwaWtfcHl0aG9uJywgJy1waCcsICc3LjAnLCAnLXRuJywgJzgnLCAnLW1hJywgJzIwMCcsICctbWV0YWxfYmluZGluZycsICctaW1hZScsICc8aW5maWxlLm1hZT4nLCAnLW9tYWUnLCAnPG91dGZpbGUubWFlPic=

> <r_epik_Ionization_Penalty>
6.92532

> <r_epik_Ionization_Penalty_Charging>
6.82059

> <r_epik_Ionization_Penalty_Neutral>
0.104727

> <r_epik_State_Penalty>
2.17671

> <r_epik_Charging_Adjusted_Penalty>
8.99731

> <i_epik_Tot_Q>
2

> <i_epik_Tot_abs_Q>
2

> <r_epik_Metal_State_Penalty>
2.20618

> <b_epik_Metal_Only>
0

> <s_lp_Force_Field>
OPLS_2005

> <r_lp_Energy>
48.5107

> <b_lp_Chiralities_Consistent>
1

> <s_lp_Variant>
AV-unprocessed.smi:2226-8

> <Gold.Version>
5.8.1

> <Gold.Id.Protein>
6NUR|6NUR_protein|mol2

> <Gold.PLP.Fitness>
35.0934

> <Gold.PLP.PLP>
-21.0925

> <Gold.PLP.part.hbond>
-2.0000

> <Gold.PLP.part.metal>
0.0000

> <Gold.PLP.part.buried>
-2.9258

> <Gold.PLP.part.nonpolar>
-17.6977

> <Gold.PLP.part.repulsive>
1.0343

> <Gold.PLP.ligand.clash>
0.0000

> <Gold.PLP.ligand.torsion>
0.5283

> <Gold.PLP.Chemscore.Hbond>
4.0000

> <Gold.PLP.Chemscore.CHOScore>
1.0000

> <Gold.PLP.Chemscore.Metal>
0.0000

> <Gold.Chemscore.Hbonds>
donor molecule, donor type, donor heavy atom, donor atom, acceptor molecule, acceptor atom, score
      L1  H     2    40       P1  8028  1.56
      L1  H    15    35       P1  7948  2.00
      L1  C    17    37       P1 10186  0.69

> <Gold.PLP.Chemscore.Internal.Correction>
0.0575

> <Gold.Rescore>
     Score         DG    S(hbond)    S(metal)    S(lipo)     H(rot)  DE(clash)    DE(int)     intcor
     13.59     -15.90       2.01        0.00      53.44       1.00       1.70       0.61       ----

> <Gold.Chemscore.Fitness>
13.5923

> <Gold.Chemscore.DG>
-15.9005

> <Gold.Chemscore.ZeroCoef>
-5.4800

> <Gold.Chemscore.Hbond>
2.0143

> <Gold.Chemscore.Metal>
0.0000

> <Gold.Chemscore.Lipo>
53.4419

> <Gold.Chemscore.Internal_Hbond>
0.0000

> <Gold.Chemscore.DEClash>
1.7021

> <Gold.Chemscore.DEInternal>
0.6061

> <Gold.Chemscore.Rot>
1.0000

> <Gold.Chemscore.Internal.Correction>
   9.000000E+99

> <Gold.Chemscore.Hbonds>
donor molecule, donor type, donor heavy atom, donor atom, acceptor molecule, acceptor atom, score
      L1  H     2    40       P1  8028  0.52
      L1  H    15    35       P1  7948  0.97

> <Gold.Chemscore.Hbond.Weighted>
-6.7278

> <Gold.Chemscore.Metal.Weighted>
-0.0000

> <Gold.Chemscore.Lipo.Weighted>
-6.2527

> <Gold.Chemscore.Internal_Hbond.Weighted>
0.0000

> <Gold.Chemscore.DEClash.Weighted>
1.7021

> <Gold.Chemscore.DEInternal.Weighted>
0.6061

> <Gold.Chemscore.Rot.Weighted>
2.5600

> <Gold.Chemscore.Internal.Correction.Weighted>
   9.000000E+99

> <Gold.Protein.RotatedTorsions>
[ 6907 6896 6895 6894 ] final  -24.67 input  -60.11 | X-H torsion
[ 7974 7965 7964 7962 ] final -146.28 input  175.53 | X-H torsion
[ 8008 7997 7996 7995 ] final  -59.64 input   59.86 | X-H torsion
[ 10167 10162 10161 10158 ] final  -46.87 input  -65.29 | X-H torsion
[ 10718 10713 10712 10709 ] final -116.94 input   66.30 | X-H torsion
[ 10763 10752 10751 10750 ] final  169.33 input  -60.55 | X-H torsion
[ 11005 11000 10999 10996 ] final  179.96 input  -57.11 | X-H torsion

> <Gold.Protein.ActiveResidues>
 VAL166  LYS551  ARG553  GLY616  TRP617  ASP618  TYR619  PRO620  LYS621  CYS622 
 ASP623  PHE694  ASN695  SER759  ASP760  ASP761  ALA762  ILE779  LEU786  VAL792 
 PHE793  MET794  SER795  GLU796  ALA797  LYS798  CYS799  TRP800  GLU811  SER814 

> <Gold.Protein.RotatedAtoms>
  151.1862  135.0383  159.8813 H   0  0  0  0  0  0  0  0  0  0  0  0  # atno 6907 bound_to 6896
  152.5442  134.1007  159.8326 H   0  0  0  0  0  0  0  0  0  0  0  0  # atno 6908 bound_to 6896
  151.1130  133.5112  159.2637 H   0  0  0  0  0  0  0  0  0  0  0  0  # atno 6909 bound_to 6896
  144.8170  140.5476  143.5604 H   0  0  0  0  0  0  0  0  0  0  0  0  # atno 7974 bound_to 7965
  154.4361  140.1057  156.6147 H   0  0  0  0  0  0  0  0  0  0  0  0  # atno 8008 bound_to 7997
  155.5771  140.3490  155.4512 H   0  0  0  0  0  0  0  0  0  0  0  0  # atno 8009 bound_to 7997
  156.0346  140.1268  157.0211 H   0  0  0  0  0  0  0  0  0  0  0  0  # atno 8010 bound_to 7997
  140.6799  143.2811  151.3845 H   0  0  0  0  0  0  0  0  0  0  0  0  # atno 10167 bound_to 10162
  156.0999  130.6163  150.9101 H   0  0  0  0  0  0  0  0  0  0  0  0  # atno 10718 bound_to 10713
  154.3816  135.2753  155.2208 H   0  0  0  0  0  0  0  0  0  0  0  0  # atno 10763 bound_to 10752
  154.4312  135.5977  153.6073 H   0  0  0  0  0  0  0  0  0  0  0  0  # atno 10764 bound_to 10752
  152.9834  135.5996  154.4059 H   0  0  0  0  0  0  0  0  0  0  0  0  # atno 10765 bound_to 10752
  140.4120  134.6683  157.4619 H   0  0  0  0  0  0  0  0  0  0  0  0  # atno 11005 bound_to 11000
  145.5191  139.1477  143.3562 LP  0  0  0  0  0  0  0  0  0  0  0  0  # atno 17320 bound_to 7965
  146.2474  140.5332  142.8908 LP  0  0  0  0  0  0  0  0  0  0  0  0  # atno 17321 bound_to 7965
  139.6115  144.1089  152.2303 LP  0  0  0  0  0  0  0  0  0  0  0  0  # atno 17342 bound_to 10162
  140.0504  144.5937  150.7340 LP  0  0  0  0  0  0  0  0  0  0  0  0  # atno 17343 bound_to 10162
  157.6167  131.0933  150.8697 LP  0  0  0  0  0  0  0  0  0  0  0  0  # atno 17370 bound_to 10713
  156.8827  130.5185  149.5290 LP  0  0  0  0  0  0  0  0  0  0  0  0  # atno 17371 bound_to 10713
  140.0261  134.6475  155.9171 LP  0  0  0  0  0  0  0  0  0  0  0  0  # atno 17394 bound_to 11000
  141.1817  133.6548  156.5049 LP  0  0  0  0  0  0  0  0  0  0  0  0  # atno 17395 bound_to 11000

$$$$
