AV-unprocessed.smi:2884|AV-procd|sdf|11085|dock1
  -GOLD-   2272015553D 1   1.00000     0.00000
 Structure written by MMmdl.
 41 42  0  0  0  0  0  0  0  0  2 V2000
  148.0131  132.9432  156.4172 C   0  0  0  0  0  0  0  0  0  0  0  0
  148.5372  132.4828  157.7836 C   0  0  0  0  0  0  0  0  0  0  0  0
  147.9071  133.2476  158.9541 C   0  0  0  0  0  0  0  0  0  0  0  0
  148.5444  134.5166  159.0424 O   0  0  0  0  0  0  0  0  0  0  0  0
  148.0612  135.5031  159.9613 C   0  0  0  0  0  0  0  0  0  0  0  0
  149.1786  136.5776  159.9170 C   0  0  0  0  0  0  0  0  0  0  0  0
  149.3258  137.1855  158.6006 N   0  0  0  0  0  0  0  0  0  0  0  0
  150.4040  137.8885  158.0742 C   0  0  0  0  0  0  0  0  0  0  0  0
  151.6579  138.1231  158.8340 C   0  0  0  0  0  0  0  0  0  0  0  0
  152.6454  138.7612  158.3425 N   0  0  0  0  0  0  0  0  0  0  0  0
  152.5950  139.2943  156.9994 N   0  5  0  0  0  0  0  0  0  0  0  0
  151.4771  139.1160  156.2322 C   0  0  0  0  0  0  0  0  0  0  0  0
  151.3957  139.5489  155.0840 O   0  0  0  0  0  0  0  0  0  0  0  0
  150.3457  138.3818  156.8110 C   0  0  0  0  0  0  0  0  0  0  0  0
  148.9307  138.1480  155.8363 Cl  0  0  0  0  0  0  0  0  0  0  0  0
  146.6823  136.0793  159.5337 C   0  0  0  0  0  0  0  0  0  0  0  0
  146.1371  137.1028  160.5459 C   0  0  0  0  0  0  0  0  0  0  0  0
  146.0463  136.4949  161.9551 C   0  0  0  0  0  0  0  0  0  0  0  0
  147.3963  135.9181  162.4118 C   0  0  0  0  0  0  0  0  0  0  0  0
  147.9508  134.9078  161.3894 C   0  0  0  0  0  0  0  0  0  0  0  0
  148.4691  132.3666  155.6122 H   0  0  0  0  0  0  0  0  0  0  0  0
  148.2399  133.9942  156.2378 H   0  0  0  0  0  0  0  0  0  0  0  0
  146.9324  132.8184  156.3465 H   0  0  0  0  0  0  0  0  0  0  0  0
  148.3320  131.4184  157.9004 H   0  0  0  0  0  0  0  0  0  0  0  0
  149.6218  132.5927  157.8153 H   0  0  0  0  0  0  0  0  0  0  0  0
  146.8350  133.3348  158.7859 H   0  0  0  0  0  0  0  0  0  0  0  0
  148.0563  132.6786  159.8709 H   0  0  0  0  0  0  0  0  0  0  0  0
  148.9638  137.3864  160.6134 H   0  0  0  0  0  0  0  0  0  0  0  0
  150.1255  136.1558  160.2507 H   0  0  0  0  0  0  0  0  0  0  0  0
  148.5706  136.9870  157.9605 H   0  0  0  0  0  0  0  0  0  0  0  0
  151.7005  137.7152  159.8458 H   0  0  0  0  0  0  0  0  0  0  0  0
  146.7376  136.5260  158.5407 H   0  0  0  0  0  0  0  0  0  0  0  0
  145.9439  135.2825  159.4605 H   0  0  0  0  0  0  0  0  0  0  0  0
  146.7695  137.9905  160.5635 H   0  0  0  0  0  0  0  0  0  0  0  0
  145.1508  137.4424  160.2289 H   0  0  0  0  0  0  0  0  0  0  0  0
  145.7051  137.2494  162.6645 H   0  0  0  0  0  0  0  0  0  0  0  0
  145.2945  135.7044  161.9607 H   0  0  0  0  0  0  0  0  0  0  0  0
  148.1093  136.7273  162.5690 H   0  0  0  0  0  0  0  0  0  0  0  0
  147.2772  135.4310  163.3800 H   0  0  0  0  0  0  0  0  0  0  0  0
  147.2812  134.0486  161.3900 H   0  0  0  0  0  0  0  0  0  0  0  0
  148.9217  134.5376  161.7203 H   0  0  0  0  0  0  0  0  0  0  0  0
  1  2  1  0  0  0  0
  1 21  1  0  0  0  0
  1 22  1  0  0  0  0
  1 23  1  0  0  0  0
  2  3  1  0  0  0  0
  2 24  1  0  0  0  0
  2 25  1  0  0  0  0
  3  4  1  0  0  0  0
  3 26  1  0  0  0  0
  3 27  1  0  0  0  0
  4  5  1  0  0  0  0
  5 20  1  0  0  0  0
  5  6  1  0  0  0  0
  5 16  1  0  0  0  0
  6  7  1  0  0  0  0
  6 28  1  0  0  0  0
  6 29  1  0  0  0  0
  7  8  1  0  0  0  0
  7 30  1  0  0  0  0
  8 14  2  0  0  0  0
  8  9  1  0  0  0  0
  9 10  2  0  0  0  0
  9 31  1  0  0  0  0
 10 11  1  0  0  0  0
 11 12  1  0  0  0  0
 12 13  2  0  0  0  0
 12 14  1  0  0  0  0
 14 15  1  0  0  0  0
 16 17  1  0  0  0  0
 16 32  1  0  0  0  0
 16 33  1  0  0  0  0
 17 18  1  0  0  0  0
 17 34  1  0  0  0  0
 17 35  1  0  0  0  0
 18 19  1  0  0  0  0
 18 36  1  0  0  0  0
 18 37  1  0  0  0  0
 19 20  1  0  0  0  0
 19 38  1  0  0  0  0
 19 39  1  0  0  0  0
 20 40  1  0  0  0  0
 20 41  1  0  0  0  0
M  CHG  1  11  -1
M  END
> <s_m_source_file>
AV-unprocessed.smi

> <i_m_source_file_index>
2884

> <i_lp_mmshare_version>
43012

> <i_f3d_flags>
0

> <s_epik_input>
W0NIMl0xW0NIMl1bQ0gyXVtDSDJdW0NIMl1DMShPW0NIMl1bQ0gyXVtDSDNdKVtDSDJdW05IXWMyW2NIXW5bbkhdYyg9TyljMkNs

> <s_epik_cmdline>
J2VwaWtfcHl0aG9uJywgJy1waCcsICc3LjAnLCAnLXRuJywgJzgnLCAnLW1hJywgJzIwMCcsICctbWV0YWxfYmluZGluZycsICctaW1hZScsICc8aW5maWxlLm1hZT4nLCAnLW9tYWUnLCAnPG91dGZpbGUubWFlPic=

> <r_lp_tautomer_probability>
0.986175

> <r_epik_Ionization_Penalty>
3.75229

> <r_epik_Ionization_Penalty_Charging>
0.0129106

> <r_epik_Ionization_Penalty_Neutral>
3.73938

> <r_epik_State_Penalty>
3.73863

> <r_epik_Charging_Adjusted_Penalty>
3.75154

> <i_epik_Tot_Q>
-1

> <i_epik_Tot_abs_Q>
1

> <r_epik_Metal_State_Penalty>
0.55642

> <b_epik_Metal_Only>
1

> <s_lp_Force_Field>
OPLS_2005

> <r_lp_Energy>
41.2708

> <b_lp_Chiralities_Consistent>
1

> <s_lp_Variant>
AV-unprocessed.smi:2884-3

> <Gold.Version>
5.8.1

> <Gold.Id.Protein>
6NUR|6NUR_protein|mol2

> <Gold.PLP.Fitness>
32.2194

> <Gold.PLP.PLP>
-20.8827

> <Gold.PLP.part.hbond>
-3.0000

> <Gold.PLP.part.metal>
0.0000

> <Gold.PLP.part.buried>
-4.2668

> <Gold.PLP.part.nonpolar>
-14.2034

> <Gold.PLP.part.repulsive>
0.1947

> <Gold.PLP.ligand.clash>
0.0000

> <Gold.PLP.ligand.torsion>
0.2908

> <Gold.PLP.Chemscore.Hbond>
3.9588

> <Gold.PLP.Chemscore.CHOScore>
0.0000

> <Gold.PLP.Chemscore.Metal>
0.0000

> <Gold.Chemscore.Hbonds>
donor molecule, donor type, donor heavy atom, donor atom, acceptor molecule, acceptor atom, score
      P1  H  6896  6908       L1     4  0.73
      P1  H  7989  7998       L1    13  0.89
      P1  H  7997  8010       L1    11  2.00

> <Gold.PLP.Chemscore.Internal.Correction>
0.0421

> <Gold.Rescore>
     Score         DG    S(hbond)    S(metal)    S(lipo)     H(rot)  DE(clash)    DE(int)     intcor
     15.89     -16.39       2.51        0.00      58.86       1.71       0.02       0.48       ----

> <Gold.Chemscore.Fitness>
15.8919

> <Gold.Chemscore.DG>
-16.3945

> <Gold.Chemscore.ZeroCoef>
-5.4800

> <Gold.Chemscore.Hbond>
2.5143

> <Gold.Chemscore.Metal>
0.0000

> <Gold.Chemscore.Lipo>
58.8554

> <Gold.Chemscore.Internal_Hbond>
0.0000

> <Gold.Chemscore.DEClash>
0.0202

> <Gold.Chemscore.DEInternal>
0.4823

> <Gold.Chemscore.Rot>
1.7068

> <Gold.Chemscore.Internal.Correction>
   9.000000E+99

> <Gold.Chemscore.Hbonds>
donor molecule, donor type, donor heavy atom, donor atom, acceptor molecule, acceptor atom, score
      P1  H  6896  6908       L1     4  0.33
      P1  H  7989  7998       L1    13  0.87
      P1  H  7997  8010       L1    11  0.33

> <Gold.Chemscore.Hbond.Weighted>
-8.3978

> <Gold.Chemscore.Metal.Weighted>
-0.0000

> <Gold.Chemscore.Lipo.Weighted>
-6.8861

> <Gold.Chemscore.Internal_Hbond.Weighted>
0.0000

> <Gold.Chemscore.DEClash.Weighted>
0.0202

> <Gold.Chemscore.DEInternal.Weighted>
0.4823

> <Gold.Chemscore.Rot.Weighted>
4.3694

> <Gold.Chemscore.Internal.Correction.Weighted>
   9.000000E+99

> <Gold.Protein.RotatedTorsions>
[ 6907 6896 6895 6894 ] final  146.34 input  -60.11 | X-H torsion
[ 7974 7965 7964 7962 ] final   83.58 input  175.53 | X-H torsion
[ 8008 7997 7996 7995 ] final   49.19 input   59.86 | X-H torsion
[ 10167 10162 10161 10158 ] final  -77.57 input  -65.29 | X-H torsion
[ 10718 10713 10712 10709 ] final   34.91 input   66.30 | X-H torsion
[ 10763 10752 10751 10750 ] final -164.65 input  -60.55 | X-H torsion
[ 11005 11000 10999 10996 ] final  166.03 input  -57.11 | X-H torsion

> <Gold.Protein.ActiveResidues>
 VAL166  LYS551  ARG553  GLY616  TRP617  ASP618  TYR619  PRO620  LYS621  CYS622 
 ASP623  PHE694  ASN695  SER759  ASP760  ASP761  ALA762  ILE779  LEU786  VAL792 
 PHE793  MET794  SER795  GLU796  ALA797  LYS798  CYS799  TRP800  GLU811  SER814 

> <Gold.Protein.RotatedAtoms>
  152.1692  133.4632  159.4900 H   0  0  0  0  0  0  0  0  0  0  0  0  # atno 6907 bound_to 6896
  150.6917  134.1974  159.4318 H   0  0  0  0  0  0  0  0  0  0  0  0  # atno 6908 bound_to 6896
  151.9880  134.9993  160.0611 H   0  0  0  0  0  0  0  0  0  0  0  0  # atno 6909 bound_to 6896
  145.6100  139.2367  143.2197 H   0  0  0  0  0  0  0  0  0  0  0  0  # atno 7974 bound_to 7965
  155.3981  140.3436  155.4255 H   0  0  0  0  0  0  0  0  0  0  0  0  # atno 8008 bound_to 7997
  156.1519  140.1573  156.8788 H   0  0  0  0  0  0  0  0  0  0  0  0  # atno 8009 bound_to 7997
  154.5060  140.0802  156.7877 H   0  0  0  0  0  0  0  0  0  0  0  0  # atno 8010 bound_to 7997
  140.4758  143.2414  151.8135 H   0  0  0  0  0  0  0  0  0  0  0  0  # atno 10167 bound_to 10162
  157.3162  130.7424  149.6756 H   0  0  0  0  0  0  0  0  0  0  0  0  # atno 10718 bound_to 10713
  154.7008  135.2987  154.9343 H   0  0  0  0  0  0  0  0  0  0  0  0  # atno 10763 bound_to 10752
  154.0276  135.6674  153.4782 H   0  0  0  0  0  0  0  0  0  0  0  0  # atno 10764 bound_to 10752
  153.0680  135.5077  154.8151 H   0  0  0  0  0  0  0  0  0  0  0  0  # atno 10765 bound_to 10752
  140.2622  134.7893  157.3600 H   0  0  0  0  0  0  0  0  0  0  0  0  # atno 11005 bound_to 11000
  146.1511  140.6923  142.9321 LP  0  0  0  0  0  0  0  0  0  0  0  0  # atno 17320 bound_to 7965
  144.7274  140.4566  143.6963 LP  0  0  0  0  0  0  0  0  0  0  0  0  # atno 17321 bound_to 7965
  139.4825  144.4835  151.9277 LP  0  0  0  0  0  0  0  0  0  0  0  0  # atno 17342 bound_to 10162
  140.3920  144.2603  150.5899 LP  0  0  0  0  0  0  0  0  0  0  0  0  # atno 17343 bound_to 10162
  155.9682  130.4236  150.4572 LP  0  0  0  0  0  0  0  0  0  0  0  0  # atno 17370 bound_to 10713
  157.2580  131.0561  151.2338 LP  0  0  0  0  0  0  0  0  0  0  0  0  # atno 17371 bound_to 10713
  140.1454  134.4918  155.8000 LP  0  0  0  0  0  0  0  0  0  0  0  0  # atno 17394 bound_to 11000
  141.2189  133.6841  156.7284 LP  0  0  0  0  0  0  0  0  0  0  0  0  # atno 17395 bound_to 11000

$$$$
