#       Name:                AV-unprocessed.smi:218
#       Creating user name   scv26
#       Creation time:       Thu Mar 26 20:09:00 2020


#       File generated by GOLD software.
#

@<TRIPOS>MOLECULE
AV-unprocessed.smi:218
    68    71     1
SMALL
NO_CHARGES


@<TRIPOS>ATOM
      1 ****        -5.0337   5.1805  -3.8917 C.3            1 S1                 0.0000
      2 ****        -4.5684   5.1704  -2.4307 C.3            1 S1                 0.0000
      3 ****        -3.3821   6.1263  -2.2175 C.3            1 S1                 0.0000
      4 ****        -4.1823   3.8284  -2.1278 O.3            1 S1                 0.0000
      5 ****        -4.1108   3.4060  -0.8143 C.ar           1 S1                 0.0000
      6 ****        -3.6404   2.1022  -0.5572 C.ar           1 S1                 0.0000
      7 ****        -3.5638   1.6564   0.7777 C.ar           1 S1                 0.0000
      8 ****        -3.0466   0.2701   1.0962 C.3            1 S1                 0.0000
      9 ****        -1.6102   0.1493   0.8922 N.pl3          1 S1                 0.0000
     10 ****        -0.9880  -1.0235   1.1345 C.ar           1 S1                 0.0000
     11 ****        -1.6887  -2.1213   1.5228 N.ar           1 S1                 0.0000
     12 ****        -1.0504  -3.2719   1.7584 C.ar           1 S1                 0.0000
     13 ****         0.2555  -3.5354   1.6701 N.ar           1 S1                 0.0000
     14 ****         0.9615  -2.4339   1.2818 C.ar           1 S1                 0.0000
     15 ****         0.4178  -1.1521   0.9944 C.ar           1 S1                 0.0000
     16 ****         1.4360  -0.2819   0.6283 N.2            1 S1                 0.0000
     17 ****         2.5168  -1.0122   0.6991 C.2            1 S1                 0.0000
     18 ****         2.3210  -2.3229   1.0846 N.pl3          1 S1                 0.0000
     19 ****         3.3220  -3.4268   1.2741 C.3            1 S1                 0.0000
     20 ****         4.5313  -2.8474   1.6511 O.3            1 S1                 0.0000
     21 ****         5.4381  -2.7457   0.5492 C.3            1 S1                 0.0000
     22 ****         6.7069  -3.5206   0.9626 C.3            1 S1                 0.0000
     23 ****         7.4581  -2.7529   1.8789 O.3            1 S1                 0.0000
     24 ****         4.6701  -3.3174  -0.6650 C.3            1 S1                 0.0000
     25 ****         5.4765  -4.0730  -1.5492 O.3            1 S1                 0.0000
     26 ****         3.5924  -4.1831  -0.0331 C.3            1 S1                 0.0000
     27 ****         2.4606  -4.2967  -0.8761 O.3            1 S1                 0.0000
     28 ****        -3.9625   2.5319   1.8070 C.ar           1 S1                 0.0000
     29 ****        -4.4214   3.8153   1.4523 C.ar           1 S1                 0.0000
     30 ****        -4.4969   4.2487   0.1759 N.ar           1 S1                 0.0000
     31 ****         2.9085  -4.0447   2.0718 H              1 S1                 0.0000
     32 ****         5.6905  -1.7016   0.3588 H              1 S1                 0.0000
     33 ****         4.2136  -2.4943  -1.2174 H              1 S1                 0.0000
     34 ****         3.9814  -5.1697   0.2229 H              1 S1                 0.0000
     35 ****        -5.3546   6.1774  -4.1952 H              1 S1                 0.0000
     36 ****        -5.8758   4.5034  -4.0363 H              1 S1                 0.0000
     37 ****        -4.2349   4.8666  -4.5642 H              1 S1                 0.0000
     38 ****        -5.4164   5.4855  -1.8207 H              1 S1                 0.0000
     39 ****        -3.6506   7.1482  -2.4862 H              1 S1                 0.0000
     40 ****        -2.5284   5.8347  -2.8299 H              1 S1                 0.0000
     41 ****        -3.0539   6.1386  -1.1785 H              1 S1                 0.0000
     42 ****        -3.3411   1.4581  -1.3712 H              1 S1                 0.0000
     43 ****        -3.2903   0.0214   2.1300 H              1 S1                 0.0000
     44 ****        -3.5664  -0.4484   0.4611 H              1 S1                 0.0000
     45 ****        -1.1280   0.9876   0.6010 H              1 S1                 0.0000
     46 ****        -1.6751  -4.0992   2.0618 H              1 S1                 0.0000
     47 ****         3.4900  -0.6037   0.4719 H              1 S1                 0.0000
     48 ****         6.4603  -4.4920   1.3923 H              1 S1                 0.0000
     49 ****         7.3586  -3.6971   0.1072 H              1 S1                 0.0000
     50 ****         8.2362  -3.2365   2.1105 H              1 S1                 0.0000
     51 ****         5.8325  -4.8104  -1.0776 H              1 S1                 0.0000
     52 ****         1.7732  -4.7356  -0.3988 H              1 S1                 0.0000
     53 ****        -3.9159   2.2319   2.8436 H              1 S1                 0.0000
     54 ****        -4.7343   4.5135   2.2143 H              1 S1                 0.0000
     55 ****        -3.2737   3.6940  -2.5233 LP             1 S1                 0.0000
     56 ****        -4.8379   3.2294  -2.5876 LP             1 S1                 0.0000
     57 ****        -2.6812  -2.0684   1.6322 LP             1 S1                 0.0000
     58 ****         0.6646  -4.4271   1.8640 LP             1 S1                 0.0000
     59 ****         1.3596   0.6812   0.3701 LP             1 S1                 0.0000
     60 ****         4.9507  -3.4087   2.3646 LP             1 S1                 0.0000
     61 ****         4.3534  -1.9310   2.0095 LP             1 S1                 0.0000
     62 ****         6.9131  -2.5788   2.6990 LP             1 S1                 0.0000
     63 ****         7.7150  -1.8827   1.4584 LP             1 S1                 0.0000
     64 ****         6.2218  -3.5032  -1.8956 LP             1 S1                 0.0000
     65 ****         4.9224  -4.3989  -2.3152 LP             1 S1                 0.0000
     66 ****         2.6981  -4.8275  -1.6896 LP             1 S1                 0.0000
     67 ****         2.1520  -3.3860  -1.1507 LP             1 S1                 0.0000
     68 ****        -4.8292   5.1681  -0.0343 LP             1 S1                 0.0000
@<TRIPOS>BOND
    1    1    2 1     
    2    1   35 1     
    3    1   36 1     
    4    1   37 1     
    5    2    3 1     
    6    2    4 1     
    7    2   38 1     
    8    3   39 1     
    9    3   40 1     
   10    3   41 1     
   11    4    5 1     
   12    5   30 ar    
   13    5    6 ar    
   14    6    7 ar    
   15    6   42 1     
   16    7    8 1     
   17    7   28 ar    
   18    8    9 1     
   19    8   43 1     
   20    8   44 1     
   21    9   10 1     
   22    9   45 1     
   23   10   15 ar    
   24   10   11 ar    
   25   11   12 ar    
   26   12   13 ar    
   27   12   46 1     
   28   13   14 ar    
   29   14   18 1     
   30   14   15 ar    
   31   15   16 1     
   32   16   17 2     
   33   17   18 1     
   34   17   47 1     
   35   18   19 1     
   36   19   31 1     
   37   19   26 1     
   38   19   20 1     
   39   20   21 1     
   40   21   32 1     
   41   21   22 1     
   42   21   24 1     
   43   22   23 1     
   44   22   48 1     
   45   22   49 1     
   46   23   50 1     
   47   24   33 1     
   48   24   25 1     
   49   24   26 1     
   50   25   51 1     
   51   26   34 1     
   52   26   27 1     
   53   27   52 1     
   54   28   29 ar    
   55   28   53 1     
   56   29   30 ar    
   57   29   54 1     
   58    4   55 1     
   59    4   56 1     
   60   11   57 1     
   61   13   58 1     
   62   16   59 1     
   63   20   60 1     
   64   20   61 1     
   65   23   62 1     
   66   23   63 1     
   67   25   64 1     
   68   25   65 1     
   69   27   66 1     
   70   27   67 1     
   71   30   68 1     
@<TRIPOS>SUBSTRUCTURE
      1 S1             1
@<TRIPOS>SET
LONE_PAIRS      STATIC     ATOMS    <user>   **** ""
14 55 56 57 58 59 60 61 62 63 64 65 66 67 68
DONOR_HYDROGENS      STATIC     ATOMS    <user>   **** ""
4 45 50 51 52
ATOM$BLUE        STATIC     ATOMS    COLORGROUP SYSTEM
14 55 56 57 58 59 60 61 62 63 64 65 66 67 68
ATOM$RED        STATIC     ATOMS    COLORGROUP SYSTEM
4 45 50 51 52
