AV-unprocessed.smi:2751|AV-procd|sdf|10595|dock1
  -GOLD-   2272015 43D 1   1.00000     0.00000
 Structure written by MMmdl.
 34 35  0  0  0  0  0  0  0  0  1 V2000
  146.0987  139.0201  153.8202 O   0  0  0  0  0  0  0  0  0  0  0  0
  146.9723  138.3685  153.2469 C   0  0  0  0  0  0  0  0  0  0  0  0
  146.7114  137.3272  152.4431 N   0  0  0  0  0  0  0  0  0  0  0  0
  145.3779  136.8308  152.1233 C   0  0  0  0  0  0  0  0  0  0  0  0
  145.3742  136.0092  150.8227 C   0  0  0  0  0  0  0  0  0  0  0  0
  145.1170  134.5137  151.0651 C   0  0  2  0  0  0  0  0  0  0  0  0
  146.4259  133.7312  151.2873 C   0  0  0  0  0  0  0  0  0  0  0  0
  146.1368  132.2353  151.4553 C   0  0  0  0  0  0  0  0  0  0  0  0
  145.2998  131.7347  150.2735 C   0  0  0  0  0  0  0  0  0  0  0  0
  144.0543  132.6164  150.0906 C   0  0  0  0  0  0  0  0  0  0  0  0
  144.4427  133.9772  149.9281 O   0  0  0  0  0  0  0  0  0  0  0  0
  148.2931  138.5974  153.3367 N   0  0  0  0  0  0  0  0  0  0  0  0
  148.9442  139.6149  154.0788 C   0  0  0  0  0  0  0  0  0  0  0  0
  148.4894  140.8482  154.3058 N   0  0  0  0  0  0  0  0  0  0  0  0
  149.4794  141.4511  155.0680 C   0  0  0  0  0  0  0  0  0  0  0  0
  150.4858  140.5398  155.2606 C   0  0  0  0  0  0  0  0  0  0  0  0
  150.1582  139.3655  154.6374 O   0  0  0  0  0  0  0  0  0  0  0  0
  147.4896  136.8469  152.0151 H   0  0  0  0  0  0  0  0  0  0  0  0
  144.9900  136.2372  152.9529 H   0  0  0  0  0  0  0  0  0  0  0  0
  144.7157  137.6911  152.0237 H   0  0  0  0  0  0  0  0  0  0  0  0
  144.6235  136.4046  150.1371 H   0  0  0  0  0  0  0  0  0  0  0  0
  146.3370  136.1257  150.3233 H   0  0  0  0  0  0  0  0  0  0  0  0
  144.4791  134.4064  151.9446 H   0  0  0  0  0  0  0  0  0  0  0  0
  147.0934  133.8804  150.4375 H   0  0  0  0  0  0  0  0  0  0  0  0
  146.9489  134.1094  152.1663 H   0  0  0  0  0  0  0  0  0  0  0  0
  147.0677  131.6726  151.5293 H   0  0  0  0  0  0  0  0  0  0  0  0
  145.5936  132.0693  152.3865 H   0  0  0  0  0  0  0  0  0  0  0  0
  145.8998  131.7591  149.3629 H   0  0  0  0  0  0  0  0  0  0  0  0
  145.0086  130.6957  150.4295 H   0  0  0  0  0  0  0  0  0  0  0  0
  143.4981  132.3010  149.2078 H   0  0  0  0  0  0  0  0  0  0  0  0
  143.3797  132.5194  150.9426 H   0  0  0  0  0  0  0  0  0  0  0  0
  148.8983  137.9845  152.8108 H   0  0  0  0  0  0  0  0  0  0  0  0
  149.3916  142.4720  155.4094 H   0  0  0  0  0  0  0  0  0  0  0  0
  151.4328  140.5668  155.7787 H   0  0  0  0  0  0  0  0  0  0  0  0
  1  2  2  0  0  0  0
  2  3  1  0  0  0  0
  2 12  1  0  0  0  0
  3  4  1  0  0  0  0
  3 18  1  0  0  0  0
  4  5  1  0  0  0  0
  4 19  1  0  0  0  0
  4 20  1  0  0  0  0
  5  6  1  0  0  0  0
  5 21  1  0  0  0  0
  5 22  1  0  0  0  0
  6 11  1  0  0  0  0
  6  7  1  0  0  0  0
  6 23  1  0  0  0  0
  7  8  1  0  0  0  0
  7 24  1  0  0  0  0
  7 25  1  0  0  0  0
  8  9  1  0  0  0  0
  8 26  1  0  0  0  0
  8 27  1  0  0  0  0
  9 10  1  0  0  0  0
  9 28  1  0  0  0  0
  9 29  1  0  0  0  0
 10 11  1  0  0  0  0
 10 30  1  0  0  0  0
 10 31  1  0  0  0  0
 12 13  1  0  0  0  0
 12 32  1  0  0  0  0
 13 17  1  0  0  0  0
 13 14  2  0  0  0  0
 14 15  1  0  0  0  0
 15 16  2  0  0  0  0
 15 33  1  0  0  0  0
 16 17  1  0  0  0  0
 16 34  1  0  0  0  0
M  END
> <s_m_source_file>
AV-unprocessed.smi

> <i_m_source_file_index>
2751

> <i_lp_mmshare_version>
43012

> <i_f3d_flags>
0

> <s_epik_input>
bzFbY0hdW2NIXW5jMVtOSF1DKD1PKVtOSF1bQ0gyXVtDSDJdW0NAQEhdMltDSDJdW0NIMl1bQ0gyXVtDSDJdTzI=

> <s_epik_cmdline>
J2VwaWtfcHl0aG9uJywgJy1waCcsICc3LjAnLCAnLXRuJywgJzgnLCAnLW1hJywgJzIwMCcsICctbWV0YWxfYmluZGluZycsICctaW1hZScsICc8aW5maWxlLm1hZT4nLCAnLW9tYWUnLCAnPG91dGZpbGUubWFlPic=

> <r_lp_tautomer_probability>
0.785861

> <r_epik_Ionization_Penalty>
4.88827e-05

> <r_epik_Ionization_Penalty_Charging>
0

> <r_epik_Ionization_Penalty_Neutral>
4.88827e-05

> <r_epik_State_Penalty>
0.0434822

> <r_epik_Charging_Adjusted_Penalty>
0.0434822

> <i_epik_Tot_Q>
0

> <i_epik_Tot_abs_Q>
0

> <r_epik_Metal_State_Penalty>
0.0598982

> <b_epik_Metal_Only>
0

> <s_lp_Force_Field>
OPLS_2005

> <r_lp_Energy>
7.87484

> <b_lp_Chiralities_Consistent>
1

> <s_lp_Variant>
AV-unprocessed.smi:2751-1

> <Gold.Version>
5.8.1

> <Gold.Id.Protein>
6NUR|6NUR_protein|mol2

> <Gold.PLP.Fitness>
36.7699

> <Gold.PLP.PLP>
-30.2046

> <Gold.PLP.part.hbond>
-3.0000

> <Gold.PLP.part.metal>
0.0000

> <Gold.PLP.part.buried>
-2.7442

> <Gold.PLP.part.nonpolar>
-26.2807

> <Gold.PLP.part.repulsive>
1.7630

> <Gold.PLP.ligand.clash>
0.0000

> <Gold.PLP.ligand.torsion>
1.1184

> <Gold.PLP.Chemscore.Hbond>
1.9120

> <Gold.PLP.Chemscore.CHOScore>
1.0000

> <Gold.PLP.Chemscore.Metal>
0.0000

> <Gold.Chemscore.Hbonds>
donor molecule, donor type, donor heavy atom, donor atom, acceptor molecule, acceptor atom, score
      L1  H     3    18       P1  7948  1.00
      L1  H    12    32       P1  7948  0.90
      L1  C    15    33       P1  8028  1.00

> <Gold.PLP.Chemscore.Internal.Correction>
0.0661

> <Gold.Rescore>
     Score         DG    S(hbond)    S(metal)    S(lipo)     H(rot)  DE(clash)    DE(int)     intcor
     12.84     -15.33       1.89        0.00      65.91       1.63       0.53       1.96       ----

> <Gold.Chemscore.Fitness>
12.8413

> <Gold.Chemscore.DG>
-15.3317

> <Gold.Chemscore.ZeroCoef>
-5.4800

> <Gold.Chemscore.Hbond>
1.8924

> <Gold.Chemscore.Metal>
0.0000

> <Gold.Chemscore.Lipo>
65.9071

> <Gold.Chemscore.Internal_Hbond>
0.0000

> <Gold.Chemscore.DEClash>
0.5255

> <Gold.Chemscore.DEInternal>
1.9649

> <Gold.Chemscore.Rot>
1.6328

> <Gold.Chemscore.Internal.Correction>
   9.000000E+99

> <Gold.Chemscore.Hbonds>
donor molecule, donor type, donor heavy atom, donor atom, acceptor molecule, acceptor atom, score
      L1  H     3    18       P1  7948  0.97
      L1  H    12    32       P1  7948  0.85

> <Gold.Chemscore.Hbond.Weighted>
-6.3205

> <Gold.Chemscore.Metal.Weighted>
-0.0000

> <Gold.Chemscore.Lipo.Weighted>
-7.7111

> <Gold.Chemscore.Internal_Hbond.Weighted>
0.0000

> <Gold.Chemscore.DEClash.Weighted>
0.5255

> <Gold.Chemscore.DEInternal.Weighted>
1.9649

> <Gold.Chemscore.Rot.Weighted>
4.1799

> <Gold.Chemscore.Internal.Correction.Weighted>
   9.000000E+99

> <Gold.Protein.RotatedTorsions>
[ 6907 6896 6895 6894 ] final  -48.30 input  -60.11 | X-H torsion
[ 7974 7965 7964 7962 ] final  -90.62 input  175.53 | X-H torsion
[ 8008 7997 7996 7995 ] final  111.90 input   59.86 | X-H torsion
[ 10167 10162 10161 10158 ] final   39.20 input  -65.29 | X-H torsion
[ 10718 10713 10712 10709 ] final   93.51 input   66.30 | X-H torsion
[ 10763 10752 10751 10750 ] final -167.71 input  -60.55 | X-H torsion
[ 11005 11000 10999 10996 ] final   75.60 input  -57.11 | X-H torsion

> <Gold.Protein.ActiveResidues>
 VAL166  LYS551  ARG553  GLY616  TRP617  ASP618  TYR619  PRO620  LYS621  CYS622 
 ASP623  PHE694  ASN695  SER759  ASP760  ASP761  ALA762  ILE779  LEU786  VAL792 
 PHE793  MET794  SER795  GLU796  ALA797  LYS798  CYS799  TRP800  GLU811  SER814 

> <Gold.Protein.RotatedAtoms>
  150.8919  134.8323  159.7299 H   0  0  0  0  0  0  0  0  0  0  0  0  # atno 6907 bound_to 6896
  152.4842  134.4635  159.9622 H   0  0  0  0  0  0  0  0  0  0  0  0  # atno 6908 bound_to 6896
  151.4697  133.3533  159.2857 H   0  0  0  0  0  0  0  0  0  0  0  0  # atno 6909 bound_to 6896
  145.4241  140.9552  143.2165 H   0  0  0  0  0  0  0  0  0  0  0  0  # atno 7974 bound_to 7965
  156.2155  140.3010  155.9831 H   0  0  0  0  0  0  0  0  0  0  0  0  # atno 8008 bound_to 7997
  155.2615  140.0430  157.3015 H   0  0  0  0  0  0  0  0  0  0  0  0  # atno 8009 bound_to 7997
  154.5762  140.2362  155.8127 H   0  0  0  0  0  0  0  0  0  0  0  0  # atno 8010 bound_to 7997
  140.3862  144.1913  150.6130 H   0  0  0  0  0  0  0  0  0  0  0  0  # atno 10167 bound_to 10162
  157.6954  131.0481  150.4045 H   0  0  0  0  0  0  0  0  0  0  0  0  # atno 10718 bound_to 10713
  154.6704  135.2938  154.9749 H   0  0  0  0  0  0  0  0  0  0  0  0  # atno 10763 bound_to 10752
  154.0778  135.6609  153.4837 H   0  0  0  0  0  0  0  0  0  0  0  0  # atno 10764 bound_to 10752
  153.0483  135.5190  154.7698 H   0  0  0  0  0  0  0  0  0  0  0  0  # atno 10765 bound_to 10752
  139.9336  134.7531  156.1291 H   0  0  0  0  0  0  0  0  0  0  0  0  # atno 11005 bound_to 11000
  144.8226  139.5765  143.6980 LP  0  0  0  0  0  0  0  0  0  0  0  0  # atno 17320 bound_to 7965
  146.2641  139.6479  142.9341 LP  0  0  0  0  0  0  0  0  0  0  0  0  # atno 17321 bound_to 7965
  140.4887  143.2355  151.8851 LP  0  0  0  0  0  0  0  0  0  0  0  0  # atno 17342 bound_to 10162
  139.4792  144.5190  151.8827 LP  0  0  0  0  0  0  0  0  0  0  0  0  # atno 17343 bound_to 10162
  156.4435  130.3996  149.6682 LP  0  0  0  0  0  0  0  0  0  0  0  0  # atno 17370 bound_to 10713
  156.3857  130.7601  151.2598 LP  0  0  0  0  0  0  0  0  0  0  0  0  # atno 17371 bound_to 10713
  141.0938  133.6703  156.2600 LP  0  0  0  0  0  0  0  0  0  0  0  0  # atno 17394 bound_to 11000
  140.6135  134.5434  157.5537 LP  0  0  0  0  0  0  0  0  0  0  0  0  # atno 17395 bound_to 11000

$$$$
