AV-unprocessed.smi:2281|AV-procd|sdf|9193|dock1
  -GOLD-   2272012413D 1   1.00000     0.00000
 Structure written by MMmdl.
 40 41  0  0  0  0  0  0  0  0  1 V2000
  156.6732  135.4215  164.2284 C   0  0  0  0  0  0  0  0  0  0  0  0
  155.8537  136.1339  163.1671 C   0  0  0  0  0  0  0  0  0  0  0  0
  155.4066  137.4135  163.5069 N   0  0  0  0  0  0  0  0  0  0  0  0
  154.6925  138.0906  162.6686 C   0  0  0  0  0  0  0  0  0  0  0  0
  154.3372  137.5742  161.4112 N   0  0  0  0  0  0  0  0  0  0  0  0
  153.5270  138.4615  160.5514 C   0  0  0  0  0  0  0  0  0  0  0  0
  154.2913  139.6771  159.9410 C   0  0  1  0  0  0  0  0  0  0  0  0
  155.8148  139.6786  160.1969 C   0  0  0  0  0  0  0  0  0  0  0  0
  154.1543  139.5666  158.5346 O   0  0  0  0  0  0  0  0  0  0  0  0
  153.6683  140.9796  160.4658 C   0  0  0  0  0  0  0  0  0  0  0  0
  153.9544  141.4759  161.7607 C   0  0  0  0  0  0  0  0  0  0  0  0
  153.3736  142.6761  162.2118 C   0  0  0  0  0  0  0  0  0  0  0  0
  152.5005  143.3969  161.3772 C   0  0  0  0  0  0  0  0  0  0  0  0
  152.1997  142.9196  160.0850 C   0  0  0  0  0  0  0  0  0  0  0  0
  151.2657  143.7086  159.1791 C   0  0  0  0  0  0  0  0  0  0  0  0
  151.0952  143.0957  158.0072 F   0  0  0  0  0  0  0  0  0  0  0  0
  150.0698  143.8536  159.7510 F   0  0  0  0  0  0  0  0  0  0  0  0
  151.7857  144.9156  158.9595 F   0  0  0  0  0  0  0  0  0  0  0  0
  152.7903  141.7178  159.6375 C   0  0  0  0  0  0  0  0  0  0  0  0
  154.7565  136.3440  160.9904 C   0  0  0  0  0  0  0  0  0  0  0  0
  154.4668  135.9060  159.8755 O   0  0  0  0  0  0  0  0  0  0  0  0
  155.5626  135.5820  161.9579 C   0  0  0  0  0  0  0  0  0  0  0  0
  156.0197  134.1917  161.5338 C   0  0  0  0  0  0  0  0  0  0  0  0
  156.1954  134.4844  164.5153 H   0  0  0  0  0  0  0  0  0  0  0  0
  156.7774  136.0317  165.1264 H   0  0  0  0  0  0  0  0  0  0  0  0
  157.6740  135.2034  163.8550 H   0  0  0  0  0  0  0  0  0  0  0  0
  154.3233  139.0949  162.8837 H   0  0  0  0  0  0  0  0  0  0  0  0
  153.0429  137.8918  159.7550 H   0  0  0  0  0  0  0  0  0  0  0  0
  152.6847  138.8245  161.1421 H   0  0  0  0  0  0  0  0  0  0  0  0
  156.0512  139.6847  161.2605 H   0  0  0  0  0  0  0  0  0  0  0  0
  156.2837  140.5589  159.7555 H   0  0  0  0  0  0  0  0  0  0  0  0
  156.3029  138.8064  159.7609 H   0  0  0  0  0  0  0  0  0  0  0  0
  153.4632  138.9503  158.3470 H   0  0  0  0  0  0  0  0  0  0  0  0
  154.6224  140.9511  162.4269 H   0  0  0  0  0  0  0  0  0  0  0  0
  153.6007  143.0459  163.2009 H   0  0  0  0  0  0  0  0  0  0  0  0
  152.0655  144.3198  161.7316 H   0  0  0  0  0  0  0  0  0  0  0  0
  152.5726  141.3609  158.6417 H   0  0  0  0  0  0  0  0  0  0  0  0
  155.1553  133.5527  161.3504 H   0  0  0  0  0  0  0  0  0  0  0  0
  156.6418  133.6980  162.2786 H   0  0  0  0  0  0  0  0  0  0  0  0
  156.5990  134.2503  160.6118 H   0  0  0  0  0  0  0  0  0  0  0  0
  1  2  1  0  0  0  0
  1 24  1  0  0  0  0
  1 25  1  0  0  0  0
  1 26  1  0  0  0  0
  2 22  2  0  0  0  0
  2  3  1  0  0  0  0
  3  4  2  0  0  0  0
  4  5  1  0  0  0  0
  4 27  1  0  0  0  0
  5  6  1  0  0  0  0
  5 20  1  0  0  0  0
  6  7  1  0  0  0  0
  6 28  1  0  0  0  0
  6 29  1  0  0  0  0
  7  8  1  0  0  0  0
  7  9  1  0  0  0  0
  7 10  1  0  0  0  0
  8 30  1  0  0  0  0
  8 31  1  0  0  0  0
  8 32  1  0  0  0  0
  9 33  1  0  0  0  0
 10 19  1  0  0  0  0
 10 11  2  0  0  0  0
 11 12  1  0  0  0  0
 11 34  1  0  0  0  0
 12 13  2  0  0  0  0
 12 35  1  0  0  0  0
 13 14  1  0  0  0  0
 13 36  1  0  0  0  0
 14 15  1  0  0  0  0
 14 19  2  0  0  0  0
 15 16  1  0  0  0  0
 15 17  1  0  0  0  0
 15 18  1  0  0  0  0
 19 37  1  0  0  0  0
 20 21  2  0  0  0  0
 20 22  1  0  0  0  0
 22 23  1  0  0  0  0
 23 38  1  0  0  0  0
 23 39  1  0  0  0  0
 23 40  1  0  0  0  0
M  END
> <s_m_source_file>
AV-unprocessed.smi

> <i_m_source_file_index>
2281

> <i_lp_mmshare_version>
43012

> <i_f3d_flags>
0

> <s_epik_input>
W0NIM11jMW5bY0hdbihjKD1PKWMxW0NIM10pW0NIMl1bQ0BAXShbQ0gzXSkoW09IXSljMltjSF1bY0hdW2NIXWMoQyhGKShGKUYpW2NIXTI=

> <s_epik_cmdline>
J2VwaWtfcHl0aG9uJywgJy1waCcsICc3LjAnLCAnLXRuJywgJzgnLCAnLW1hJywgJzIwMCcsICctbWV0YWxfYmluZGluZycsICctaW1hZScsICc8aW5maWxlLm1hZT4nLCAnLW9tYWUnLCAnPG91dGZpbGUubWFlPic=

> <r_lp_tautomer_probability>
1

> <r_epik_Ionization_Penalty>
5.68222e-05

> <r_epik_Ionization_Penalty_Charging>
9.07816e-08

> <r_epik_Ionization_Penalty_Neutral>
5.67314e-05

> <r_epik_State_Penalty>
-0

> <r_epik_Charging_Adjusted_Penalty>
9.07816e-08

> <i_epik_Tot_Q>
0

> <i_epik_Tot_abs_Q>
0

> <r_epik_Metal_State_Penalty>
-0

> <b_epik_Metal_Only>
0

> <s_lp_Force_Field>
OPLS_2005

> <r_lp_Energy>
23.727

> <b_lp_Chiralities_Consistent>
1

> <s_lp_Variant>
AV-unprocessed.smi:2281-1

> <Gold.Version>
5.8.1

> <Gold.Id.Protein>
6NUR|6NUR_protein|mol2

> <Gold.PLP.Fitness>
55.4966

> <Gold.PLP.PLP>
-52.6436

> <Gold.PLP.part.hbond>
-2.0000

> <Gold.PLP.part.metal>
0.0000

> <Gold.PLP.part.buried>
-5.9056

> <Gold.PLP.part.nonpolar>
-45.9390

> <Gold.PLP.part.repulsive>
0.0317

> <Gold.PLP.ligand.clash>
0.8786

> <Gold.PLP.ligand.torsion>
1.8394

> <Gold.PLP.Chemscore.Hbond>
1.9913

> <Gold.PLP.Chemscore.CHOScore>
0.0000

> <Gold.PLP.Chemscore.Metal>
0.0000

> <Gold.Chemscore.Hbonds>
donor molecule, donor type, donor heavy atom, donor atom, acceptor molecule, acceptor atom, score
      P1  H  6896  6907       L1    21  0.15
      P1  H  7997  8009       L1     9  1.00

> <Gold.PLP.Chemscore.Internal.Correction>
1.4366

> <Gold.Rescore>
     Score         DG    S(hbond)    S(metal)    S(lipo)     H(rot)  DE(clash)    DE(int)     intcor
     17.99     -19.80       1.99        0.00     111.30       2.09       0.06       1.76       ----

> <Gold.Chemscore.Fitness>
17.9868

> <Gold.Chemscore.DG>
-19.8024

> <Gold.Chemscore.ZeroCoef>
-5.4800

> <Gold.Chemscore.Hbond>
1.9883

> <Gold.Chemscore.Metal>
0.0000

> <Gold.Chemscore.Lipo>
111.2977

> <Gold.Chemscore.Internal_Hbond>
0.0000

> <Gold.Chemscore.DEClash>
0.0572

> <Gold.Chemscore.DEInternal>
1.7584

> <Gold.Chemscore.Rot>
2.0860

> <Gold.Chemscore.Internal.Correction>
   9.000000E+99

> <Gold.Chemscore.Hbonds>
donor molecule, donor type, donor heavy atom, donor atom, acceptor molecule, acceptor atom, score
      P1  H  6896  6907       L1    21  0.12
      P1  H  7997  8009       L1     9  0.87

> <Gold.Chemscore.Hbond.Weighted>
-6.6408

> <Gold.Chemscore.Metal.Weighted>
-0.0000

> <Gold.Chemscore.Lipo.Weighted>
-13.0218

> <Gold.Chemscore.Internal_Hbond.Weighted>
0.0000

> <Gold.Chemscore.DEClash.Weighted>
0.0572

> <Gold.Chemscore.DEInternal.Weighted>
1.7584

> <Gold.Chemscore.Rot.Weighted>
5.3402

> <Gold.Chemscore.Internal.Correction.Weighted>
   9.000000E+99

> <Gold.Protein.RotatedTorsions>
[ 6907 6896 6895 6894 ] final   69.26 input  -60.11 | X-H torsion
[ 7974 7965 7964 7962 ] final -131.58 input  175.53 | X-H torsion
[ 8008 7997 7996 7995 ] final  125.64 input   59.86 | X-H torsion
[ 10167 10162 10161 10158 ] final  153.15 input  -65.29 | X-H torsion
[ 10718 10713 10712 10709 ] final  -83.86 input   66.30 | X-H torsion
[ 10763 10752 10751 10750 ] final   52.67 input  -60.55 | X-H torsion
[ 11005 11000 10999 10996 ] final  -13.86 input  -57.11 | X-H torsion

> <Gold.Protein.ActiveResidues>
 VAL166  LYS551  ARG553  GLY616  TRP617  ASP618  TYR619  PRO620  LYS621  CYS622 
 ASP623  PHE694  ASN695  SER759  ASP760  ASP761  ALA762  ILE779  LEU786  VAL792 
 PHE793  MET794  SER795  GLU796  ALA797  LYS798  CYS799  TRP800  GLU811  SER814 

> <Gold.Protein.RotatedAtoms>
  152.4675  134.5041  159.9733 H   0  0  0  0  0  0  0  0  0  0  0  0  # atno 6907 bound_to 6896
  151.5075  133.3485  159.2887 H   0  0  0  0  0  0  0  0  0  0  0  0  # atno 6908 bound_to 6896
  150.8666  134.8059  159.7185 H   0  0  0  0  0  0  0  0  0  0  0  0  # atno 6909 bound_to 6896
  144.9366  140.7190  143.4873 H   0  0  0  0  0  0  0  0  0  0  0  0  # atno 7974 bound_to 7965
  156.2840  140.2711  156.1982 H   0  0  0  0  0  0  0  0  0  0  0  0  # atno 8008 bound_to 7997
  155.0388  140.0386  157.2520 H   0  0  0  0  0  0  0  0  0  0  0  0  # atno 8009 bound_to 7997
  154.7291  140.2703  155.6477 H   0  0  0  0  0  0  0  0  0  0  0  0  # atno 8010 bound_to 7997
  139.4828  144.5297  151.7743 H   0  0  0  0  0  0  0  0  0  0  0  0  # atno 10167 bound_to 10162
  156.0013  130.4679  150.4321 H   0  0  0  0  0  0  0  0  0  0  0  0  # atno 10718 bound_to 10713
  152.9790  135.5804  154.4617 H   0  0  0  0  0  0  0  0  0  0  0  0  # atno 10763 bound_to 10752
  154.4192  135.2771  155.1988 H   0  0  0  0  0  0  0  0  0  0  0  0  # atno 10764 bound_to 10752
  154.3745  135.6160  153.5811 H   0  0  0  0  0  0  0  0  0  0  0  0  # atno 10765 bound_to 10752
  140.7805  133.8366  155.9288 H   0  0  0  0  0  0  0  0  0  0  0  0  # atno 11005 bound_to 11000
  145.3057  139.1835  143.4665 LP  0  0  0  0  0  0  0  0  0  0  0  0  # atno 17320 bound_to 7965
  146.3269  140.3055  142.8623 LP  0  0  0  0  0  0  0  0  0  0  0  0  # atno 17321 bound_to 7965
  140.4822  144.1433  150.5934 LP  0  0  0  0  0  0  0  0  0  0  0  0  # atno 17342 bound_to 10162
  140.4265  143.2587  151.9649 LP  0  0  0  0  0  0  0  0  0  0  0  0  # atno 17343 bound_to 10162
  157.2369  131.0517  151.2459 LP  0  0  0  0  0  0  0  0  0  0  0  0  # atno 17370 bound_to 10713
  157.3657  130.7155  149.6531 LP  0  0  0  0  0  0  0  0  0  0  0  0  # atno 17371 bound_to 10713
  140.9487  134.1807  157.4744 LP  0  0  0  0  0  0  0  0  0  0  0  0  # atno 17394 bound_to 11000
  139.8743  134.9900  156.5485 LP  0  0  0  0  0  0  0  0  0  0  0  0  # atno 17395 bound_to 11000

$$$$
