AV-unprocessed.smi:72|AV-procd|sdf|722|dock2
  -GOLD-   2262017 43D 1   1.00000     0.00000
 Structure written by MMmdl.
 28 29  0  0  0  0  0  0  0  0  2 V2000
  153.2609  137.1259  155.9363 N   0  0  0  0  0  0  0  0  0  0  0  0
  152.5050  138.1093  155.7109 C   0  0  0  0  0  0  0  0  0  0  0  0
  151.6645  138.1255  154.5348 N   0  0  0  0  0  0  0  0  0  0  0  0
  150.8551  139.1284  154.3853 C   0  0  0  0  0  0  0  0  0  0  0  0
  150.7436  140.1909  155.3813 N   0  0  0  0  0  0  0  0  0  0  0  0
  149.8067  141.3780  155.1835 C   0  0  1  0  0  0  0  0  0  0  0  0
  149.2193  141.3111  153.9109 O   0  0  0  0  0  0  0  0  0  0  0  0
  147.8523  140.9060  153.9769 C   0  0  1  0  0  0  0  0  0  0  0  0
  147.7277  139.3657  153.9213 C   0  0  0  0  0  0  0  0  0  0  0  0
  147.9781  138.9107  152.6085 O   0  0  0  0  0  0  0  0  0  0  0  0
  147.4139  141.5469  155.2972 C   0  0  1  0  0  0  0  0  0  0  0  0
  146.2680  140.9395  155.8615 O   0  0  0  0  0  0  0  0  0  0  0  0
  148.6342  141.3927  156.1948 C   0  0  2  0  0  0  0  0  0  0  0  0
  148.7066  142.4995  157.0715 O   0  0  0  0  0  0  0  0  0  0  0  0
  151.6711  140.2033  156.4609 C   0  0  0  0  0  0  0  0  0  0  0  0
  151.6795  141.1765  157.2142 O   0  0  0  0  0  0  0  0  0  0  0  0
  152.5212  139.1495  156.6118 N   0  5  0  0  0  0  0  0  0  0  0  0
  150.4590  142.2509  155.2413 H   0  0  0  0  0  0  0  0  0  0  0  0
  147.2933  141.3432  153.1484 H   0  0  0  0  0  0  0  0  0  0  0  0
  147.2070  142.6035  155.1177 H   0  0  0  0  0  0  0  0  0  0  0  0
  148.5948  140.4510  156.7449 H   0  0  0  0  0  0  0  0  0  0  0  0
  153.7978  137.2411  156.7835 H   0  0  0  0  0  0  0  0  0  0  0  0
  150.2145  139.2297  153.5096 H   0  0  0  0  0  0  0  0  0  0  0  0
  148.3815  138.8660  154.6342 H   0  0  0  0  0  0  0  0  0  0  0  0
  146.7114  139.0549  154.1625 H   0  0  0  0  0  0  0  0  0  0  0  0
  148.7014  139.4045  152.2533 H   0  0  0  0  0  0  0  0  0  0  0  0
  145.7683  141.6078  156.3057 H   0  0  0  0  0  0  0  0  0  0  0  0
  148.7953  143.2826  156.5485 H   0  0  0  0  0  0  0  0  0  0  0  0
  1  2  2  0  0  0  0
  1 22  1  0  0  0  0
  2 17  1  0  0  0  0
  2  3  1  0  0  0  0
  3  4  2  0  0  0  0
  4  5  1  0  0  0  0
  4 23  1  0  0  0  0
  5  6  1  0  0  0  0
  5 15  1  0  0  0  0
  6 18  1  0  0  0  0
  6 13  1  0  0  0  0
  6  7  1  0  0  0  0
  7  8  1  0  0  0  0
  8 19  1  0  0  0  0
  8  9  1  0  0  0  0
  8 11  1  0  0  0  0
  9 10  1  0  0  0  0
  9 24  1  0  0  0  0
  9 25  1  0  0  0  0
 10 26  1  0  0  0  0
 11 20  1  0  0  0  0
 11 12  1  0  0  0  0
 11 13  1  0  0  0  0
 12 27  1  0  0  0  0
 13 21  1  0  0  0  0
 13 14  1  0  0  0  0
 14 28  1  0  0  0  0
 15 16  2  0  0  0  0
 15 17  1  0  0  0  0
M  CHG  1  17  -1
M  END
> <s_m_source_file>
AV-unprocessed.smi

> <i_m_source_file_index>
72

> <i_lp_mmshare_version>
43012

> <i_f3d_flags>
0

> <s_epik_input>
W05IMl1jMW5bY0hdbihjKD1PKW4xKVtDQEBIXTJPW0NASF0oW0NIMl1bT0hdKVtDQEBIXShbT0hdKVtDQEhdMltPSF0=

> <s_epik_cmdline>
J2VwaWtfcHl0aG9uJywgJy1waCcsICc3LjAnLCAnLXRuJywgJzgnLCAnLW1hJywgJzIwMCcsICctbWV0YWxfYmluZGluZycsICctaW1hZScsICc8aW5maWxlLm1hZT4nLCAnLW9tYWUnLCAnPG91dGZpbGUubWFlPic=

> <r_lp_tautomer_probability>
7.17554e-07

> <r_epik_Ionization_Penalty>
12.8705

> <r_epik_Ionization_Penalty_Charging>
5.64144

> <r_epik_Ionization_Penalty_Neutral>
7.22905

> <r_epik_State_Penalty>
3.30104

> <r_epik_Charging_Adjusted_Penalty>
8.94249

> <i_epik_Tot_Q>
-1

> <i_epik_Tot_abs_Q>
1

> <r_epik_Metal_State_Penalty>
0.529074

> <b_epik_Metal_Only>
1

> <s_epik_Chemistry_Notes>
This compound contains an acetal/aminal-like group ( X-CH(R)-Y where X, Y are N, S, or O) that may be acid/base labile, releasing an aldehyde.

> <s_lp_Force_Field>
OPLS_2005

> <r_lp_Energy>
34.2272

> <b_lp_Chiralities_Consistent>
1

> <s_lp_Variant>
AV-unprocessed.smi:72-60

> <Gold.Version>
5.8.1

> <Gold.Id.Protein>
6NUR|6NUR_protein|mol2

> <Gold.PLP.Fitness>
44.7763

> <Gold.PLP.PLP>
-26.4636

> <Gold.PLP.part.hbond>
-6.6490

> <Gold.PLP.part.metal>
0.0000

> <Gold.PLP.part.buried>
-2.2998

> <Gold.PLP.part.nonpolar>
-18.0510

> <Gold.PLP.part.repulsive>
0.8194

> <Gold.PLP.ligand.clash>
0.0000

> <Gold.PLP.ligand.torsion>
0.2876

> <Gold.PLP.Chemscore.Hbond>
5.2640

> <Gold.PLP.Chemscore.CHOScore>
1.0000

> <Gold.PLP.Chemscore.Metal>
0.0000

> <Gold.Chemscore.Hbonds>
donor molecule, donor type, donor heavy atom, donor atom, acceptor molecule, acceptor atom, score
      L1  H    10    26       P1  7957  1.00
      L1  H    14    28       P1  8028  1.00
      P1  H  7997  8008       L1    17  1.85
      P1  H  8011  8017       L1     7  0.80
      P1  H 10752 10765       L1     1  0.50
      L1  C     4    23       P1  7957  0.96

> <Gold.PLP.Chemscore.Internal.Correction>
0.0958

> <Gold.Rescore>
     Score         DG    S(hbond)    S(metal)    S(lipo)     H(rot)  DE(clash)    DE(int)     intcor
      8.34      -8.76       3.35        0.00      20.83       4.04       0.13       0.29       ----

> <Gold.Chemscore.Fitness>
8.3415

> <Gold.Chemscore.DG>
-8.7615

> <Gold.Chemscore.ZeroCoef>
-5.4800

> <Gold.Chemscore.Hbond>
3.3494

> <Gold.Chemscore.Metal>
0.0000

> <Gold.Chemscore.Lipo>
20.8350

> <Gold.Chemscore.Internal_Hbond>
0.0000

> <Gold.Chemscore.DEClash>
0.1252

> <Gold.Chemscore.DEInternal>
0.2948

> <Gold.Chemscore.Rot>
4.0403

> <Gold.Chemscore.Internal.Correction>
   9.000000E+99

> <Gold.Chemscore.Hbonds>
donor molecule, donor type, donor heavy atom, donor atom, acceptor molecule, acceptor atom, score
      L1  H    10    26       P1  7957  0.93
      L1  H    14    28       P1  8028  0.91
      P1  H  7997  8008       L1    17  0.22
      P1  H  8011  8017       L1     7  0.72
      P1  H 10752 10765       L1     1  0.46

> <Gold.Chemscore.Hbond.Weighted>
-11.1869

> <Gold.Chemscore.Metal.Weighted>
-0.0000

> <Gold.Chemscore.Lipo.Weighted>
-2.4377

> <Gold.Chemscore.Internal_Hbond.Weighted>
0.0000

> <Gold.Chemscore.DEClash.Weighted>
0.1252

> <Gold.Chemscore.DEInternal.Weighted>
0.2948

> <Gold.Chemscore.Rot.Weighted>
10.3431

> <Gold.Chemscore.Internal.Correction.Weighted>
   9.000000E+99

> <Gold.Protein.RotatedTorsions>
[ 6907 6896 6895 6894 ] final  -51.91 input  -60.11 | X-H torsion
[ 7974 7965 7964 7962 ] final -167.08 input  175.53 | X-H torsion
[ 8008 7997 7996 7995 ] final  -54.90 input   59.86 | X-H torsion
[ 10167 10162 10161 10158 ] final   64.93 input  -65.29 | X-H torsion
[ 10718 10713 10712 10709 ] final   -8.64 input   66.30 | X-H torsion
[ 10763 10752 10751 10750 ] final -139.72 input  -60.55 | X-H torsion
[ 11005 11000 10999 10996 ] final -127.94 input  -57.11 | X-H torsion

> <Gold.Protein.ActiveResidues>
 VAL166  LYS551  ARG553  GLY616  TRP617  ASP618  TYR619  PRO620  LYS621  CYS622 
 ASP623  PHE694  ASN695  SER759  ASP760  ASP761  ALA762  ILE779  LEU786  VAL792 
 PHE793  MET794  SER795  GLU796  ALA797  LYS798  CYS799  TRP800  GLU811  SER814 

> <Gold.Protein.RotatedAtoms>
  150.8567  134.7908  159.7050 H   0  0  0  0  0  0  0  0  0  0  0  0  # atno 6907 bound_to 6896
  152.4616  134.5167  159.9780 H   0  0  0  0  0  0  0  0  0  0  0  0  # atno 6908 bound_to 6896
  151.5278  133.3416  159.2948 H   0  0  0  0  0  0  0  0  0  0  0  0  # atno 6909 bound_to 6896
  144.7231  140.2571  143.6270 H   0  0  0  0  0  0  0  0  0  0  0  0  # atno 7974 bound_to 7965
  154.4177  140.1165  156.5391 H   0  0  0  0  0  0  0  0  0  0  0  0  # atno 8008 bound_to 7997
  155.6527  140.3496  155.4735 H   0  0  0  0  0  0  0  0  0  0  0  0  # atno 8009 bound_to 7997
  155.9779  140.1154  157.0743 H   0  0  0  0  0  0  0  0  0  0  0  0  # atno 8010 bound_to 7997
  140.1168  144.4768  150.6944 H   0  0  0  0  0  0  0  0  0  0  0  0  # atno 10167 bound_to 10162
  156.6996  130.5089  149.5921 H   0  0  0  0  0  0  0  0  0  0  0  0  # atno 10718 bound_to 10713
  154.8601  135.3574  154.5592 H   0  0  0  0  0  0  0  0  0  0  0  0  # atno 10763 bound_to 10752
  153.6208  135.7006  153.5316 H   0  0  0  0  0  0  0  0  0  0  0  0  # atno 10764 bound_to 10752
  153.3131  135.4173  155.1313 H   0  0  0  0  0  0  0  0  0  0  0  0  # atno 10765 bound_to 10752
  140.9558  134.1004  157.4018 H   0  0  0  0  0  0  0  0  0  0  0  0  # atno 11005 bound_to 11000
  145.8171  139.2028  143.1959 LP  0  0  0  0  0  0  0  0  0  0  0  0  # atno 17320 bound_to 7965
  146.0546  140.8034  142.9765 LP  0  0  0  0  0  0  0  0  0  0  0  0  # atno 17321 bound_to 7965
  140.6895  143.2368  151.5170 LP  0  0  0  0  0  0  0  0  0  0  0  0  # atno 17342 bound_to 10162
  139.5590  144.2204  152.1660 LP  0  0  0  0  0  0  0  0  0  0  0  0  # atno 17343 bound_to 10162
  156.1738  130.6454  151.0869 LP  0  0  0  0  0  0  0  0  0  0  0  0  # atno 17370 bound_to 10713
  157.6978  131.0787  150.6915 LP  0  0  0  0  0  0  0  0  0  0  0  0  # atno 17371 bound_to 10713
  139.8861  135.0079  156.6481 LP  0  0  0  0  0  0  0  0  0  0  0  0  # atno 17394 bound_to 11000
  140.7539  133.8874  155.8367 LP  0  0  0  0  0  0  0  0  0  0  0  0  # atno 17395 bound_to 11000

$$$$
