#       Name:                AV-unprocessed.smi:2021
#       Creating user name   scv26
#       Creation time:       Fri Mar 27 10:42:27 2020


#       File generated by GOLD software.
#

@<TRIPOS>MOLECULE
AV-unprocessed.smi:2021
    48    49     1
SMALL
NO_CHARGES


@<TRIPOS>ATOM
      1 ****        -4.1311   2.6729   0.6982 C.3            1 S1                 0.0000
      2 ****        -2.5997   2.5851   0.6192 C.3            1 S1                 0.0000
      3 ****        -2.1203   2.8554  -0.8169 C.3            1 S1                 0.0000
      4 ****        -2.1063   1.2181   1.1410 C.3            1 S1                 0.0000
      5 ****        -0.6276   1.1413   1.2624 N.4            1 S1                 1.0000
      6 ****        -0.0927   1.8476   2.4527 C.3            1 S1                 0.0000
      7 ****         1.4409   1.7543   2.4876 C.3            1 S1                 0.0000
      8 ****         1.8337   0.3881   2.4726 O.3            1 S1                 0.0000
      9 ****         1.4151  -0.2827   1.2893 C.3            1 S1                 0.0000
     10 ****         1.9947  -1.7098   1.3384 C.3            1 S1                 0.0000
     11 ****         1.6416  -2.5090   0.1689 N.am           1 S1                 0.0000
     12 ****         2.1699  -2.3563  -1.0538 C.2            1 S1                 0.0000
     13 ****         3.0016  -1.4909  -1.3272 O.2            1 S1                 0.0000
     14 ****         1.6735  -3.2604  -1.9164 N.am           1 S1                 0.0000
     15 ****         1.9814  -3.4249  -3.2931 C.2            1 S1                 0.0000
     16 ****         2.8331  -2.6345  -3.9648 N.2            1 S1                 0.0000
     17 ****         2.9520  -3.0124  -5.2961 N.2            1 S1                 0.0000
     18 ****         2.1860  -4.0709  -5.5756 C.2            1 S1                 0.0000
     19 ****         1.2434  -4.7092  -4.2398 S.3            1 S1                 0.0000
     20 ****        -0.1271  -0.2537   1.2202 C.3            1 S1                 0.0000
     21 ****        -4.6059   1.9131   0.0765 H              1 S1                 0.0000
     22 ****        -4.4879   3.6474   0.3629 H              1 S1                 0.0000
     23 ****        -4.4811   2.5318   1.7214 H              1 S1                 0.0000
     24 ****        -2.2086   3.3763   1.2583 H              1 S1                 0.0000
     25 ****        -2.4945   2.0994  -1.5085 H              1 S1                 0.0000
     26 ****        -1.0322   2.8568  -0.8826 H              1 S1                 0.0000
     27 ****        -2.4676   3.8272  -1.1694 H              1 S1                 0.0000
     28 ****        -2.5566   0.9889   2.1082 H              1 S1                 0.0000
     29 ****        -2.4561   0.4448   0.4550 H              1 S1                 0.0000
     30 ****        -0.3871   2.8963   2.4427 H              1 S1                 0.0000
     31 ****        -0.5107   1.4068   3.3591 H              1 S1                 0.0000
     32 ****         1.8848   2.2848   1.6437 H              1 S1                 0.0000
     33 ****         1.8256   2.2211   3.3946 H              1 S1                 0.0000
     34 ****         1.8293   0.2416   0.4262 H              1 S1                 0.0000
     35 ****         3.0809  -1.6702   1.4353 H              1 S1                 0.0000
     36 ****         1.6277  -2.2281   2.2246 H              1 S1                 0.0000
     37 ****         0.9657  -3.2460   0.3084 H              1 S1                 0.0000
     38 ****         1.0019  -3.9150  -1.5435 H              1 S1                 0.0000
     39 ****         2.1754  -4.4785  -6.5756 H              1 S1                 0.0000
     40 ****        -0.5539  -0.8199   2.0497 H              1 S1                 0.0000
     41 ****        -0.4652  -0.7287   0.2984 H              1 S1                 0.0000
     42 ****        -0.2471   1.6008   0.4472 H              1 S1                 0.0000
     43 ****         1.4285  -0.0714   3.2629 LP             1 S1                 0.0000
     44 ****         2.8307   0.3397   2.5339 LP             1 S1                 0.0000
     45 ****         3.3154  -0.8576  -0.6197 LP             1 S1                 0.0000
     46 ****         3.3635  -1.4211  -2.2568 LP             1 S1                 0.0000
     47 ****         3.3237  -1.8651  -3.5555 LP             1 S1                 0.0000
     48 ****         3.5376  -2.5501  -5.9620 LP             1 S1                 0.0000
@<TRIPOS>BOND
    1    1    2 1     
    2    1   21 1     
    3    1   22 1     
    4    1   23 1     
    5    2    3 1     
    6    2    4 1     
    7    2   24 1     
    8    3   25 1     
    9    3   26 1     
   10    3   27 1     
   11    4    5 1     
   12    4   28 1     
   13    4   29 1     
   14    5   20 1     
   15    5    6 1     
   16    5   42 1     
   17    6    7 1     
   18    6   30 1     
   19    6   31 1     
   20    7    8 1     
   21    7   32 1     
   22    7   33 1     
   23    8    9 1     
   24    9   10 1     
   25    9   20 1     
   26    9   34 1     
   27   10   11 1     
   28   10   35 1     
   29   10   36 1     
   30   11   12 am    
   31   11   37 1     
   32   12   13 2     
   33   12   14 am    
   34   14   15 1     
   35   14   38 1     
   36   15   19 1     
   37   15   16 2     
   38   16   17 1     
   39   17   18 2     
   40   18   19 1     
   41   18   39 1     
   42   20   40 1     
   43   20   41 1     
   44    8   43 1     
   45    8   44 1     
   46   13   45 1     
   47   13   46 1     
   48   16   47 1     
   49   17   48 1     
@<TRIPOS>SUBSTRUCTURE
      1 S1             1
@<TRIPOS>SET
LONE_PAIRS      STATIC     ATOMS    <user>   **** ""
6 43 44 45 46 47 48
DONOR_HYDROGENS      STATIC     ATOMS    <user>   **** ""
3 42 37 38
ATOM$BLUE        STATIC     ATOMS    COLORGROUP SYSTEM
6 43 44 45 46 47 48
ATOM$RED        STATIC     ATOMS    COLORGROUP SYSTEM
3 42 37 38
