AV-unprocessed.smi:416|AV-procd|sdf|2526|dock4
  -GOLD-   2262022483D 1   1.00000     0.00000
 Structure written by MMmdl.
 43 44  0  0  0  0  0  0  0  0  1 V2000
  144.1297  134.5088  152.6400 C   0  0  0  0  0  0  0  0  0  0  0  0
  145.4919  135.1321  152.2735 C   0  0  0  0  0  0  0  0  0  0  0  0
  146.5407  134.7021  153.3207 C   0  0  0  0  0  0  0  0  0  0  0  0
  145.9304  134.6069  150.8858 C   0  0  0  0  0  0  0  0  0  0  0  0
  145.3518  136.6737  152.3086 C   0  0  0  0  0  0  0  0  0  0  0  0
  144.2612  137.1788  152.5789 O   0  0  0  0  0  0  0  0  0  0  0  0
  146.4365  137.4173  152.0295 N   0  0  0  0  0  0  0  0  0  0  0  0
  146.4883  138.8753  151.9876 C   0  0  0  0  0  0  0  0  0  0  0  0
  147.2825  139.4779  153.1351 C   0  0  0  0  0  0  0  0  0  0  0  0
  147.2372  140.8618  153.3938 C   0  0  0  0  0  0  0  0  0  0  0  0
  147.9905  141.3834  154.4630 C   0  0  0  0  0  0  0  0  0  0  0  0
  148.7788  140.5065  155.2466 C   0  0  0  0  0  0  0  0  0  0  0  0
  149.5463  141.0055  156.3224 N   0  0  0  0  0  0  0  0  0  0  0  0
  150.5401  140.0881  156.8756 C   0  0  0  0  0  0  0  0  0  0  0  0
  151.5019  140.8394  157.8118 C   0  0  0  0  0  0  0  0  0  0  0  0
  150.7616  141.5219  158.8181 O   0  0  0  0  0  0  0  0  0  0  0  0
  149.8827  142.4926  158.2599 C   0  0  0  0  0  0  0  0  0  0  0  0
  148.8618  141.8003  157.3414 C   0  0  0  0  0  0  0  0  0  0  0  0
  148.8163  139.1745  154.9948 N   0  0  0  0  0  0  0  0  0  0  0  0
  148.0928  138.6797  153.9690 C   0  0  0  0  0  0  0  0  0  0  0  0
  144.1850  133.4197  152.6522 H   0  0  0  0  0  0  0  0  0  0  0  0
  143.3579  134.7874  151.9210 H   0  0  0  0  0  0  0  0  0  0  0  0
  143.7894  134.8260  153.6268 H   0  0  0  0  0  0  0  0  0  0  0  0
  146.2534  134.9977  154.3309 H   0  0  0  0  0  0  0  0  0  0  0  0
  147.5163  135.1438  153.1129 H   0  0  0  0  0  0  0  0  0  0  0  0
  146.6691  133.6192  153.3285 H   0  0  0  0  0  0  0  0  0  0  0  0
  146.0413  133.5220  150.8956 H   0  0  0  0  0  0  0  0  0  0  0  0
  146.8914  135.0240  150.5808 H   0  0  0  0  0  0  0  0  0  0  0  0
  145.1996  134.8451  150.1116 H   0  0  0  0  0  0  0  0  0  0  0  0
  147.2947  136.9291  151.8172 H   0  0  0  0  0  0  0  0  0  0  0  0
  146.9069  139.2281  151.0437 H   0  0  0  0  0  0  0  0  0  0  0  0
  145.4629  139.2448  152.0198 H   0  0  0  0  0  0  0  0  0  0  0  0
  146.6306  141.5185  152.7876 H   0  0  0  0  0  0  0  0  0  0  0  0
  147.9423  142.4407  154.6755 H   0  0  0  0  0  0  0  0  0  0  0  0
  150.0234  139.3008  157.4259 H   0  0  0  0  0  0  0  0  0  0  0  0
  151.1207  139.5999  156.0947 H   0  0  0  0  0  0  0  0  0  0  0  0
  152.1853  140.1373  158.2892 H   0  0  0  0  0  0  0  0  0  0  0  0
  152.1143  141.5481  157.2518 H   0  0  0  0  0  0  0  0  0  0  0  0
  149.3684  143.0124  159.0682 H   0  0  0  0  0  0  0  0  0  0  0  0
  150.4534  143.2434  157.7111 H   0  0  0  0  0  0  0  0  0  0  0  0
  148.2309  142.5560  156.8717 H   0  0  0  0  0  0  0  0  0  0  0  0
  148.2115  141.1508  157.9294 H   0  0  0  0  0  0  0  0  0  0  0  0
  148.1690  137.6143  153.8119 H   0  0  0  0  0  0  0  0  0  0  0  0
  1  2  1  0  0  0  0
  1 21  1  0  0  0  0
  1 22  1  0  0  0  0
  1 23  1  0  0  0  0
  2  3  1  0  0  0  0
  2  4  1  0  0  0  0
  2  5  1  0  0  0  0
  3 24  1  0  0  0  0
  3 25  1  0  0  0  0
  3 26  1  0  0  0  0
  4 27  1  0  0  0  0
  4 28  1  0  0  0  0
  4 29  1  0  0  0  0
  5  6  2  0  0  0  0
  5  7  1  0  0  0  0
  7  8  1  0  0  0  0
  7 30  1  0  0  0  0
  8  9  1  0  0  0  0
  8 31  1  0  0  0  0
  8 32  1  0  0  0  0
  9 20  1  0  0  0  0
  9 10  2  0  0  0  0
 10 11  1  0  0  0  0
 10 33  1  0  0  0  0
 11 12  2  0  0  0  0
 11 34  1  0  0  0  0
 12 13  1  0  0  0  0
 12 19  1  0  0  0  0
 13 18  1  0  0  0  0
 13 14  1  0  0  0  0
 14 15  1  0  0  0  0
 14 35  1  0  0  0  0
 14 36  1  0  0  0  0
 15 16  1  0  0  0  0
 15 37  1  0  0  0  0
 15 38  1  0  0  0  0
 16 17  1  0  0  0  0
 17 18  1  0  0  0  0
 17 39  1  0  0  0  0
 17 40  1  0  0  0  0
 18 41  1  0  0  0  0
 18 42  1  0  0  0  0
 19 20  2  0  0  0  0
 20 43  1  0  0  0  0
M  END
> <s_m_source_file>
AV-unprocessed.smi

> <i_m_source_file_index>
416

> <i_lp_mmshare_version>
43012

> <i_f3d_flags>
0

> <s_epik_input>
W0NIM11DKFtDSDNdKShbQ0gzXSlDKD1PKVtOSF1bQ0gyXWMxW2NIXVtjSF1jKG5bY0hdMSlOMltDSDJdW0NIMl1PW0NIMl1bQ0gyXTI=

> <s_epik_cmdline>
J2VwaWtfcHl0aG9uJywgJy1waCcsICc3LjAnLCAnLXRuJywgJzgnLCAnLW1hJywgJzIwMCcsICctbWV0YWxfYmluZGluZycsICctaW1hZScsICc8aW5maWxlLm1hZT4nLCAnLW9tYWUnLCAnPG91dGZpbGUubWFlPic=

> <r_lp_tautomer_probability>
1

> <r_epik_Ionization_Penalty>
0.00522353

> <r_epik_Ionization_Penalty_Charging>
0

> <r_epik_Ionization_Penalty_Neutral>
0.00522353

> <r_epik_State_Penalty>
0.0038086

> <r_epik_Charging_Adjusted_Penalty>
0.0038086

> <i_epik_Tot_Q>
0

> <i_epik_Tot_abs_Q>
0

> <r_epik_Metal_State_Penalty>
-0

> <b_epik_Metal_Only>
0

> <s_lp_Force_Field>
OPLS_2005

> <r_lp_Energy>
22.6444

> <b_lp_Chiralities_Consistent>
1

> <s_lp_Variant>
AV-unprocessed.smi:416-1

> <Gold.Version>
5.8.1

> <Gold.Id.Protein>
6NUR|6NUR_protein|mol2

> <Gold.PLP.Fitness>
34.2614

> <Gold.PLP.PLP>
-28.6330

> <Gold.PLP.part.hbond>
-1.0549

> <Gold.PLP.part.metal>
0.0000

> <Gold.PLP.part.buried>
-4.5424

> <Gold.PLP.part.nonpolar>
-24.7648

> <Gold.PLP.part.repulsive>
0.6258

> <Gold.PLP.ligand.clash>
0.0000

> <Gold.PLP.ligand.torsion>
0.3591

> <Gold.PLP.Chemscore.Hbond>
1.0000

> <Gold.PLP.Chemscore.CHOScore>
1.0000

> <Gold.PLP.Chemscore.Metal>
0.0000

> <Gold.Chemscore.Hbonds>
donor molecule, donor type, donor heavy atom, donor atom, acceptor molecule, acceptor atom, score
      L1  H     7    30       P1  7948  1.00
      L1  C    20    43       P1  7948  1.00

> <Gold.PLP.Chemscore.Internal.Correction>
0.3466

> <Gold.Rescore>
     Score         DG    S(hbond)    S(metal)    S(lipo)     H(rot)  DE(clash)    DE(int)     intcor
     13.04     -13.40       1.00        0.00      72.33       1.52       0.01       0.35       ----

> <Gold.Chemscore.Fitness>
13.0413

> <Gold.Chemscore.DG>
-13.3957

> <Gold.Chemscore.ZeroCoef>
-5.4800

> <Gold.Chemscore.Hbond>
0.9993

> <Gold.Chemscore.Metal>
0.0000

> <Gold.Chemscore.Lipo>
72.3276

> <Gold.Chemscore.Internal_Hbond>
0.0000

> <Gold.Chemscore.DEClash>
0.0059

> <Gold.Chemscore.DEInternal>
0.3485

> <Gold.Chemscore.Rot>
1.5173

> <Gold.Chemscore.Internal.Correction>
   9.000000E+99

> <Gold.Chemscore.Hbonds>
donor molecule, donor type, donor heavy atom, donor atom, acceptor molecule, acceptor atom, score
      L1  H     7    30       P1  7948  1.00

> <Gold.Chemscore.Hbond.Weighted>
-3.3377

> <Gold.Chemscore.Metal.Weighted>
-0.0000

> <Gold.Chemscore.Lipo.Weighted>
-8.4623

> <Gold.Chemscore.Internal_Hbond.Weighted>
0.0000

> <Gold.Chemscore.DEClash.Weighted>
0.0059

> <Gold.Chemscore.DEInternal.Weighted>
0.3485

> <Gold.Chemscore.Rot.Weighted>
3.8843

> <Gold.Chemscore.Internal.Correction.Weighted>
   9.000000E+99

> <Gold.Protein.RotatedTorsions>
[ 6907 6896 6895 6894 ] final  -31.76 input  -60.11 | X-H torsion
[ 7974 7965 7964 7962 ] final  -19.48 input  175.53 | X-H torsion
[ 8008 7997 7996 7995 ] final   51.57 input   59.86 | X-H torsion
[ 10167 10162 10161 10158 ] final -133.90 input  -65.29 | X-H torsion
[ 10718 10713 10712 10709 ] final -164.61 input   66.30 | X-H torsion
[ 10763 10752 10751 10750 ] final -174.75 input  -60.55 | X-H torsion
[ 11005 11000 10999 10996 ] final    9.76 input  -57.11 | X-H torsion

> <Gold.Protein.ActiveResidues>
 VAL166  LYS551  ARG553  GLY616  TRP617  ASP618  TYR619  PRO620  LYS621  CYS622 
 ASP623  PHE694  ASN695  SER759  ASP760  ASP761  ALA762  ILE779  LEU786  VAL792 
 PHE793  MET794  SER795  GLU796  ALA797  LYS798  CYS799  TRP800  GLU811  SER814 

> <Gold.Protein.RotatedAtoms>
  151.0877  134.9897  159.8387 H   0  0  0  0  0  0  0  0  0  0  0  0  # atno 6907 bound_to 6896
  152.5426  134.2104  159.8757 H   0  0  0  0  0  0  0  0  0  0  0  0  # atno 6908 bound_to 6896
  151.2138  133.4497  159.2632 H   0  0  0  0  0  0  0  0  0  0  0  0  # atno 6909 bound_to 6896
  146.1839  140.4068  142.8484 H   0  0  0  0  0  0  0  0  0  0  0  0  # atno 7974 bound_to 7965
  155.4374  140.3453  155.4286 H   0  0  0  0  0  0  0  0  0  0  0  0  # atno 8008 bound_to 7997
  156.1299  140.1511  156.9111 H   0  0  0  0  0  0  0  0  0  0  0  0  # atno 8009 bound_to 7997
  154.4887  140.0847  156.7525 H   0  0  0  0  0  0  0  0  0  0  0  0  # atno 8010 bound_to 7997
  139.8935  143.6694  152.2608 H   0  0  0  0  0  0  0  0  0  0  0  0  # atno 10167 bound_to 10162
  156.6414  130.8970  151.2997 H   0  0  0  0  0  0  0  0  0  0  0  0  # atno 10718 bound_to 10713
  154.5925  135.2846  155.0621 H   0  0  0  0  0  0  0  0  0  0  0  0  # atno 10763 bound_to 10752
  154.1916  135.6440  153.5065 H   0  0  0  0  0  0  0  0  0  0  0  0  # atno 10764 bound_to 10752
  153.0126  135.5447  154.6615 H   0  0  0  0  0  0  0  0  0  0  0  0  # atno 10765 bound_to 10752
  140.5221  134.0549  155.7848 H   0  0  0  0  0  0  0  0  0  0  0  0  # atno 11005 bound_to 11000
  144.8362  140.6786  143.6259 LP  0  0  0  0  0  0  0  0  0  0  0  0  # atno 17320 bound_to 7965
  145.3997  139.1600  143.4184 LP  0  0  0  0  0  0  0  0  0  0  0  0  # atno 17321 bound_to 7965
  139.7088  144.7623  151.1146 LP  0  0  0  0  0  0  0  0  0  0  0  0  # atno 17342 bound_to 10162
  140.7722  143.5358  150.9370 LP  0  0  0  0  0  0  0  0  0  0  0  0  # atno 17343 bound_to 10162
  157.7169  130.9509  150.1291 LP  0  0  0  0  0  0  0  0  0  0  0  0  # atno 17370 bound_to 10713
  156.2156  130.3670  149.8618 LP  0  0  0  0  0  0  0  0  0  0  0  0  # atno 17371 bound_to 10713
  141.1328  133.9272  157.2498 LP  0  0  0  0  0  0  0  0  0  0  0  0  # atno 17394 bound_to 11000
  139.9600  135.0156  156.9235 LP  0  0  0  0  0  0  0  0  0  0  0  0  # atno 17395 bound_to 11000

$$$$
