AV-unprocessed.smi:1409|AV-procd|sdf|5728|dock2
  -GOLD-   22720 5363D 1   1.00000     0.00000
 Structure written by MMmdl.
 37 38  0  0  0  0  0  0  0  0  1 V2000
  151.6481  138.2455  154.4646 C   0  0  0  0  0  0  0  0  0  0  0  0
  150.2814  138.1951  154.0698 O   0  0  0  0  0  0  0  0  0  0  0  0
  149.5298  139.3528  154.1424 C   0  0  0  0  0  0  0  0  0  0  0  0
  150.1130  140.4677  154.6500 N   0  0  0  0  0  0  0  0  0  0  0  0
  149.3832  141.5994  154.7204 C   0  0  0  0  0  0  0  0  0  0  0  0
  148.0473  141.6812  154.2886 C   0  0  0  0  0  0  0  0  0  0  0  0
  147.4403  140.5271  153.7601 C   0  0  0  0  0  0  0  0  0  0  0  0
  148.1901  139.3268  153.6871 C   0  0  0  0  0  0  0  0  0  0  0  0
  147.6933  138.0981  153.1653 N   0  0  0  0  0  0  0  0  0  0  0  0
  146.4353  137.6262  153.1275 C   0  0  0  0  0  0  0  0  0  0  0  0
  145.4397  138.1984  153.5688 O   0  0  0  0  0  0  0  0  0  0  0  0
  146.3942  136.4215  152.5403 N   0  0  0  0  0  0  0  0  0  0  0  0
  145.1934  135.6182  152.3287 C   0  0  0  0  0  0  0  0  0  0  0  0
  145.2980  134.7547  151.0574 C   0  0  1  0  0  0  0  0  0  0  0  0
  146.3344  133.6233  151.2024 C   0  0  0  0  0  0  0  0  0  0  0  0
  146.1949  132.6762  150.0069 C   0  0  0  0  0  0  0  0  0  0  0  0
  144.4097  132.6603  149.5987 S   0  0  0  0  0  0  0  0  0  0  0  0
  144.2413  132.9953  148.1766 O   0  0  0  0  0  0  0  0  0  0  0  0
  143.7863  131.4583  150.1727 O   0  0  0  0  0  0  0  0  0  0  0  0
  143.9677  134.1117  150.6276 C   0  0  0  0  0  0  0  0  0  0  0  0
  152.0917  137.2563  154.3530 H   0  0  0  0  0  0  0  0  0  0  0  0
  151.7529  138.5387  155.5101 H   0  0  0  0  0  0  0  0  0  0  0  0
  152.2172  138.9352  153.8397 H   0  0  0  0  0  0  0  0  0  0  0  0
  149.8803  142.4663  155.1300 H   0  0  0  0  0  0  0  0  0  0  0  0
  147.5005  142.6100  154.3585 H   0  0  0  0  0  0  0  0  0  0  0  0
  146.4206  140.5987  153.4184 H   0  0  0  0  0  0  0  0  0  0  0  0
  148.4017  137.4816  152.7944 H   0  0  0  0  0  0  0  0  0  0  0  0
  147.2634  136.0284  152.2099 H   0  0  0  0  0  0  0  0  0  0  0  0
  145.0741  134.9717  153.1983 H   0  0  0  0  0  0  0  0  0  0  0  0
  144.3010  136.2455  152.2937 H   0  0  0  0  0  0  0  0  0  0  0  0
  145.6335  135.3911  150.2369 H   0  0  0  0  0  0  0  0  0  0  0  0
  147.3496  134.0122  151.2846 H   0  0  0  0  0  0  0  0  0  0  0  0
  146.1318  133.0662  152.1182 H   0  0  0  0  0  0  0  0  0  0  0  0
  146.7355  133.0619  149.1422 H   0  0  0  0  0  0  0  0  0  0  0  0
  146.5452  131.6655  150.2170 H   0  0  0  0  0  0  0  0  0  0  0  0
  143.4101  133.7484  151.4916 H   0  0  0  0  0  0  0  0  0  0  0  0
  143.3274  134.7905  150.0640 H   0  0  0  0  0  0  0  0  0  0  0  0
  1  2  1  0  0  0  0
  1 21  1  0  0  0  0
  1 22  1  0  0  0  0
  1 23  1  0  0  0  0
  2  3  1  0  0  0  0
  3  8  1  0  0  0  0
  3  4  2  0  0  0  0
  4  5  1  0  0  0  0
  5  6  2  0  0  0  0
  5 24  1  0  0  0  0
  6  7  1  0  0  0  0
  6 25  1  0  0  0  0
  7  8  2  0  0  0  0
  7 26  1  0  0  0  0
  8  9  1  0  0  0  0
  9 10  1  0  0  0  0
  9 27  1  0  0  0  0
 10 11  2  0  0  0  0
 10 12  1  0  0  0  0
 12 13  1  0  0  0  0
 12 28  1  0  0  0  0
 13 14  1  0  0  0  0
 13 29  1  0  0  0  0
 13 30  1  0  0  0  0
 14 20  1  0  0  0  0
 14 15  1  0  0  0  0
 14 31  1  0  0  0  0
 15 16  1  0  0  0  0
 15 32  1  0  0  0  0
 15 33  1  0  0  0  0
 16 17  1  0  0  0  0
 16 34  1  0  0  0  0
 16 35  1  0  0  0  0
 17 18  2  0  0  0  0
 17 19  2  0  0  0  0
 17 20  1  0  0  0  0
 20 36  1  0  0  0  0
 20 37  1  0  0  0  0
M  END
> <s_m_source_file>
AV-unprocessed.smi

> <i_m_source_file_index>
1409

> <i_lp_mmshare_version>
43012

> <i_f3d_flags>
0

> <s_epik_input>
W0NIM11PYzFuW2NIXVtjSF1bY0hdYzFbTkhdQyg9TylbTkhdW0NIMl1bQ0BASF0oW0NIMl0yKVtDSDJdW0NIMl1TMig9Tyk9Tw==

> <s_epik_cmdline>
J2VwaWtfcHl0aG9uJywgJy1waCcsICc3LjAnLCAnLXRuJywgJzgnLCAnLW1hJywgJzIwMCcsICctbWV0YWxfYmluZGluZycsICctaW1hZScsICc8aW5maWxlLm1hZT4nLCAnLW9tYWUnLCAnPG91dGZpbGUubWFlPic=

> <r_lp_tautomer_probability>
1

> <r_epik_Ionization_Penalty>
9.0549e-05

> <r_epik_Ionization_Penalty_Charging>
0

> <r_epik_Ionization_Penalty_Neutral>
9.0549e-05

> <r_epik_State_Penalty>
-0

> <r_epik_Charging_Adjusted_Penalty>
0

> <i_epik_Tot_Q>
0

> <i_epik_Tot_abs_Q>
0

> <r_epik_Metal_State_Penalty>
-0

> <b_epik_Metal_Only>
0

> <s_lp_Force_Field>
OPLS_2005

> <r_lp_Energy>
6.49732

> <b_lp_Chiralities_Consistent>
1

> <s_lp_Variant>
AV-unprocessed.smi:1409-2

> <Gold.Version>
5.8.1

> <Gold.Id.Protein>
6NUR|6NUR_protein|mol2

> <Gold.PLP.Fitness>
46.6905

> <Gold.PLP.PLP>
-33.1227

> <Gold.PLP.part.hbond>
-5.0000

> <Gold.PLP.part.metal>
0.0000

> <Gold.PLP.part.buried>
-1.8274

> <Gold.PLP.part.nonpolar>
-29.5334

> <Gold.PLP.part.repulsive>
4.4590

> <Gold.PLP.ligand.clash>
0.0000

> <Gold.PLP.ligand.torsion>
0.4170

> <Gold.PLP.Chemscore.Hbond>
3.8336

> <Gold.PLP.Chemscore.CHOScore>
0.9613

> <Gold.PLP.Chemscore.Metal>
0.0000

> <Gold.Chemscore.Hbonds>
donor molecule, donor type, donor heavy atom, donor atom, acceptor molecule, acceptor atom, score
      L1  H     9    27       P1  7948  1.00
      L1  H    12    28       P1  7948  1.00
      P1  H  7918  7932       L1    18  0.12
      P1  H  7989  7998       L1     4  0.93
      P1  H 10785 10796       L1    19  0.78
      L1  C     5    24       P1  8028  0.96

> <Gold.PLP.Chemscore.Internal.Correction>
0.0171

> <Gold.Rescore>
     Score         DG    S(hbond)    S(metal)    S(lipo)     H(rot)  DE(clash)    DE(int)     intcor
     17.29     -20.69       3.36        0.00      68.96       1.59       2.16       1.24       ----

> <Gold.Chemscore.Fitness>
17.2863

> <Gold.Chemscore.DG>
-20.6875

> <Gold.Chemscore.ZeroCoef>
-5.4800

> <Gold.Chemscore.Hbond>
3.3577

> <Gold.Chemscore.Metal>
0.0000

> <Gold.Chemscore.Lipo>
68.9597

> <Gold.Chemscore.Internal_Hbond>
0.0000

> <Gold.Chemscore.DEClash>
2.1564

> <Gold.Chemscore.DEInternal>
1.2449

> <Gold.Chemscore.Rot>
1.5919

> <Gold.Chemscore.Internal.Correction>
   9.000000E+99

> <Gold.Chemscore.Hbonds>
donor molecule, donor type, donor heavy atom, donor atom, acceptor molecule, acceptor atom, score
      L1  H     9    27       P1  7948  0.98
      L1  H    12    28       P1  7948  0.94
      P1  H  7918  7932       L1    18  0.12
      P1  H  7989  7998       L1     4  0.27
      P1  H 10785 10796       L1    19  0.62

> <Gold.Chemscore.Hbond.Weighted>
-11.2146

> <Gold.Chemscore.Metal.Weighted>
-0.0000

> <Gold.Chemscore.Lipo.Weighted>
-8.0683

> <Gold.Chemscore.Internal_Hbond.Weighted>
0.0000

> <Gold.Chemscore.DEClash.Weighted>
2.1564

> <Gold.Chemscore.DEInternal.Weighted>
1.2449

> <Gold.Chemscore.Rot.Weighted>
4.0754

> <Gold.Chemscore.Internal.Correction.Weighted>
   9.000000E+99

> <Gold.Protein.RotatedTorsions>
[ 6907 6896 6895 6894 ] final -166.36 input  -60.11 | X-H torsion
[ 7974 7965 7964 7962 ] final   49.87 input  175.53 | X-H torsion
[ 8008 7997 7996 7995 ] final   -4.80 input   59.86 | X-H torsion
[ 10167 10162 10161 10158 ] final  -49.05 input  -65.29 | X-H torsion
[ 10718 10713 10712 10709 ] final   36.22 input   66.30 | X-H torsion
[ 10763 10752 10751 10750 ] final  -47.88 input  -60.55 | X-H torsion
[ 11005 11000 10999 10996 ] final  123.01 input  -57.11 | X-H torsion

> <Gold.Protein.ActiveResidues>
 VAL166  LYS551  ARG553  GLY616  TRP617  ASP618  TYR619  PRO620  LYS621  CYS622 
 ASP623  PHE694  ASN695  SER759  ASP760  ASP761  ALA762  ILE779  LEU786  VAL792 
 PHE793  MET794  SER795  GLU796  ALA797  LYS798  CYS799  TRP800  GLU811  SER814 

> <Gold.Protein.RotatedAtoms>
  151.4423  133.3640  159.2783 H   0  0  0  0  0  0  0  0  0  0  0  0  # atno 6907 bound_to 6896
  150.9149  134.8568  159.7461 H   0  0  0  0  0  0  0  0  0  0  0  0  # atno 6908 bound_to 6896
  152.4952  134.4356  159.9578 H   0  0  0  0  0  0  0  0  0  0  0  0  # atno 6909 bound_to 6896
  146.0067  139.4498  142.9981 H   0  0  0  0  0  0  0  0  0  0  0  0  # atno 7974 bound_to 7965
  154.6105  140.2474  155.7675 H   0  0  0  0  0  0  0  0  0  0  0  0  # atno 8008 bound_to 7997
  156.2367  140.2947  156.0283 H   0  0  0  0  0  0  0  0  0  0  0  0  # atno 8009 bound_to 7997
  155.2060  140.0396  157.2916 H   0  0  0  0  0  0  0  0  0  0  0  0  # atno 8010 bound_to 7997
  140.6703  143.2714  151.4160 H   0  0  0  0  0  0  0  0  0  0  0  0  # atno 10167 bound_to 10162
  157.3322  130.7503  149.6855 H   0  0  0  0  0  0  0  0  0  0  0  0  # atno 10718 bound_to 10713
  154.0686  135.6608  153.4821 H   0  0  0  0  0  0  0  0  0  0  0  0  # atno 10763 bound_to 10752
  153.0399  135.5152  154.7588 H   0  0  0  0  0  0  0  0  0  0  0  0  # atno 10764 bound_to 10752
  154.6647  135.3020  154.9788 H   0  0  0  0  0  0  0  0  0  0  0  0  # atno 10765 bound_to 10752
  139.9293  134.9641  156.8195 H   0  0  0  0  0  0  0  0  0  0  0  0  # atno 11005 bound_to 11000
  145.7405  141.0010  143.1303 LP  0  0  0  0  0  0  0  0  0  0  0  0  # atno 17320 bound_to 7965
  144.6938  139.9093  143.7462 LP  0  0  0  0  0  0  0  0  0  0  0  0  # atno 17321 bound_to 7965
  139.5968  144.1380  152.2153 LP  0  0  0  0  0  0  0  0  0  0  0  0  # atno 17342 bound_to 10162
  140.0752  144.5746  150.7162 LP  0  0  0  0  0  0  0  0  0  0  0  0  # atno 17343 bound_to 10162
  155.9697  130.4192  150.4363 LP  0  0  0  0  0  0  0  0  0  0  0  0  # atno 17370 bound_to 10713
  157.2397  131.0522  151.2444 LP  0  0  0  0  0  0  0  0  0  0  0  0  # atno 17371 bound_to 10713
  140.6246  133.9962  155.7634 LP  0  0  0  0  0  0  0  0  0  0  0  0  # atno 17394 bound_to 11000
  141.0872  133.9972  157.3295 LP  0  0  0  0  0  0  0  0  0  0  0  0  # atno 17395 bound_to 11000

$$$$
