AV-unprocessed.smi:2025|AV-procd|sdf|8197|dock2
  -GOLD-   2272010453D 1   1.00000     0.00000
 Structure written by MMmdl.
 39 40  0  0  0  0  0  0  0  0  1 V2000
  154.4414  141.2044  160.0718 C   0  0  0  0  0  0  0  0  0  0  0  0
  153.0154  141.7539  159.9127 C   0  0  2  0  0  0  0  0  0  0  0  0
  152.5461  141.4451  158.5637 N   0  0  0  0  0  0  0  0  0  0  0  0
  152.2706  140.2189  158.0931 C   0  0  0  0  0  0  0  0  0  0  0  0
  152.3819  139.1935  158.7666 O   0  0  0  0  0  0  0  0  0  0  0  0
  151.7669  140.1525  156.6451 C   0  0  0  0  0  0  0  0  0  0  0  0
  150.3696  140.5824  156.5042 N   0  0  0  0  0  0  0  0  0  0  0  0
  149.6639  140.9902  157.6218 C   0  0  0  0  0  0  0  0  0  0  0  0
  148.3725  141.3839  157.5848 C   0  0  0  0  0  0  0  0  0  0  0  0
  147.6342  141.4033  156.3283 C   0  0  0  0  0  0  0  0  0  0  0  0
  146.4541  141.7458  156.2404 O   0  0  0  0  0  0  0  0  0  0  0  0
  148.3793  140.9899  155.2003 N   0  0  0  0  0  0  0  0  0  0  0  0
  147.6824  140.9937  153.9309 C   0  0  0  0  0  0  0  0  0  0  0  0
  149.7286  140.5675  155.2460 C   0  0  0  0  0  0  0  0  0  0  0  0
  150.3390  140.1935  154.2417 O   0  0  0  0  0  0  0  0  0  0  0  0
  152.9398  143.2752  160.1611 C   0  0  2  0  0  0  0  0  0  0  0  0
  151.7775  143.7163  161.0524 C   0  0  0  0  0  0  0  0  0  0  0  0
  151.5968  145.1571  160.6342 C   0  0  0  0  0  0  0  0  0  0  0  0
  151.8466  145.0788  159.1319 C   0  0  0  0  0  0  0  0  0  0  0  0
  152.7330  143.9801  158.9375 O   0  0  0  0  0  0  0  0  0  0  0  0
  154.8170  141.3586  161.0834 H   0  0  0  0  0  0  0  0  0  0  0  0
  155.1336  141.6884  159.3819 H   0  0  0  0  0  0  0  0  0  0  0  0
  154.4715  140.1320  159.8763 H   0  0  0  0  0  0  0  0  0  0  0  0
  152.3846  141.2476  160.6458 H   0  0  0  0  0  0  0  0  0  0  0  0
  152.4157  142.2282  157.9401 H   0  0  0  0  0  0  0  0  0  0  0  0
  152.4129  140.7834  156.0330 H   0  0  0  0  0  0  0  0  0  0  0  0
  151.8902  139.1405  156.2550 H   0  0  0  0  0  0  0  0  0  0  0  0
  150.1682  140.9891  158.5773 H   0  0  0  0  0  0  0  0  0  0  0  0
  147.8788  141.6865  158.4966 H   0  0  0  0  0  0  0  0  0  0  0  0
  148.3641  140.7973  153.1040 H   0  0  0  0  0  0  0  0  0  0  0  0
  147.2409  141.9832  153.7998 H   0  0  0  0  0  0  0  0  0  0  0  0
  146.9161  140.2188  153.9854 H   0  0  0  0  0  0  0  0  0  0  0  0
  153.8754  143.6343  160.5933 H   0  0  0  0  0  0  0  0  0  0  0  0
  150.8764  143.1460  160.8213 H   0  0  0  0  0  0  0  0  0  0  0  0
  151.9900  143.6062  162.1161 H   0  0  0  0  0  0  0  0  0  0  0  0
  150.6141  145.5584  160.8831 H   0  0  0  0  0  0  0  0  0  0  0  0
  152.3537  145.7822  161.1101 H   0  0  0  0  0  0  0  0  0  0  0  0
  150.9178  144.8703  158.5999 H   0  0  0  0  0  0  0  0  0  0  0  0
  152.2651  146.0030  158.7330 H   0  0  0  0  0  0  0  0  0  0  0  0
  1  2  1  0  0  0  0
  1 21  1  0  0  0  0
  1 22  1  0  0  0  0
  1 23  1  0  0  0  0
  2  3  1  0  0  0  0
  2 16  1  0  0  0  0
  2 24  1  0  0  0  0
  3  4  1  0  0  0  0
  3 25  1  0  0  0  0
  4  5  2  0  0  0  0
  4  6  1  0  0  0  0
  6  7  1  0  0  0  0
  6 26  1  0  0  0  0
  6 27  1  0  0  0  0
  7 14  1  0  0  0  0
  7  8  1  0  0  0  0
  8  9  2  0  0  0  0
  8 28  1  0  0  0  0
  9 10  1  0  0  0  0
  9 29  1  0  0  0  0
 10 11  2  0  0  0  0
 10 12  1  0  0  0  0
 12 13  1  0  0  0  0
 12 14  1  0  0  0  0
 13 30  1  0  0  0  0
 13 31  1  0  0  0  0
 13 32  1  0  0  0  0
 14 15  2  0  0  0  0
 16 20  1  0  0  0  0
 16 17  1  0  0  0  0
 16 33  1  0  0  0  0
 17 18  1  0  0  0  0
 17 34  1  0  0  0  0
 17 35  1  0  0  0  0
 18 19  1  0  0  0  0
 18 36  1  0  0  0  0
 18 37  1  0  0  0  0
 19 20  1  0  0  0  0
 19 38  1  0  0  0  0
 19 39  1  0  0  0  0
M  END
> <s_m_source_file>
AV-unprocessed.smi

> <i_m_source_file_index>
2025

> <i_lp_mmshare_version>
43012

> <i_f3d_flags>
0

> <s_epik_input>
TzFbQ0gyXVtDSDJdW0NIMl1bQ0BIXTFbQ0BIXShbQ0gzXSlbTkhdQyg9TylbQ0gyXW4yW2NIXVtjSF1jKD1PKW4oW0NIM10pYzI9Tw==

> <s_epik_cmdline>
J2VwaWtfcHl0aG9uJywgJy1waCcsICc3LjAnLCAnLXRuJywgJzgnLCAnLW1hJywgJzIwMCcsICctbWV0YWxfYmluZGluZycsICctaW1hZScsICc8aW5maWxlLm1hZT4nLCAnLW9tYWUnLCAnPG91dGZpbGUubWFlPic=

> <r_lp_tautomer_probability>
1

> <r_epik_Ionization_Penalty>
3.54787e-08

> <r_epik_Ionization_Penalty_Charging>
1.24654e-08

> <r_epik_Ionization_Penalty_Neutral>
2.30132e-08

> <r_epik_State_Penalty>
-0

> <r_epik_Charging_Adjusted_Penalty>
1.24654e-08

> <i_epik_Tot_Q>
0

> <i_epik_Tot_abs_Q>
0

> <r_epik_Metal_State_Penalty>
-0

> <b_epik_Metal_Only>
0

> <s_lp_Force_Field>
OPLS_2005

> <r_lp_Energy>
25.7594

> <b_lp_Chiralities_Consistent>
1

> <s_lp_Variant>
AV-unprocessed.smi:2025-1

> <Gold.Version>
5.8.1

> <Gold.Id.Protein>
6NUR|6NUR_protein|mol2

> <Gold.PLP.Fitness>
42.3222

> <Gold.PLP.PLP>
-42.5251

> <Gold.PLP.part.hbond>
-0.7914

> <Gold.PLP.part.metal>
0.0000

> <Gold.PLP.part.buried>
-5.6531

> <Gold.PLP.part.nonpolar>
-36.1867

> <Gold.PLP.part.repulsive>
0.7633

> <Gold.PLP.ligand.clash>
0.0000

> <Gold.PLP.ligand.torsion>
1.6112

> <Gold.PLP.Chemscore.Hbond>
1.0000

> <Gold.PLP.Chemscore.CHOScore>
0.0000

> <Gold.PLP.Chemscore.Metal>
0.0000

> <Gold.Chemscore.Hbonds>
donor molecule, donor type, donor heavy atom, donor atom, acceptor molecule, acceptor atom, score
      P1  H  7989  7998       L1    15  1.00

> <Gold.PLP.Chemscore.Internal.Correction>
0.0195

> <Gold.Rescore>
     Score         DG    S(hbond)    S(metal)    S(lipo)     H(rot)  DE(clash)    DE(int)     intcor
     12.76     -14.67       0.99        0.00      90.18       1.82       0.00       1.91       ----

> <Gold.Chemscore.Fitness>
12.7558

> <Gold.Chemscore.DG>
-14.6653

> <Gold.Chemscore.ZeroCoef>
-5.4800

> <Gold.Chemscore.Hbond>
0.9882

> <Gold.Chemscore.Metal>
0.0000

> <Gold.Chemscore.Lipo>
90.1810

> <Gold.Chemscore.Internal_Hbond>
0.0000

> <Gold.Chemscore.DEClash>
0.0000

> <Gold.Chemscore.DEInternal>
1.9095

> <Gold.Chemscore.Rot>
1.8228

> <Gold.Chemscore.Internal.Correction>
   9.000000E+99

> <Gold.Chemscore.Hbonds>
donor molecule, donor type, donor heavy atom, donor atom, acceptor molecule, acceptor atom, score
      P1  H  7989  7998       L1    15  0.96

> <Gold.Chemscore.Hbond.Weighted>
-3.3006

> <Gold.Chemscore.Metal.Weighted>
-0.0000

> <Gold.Chemscore.Lipo.Weighted>
-10.5512

> <Gold.Chemscore.Internal_Hbond.Weighted>
0.0000

> <Gold.Chemscore.DEClash.Weighted>
0.0000

> <Gold.Chemscore.DEInternal.Weighted>
1.9095

> <Gold.Chemscore.Rot.Weighted>
4.6665

> <Gold.Chemscore.Internal.Correction.Weighted>
   9.000000E+99

> <Gold.Protein.RotatedTorsions>
[ 6907 6896 6895 6894 ] final   74.22 input  -60.11 | X-H torsion
[ 7974 7965 7964 7962 ] final    4.20 input  175.53 | X-H torsion
[ 8008 7997 7996 7995 ] final -141.76 input   59.86 | X-H torsion
[ 10167 10162 10161 10158 ] final  112.18 input  -65.29 | X-H torsion
[ 10718 10713 10712 10709 ] final  130.22 input   66.30 | X-H torsion
[ 10763 10752 10751 10750 ] final -160.70 input  -60.55 | X-H torsion
[ 11005 11000 10999 10996 ] final -141.83 input  -57.11 | X-H torsion

> <Gold.Protein.ActiveResidues>
 VAL166  LYS551  ARG553  GLY616  TRP617  ASP618  TYR619  PRO620  LYS621  CYS622 
 ASP623  PHE694  ASN695  SER759  ASP760  ASP761  ALA762  ILE779  LEU786  VAL792 
 PHE793  MET794  SER795  GLU796  ALA797  LYS798  CYS799  TRP800  GLU811  SER814 

> <Gold.Protein.RotatedAtoms>
  152.4964  134.4304  159.9509 H   0  0  0  0  0  0  0  0  0  0  0  0  # atno 6907 bound_to 6896
  151.4282  133.3672  159.2773 H   0  0  0  0  0  0  0  0  0  0  0  0  # atno 6908 bound_to 6896
  150.9174  134.8614  159.7525 H   0  0  0  0  0  0  0  0  0  0  0  0  # atno 6909 bound_to 6896
  146.2444  140.0570  142.8371 H   0  0  0  0  0  0  0  0  0  0  0  0  # atno 7974 bound_to 7965
  155.4831  140.0562  157.2964 H   0  0  0  0  0  0  0  0  0  0  0  0  # atno 8008 bound_to 7997
  154.4652  140.2015  156.0089 H   0  0  0  0  0  0  0  0  0  0  0  0  # atno 8009 bound_to 7997
  156.0962  140.3226  155.7885 H   0  0  0  0  0  0  0  0  0  0  0  0  # atno 8010 bound_to 7997
  139.6555  144.7129  151.1965 H   0  0  0  0  0  0  0  0  0  0  0  0  # atno 10167 bound_to 10162
  157.5082  131.1096  150.9331 H   0  0  0  0  0  0  0  0  0  0  0  0  # atno 10718 bound_to 10713
  154.7367  135.3059  154.8799 H   0  0  0  0  0  0  0  0  0  0  0  0  # atno 10763 bound_to 10752
  153.9625  135.6751  153.4749 H   0  0  0  0  0  0  0  0  0  0  0  0  # atno 10764 bound_to 10752
  153.0969  135.4931  154.8719 H   0  0  0  0  0  0  0  0  0  0  0  0  # atno 10765 bound_to 10752
  140.8285  134.2545  157.4868 H   0  0  0  0  0  0  0  0  0  0  0  0  # atno 11005 bound_to 11000
  145.0934  140.9299  143.4755 LP  0  0  0  0  0  0  0  0  0  0  0  0  # atno 17320 bound_to 7965
  145.0747  139.3004  143.5814 LP  0  0  0  0  0  0  0  0  0  0  0  0  # atno 17321 bound_to 7965
  140.7557  143.6079  150.8634 LP  0  0  0  0  0  0  0  0  0  0  0  0  # atno 17342 bound_to 10162
  139.9732  143.6034  152.2967 LP  0  0  0  0  0  0  0  0  0  0  0  0  # atno 17343 bound_to 10162
  156.9980  130.5589  149.5309 LP  0  0  0  0  0  0  0  0  0  0  0  0  # atno 17370 bound_to 10713
  156.0272  130.5365  150.8437 LP  0  0  0  0  0  0  0  0  0  0  0  0  # atno 17371 bound_to 10713
  139.8705  134.9573  156.4266 LP  0  0  0  0  0  0  0  0  0  0  0  0  # atno 17394 bound_to 11000
  140.9023  133.7770  155.9694 LP  0  0  0  0  0  0  0  0  0  0  0  0  # atno 17395 bound_to 11000

$$$$
