AV-unprocessed.smi:103|AV-procd|sdf|987|dock6
  -GOLD-   2262017563D 1   1.00000     0.00000
 Structure written by MMmdl.
 53 55  0  0  0  0  0  0  0  0  1 V2000
  147.5324  135.6171  160.2338 C   0  0  0  0  0  0  0  0  0  0  0  0
  147.2729  136.6448  159.1400 C   0  0  0  0  0  0  0  0  0  0  0  0
  147.5598  137.8323  159.2923 O   0  0  0  0  0  0  0  0  0  0  0  0
  146.7189  136.1004  158.0460 O   0  0  0  0  0  0  0  0  0  0  0  0
  146.5014  136.9052  156.8989 C   0  0  0  0  0  0  0  0  0  0  0  0
  145.3631  136.3086  156.0589 C   0  0  2  0  0  0  0  0  0  0  0  0
  145.7529  135.0768  155.4704 O   0  0  0  0  0  0  0  0  0  0  0  0
  144.8623  134.7971  154.4410 C   0  0  2  0  0  0  0  0  0  0  0  0
  145.5542  133.9240  153.4454 N   0  0  0  0  0  0  0  0  0  0  0  0
  146.8330  133.4043  153.4555 C   0  0  0  0  0  0  0  0  0  0  0  0
  148.0804  133.6722  154.7094 S   0  0  0  0  0  0  0  0  0  0  0  0
  149.5038  132.7214  154.0389 C   0  0  0  0  0  0  0  0  0  0  0  0
  148.4051  135.1065  154.6968 O   0  0  0  0  0  0  0  0  0  0  0  0
  147.5996  133.0255  155.9405 O   0  0  0  0  0  0  0  0  0  0  0  0
  147.1947  132.7211  152.4031 N   0  0  0  0  0  0  0  0  0  0  0  0
  146.0465  132.7126  151.6234 C   0  0  0  0  0  0  0  0  0  0  0  0
  145.7094  132.1428  150.3699 C   0  0  0  0  0  0  0  0  0  0  0  0
  146.5704  131.4208  149.6394 N   0  0  0  0  0  0  0  0  0  0  0  0
  144.4596  132.3349  149.8870 N   0  0  0  0  0  0  0  0  0  0  0  0
  143.5818  133.0522  150.5962 C   0  0  0  0  0  0  0  0  0  0  0  0
  143.7522  133.6491  151.7788 N   0  0  0  0  0  0  0  0  0  0  0  0
  145.0133  133.4533  152.2656 C   0  0  0  0  0  0  0  0  0  0  0  0
  144.4874  136.1470  153.8090 C   0  0  1  0  0  0  0  0  0  0  0  0
  143.1242  136.2172  153.3809 O   0  0  0  0  0  0  0  0  0  0  0  0
  142.0703  136.0588  154.2125 C   0  0  0  0  0  0  0  0  0  0  0  0
  140.7419  136.2845  153.5041 C   0  0  0  0  0  0  0  0  0  0  0  0
  142.1158  135.7586  155.4049 O   0  0  0  0  0  0  0  0  0  0  0  0
  144.9077  137.1715  154.8693 C   0  0  2  0  0  0  0  0  0  0  0  0
  145.9759  137.9688  154.3683 O   0  0  0  0  0  0  0  0  0  0  0  0
  146.2526  139.1603  154.9253 C   0  0  0  0  0  0  0  0  0  0  0  0
  147.3779  139.8889  154.2038 C   0  0  0  0  0  0  0  0  0  0  0  0
  145.6886  139.6526  155.9026 O   0  0  0  0  0  0  0  0  0  0  0  0
  146.6714  134.9594  160.3516 H   0  0  0  0  0  0  0  0  0  0  0  0
  147.7208  136.1120  161.1869 H   0  0  0  0  0  0  0  0  0  0  0  0
  148.4018  135.0098  159.9814 H   0  0  0  0  0  0  0  0  0  0  0  0
  146.2298  137.9110  157.2228 H   0  0  0  0  0  0  0  0  0  0  0  0
  147.4152  136.9844  156.3081 H   0  0  0  0  0  0  0  0  0  0  0  0
  144.4998  136.1195  156.6988 H   0  0  0  0  0  0  0  0  0  0  0  0
  144.0287  134.2210  154.8365 H   0  0  0  0  0  0  0  0  0  0  0  0
  150.3484  132.8042  154.7224 H   0  0  0  0  0  0  0  0  0  0  0  0
  149.7849  133.1189  153.0643 H   0  0  0  0  0  0  0  0  0  0  0  0
  149.2227  131.6734  153.9354 H   0  0  0  0  0  0  0  0  0  0  0  0
  147.5087  131.2623  149.9779 H   0  0  0  0  0  0  0  0  0  0  0  0
  146.2793  131.0349  148.7529 H   0  0  0  0  0  0  0  0  0  0  0  0
  142.6041  133.1665  150.1520 H   0  0  0  0  0  0  0  0  0  0  0  0
  145.1044  136.2879  152.9209 H   0  0  0  0  0  0  0  0  0  0  0  0
  140.7331  137.2582  153.0138 H   0  0  0  0  0  0  0  0  0  0  0  0
  139.9167  136.2482  154.2156 H   0  0  0  0  0  0  0  0  0  0  0  0
  140.5820  135.5139  152.7499 H   0  0  0  0  0  0  0  0  0  0  0  0
  144.0844  137.8160  155.1811 H   0  0  0  0  0  0  0  0  0  0  0  0
  148.2807  139.2781  154.1958 H   0  0  0  0  0  0  0  0  0  0  0  0
  147.6033  140.8326  154.7006 H   0  0  0  0  0  0  0  0  0  0  0  0
  147.0919  140.1002  153.1733 H   0  0  0  0  0  0  0  0  0  0  0  0
  1  2  1  0  0  0  0
  1 33  1  0  0  0  0
  1 34  1  0  0  0  0
  1 35  1  0  0  0  0
  2  3  2  0  0  0  0
  2  4  1  0  0  0  0
  4  5  1  0  0  0  0
  5  6  1  0  0  0  0
  5 36  1  0  0  0  0
  5 37  1  0  0  0  0
  6 28  1  0  0  0  0
  6  7  1  0  0  0  0
  6 38  1  0  0  0  0
  7  8  1  0  0  0  0
  8  9  1  0  0  0  0
  8 23  1  0  0  0  0
  8 39  1  0  0  0  0
  9 22  1  0  0  0  0
  9 10  1  0  0  0  0
 10 11  1  0  0  0  0
 10 15  2  0  0  0  0
 11 12  1  0  0  0  0
 11 13  2  0  0  0  0
 11 14  2  0  0  0  0
 12 40  1  0  0  0  0
 12 41  1  0  0  0  0
 12 42  1  0  0  0  0
 15 16  1  0  0  0  0
 16 22  2  0  0  0  0
 16 17  1  0  0  0  0
 17 18  1  0  0  0  0
 17 19  2  0  0  0  0
 18 43  1  0  0  0  0
 18 44  1  0  0  0  0
 19 20  1  0  0  0  0
 20 21  2  0  0  0  0
 20 45  1  0  0  0  0
 21 22  1  0  0  0  0
 23 24  1  0  0  0  0
 23 28  1  0  0  0  0
 23 46  1  0  0  0  0
 24 25  1  0  0  0  0
 25 26  1  0  0  0  0
 25 27  2  0  0  0  0
 26 47  1  0  0  0  0
 26 48  1  0  0  0  0
 26 49  1  0  0  0  0
 28 29  1  0  0  0  0
 28 50  1  0  0  0  0
 29 30  1  0  0  0  0
 30 31  1  0  0  0  0
 30 32  2  0  0  0  0
 31 51  1  0  0  0  0
 31 52  1  0  0  0  0
 31 53  1  0  0  0  0
M  END
> <s_m_source_file>
AV-unprocessed.smi

> <i_m_source_file_index>
103

> <i_lp_mmshare_version>
43012

> <i_f3d_flags>
0

> <s_epik_input>
W0NIM11DKD1PKU9bQ0gyXVtDQEBIXTFPW0NASF0oW0NAQEhdKE9DKD1PKVtDSDNdKVtDQEhdMU9DKD1PKVtDSDNdKW4oYyhuMilTKD1PKSg9TylbQ0gzXSljKGMyMyluW2NIXW5jM1tOSDJd

> <s_epik_cmdline>
J2VwaWtfcHl0aG9uJywgJy1waCcsICc3LjAnLCAnLXRuJywgJzgnLCAnLW1hJywgJzIwMCcsICctbWV0YWxfYmluZGluZycsICctaW1hZScsICc8aW5maWxlLm1hZT4nLCAnLW9tYWUnLCAnPG91dGZpbGUubWFlPic=

> <r_lp_tautomer_probability>
1

> <r_epik_Ionization_Penalty>
1.51338e-05

> <r_epik_Ionization_Penalty_Charging>
0

> <r_epik_Ionization_Penalty_Neutral>
1.51338e-05

> <r_epik_State_Penalty>
-0

> <r_epik_Charging_Adjusted_Penalty>
0

> <i_epik_Tot_Q>
0

> <i_epik_Tot_abs_Q>
0

> <r_epik_Metal_State_Penalty>
-0

> <b_epik_Metal_Only>
0

> <s_epik_Chemistry_Notes>
This compound has an ester and may undergo hydrolysis at high or low pH. This compound contains an acetal/aminal-like group ( X-CH(R)-Y where X, Y are N, S, or O) that may be acid/base labile, releasing an aldehyde.

> <s_lp_Force_Field>
OPLS_2005

> <r_lp_Energy>
18.7655

> <b_lp_Chiralities_Consistent>
1

> <s_lp_Variant>
AV-unprocessed.smi:103-11

> <Gold.Version>
5.8.1

> <Gold.Id.Protein>
6NUR|6NUR_protein|mol2

> <Gold.PLP.Fitness>
34.7617

> <Gold.PLP.PLP>
-28.1220

> <Gold.PLP.part.hbond>
-2.9676

> <Gold.PLP.part.metal>
0.0000

> <Gold.PLP.part.buried>
-7.9369

> <Gold.PLP.part.nonpolar>
-19.2298

> <Gold.PLP.part.repulsive>
1.5669

> <Gold.PLP.ligand.clash>
0.0000

> <Gold.PLP.ligand.torsion>
1.6930

> <Gold.PLP.Chemscore.Hbond>
1.5680

> <Gold.PLP.Chemscore.CHOScore>
1.0000

> <Gold.PLP.Chemscore.Metal>
0.0000

> <Gold.Chemscore.Hbonds>
donor molecule, donor type, donor heavy atom, donor atom, acceptor molecule, acceptor atom, score
      L1  H    18    43       P1 10747  1.00
      P1  H  6934  6947       L1     3  0.54
      P1  H 11000 11005       L1    27  0.02
      L1  C    20    45       P1 10186  1.00

> <Gold.PLP.Chemscore.Internal.Correction>
2.3216

> <Gold.Rescore>
     Score         DG    S(hbond)    S(metal)    S(lipo)     H(rot)  DE(clash)    DE(int)     intcor
     -0.21      -6.24       2.62        0.00      24.72       4.25       0.00       6.45       ----

> <Gold.Chemscore.Fitness>
-0.2130

> <Gold.Chemscore.DG>
-6.2399

> <Gold.Chemscore.ZeroCoef>
-5.4800

> <Gold.Chemscore.Hbond>
2.6157

> <Gold.Chemscore.Metal>
0.0000

> <Gold.Chemscore.Lipo>
24.7201

> <Gold.Chemscore.Internal_Hbond>
0.0000

> <Gold.Chemscore.DEClash>
0.0000

> <Gold.Chemscore.DEInternal>
6.4529

> <Gold.Chemscore.Rot>
4.2456

> <Gold.Chemscore.Internal.Correction>
   9.000000E+99

> <Gold.Chemscore.Hbonds>
donor molecule, donor type, donor heavy atom, donor atom, acceptor molecule, acceptor atom, score
      L1  H    18    43       P1 10747  0.93
      P1  H  6934  6947       L1     3  0.50
      P1  H 11000 11005       L1    27  0.03

> <Gold.Chemscore.Hbond.Weighted>
-8.7363

> <Gold.Chemscore.Metal.Weighted>
-0.0000

> <Gold.Chemscore.Lipo.Weighted>
-2.8922

> <Gold.Chemscore.Internal_Hbond.Weighted>
0.0000

> <Gold.Chemscore.DEClash.Weighted>
0.0000

> <Gold.Chemscore.DEInternal.Weighted>
6.4529

> <Gold.Chemscore.Rot.Weighted>
10.8687

> <Gold.Chemscore.Internal.Correction.Weighted>
   9.000000E+99

> <Gold.Protein.RotatedTorsions>
[ 6907 6896 6895 6894 ] final   70.77 input  -60.11 | X-H torsion
[ 7974 7965 7964 7962 ] final -151.81 input  175.53 | X-H torsion
[ 8008 7997 7996 7995 ] final  125.21 input   59.86 | X-H torsion
[ 10167 10162 10161 10158 ] final  -40.74 input  -65.29 | X-H torsion
[ 10718 10713 10712 10709 ] final -130.59 input   66.30 | X-H torsion
[ 10763 10752 10751 10750 ] final  102.37 input  -60.55 | X-H torsion
[ 11005 11000 10999 10996 ] final   -5.46 input  -57.11 | X-H torsion

> <Gold.Protein.ActiveResidues>
 VAL166  LYS551  ARG553  GLY616  TRP617  ASP618  TYR619  PRO620  LYS621  CYS622 
 ASP623  PHE694  ASN695  SER759  ASP760  ASP761  ALA762  ILE779  LEU786  VAL792 
 PHE793  MET794  SER795  GLU796  ALA797  LYS798  CYS799  TRP800  GLU811  SER814 

> <Gold.Protein.RotatedAtoms>
  152.4770  134.4819  159.9667 H   0  0  0  0  0  0  0  0  0  0  0  0  # atno 6907 bound_to 6896
  151.4833  133.3535  159.2849 H   0  0  0  0  0  0  0  0  0  0  0  0  # atno 6908 bound_to 6896
  150.8815  134.8233  159.7289 H   0  0  0  0  0  0  0  0  0  0  0  0  # atno 6909 bound_to 6896
  144.7829  140.4747  143.5827 H   0  0  0  0  0  0  0  0  0  0  0  0  # atno 7974 bound_to 7965
  156.2827  140.2721  156.1913 H   0  0  0  0  0  0  0  0  0  0  0  0  # atno 8008 bound_to 7997
  155.0456  140.0386  157.2543 H   0  0  0  0  0  0  0  0  0  0  0  0  # atno 8009 bound_to 7997
  154.7238  140.2693  155.6523 H   0  0  0  0  0  0  0  0  0  0  0  0  # atno 8010 bound_to 7997
  140.7025  143.3135  151.2968 H   0  0  0  0  0  0  0  0  0  0  0  0  # atno 10167 bound_to 10162
  156.2159  130.6948  151.0702 H   0  0  0  0  0  0  0  0  0  0  0  0  # atno 10718 bound_to 10713
  153.3387  135.4013  155.1554 H   0  0  0  0  0  0  0  0  0  0  0  0  # atno 10763 bound_to 10752
  154.8639  135.3628  154.5374 H   0  0  0  0  0  0  0  0  0  0  0  0  # atno 10764 bound_to 10752
  153.5818  135.7076  153.5520 H   0  0  0  0  0  0  0  0  0  0  0  0  # atno 10765 bound_to 10752
  140.6914  133.9068  155.8621 H   0  0  0  0  0  0  0  0  0  0  0  0  # atno 11005 bound_to 11000
  145.6001  139.1503  143.3134 LP  0  0  0  0  0  0  0  0  0  0  0  0  # atno 17320 bound_to 7965
  146.2046  140.6123  142.9087 LP  0  0  0  0  0  0  0  0  0  0  0  0  # atno 17321 bound_to 7965
  139.6566  144.0265  152.2664 LP  0  0  0  0  0  0  0  0  0  0  0  0  # atno 17342 bound_to 10162
  139.9819  144.6422  150.7893 LP  0  0  0  0  0  0  0  0  0  0  0  0  # atno 17343 bound_to 10162
  157.7063  131.0755  150.6655 LP  0  0  0  0  0  0  0  0  0  0  0  0  # atno 17370 bound_to 10713
  156.6716  130.4541  149.5655 LP  0  0  0  0  0  0  0  0  0  0  0  0  # atno 17371 bound_to 10713
  141.0238  134.0852  157.4091 LP  0  0  0  0  0  0  0  0  0  0  0  0  # atno 17394 bound_to 11000
  139.8922  135.0123  156.6834 LP  0  0  0  0  0  0  0  0  0  0  0  0  # atno 17395 bound_to 11000

$$$$
