AV-unprocessed.smi:915|AV-procd|sdf|4157|dock8
  -GOLD-   22720 2 63D 1   1.00000     0.00000
 Structure written by MMmdl.
 33 34  0  0  0  0  0  0  0  0  2 V2000
  145.9204  143.4687  153.8611 C   0  0  0  0  0  0  0  0  0  0  0  0
  146.6514  142.7855  155.0223 C   0  0  0  0  0  0  0  0  0  0  0  0
  147.4688  141.6141  154.5693 C   0  0  0  0  0  0  0  0  0  0  0  0
  147.0297  140.5184  153.8756 C   0  0  0  0  0  0  0  0  0  0  0  0
  148.3238  139.3983  153.5640 S   0  0  0  0  0  0  0  0  0  0  0  0
  149.4547  140.4639  154.4018 C   0  0  0  0  0  0  0  0  0  0  0  0
  150.7631  140.1542  154.5409 N   0  5  0  0  0  0  0  0  0  0  0  0
  151.4549  140.1726  155.7088 C   0  0  0  0  0  0  0  0  0  0  0  0
  152.3732  139.4242  156.0500 O   0  0  0  0  0  0  0  0  0  0  0  0
  151.0492  141.1361  156.5463 N   0  0  0  0  0  0  0  0  0  0  0  0
  151.6146  141.3971  157.8642 C   0  0  0  0  0  0  0  0  0  0  0  0
  151.2809  142.8204  158.3393 C   0  0  1  0  0  0  0  0  0  0  0  0
  151.9703  143.1803  159.6625 C   0  0  0  0  0  0  0  0  0  0  0  0
  152.0257  144.7065  159.7374 C   0  0  0  0  0  0  0  0  0  0  0  0
  152.5020  145.1863  158.3664 C   0  0  0  0  0  0  0  0  0  0  0  0
  151.7673  144.0877  157.1293 S   0  0  0  0  0  0  0  0  0  0  0  0
  148.8347  141.5659  154.8542 N   0  0  0  0  0  0  0  0  0  0  0  0
  145.3332  144.3156  154.2162 H   0  0  0  0  0  0  0  0  0  0  0  0
  145.2399  142.7767  153.3638 H   0  0  0  0  0  0  0  0  0  0  0  0
  146.6254  143.8397  153.1167 H   0  0  0  0  0  0  0  0  0  0  0  0
  147.2887  143.5153  155.5225 H   0  0  0  0  0  0  0  0  0  0  0  0
  145.9224  142.4645  155.7670 H   0  0  0  0  0  0  0  0  0  0  0  0
  146.0303  140.3006  153.5310 H   0  0  0  0  0  0  0  0  0  0  0  0
  150.2993  141.7383  156.2397 H   0  0  0  0  0  0  0  0  0  0  0  0
  151.2124  140.6685  158.5697 H   0  0  0  0  0  0  0  0  0  0  0  0
  152.6957  141.2521  157.8337 H   0  0  0  0  0  0  0  0  0  0  0  0
  150.2032  142.9138  158.4806 H   0  0  0  0  0  0  0  0  0  0  0  0
  151.4476  142.7514  160.5182 H   0  0  0  0  0  0  0  0  0  0  0  0
  152.9869  142.7847  159.6741 H   0  0  0  0  0  0  0  0  0  0  0  0
  151.0282  145.0993  159.9382 H   0  0  0  0  0  0  0  0  0  0  0  0
  152.6802  145.0528  160.5375 H   0  0  0  0  0  0  0  0  0  0  0  0
  152.2364  146.2264  158.1767 H   0  0  0  0  0  0  0  0  0  0  0  0
  153.5868  145.0998  158.2962 H   0  0  0  0  0  0  0  0  0  0  0  0
  1  2  1  0  0  0  0
  1 18  1  0  0  0  0
  1 19  1  0  0  0  0
  1 20  1  0  0  0  0
  2  3  1  0  0  0  0
  2 21  1  0  0  0  0
  2 22  1  0  0  0  0
  3 17  1  0  0  0  0
  3  4  2  0  0  0  0
  4  5  1  0  0  0  0
  4 23  1  0  0  0  0
  5  6  1  0  0  0  0
  6  7  1  0  0  0  0
  6 17  2  0  0  0  0
  7  8  1  0  0  0  0
  8  9  2  0  0  0  0
  8 10  1  0  0  0  0
 10 11  1  0  0  0  0
 10 24  1  0  0  0  0
 11 12  1  0  0  0  0
 11 25  1  0  0  0  0
 11 26  1  0  0  0  0
 12 16  1  0  0  0  0
 12 13  1  0  0  0  0
 12 27  1  0  0  0  0
 13 14  1  0  0  0  0
 13 28  1  0  0  0  0
 13 29  1  0  0  0  0
 14 15  1  0  0  0  0
 14 30  1  0  0  0  0
 14 31  1  0  0  0  0
 15 16  1  0  0  0  0
 15 32  1  0  0  0  0
 15 33  1  0  0  0  0
M  CHG  1   7  -1
M  END
> <s_m_source_file>
AV-unprocessed.smi

> <i_m_source_file_index>
915

> <i_lp_mmshare_version>
43012

> <i_f3d_flags>
0

> <s_epik_input>
W0NIM11bQ0gyXWMxW2NIXXNjKG4xKVtOSF1DKD1PKVtOSF1bQ0gyXVtDQEBIXTJbQ0gyXVtDSDJdW0NIMl1TMg==

> <s_epik_cmdline>
J2VwaWtfcHl0aG9uJywgJy1waCcsICc3LjAnLCAnLXRuJywgJzgnLCAnLW1hJywgJzIwMCcsICctbWV0YWxfYmluZGluZycsICctaW1hZScsICc8aW5maWxlLm1hZT4nLCAnLW9tYWUnLCAnPG91dGZpbGUubWFlPic=

> <r_lp_tautomer_probability>
0.999

> <r_epik_Ionization_Penalty>
8.73043

> <r_epik_Ionization_Penalty_Charging>
6.79141

> <r_epik_Ionization_Penalty_Neutral>
1.93902

> <r_epik_State_Penalty>
6.79158

> <r_epik_Charging_Adjusted_Penalty>
13.583

> <i_epik_Tot_Q>
-1

> <i_epik_Tot_abs_Q>
1

> <r_epik_Metal_State_Penalty>
2.71141

> <b_epik_Metal_Only>
1

> <s_lp_Force_Field>
OPLS_2005

> <r_lp_Energy>
9.1846

> <b_lp_Chiralities_Consistent>
1

> <s_lp_Variant>
AV-unprocessed.smi:915-4

> <Gold.Version>
5.8.1

> <Gold.Id.Protein>
6NUR|6NUR_protein|mol2

> <Gold.PLP.Fitness>
45.0711

> <Gold.PLP.PLP>
-38.4498

> <Gold.PLP.part.hbond>
-1.9037

> <Gold.PLP.part.metal>
0.0000

> <Gold.PLP.part.buried>
-1.6899

> <Gold.PLP.part.nonpolar>
-34.8449

> <Gold.PLP.part.repulsive>
0.3172

> <Gold.PLP.ligand.clash>
0.0000

> <Gold.PLP.ligand.torsion>
0.8576

> <Gold.PLP.Chemscore.Hbond>
1.9750

> <Gold.PLP.Chemscore.CHOScore>
0.8033

> <Gold.PLP.Chemscore.Metal>
0.0000

> <Gold.Chemscore.Hbonds>
donor molecule, donor type, donor heavy atom, donor atom, acceptor molecule, acceptor atom, score
      P1  H  7989  7998       L1     7  1.00
      P1  H  7997  8009       L1     9  0.83
      L1  C     4    23       P1 10175  0.88

> <Gold.PLP.Chemscore.Internal.Correction>
0.0018

> <Gold.Rescore>
     Score         DG    S(hbond)    S(metal)    S(lipo)     H(rot)  DE(clash)    DE(int)     intcor
     15.56     -18.59       1.64        0.00      94.37       1.33       0.83       2.20       ----

> <Gold.Chemscore.Fitness>
15.5580

> <Gold.Chemscore.DG>
-18.5941

> <Gold.Chemscore.ZeroCoef>
-5.4800

> <Gold.Chemscore.Hbond>
1.6403

> <Gold.Chemscore.Metal>
0.0000

> <Gold.Chemscore.Lipo>
94.3734

> <Gold.Chemscore.Internal_Hbond>
0.0000

> <Gold.Chemscore.DEClash>
0.8327

> <Gold.Chemscore.DEInternal>
2.2034

> <Gold.Chemscore.Rot>
1.3305

> <Gold.Chemscore.Internal.Correction>
   9.000000E+99

> <Gold.Chemscore.Hbonds>
donor molecule, donor type, donor heavy atom, donor atom, acceptor molecule, acceptor atom, score
      P1  H  7989  7998       L1     7  0.46
      P1  H  7997  8009       L1     9  0.81

> <Gold.Chemscore.Hbond.Weighted>
-5.4784

> <Gold.Chemscore.Metal.Weighted>
-0.0000

> <Gold.Chemscore.Lipo.Weighted>
-11.0417

> <Gold.Chemscore.Internal_Hbond.Weighted>
0.0000

> <Gold.Chemscore.DEClash.Weighted>
0.8327

> <Gold.Chemscore.DEInternal.Weighted>
2.2034

> <Gold.Chemscore.Rot.Weighted>
3.4060

> <Gold.Chemscore.Internal.Correction.Weighted>
   9.000000E+99

> <Gold.Protein.RotatedTorsions>
[ 6907 6896 6895 6894 ] final  115.82 input  -60.11 | X-H torsion
[ 7974 7965 7964 7962 ] final -106.43 input  175.53 | X-H torsion
[ 8008 7997 7996 7995 ] final -160.80 input   59.86 | X-H torsion
[ 10167 10162 10161 10158 ] final -116.31 input  -65.29 | X-H torsion
[ 10718 10713 10712 10709 ] final  -59.51 input   66.30 | X-H torsion
[ 10763 10752 10751 10750 ] final   51.01 input  -60.55 | X-H torsion
[ 11005 11000 10999 10996 ] final   29.38 input  -57.11 | X-H torsion

> <Gold.Protein.ActiveResidues>
 VAL166  LYS551  ARG553  GLY616  TRP617  ASP618  TYR619  PRO620  LYS621  CYS622 
 ASP623  PHE694  ASN695  SER759  ASP760  ASP761  ALA762  ILE779  LEU786  VAL792 
 PHE793  MET794  SER795  GLU796  ALA797  LYS798  CYS799  TRP800  GLU811  SER814 

> <Gold.Protein.RotatedAtoms>
  152.4717  133.8045  159.6970 H   0  0  0  0  0  0  0  0  0  0  0  0  # atno 6907 bound_to 6896
  150.8710  133.7496  159.2968 H   0  0  0  0  0  0  0  0  0  0  0  0  # atno 6908 bound_to 6896
  151.5031  135.1066  159.9886 H   0  0  0  0  0  0  0  0  0  0  0  0  # atno 6909 bound_to 6896
  145.2179  140.9123  143.3276 H   0  0  0  0  0  0  0  0  0  0  0  0  # atno 7974 bound_to 7965
  155.7828  140.0867  157.2050 H   0  0  0  0  0  0  0  0  0  0  0  0  # atno 8008 bound_to 7997
  154.3989  140.1504  156.3129 H   0  0  0  0  0  0  0  0  0  0  0  0  # atno 8009 bound_to 7997
  155.8637  140.3429  155.5776 H   0  0  0  0  0  0  0  0  0  0  0  0  # atno 8010 bound_to 7997
  140.0806  143.4791  152.1928 H   0  0  0  0  0  0  0  0  0  0  0  0  # atno 10167 bound_to 10162
  156.1057  130.4181  150.0724 H   0  0  0  0  0  0  0  0  0  0  0  0  # atno 10718 bound_to 10713
  152.9785  135.5860  154.4345 H   0  0  0  0  0  0  0  0  0  0  0  0  # atno 10763 bound_to 10752
  154.3954  135.2768  155.2131 H   0  0  0  0  0  0  0  0  0  0  0  0  # atno 10764 bound_to 10752
  154.3985  135.6109  153.5938 H   0  0  0  0  0  0  0  0  0  0  0  0  # atno 10765 bound_to 10752
  140.3055  134.2708  155.7745 H   0  0  0  0  0  0  0  0  0  0  0  0  # atno 11005 bound_to 11000
  144.9793  139.3800  143.6270 LP  0  0  0  0  0  0  0  0  0  0  0  0  # atno 17320 bound_to 7965
  146.3382  139.8926  142.8806 LP  0  0  0  0  0  0  0  0  0  0  0  0  # atno 17321 bound_to 7965
  139.5782  144.7498  151.3710 LP  0  0  0  0  0  0  0  0  0  0  0  0  # atno 17342 bound_to 10162
  140.7080  143.7465  150.7515 LP  0  0  0  0  0  0  0  0  0  0  0  0  # atno 17343 bound_to 10162
  156.8701  130.9521  151.3610 LP  0  0  0  0  0  0  0  0  0  0  0  0  # atno 17370 bound_to 10713
  157.6233  130.8672  149.9146 LP  0  0  0  0  0  0  0  0  0  0  0  0  # atno 17371 bound_to 10713
  141.2119  133.7674  156.9831 LP  0  0  0  0  0  0  0  0  0  0  0  0  # atno 17394 bound_to 11000
  140.1071  134.9500  157.2010 LP  0  0  0  0  0  0  0  0  0  0  0  0  # atno 17395 bound_to 11000

$$$$
