#       Name:                AV-unprocessed.smi:290
#       Creating user name   scv26
#       Creation time:       Thu Mar 26 22:10:45 2020


#       File generated by GOLD software.
#

@<TRIPOS>MOLECULE
AV-unprocessed.smi:290
    69    72     1
SMALL
NO_CHARGES


@<TRIPOS>ATOM
      1 ****        -6.9908  -0.0372   1.7583 C.3            1 S1                 0.0000
      2 ****        -5.9144  -1.1334   1.6975 C.3            1 S1                 0.0000
      3 ****        -6.0404  -2.0233   2.8061 O.3            1 S1                 0.0000
      4 ****        -4.8350  -2.0403   3.5567 C.3            1 S1                 0.0000
      5 ****        -3.7556  -1.7022   2.5372 C.3            1 S1                 0.0000
      6 ****        -4.4416  -0.6586   1.6664 C.3            1 S1                 0.0000
      7 ****        -4.3044   0.6048   2.2974 O.3            1 S1                 0.0000
      8 ****        -3.8655  -0.5584   0.2337 C.3            1 S1                 0.0000
      9 ****        -2.4409  -0.2638   0.2030 N.pl3          1 S1                 0.0000
     10 ****        -1.4105  -1.1768   0.1783 C.2            1 S1                 0.0000
     11 ****        -0.2109  -0.6626   0.1599 N.2            1 S1                 0.0000
     12 ****        -0.4307   0.7094   0.1652 C.ar           1 S1                 0.0000
     13 ****         0.4152   1.8544   0.1577 C.ar           1 S1                 0.0000
     14 ****         1.7650   1.8200   0.1443 N.3            1 S1                 0.0000
     15 ****         2.3984   1.2312   1.3200 C.3            1 S1                 0.0000
     16 ****         3.5900   0.4233   0.8033 C.3            1 S1                 0.0000
     17 ****         3.1372   0.0191  -0.6034 C.3            1 S1                 0.0000
     18 ****         4.2148  -0.4530  -1.5227 N.4            1 S1                 1.0000
     19 ****         5.1244  -1.4374  -0.8823 C.3            1 S1                 0.0000
     20 ****         3.6728  -0.9542  -2.8166 C.3            1 S1                 0.0000
     21 ****         4.7153  -0.9679  -3.9500 C.3            1 S1                 0.0000
     22 ****         5.1372   0.3458  -4.2469 O.3            1 S1                 0.0000
     23 ****         2.3821   1.2865  -1.0672 C.3            1 S1                 0.0000
     24 ****         3.2787   2.3681  -1.6996 C.3            1 S1                 0.0000
     25 ****        -0.1676   3.0773   0.1606 N.ar           1 S1                 0.0000
     26 ****        -1.5002   3.1819   0.1752 C.ar           1 S1                 0.0000
     27 ****        -2.4140   2.2086   0.1889 N.ar           1 S1                 0.0000
     28 ****        -1.8284   0.9770   0.1841 C.ar           1 S1                 0.0000
     29 ****         2.4210  -0.7963  -0.4931 H              1 S1                 0.0000
     30 ****         1.6153   1.0120  -1.7938 H              1 S1                 0.0000
     31 ****        -6.8950   0.6526   0.9193 H              1 S1                 0.0000
     32 ****        -6.9262   0.5404   2.6809 H              1 S1                 0.0000
     33 ****        -7.9888  -0.4736   1.7168 H              1 S1                 0.0000
     34 ****        -6.1066  -1.7442   0.8146 H              1 S1                 0.0000
     35 ****        -4.8862  -1.2754   4.3329 H              1 S1                 0.0000
     36 ****        -4.6752  -3.0054   4.0377 H              1 S1                 0.0000
     37 ****        -2.8280  -1.3549   2.9942 H              1 S1                 0.0000
     38 ****        -3.5269  -2.5926   1.9498 H              1 S1                 0.0000
     39 ****        -3.3941   0.8569   2.2716 H              1 S1                 0.0000
     40 ****        -4.0231  -1.4960  -0.3009 H              1 S1                 0.0000
     41 ****        -4.3929   0.2087  -0.3350 H              1 S1                 0.0000
     42 ****        -1.5782  -2.2441   0.1801 H              1 S1                 0.0000
     43 ****         2.7184   2.0087   2.0142 H              1 S1                 0.0000
     44 ****         1.7053   0.5795   1.8538 H              1 S1                 0.0000
     45 ****         4.4758   1.0581   0.7544 H              1 S1                 0.0000
     46 ****         3.8152  -0.4276   1.4470 H              1 S1                 0.0000
     47 ****         4.5731  -2.3191  -0.5532 H              1 S1                 0.0000
     48 ****         5.6315  -1.0093  -0.0182 H              1 S1                 0.0000
     49 ****         5.9107  -1.7654  -1.5597 H              1 S1                 0.0000
     50 ****         3.2671  -1.9564  -2.6708 H              1 S1                 0.0000
     51 ****         2.8349  -0.3389  -3.1432 H              1 S1                 0.0000
     52 ****         5.5801  -1.5875  -3.7173 H              1 S1                 0.0000
     53 ****         4.2675  -1.3892  -4.8504 H              1 S1                 0.0000
     54 ****         5.7344   0.3129  -4.9793 H              1 S1                 0.0000
     55 ****         3.7181   2.0300  -2.6366 H              1 S1                 0.0000
     56 ****         4.0920   2.6618  -1.0353 H              1 S1                 0.0000
     57 ****         2.6999   3.2644  -1.9247 H              1 S1                 0.0000
     58 ****        -1.8906   4.1890   0.1786 H              1 S1                 0.0000
     59 ****         4.7734   0.3600  -1.7420 H              1 S1                 0.0000
     60 ****        -6.2341  -2.9450   2.4702 LP             1 S1                 0.0000
     61 ****        -6.7909  -1.7176   3.3922 LP             1 S1                 0.0000
     62 ****        -4.6099   0.5420   3.2476 LP             1 S1                 0.0000
     63 ****        -4.8562   1.2846   1.8142 LP             1 S1                 0.0000
     64 ****         0.6648  -1.1450   0.1454 LP             1 S1                 0.0000
     65 ****         1.9540   2.8018   0.1629 LP             1 S1                 0.0000
     66 ****         5.6000   0.7386  -3.4522 LP             1 S1                 0.0000
     67 ****         4.3451   0.9087  -4.4831 LP             1 S1                 0.0000
     68 ****         0.3988   3.9014   0.1519 LP             1 S1                 0.0000
     69 ****        -3.4020   2.3631   0.2012 LP             1 S1                 0.0000
@<TRIPOS>BOND
    1    1    2 1     
    2    1   31 1     
    3    1   32 1     
    4    1   33 1     
    5    2    6 1     
    6    2    3 1     
    7    2   34 1     
    8    3    4 1     
    9    4    5 1     
   10    4   35 1     
   11    4   36 1     
   12    5    6 1     
   13    5   37 1     
   14    5   38 1     
   15    6    7 1     
   16    6    8 1     
   17    7   39 1     
   18    8    9 1     
   19    8   40 1     
   20    8   41 1     
   21    9   28 1     
   22    9   10 1     
   23   10   11 2     
   24   10   42 1     
   25   11   12 1     
   26   12   28 ar    
   27   12   13 ar    
   28   13   14 1     
   29   13   25 ar    
   30   14   23 1     
   31   14   15 1     
   32   15   16 1     
   33   15   43 1     
   34   15   44 1     
   35   16   17 1     
   36   16   45 1     
   37   16   46 1     
   38   17   29 1     
   39   17   18 1     
   40   17   23 1     
   41   18   19 1     
   42   18   20 1     
   43   18   59 1     
   44   19   47 1     
   45   19   48 1     
   46   19   49 1     
   47   20   21 1     
   48   20   50 1     
   49   20   51 1     
   50   21   22 1     
   51   21   52 1     
   52   21   53 1     
   53   22   54 1     
   54   23   30 1     
   55   23   24 1     
   56   24   55 1     
   57   24   56 1     
   58   24   57 1     
   59   25   26 ar    
   60   26   27 ar    
   61   26   58 1     
   62   27   28 ar    
   63    3   60 1     
   64    3   61 1     
   65    7   62 1     
   66    7   63 1     
   67   11   64 1     
   68   14   65 1     
   69   22   66 1     
   70   22   67 1     
   71   25   68 1     
   72   27   69 1     
@<TRIPOS>SUBSTRUCTURE
      1 S1             1
@<TRIPOS>SET
LONE_PAIRS      STATIC     ATOMS    <user>   **** ""
10 60 61 62 63 64 65 66 67 68 69
DONOR_HYDROGENS      STATIC     ATOMS    <user>   **** ""
3 39 59 54
ATOM$BLUE        STATIC     ATOMS    COLORGROUP SYSTEM
10 60 61 62 63 64 65 66 67 68 69
ATOM$RED        STATIC     ATOMS    COLORGROUP SYSTEM
3 39 59 54
