#       Name:                AV-unprocessed.smi:2148
#       Creating user name   scv26
#       Creation time:       Fri Mar 27 11:52:38 2020


#       File generated by GOLD software.
#

@<TRIPOS>MOLECULE
AV-unprocessed.smi:2148
    50    51     1
SMALL
NO_CHARGES


@<TRIPOS>ATOM
      1 ****        -7.3544  -0.7151  -0.7234 C.3            1 S1                 0.0000
      2 ****        -5.7688  -1.5930  -0.6828 S.3            1 S1                 0.0000
      3 ****        -5.1639  -1.1234   0.9662 C.3            1 S1                 0.0000
      4 ****        -5.8848  -1.9194   2.0701 C.3            1 S1                 0.0000
      5 ****        -3.6359  -1.2508   1.0500 C.2            1 S1                 0.0000
      6 ****        -3.1227  -2.1529   1.7123 O.2            1 S1                 0.0000
      7 ****        -2.9437  -0.3100   0.3800 N.am           1 S1                 0.0000
      8 ****        -1.5364  -0.1500   0.2613 C.ar           1 S1                 0.0000
      9 ****        -0.5906  -1.1785   0.4865 C.ar           1 S1                 0.0000
     10 ****         0.7781  -0.8929   0.3211 C.ar           1 S1                 0.0000
     11 ****         1.1597   0.4105  -0.0711 C.ar           1 S1                 0.0000
     12 ****         2.5045   0.7602  -0.2496 N.3            1 S1                 0.0000
     13 ****         3.1239   0.1071  -1.3932 C.3            1 S1                 0.0000
     14 ****         4.5326   0.6824  -1.6282 C.3            1 S1                 0.0000
     15 ****         5.2722  -0.0558  -2.7489 C.3            1 S1                 0.0000
     16 ****         5.3039   0.5591  -0.4320 O.3            1 S1                 0.0000
     17 ****         4.7320   1.1848   0.7205 C.3            1 S1                 0.0000
     18 ****         4.8034   2.7205   0.6432 C.3            1 S1                 0.0000
     19 ****         3.3075   0.6468   0.9608 C.3            1 S1                 0.0000
     20 ****         0.2610   1.3906  -0.3045 N.ar           1 S1                 0.0000
     21 ****        -1.0494   1.1097  -0.1446 C.ar           1 S1                 0.0000
     22 ****        -7.8430  -0.8730  -1.6848 H              1 S1                 0.0000
     23 ****        -7.2018   0.3556  -0.5872 H              1 S1                 0.0000
     24 ****        -8.0184  -1.0761   0.0615 H              1 S1                 0.0000
     25 ****        -5.3961  -0.0670   1.1085 H              1 S1                 0.0000
     26 ****        -5.4952  -1.6724   3.0585 H              1 S1                 0.0000
     27 ****        -5.7720  -2.9946   1.9250 H              1 S1                 0.0000
     28 ****        -6.9519  -1.6994   2.0831 H              1 S1                 0.0000
     29 ****        -3.4976   0.4100  -0.0607 H              1 S1                 0.0000
     30 ****        -0.8821  -2.1782   0.7674 H              1 S1                 0.0000
     31 ****         1.5149  -1.6647   0.4883 H              1 S1                 0.0000
     32 ****         3.1829  -0.9674  -1.2141 H              1 S1                 0.0000
     33 ****         2.5060   0.2532  -2.2803 H              1 S1                 0.0000
     34 ****         4.4569   1.7332  -1.9087 H              1 S1                 0.0000
     35 ****         4.7306   0.0202  -3.6920 H              1 S1                 0.0000
     36 ****         5.3899  -1.1141  -2.5143 H              1 S1                 0.0000
     37 ****         6.2665   0.3643  -2.9021 H              1 S1                 0.0000
     38 ****         5.3479   0.8828   1.5681 H              1 S1                 0.0000
     39 ****         4.4734   3.1690   1.5805 H              1 S1                 0.0000
     40 ****         4.1724   3.1257  -0.1474 H              1 S1                 0.0000
     41 ****         5.8251   3.0535   0.4603 H              1 S1                 0.0000
     42 ****         2.8296   1.1856   1.7802 H              1 S1                 0.0000
     43 ****         3.3645  -0.4009   1.2590 H              1 S1                 0.0000
     44 ****        -1.7325   1.9228  -0.3434 H              1 S1                 0.0000
     45 ****        -3.7014  -2.8072   2.1991 LP             1 S1                 0.0000
     46 ****        -2.1270  -2.2313   1.7635 LP             1 S1                 0.0000
     47 ****         2.4834   1.7362  -0.4663 LP             1 S1                 0.0000
     48 ****         6.2002   0.9710  -0.5964 LP             1 S1                 0.0000
     49 ****         5.4159  -0.4145  -0.2335 LP             1 S1                 0.0000
     50 ****         0.5589   2.3020  -0.5887 LP             1 S1                 0.0000
@<TRIPOS>BOND
    1    1    2 1     
    2    1   22 1     
    3    1   23 1     
    4    1   24 1     
    5    2    3 1     
    6    3    4 1     
    7    3    5 1     
    8    3   25 1     
    9    4   26 1     
   10    4   27 1     
   11    4   28 1     
   12    5    6 2     
   13    5    7 am    
   14    7    8 1     
   15    7   29 1     
   16    8   21 ar    
   17    8    9 ar    
   18    9   10 ar    
   19    9   30 1     
   20   10   11 ar    
   21   10   31 1     
   22   11   12 1     
   23   11   20 ar    
   24   12   19 1     
   25   12   13 1     
   26   13   14 1     
   27   13   32 1     
   28   13   33 1     
   29   14   15 1     
   30   14   16 1     
   31   14   34 1     
   32   15   35 1     
   33   15   36 1     
   34   15   37 1     
   35   16   17 1     
   36   17   18 1     
   37   17   19 1     
   38   17   38 1     
   39   18   39 1     
   40   18   40 1     
   41   18   41 1     
   42   19   42 1     
   43   19   43 1     
   44   20   21 ar    
   45   21   44 1     
   46    6   45 1     
   47    6   46 1     
   48   12   47 1     
   49   16   48 1     
   50   16   49 1     
   51   20   50 1     
@<TRIPOS>SUBSTRUCTURE
      1 S1             1
@<TRIPOS>SET
LONE_PAIRS      STATIC     ATOMS    <user>   **** ""
6 45 46 47 48 49 50
DONOR_HYDROGENS      STATIC     ATOMS    <user>   **** ""
1 29
ATOM$BLUE        STATIC     ATOMS    COLORGROUP SYSTEM
6 45 46 47 48 49 50
ATOM$RED        STATIC     ATOMS    COLORGROUP SYSTEM
1 29
