AV-unprocessed.smi:1847|AV-procd|sdf|7517|dock4
  -GOLD-   22720 9223D 1   1.00000     0.00000
 Structure written by MMmdl.
 24 25  0  0  0  0  0  0  0  0  2 V2000
  150.4387  141.7706  158.1254 O   0  0  0  0  0  0  0  0  0  0  0  0
  151.4706  141.1637  157.8239 C   0  0  0  0  0  0  0  0  0  0  0  0
  152.6189  141.2090  158.5478 N   0  5  0  0  0  0  0  0  0  0  0  0
  152.6885  141.9251  159.6810 C   0  0  0  0  0  0  0  0  0  0  0  0
  153.2947  141.4054  160.8464 C   0  0  0  0  0  0  0  0  0  0  0  0
  153.3523  142.1998  162.0091 C   0  0  0  0  0  0  0  0  0  0  0  0
  152.8581  143.4535  162.0773 N   0  0  0  0  0  0  0  0  0  0  0  0
  152.2847  143.9567  160.9644 C   0  0  0  0  0  0  0  0  0  0  0  0
  152.1795  143.2410  159.7549 C   0  0  0  0  0  0  0  0  0  0  0  0
  151.5150  140.3304  156.6248 C   0  0  0  0  0  0  0  0  0  0  0  0
  150.7007  140.6031  155.5772 C   0  0  0  0  0  0  0  0  0  0  0  0
  150.6531  139.8498  154.4306 O   0  0  0  0  0  0  0  0  0  0  0  0
  151.3380  138.6056  154.5097 C   0  0  0  0  0  0  0  0  0  0  0  0
  152.6655  138.7743  155.2619 C   0  0  0  0  0  0  0  0  0  0  0  0
  152.4276  139.2998  156.5626 O   0  0  0  0  0  0  0  0  0  0  0  0
  153.7093  140.4081  160.8515 H   0  0  0  0  0  0  0  0  0  0  0  0
  153.8098  141.8163  162.9090 H   0  0  0  0  0  0  0  0  0  0  0  0
  151.8975  144.9621  161.0386 H   0  0  0  0  0  0  0  0  0  0  0  0
  151.7110  143.6977  158.8951 H   0  0  0  0  0  0  0  0  0  0  0  0
  149.9823  141.4096  155.5476 H   0  0  0  0  0  0  0  0  0  0  0  0
  150.7034  137.8775  155.0169 H   0  0  0  0  0  0  0  0  0  0  0  0
  151.5151  138.2307  153.5016 H   0  0  0  0  0  0  0  0  0  0  0  0
  153.1781  137.8167  155.3522 H   0  0  0  0  0  0  0  0  0  0  0  0
  153.3314  139.4462  154.7184 H   0  0  0  0  0  0  0  0  0  0  0  0
  1  2  2  0  0  0  0
  2  3  1  0  0  0  0
  2 10  1  0  0  0  0
  3  4  1  0  0  0  0
  4  9  1  0  0  0  0
  4  5  2  0  0  0  0
  5  6  1  0  0  0  0
  5 16  1  0  0  0  0
  6  7  2  0  0  0  0
  6 17  1  0  0  0  0
  7  8  1  0  0  0  0
  8  9  2  0  0  0  0
  8 18  1  0  0  0  0
  9 19  1  0  0  0  0
 10 15  1  0  0  0  0
 10 11  2  0  0  0  0
 11 12  1  0  0  0  0
 11 20  1  0  0  0  0
 12 13  1  0  0  0  0
 13 14  1  0  0  0  0
 13 21  1  0  0  0  0
 13 22  1  0  0  0  0
 14 15  1  0  0  0  0
 14 23  1  0  0  0  0
 14 24  1  0  0  0  0
M  CHG  1   3  -1
M  END
> <s_m_source_file>
AV-unprocessed.smi

> <i_m_source_file_index>
1847

> <i_lp_mmshare_version>
43012

> <i_f3d_flags>
0

> <s_epik_input>
TzFbQ0gyXVtDSDJdT1tDSF09QzFDKD1PKVtOSF1jMltjSF1bY0hdbltjSF1bY0hdMg==

> <s_epik_cmdline>
J2VwaWtfcHl0aG9uJywgJy1waCcsICc3LjAnLCAnLXRuJywgJzgnLCAnLW1hJywgJzIwMCcsICctbWV0YWxfYmluZGluZycsICctaW1hZScsICc8aW5maWxlLm1hZT4nLCAnLW9tYWUnLCAnPG91dGZpbGUubWFlPic=

> <r_epik_Ionization_Penalty>
6.68616

> <r_epik_Ionization_Penalty_Charging>
5.33655

> <r_epik_Ionization_Penalty_Neutral>
1.34962

> <r_epik_State_Penalty>
5.36971

> <r_epik_Charging_Adjusted_Penalty>
10.7063

> <i_epik_Tot_Q>
-1

> <i_epik_Tot_abs_Q>
1

> <r_epik_Metal_State_Penalty>
1.43726

> <b_epik_Metal_Only>
1

> <s_lp_Force_Field>
OPLS_2005

> <r_lp_Energy>
5.87976

> <b_lp_Chiralities_Consistent>
1

> <s_lp_Variant>
AV-unprocessed.smi:1847-3

> <Gold.Version>
5.8.1

> <Gold.Id.Protein>
6NUR|6NUR_protein|mol2

> <Gold.PLP.Fitness>
39.6667

> <Gold.PLP.PLP>
-35.1914

> <Gold.PLP.part.hbond>
-2.0000

> <Gold.PLP.part.metal>
0.0000

> <Gold.PLP.part.buried>
-2.5467

> <Gold.PLP.part.nonpolar>
-29.0407

> <Gold.PLP.part.repulsive>
0.2768

> <Gold.PLP.ligand.clash>
0.0000

> <Gold.PLP.ligand.torsion>
0.6530

> <Gold.PLP.Chemscore.Hbond>
1.7500

> <Gold.PLP.Chemscore.CHOScore>
0.0000

> <Gold.PLP.Chemscore.Metal>
0.0000

> <Gold.Chemscore.Hbonds>
donor molecule, donor type, donor heavy atom, donor atom, acceptor molecule, acceptor atom, score
      P1  H  7989  7998       L1    12  0.85
      P1  H  7997  8009       L1    15  0.46

> <Gold.PLP.Chemscore.Internal.Correction>
0.5312

> <Gold.Rescore>
     Score         DG    S(hbond)    S(metal)    S(lipo)     H(rot)  DE(clash)    DE(int)     intcor
     13.89     -16.15       0.20        0.00      85.41       0.00       0.18       2.08       ----

> <Gold.Chemscore.Fitness>
13.8878

> <Gold.Chemscore.DG>
-16.1493

> <Gold.Chemscore.ZeroCoef>
-5.4800

> <Gold.Chemscore.Hbond>
0.2026

> <Gold.Chemscore.Metal>
0.0000

> <Gold.Chemscore.Lipo>
85.4068

> <Gold.Chemscore.Internal_Hbond>
0.0000

> <Gold.Chemscore.DEClash>
0.1779

> <Gold.Chemscore.DEInternal>
2.0836

> <Gold.Chemscore.Rot>
0.0000

> <Gold.Chemscore.Internal.Correction>
   9.000000E+99

> <Gold.Chemscore.Hbonds>
donor molecule, donor type, donor heavy atom, donor atom, acceptor molecule, acceptor atom, score
      P1  H  7989  7998       L1    12  0.08
      P1  H  7997  8009       L1    15  0.03

> <Gold.Chemscore.Hbond.Weighted>
-0.6767

> <Gold.Chemscore.Metal.Weighted>
-0.0000

> <Gold.Chemscore.Lipo.Weighted>
-9.9926

> <Gold.Chemscore.Internal_Hbond.Weighted>
0.0000

> <Gold.Chemscore.DEClash.Weighted>
0.1779

> <Gold.Chemscore.DEInternal.Weighted>
2.0836

> <Gold.Chemscore.Rot.Weighted>
0.0000

> <Gold.Chemscore.Internal.Correction.Weighted>
   9.000000E+99

> <Gold.Protein.RotatedTorsions>
[ 6907 6896 6895 6894 ] final  147.87 input  -60.11 | X-H torsion
[ 7974 7965 7964 7962 ] final  176.64 input  175.53 | X-H torsion
[ 8008 7997 7996 7995 ] final  171.71 input   59.86 | X-H torsion
[ 10167 10162 10161 10158 ] final  -58.51 input  -65.29 | X-H torsion
[ 10718 10713 10712 10709 ] final  -53.81 input   66.30 | X-H torsion
[ 10763 10752 10751 10750 ] final -100.47 input  -60.55 | X-H torsion
[ 11005 11000 10999 10996 ] final  -80.48 input  -57.11 | X-H torsion

> <Gold.Protein.ActiveResidues>
 VAL166  LYS551  ARG553  GLY616  TRP617  ASP618  TYR619  PRO620  LYS621  CYS622 
 ASP623  PHE694  ASN695  SER759  ASP760  ASP761  ALA762  ILE779  LEU786  VAL792 
 PHE793  MET794  SER795  GLU796  ALA797  LYS798  CYS799  TRP800  GLU811  SER814 

> <Gold.Protein.RotatedAtoms>
  152.1490  133.4510  159.4803 H   0  0  0  0  0  0  0  0  0  0  0  0  # atno 6907 bound_to 6896
  150.6893  134.2212  159.4406 H   0  0  0  0  0  0  0  0  0  0  0  0  # atno 6908 bound_to 6896
  152.0107  134.9877  160.0618 H   0  0  0  0  0  0  0  0  0  0  0  0  # atno 6909 bound_to 6896
  144.7181  140.0128  143.6440 H   0  0  0  0  0  0  0  0  0  0  0  0  # atno 7974 bound_to 7965
  156.1244  140.1504  156.9157 H   0  0  0  0  0  0  0  0  0  0  0  0  # atno 8008 bound_to 7997
  154.4860  140.0865  156.7529 H   0  0  0  0  0  0  0  0  0  0  0  0  # atno 8009 bound_to 7997
  155.4369  140.3429  155.4288 H   0  0  0  0  0  0  0  0  0  0  0  0  # atno 8010 bound_to 7997
  140.6193  143.2413  151.5521 H   0  0  0  0  0  0  0  0  0  0  0  0  # atno 10167 bound_to 10162
  156.1503  130.4151  149.9956 H   0  0  0  0  0  0  0  0  0  0  0  0  # atno 10718 bound_to 10713
  154.7581  135.4934  153.9413 H   0  0  0  0  0  0  0  0  0  0  0  0  # atno 10763 bound_to 10752
  153.1220  135.6734  153.9328 H   0  0  0  0  0  0  0  0  0  0  0  0  # atno 10764 bound_to 10752
  153.9057  135.3104  155.3427 H   0  0  0  0  0  0  0  0  0  0  0  0  # atno 10765 bound_to 10752
  141.1668  133.7152  156.8279 H   0  0  0  0  0  0  0  0  0  0  0  0  # atno 11005 bound_to 11000
  146.0244  139.3280  143.0793 LP  0  0  0  0  0  0  0  0  0  0  0  0  # atno 17320 bound_to 7965
  145.8528  140.9519  143.0740 LP  0  0  0  0  0  0  0  0  0  0  0  0  # atno 17321 bound_to 7965
  139.5425  144.2610  152.1378 LP  0  0  0  0  0  0  0  0  0  0  0  0  # atno 17342 bound_to 10162
  140.1826  144.4829  150.6520 LP  0  0  0  0  0  0  0  0  0  0  0  0  # atno 17343 bound_to 10162
  156.7815  130.9223  151.3646 LP  0  0  0  0  0  0  0  0  0  0  0  0  # atno 17370 bound_to 10713
  157.6651  130.9001  149.9915 LP  0  0  0  0  0  0  0  0  0  0  0  0  # atno 17371 bound_to 10713
  140.2072  134.8854  157.3234 LP  0  0  0  0  0  0  0  0  0  0  0  0  # atno 17394 bound_to 11000
  140.2125  134.4121  155.7606 LP  0  0  0  0  0  0  0  0  0  0  0  0  # atno 17395 bound_to 11000

$$$$
