AV-unprocessed.smi:2044|AV-procd|sdf|8300|dock7
  -GOLD-   2272010563D 1   1.00000     0.00000
 Structure written by MMmdl.
 40 41  0  0  0  0  0  0  0  0  2 V2000
  150.6645  141.8857  156.5665 C   0  0  0  0  0  0  0  0  0  0  0  0
  150.2774  140.8262  155.5929 C   0  0  0  0  0  0  0  0  0  0  0  0
  149.0718  140.4083  155.1047 C   0  0  0  0  0  0  0  0  0  0  0  0
  149.4353  139.3547  154.2163 C   0  0  0  0  0  0  0  0  0  0  0  0
  148.5473  138.5619  153.4444 N   0  0  0  0  0  0  0  0  0  0  0  0
  147.2072  138.5003  153.5157 C   0  0  0  0  0  0  0  0  0  0  0  0
  146.5027  139.1589  154.2804 O   0  0  0  0  0  0  0  0  0  0  0  0
  146.7129  137.6257  152.6263 N   0  0  0  0  0  0  0  0  0  0  0  0
  145.2975  137.3080  152.4474 C   0  0  0  0  0  0  0  0  0  0  0  0
  144.9940  135.7891  152.5474 C   0  0  2  0  0  0  0  0  0  0  0  0
  145.3426  135.0679  151.2217 C   0  0  0  0  0  0  0  0  0  0  0  0
  143.5734  135.5771  152.9823 N   0  3  0  0  0  0  0  0  0  0  0  0
  143.1422  134.1572  153.1120 C   0  0  0  0  0  0  0  0  0  0  0  0
  141.6628  134.0610  153.5237 C   0  0  0  0  0  0  0  0  0  0  0  0
  141.4495  134.7695  154.7351 O   0  0  0  0  0  0  0  0  0  0  0  0
  141.7531  136.1488  154.5902 C   0  0  0  0  0  0  0  0  0  0  0  0
  143.2394  136.3107  154.2339 C   0  0  0  0  0  0  0  0  0  0  0  0
  150.7396  139.1547  154.1707 N   0  0  0  0  0  0  0  0  0  0  0  0
  151.2883  140.0958  155.0497 O   0  0  0  0  0  0  0  0  0  0  0  0
  149.7820  142.3573  156.9997 H   0  0  0  0  0  0  0  0  0  0  0  0
  151.2572  142.6598  156.0792 H   0  0  0  0  0  0  0  0  0  0  0  0
  151.2566  141.4663  157.3798 H   0  0  0  0  0  0  0  0  0  0  0  0
  148.0987  140.8020  155.3569 H   0  0  0  0  0  0  0  0  0  0  0  0
  148.9886  137.9726  152.7540 H   0  0  0  0  0  0  0  0  0  0  0  0
  147.3669  137.1307  152.0372 H   0  0  0  0  0  0  0  0  0  0  0  0
  144.7733  137.8649  153.2215 H   0  0  0  0  0  0  0  0  0  0  0  0
  144.9266  137.6992  151.4984 H   0  0  0  0  0  0  0  0  0  0  0  0
  145.6415  135.3584  153.3131 H   0  0  0  0  0  0  0  0  0  0  0  0
  146.3783  135.2362  150.9290 H   0  0  0  0  0  0  0  0  0  0  0  0
  144.7109  135.4119  150.4021 H   0  0  0  0  0  0  0  0  0  0  0  0
  145.2426  133.9856  151.3024 H   0  0  0  0  0  0  0  0  0  0  0  0
  143.2479  133.6292  152.1649 H   0  0  0  0  0  0  0  0  0  0  0  0
  143.7696  133.6483  153.8456 H   0  0  0  0  0  0  0  0  0  0  0  0
  141.0142  134.4545  152.7391 H   0  0  0  0  0  0  0  0  0  0  0  0
  141.3833  133.0177  153.6719 H   0  0  0  0  0  0  0  0  0  0  0  0
  141.1155  136.6009  153.8285 H   0  0  0  0  0  0  0  0  0  0  0  0
  141.5361  136.6573  155.5297 H   0  0  0  0  0  0  0  0  0  0  0  0
  143.8559  135.9350  155.0524 H   0  0  0  0  0  0  0  0  0  0  0  0
  143.4538  137.3733  154.1398 H   0  0  0  0  0  0  0  0  0  0  0  0
  142.9971  135.9693  152.2509 H   0  0  0  0  0  0  0  0  0  0  0  0
  1  2  1  0  0  0  0
  1 20  1  0  0  0  0
  1 21  1  0  0  0  0
  1 22  1  0  0  0  0
  2 19  1  0  0  0  0
  2  3  2  0  0  0  0
  3  4  1  0  0  0  0
  3 23  1  0  0  0  0
  4  5  1  0  0  0  0
  4 18  2  0  0  0  0
  5  6  1  0  0  0  0
  5 24  1  0  0  0  0
  6  7  2  0  0  0  0
  6  8  1  0  0  0  0
  8  9  1  0  0  0  0
  8 25  1  0  0  0  0
  9 10  1  0  0  0  0
  9 26  1  0  0  0  0
  9 27  1  0  0  0  0
 10 11  1  0  0  0  0
 10 12  1  0  0  0  0
 10 28  1  0  0  0  0
 11 29  1  0  0  0  0
 11 30  1  0  0  0  0
 11 31  1  0  0  0  0
 12 17  1  0  0  0  0
 12 13  1  0  0  0  0
 12 40  1  0  0  0  0
 13 14  1  0  0  0  0
 13 32  1  0  0  0  0
 13 33  1  0  0  0  0
 14 15  1  0  0  0  0
 14 34  1  0  0  0  0
 14 35  1  0  0  0  0
 15 16  1  0  0  0  0
 16 17  1  0  0  0  0
 16 36  1  0  0  0  0
 16 37  1  0  0  0  0
 17 38  1  0  0  0  0
 17 39  1  0  0  0  0
 18 19  1  0  0  0  0
M  CHG  1  12   1
M  END
> <s_m_source_file>
AV-unprocessed.smi

> <i_m_source_file_index>
2044

> <i_lp_mmshare_version>
43012

> <i_f3d_flags>
0

> <s_epik_input>
W0NIM11jMVtjSF1jKG5vMSlbTkhdQyg9TylbTkhdW0NIMl1bQ0BIXShbQ0gzXSlOMltDSDJdW0NIMl1PW0NIMl1bQ0gyXTI=

> <s_epik_cmdline>
J2VwaWtfcHl0aG9uJywgJy1waCcsICc3LjAnLCAnLXRuJywgJzgnLCAnLW1hJywgJzIwMCcsICctbWV0YWxfYmluZGluZycsICctaW1hZScsICc8aW5maWxlLm1hZT4nLCAnLW9tYWUnLCAnPG91dGZpbGUubWFlPic=

> <r_epik_Ionization_Penalty>
0.707076

> <r_epik_Ionization_Penalty_Charging>
0.707039

> <r_epik_Ionization_Penalty_Neutral>
3.67886e-05

> <r_epik_State_Penalty>
0.730276

> <r_epik_Charging_Adjusted_Penalty>
1.43732

> <i_epik_Tot_Q>
1

> <i_epik_Tot_abs_Q>
1

> <r_epik_Metal_State_Penalty>
0.743216

> <b_epik_Metal_Only>
0

> <s_lp_Force_Field>
OPLS_2005

> <r_lp_Energy>
20.903

> <b_lp_Chiralities_Consistent>
1

> <s_lp_Variant>
AV-unprocessed.smi:2044-3

> <Gold.Version>
5.8.1

> <Gold.Id.Protein>
6NUR|6NUR_protein|mol2

> <Gold.PLP.Fitness>
40.1078

> <Gold.PLP.PLP>
-31.7784

> <Gold.PLP.part.hbond>
-6.0000

> <Gold.PLP.part.metal>
0.0000

> <Gold.PLP.part.buried>
-2.4857

> <Gold.PLP.part.nonpolar>
-24.5861

> <Gold.PLP.part.repulsive>
0.6135

> <Gold.PLP.ligand.clash>
0.0000

> <Gold.PLP.ligand.torsion>
0.2983

> <Gold.PLP.Chemscore.Hbond>
2.9590

> <Gold.PLP.Chemscore.CHOScore>
0.0000

> <Gold.PLP.Chemscore.Metal>
0.0000

> <Gold.Chemscore.Hbonds>
donor molecule, donor type, donor heavy atom, donor atom, acceptor molecule, acceptor atom, score
      L1  H     5    24       P1  7948  0.94
      L1  H     8    25       P1  7948  1.00
      P1  H 11000 11005       L1    15  0.70

> <Gold.PLP.Chemscore.Internal.Correction>
0.0491

> <Gold.Rescore>
     Score         DG    S(hbond)    S(metal)    S(lipo)     H(rot)  DE(clash)    DE(int)     intcor
     15.81     -17.49       2.90        0.00      55.35       1.62       0.23       1.45       ----

> <Gold.Chemscore.Fitness>
15.8096

> <Gold.Chemscore.DG>
-17.4882

> <Gold.Chemscore.ZeroCoef>
-5.4800

> <Gold.Chemscore.Hbond>
2.8991

> <Gold.Chemscore.Metal>
0.0000

> <Gold.Chemscore.Lipo>
55.3494

> <Gold.Chemscore.Internal_Hbond>
0.0000

> <Gold.Chemscore.DEClash>
0.2254

> <Gold.Chemscore.DEInternal>
1.4531

> <Gold.Chemscore.Rot>
1.6213

> <Gold.Chemscore.Internal.Correction>
   9.000000E+99

> <Gold.Chemscore.Hbonds>
donor molecule, donor type, donor heavy atom, donor atom, acceptor molecule, acceptor atom, score
      L1  H     5    24       P1  7948  0.90
      L1  H     8    25       P1  7948  0.94
      P1  H 11000 11005       L1    15  0.63

> <Gold.Chemscore.Hbond.Weighted>
-9.6829

> <Gold.Chemscore.Metal.Weighted>
-0.0000

> <Gold.Chemscore.Lipo.Weighted>
-6.4759

> <Gold.Chemscore.Internal_Hbond.Weighted>
0.0000

> <Gold.Chemscore.DEClash.Weighted>
0.2254

> <Gold.Chemscore.DEInternal.Weighted>
1.4531

> <Gold.Chemscore.Rot.Weighted>
4.1506

> <Gold.Chemscore.Internal.Correction.Weighted>
   9.000000E+99

> <Gold.Protein.RotatedTorsions>
[ 6907 6896 6895 6894 ] final   -4.58 input  -60.11 | X-H torsion
[ 7974 7965 7964 7962 ] final  176.31 input  175.53 | X-H torsion
[ 8008 7997 7996 7995 ] final  -35.49 input   59.86 | X-H torsion
[ 10167 10162 10161 10158 ] final   84.19 input  -65.29 | X-H torsion
[ 10718 10713 10712 10709 ] final   57.73 input   66.30 | X-H torsion
[ 10763 10752 10751 10750 ] final  -33.74 input  -60.55 | X-H torsion
[ 11005 11000 10999 10996 ] final   24.57 input  -57.11 | X-H torsion

> <Gold.Protein.ActiveResidues>
 VAL166  LYS551  ARG553  GLY616  TRP617  ASP618  TYR619  PRO620  LYS621  CYS622 
 ASP623  PHE694  ASN695  SER759  ASP760  ASP761  ALA762  ILE779  LEU786  VAL792 
 PHE793  MET794  SER795  GLU796  ALA797  LYS798  CYS799  TRP800  GLU811  SER814 

> <Gold.Protein.RotatedAtoms>
  151.4954  135.1059  159.9814 H   0  0  0  0  0  0  0  0  0  0  0  0  # atno 6907 bound_to 6896
  152.4724  133.8055  159.6986 H   0  0  0  0  0  0  0  0  0  0  0  0  # atno 6908 bound_to 6896
  150.8741  133.7402  159.2978 H   0  0  0  0  0  0  0  0  0  0  0  0  # atno 6909 bound_to 6896
  144.7186  140.0078  143.6440 H   0  0  0  0  0  0  0  0  0  0  0  0  # atno 7974 bound_to 7965
  154.4094  140.1656  156.2221 H   0  0  0  0  0  0  0  0  0  0  0  0  # atno 8008 bound_to 7997
  155.9355  140.3412  155.6261 H   0  0  0  0  0  0  0  0  0  0  0  0  # atno 8009 bound_to 7997
  155.7054  140.0750  157.2384 H   0  0  0  0  0  0  0  0  0  0  0  0  # atno 8010 bound_to 7997
  139.9106  144.6274  150.8541 H   0  0  0  0  0  0  0  0  0  0  0  0  # atno 10167 bound_to 10162
  157.5539  130.8785  149.9005 H   0  0  0  0  0  0  0  0  0  0  0  0  # atno 10718 bound_to 10713
  153.8353  135.6862  153.4809 H   0  0  0  0  0  0  0  0  0  0  0  0  # atno 10763 bound_to 10752
  153.1486  135.4627  154.9602 H   0  0  0  0  0  0  0  0  0  0  0  0  # atno 10764 bound_to 10752
  154.7869  135.3288  154.7812 H   0  0  0  0  0  0  0  0  0  0  0  0  # atno 10765 bound_to 10752
  140.3572  134.2164  155.7675 H   0  0  0  0  0  0  0  0  0  0  0  0  # atno 11005 bound_to 11000
  146.0283  139.3312  143.0771 LP  0  0  0  0  0  0  0  0  0  0  0  0  # atno 17320 bound_to 7965
  145.8484  140.9542  143.0762 LP  0  0  0  0  0  0  0  0  0  0  0  0  # atno 17321 bound_to 7965
  140.7686  143.3368  151.2291 LP  0  0  0  0  0  0  0  0  0  0  0  0  # atno 17342 bound_to 10162
  139.6946  143.9635  152.2876 LP  0  0  0  0  0  0  0  0  0  0  0  0  # atno 17343 bound_to 10162
  156.0600  130.3701  150.1002 LP  0  0  0  0  0  0  0  0  0  0  0  0  # atno 17370 bound_to 10713
  156.9173  130.9671  151.3554 LP  0  0  0  0  0  0  0  0  0  0  0  0  # atno 17371 bound_to 10713
  141.1995  133.8011  157.0535 LP  0  0  0  0  0  0  0  0  0  0  0  0  # atno 17394 bound_to 11000
  140.0655  134.9731  157.1379 LP  0  0  0  0  0  0  0  0  0  0  0  0  # atno 17395 bound_to 11000

$$$$
