AV-unprocessed.smi:21|AV-procd|sdf|158|dock1
  -GOLD-   2262015393D 1   1.00000     0.00000
 Structure written by MMmdl.
 61 64  0  0  0  0  0  0  0  0  1 V2000
  150.2783  145.0997  160.0249 C   0  0  0  0  0  0  0  0  0  0  0  0
  151.4150  145.5883  159.3308 O   0  0  0  0  0  0  0  0  0  0  0  0
  152.2440  144.5588  158.8104 C   0  0  2  0  0  0  0  0  0  0  0  0
  151.4943  143.6026  157.8642 C   0  0  0  0  0  0  0  0  0  0  0  0
  151.6026  142.2247  158.5368 C   0  0  1  0  0  0  0  0  0  0  0  0
  151.6134  141.0486  157.5344 C   0  0  0  0  0  0  0  0  0  0  0  0
  150.3391  140.3322  157.4749 N   0  0  0  0  0  0  0  0  0  0  0  0
  149.1457  141.0912  157.1034 C   0  0  0  0  0  0  0  0  0  0  0  0
  150.1857  139.1382  158.1210 C   0  0  0  0  0  0  0  0  0  0  0  0
  151.2694  138.5965  158.7416 N   0  0  0  0  0  0  0  0  0  0  0  0
  151.1862  137.4256  159.3769 C   0  0  0  0  0  0  0  0  0  0  0  0
  150.1267  136.6313  159.5219 N   0  0  0  0  0  0  0  0  0  0  0  0
  149.0274  137.1625  158.9169 C   0  0  0  0  0  0  0  0  0  0  0  0
  148.9651  138.3961  158.2026 C   0  0  0  0  0  0  0  0  0  0  0  0
  147.6662  138.5900  157.7417 N   0  0  0  0  0  0  0  0  0  0  0  0
  147.0087  137.5407  158.1492 C   0  0  0  0  0  0  0  0  0  0  0  0
  147.7483  136.6358  158.8720 N   0  0  0  0  0  0  0  0  0  0  0  0
  147.2657  135.3928  159.4497 C   0  0  0  0  0  0  0  0  0  0  0  0
  147.4123  135.3422  160.9900 C   0  0  1  0  0  0  0  0  0  0  0  0
  146.7231  136.5619  161.6457 C   0  0  0  0  0  0  0  0  0  0  0  0
  147.5047  137.0585  162.7122 O   0  0  0  0  0  0  0  0  0  0  0  0
  146.9632  133.9792  161.5884 C   0  0  2  0  0  0  0  0  0  0  0  0
  147.4832  132.7350  160.8723 C   0  0  0  0  0  0  0  0  0  0  0  0
  146.3568  131.7328  161.0816 C   0  0  0  0  0  0  0  0  0  0  0  0
  145.1998  132.5401  160.9499 O   0  0  0  0  0  0  0  0  0  0  0  0
  145.4405  133.7578  161.6438 C   0  0  0  0  0  0  0  0  0  0  0  0
  152.7838  142.3119  159.3796 N   0  0  0  0  0  0  0  0  0  0  0  0
  152.8482  141.2807  160.4070 C   0  0  0  0  0  0  0  0  0  0  0  0
  152.7047  143.6434  159.9474 C   0  0  0  0  0  0  0  0  0  0  0  0
  153.1195  144.9772  158.3102 H   0  0  0  0  0  0  0  0  0  0  0  0
  150.7353  142.1197  159.1908 H   0  0  0  0  0  0  0  0  0  0  0  0
  149.6899  145.9386  160.3962 H   0  0  0  0  0  0  0  0  0  0  0  0
  150.5602  144.4854  160.8803 H   0  0  0  0  0  0  0  0  0  0  0  0
  149.6402  144.5086  159.3670 H   0  0  0  0  0  0  0  0  0  0  0  0
  150.4505  143.8815  157.7163 H   0  0  0  0  0  0  0  0  0  0  0  0
  151.9791  143.6031  156.8871 H   0  0  0  0  0  0  0  0  0  0  0  0
  151.8520  141.4330  156.5423 H   0  0  0  0  0  0  0  0  0  0  0  0
  152.4140  140.3450  157.7508 H   0  0  0  0  0  0  0  0  0  0  0  0
  148.4765  140.4846  156.4921 H   0  0  0  0  0  0  0  0  0  0  0  0
  149.4053  141.9765  156.5230 H   0  0  0  0  0  0  0  0  0  0  0  0
  148.6039  141.4201  157.9909 H   0  0  0  0  0  0  0  0  0  0  0  0
  152.1000  137.0752  159.8337 H   0  0  0  0  0  0  0  0  0  0  0  0
  145.9581  137.4008  157.9400 H   0  0  0  0  0  0  0  0  0  0  0  0
  146.2196  135.2825  159.1620 H   0  0  0  0  0  0  0  0  0  0  0  0
  147.7979  134.5592  158.9901 H   0  0  0  0  0  0  0  0  0  0  0  0
  148.4775  135.4259  161.2121 H   0  0  0  0  0  0  0  0  0  0  0  0
  146.5670  137.3644  160.9247 H   0  0  0  0  0  0  0  0  0  0  0  0
  145.7445  136.3017  162.0475 H   0  0  0  0  0  0  0  0  0  0  0  0
  146.9962  137.7004  163.1844 H   0  0  0  0  0  0  0  0  0  0  0  0
  147.3042  133.9242  162.6229 H   0  0  0  0  0  0  0  0  0  0  0  0
  147.6100  132.9070  159.8044 H   0  0  0  0  0  0  0  0  0  0  0  0
  148.4357  132.3834  161.2682 H   0  0  0  0  0  0  0  0  0  0  0  0
  146.3697  130.9229  160.3520 H   0  0  0  0  0  0  0  0  0  0  0  0
  146.3948  131.3010  162.0832 H   0  0  0  0  0  0  0  0  0  0  0  0
  145.1114  133.6486  162.6783 H   0  0  0  0  0  0  0  0  0  0  0  0
  144.8616  134.5697  161.2042 H   0  0  0  0  0  0  0  0  0  0  0  0
  153.7231  141.4267  161.0412 H   0  0  0  0  0  0  0  0  0  0  0  0
  152.9268  140.2889  159.9624 H   0  0  0  0  0  0  0  0  0  0  0  0
  151.9619  141.2983  161.0429 H   0  0  0  0  0  0  0  0  0  0  0  0
  153.6577  143.9581  160.3738 H   0  0  0  0  0  0  0  0  0  0  0  0
  151.9627  143.6594  160.7480 H   0  0  0  0  0  0  0  0  0  0  0  0
  1  2  1  0  0  0  0
  1 32  1  0  0  0  0
  1 33  1  0  0  0  0
  1 34  1  0  0  0  0
  2  3  1  0  0  0  0
  3 30  1  0  0  0  0
  3 29  1  0  0  0  0
  3  4  1  0  0  0  0
  4  5  1  0  0  0  0
  4 35  1  0  0  0  0
  4 36  1  0  0  0  0
  5 31  1  0  0  0  0
  5  6  1  0  0  0  0
  5 27  1  0  0  0  0
  6  7  1  0  0  0  0
  6 37  1  0  0  0  0
  6 38  1  0  0  0  0
  7  8  1  0  0  0  0
  7  9  1  0  0  0  0
  8 39  1  0  0  0  0
  8 40  1  0  0  0  0
  8 41  1  0  0  0  0
  9 14  1  0  0  0  0
  9 10  2  0  0  0  0
 10 11  1  0  0  0  0
 11 12  2  0  0  0  0
 11 42  1  0  0  0  0
 12 13  1  0  0  0  0
 13 17  1  0  0  0  0
 13 14  2  0  0  0  0
 14 15  1  0  0  0  0
 15 16  2  0  0  0  0
 16 17  1  0  0  0  0
 16 43  1  0  0  0  0
 17 18  1  0  0  0  0
 18 19  1  0  0  0  0
 18 44  1  0  0  0  0
 18 45  1  0  0  0  0
 19 20  1  0  0  0  0
 19 22  1  0  0  0  0
 19 46  1  0  0  0  0
 20 21  1  0  0  0  0
 20 47  1  0  0  0  0
 20 48  1  0  0  0  0
 21 49  1  0  0  0  0
 22 26  1  0  0  0  0
 22 23  1  0  0  0  0
 22 50  1  0  0  0  0
 23 24  1  0  0  0  0
 23 51  1  0  0  0  0
 23 52  1  0  0  0  0
 24 25  1  0  0  0  0
 24 53  1  0  0  0  0
 24 54  1  0  0  0  0
 25 26  1  0  0  0  0
 26 55  1  0  0  0  0
 26 56  1  0  0  0  0
 27 28  1  0  0  0  0
 27 29  1  0  0  0  0
 28 57  1  0  0  0  0
 28 58  1  0  0  0  0
 28 59  1  0  0  0  0
 29 60  1  0  0  0  0
 29 61  1  0  0  0  0
M  END
> <s_m_source_file>
AV-unprocessed.smi

> <i_m_source_file_index>
21

> <i_lp_mmshare_version>
43012

> <i_f3d_flags>
0

> <s_epik_input>
W0NIM11PW0NASF0xW0NIMl1bQ0BIXShOKFtDSDNdKVtDSDJdMSlbQ0gyXU4oW0NIM10pYyhuW2NIXW4yKWMoYzIzKW5bY0hdbjNbQ0gyXVtDQEhdKFtDSDJdW09IXSlbQ0BASF00W0NIMl1bQ0gyXU9bQ0gyXTQ=

> <s_epik_cmdline>
J2VwaWtfcHl0aG9uJywgJy1waCcsICc3LjAnLCAnLXRuJywgJzgnLCAnLW1hJywgJzIwMCcsICctbWV0YWxfYmluZGluZycsICctaW1hZScsICc8aW5maWxlLm1hZT4nLCAnLW9tYWUnLCAnPG91dGZpbGUubWFlPic=

> <r_lp_tautomer_probability>
1

> <r_epik_Ionization_Penalty>
2.17574

> <r_epik_Ionization_Penalty_Charging>
0

> <r_epik_Ionization_Penalty_Neutral>
2.17574

> <r_epik_State_Penalty>
2.31336

> <r_epik_Charging_Adjusted_Penalty>
2.31336

> <i_epik_Tot_Q>
0

> <i_epik_Tot_abs_Q>
0

> <r_epik_Metal_State_Penalty>
2.31025

> <b_epik_Metal_Only>
0

> <s_lp_Force_Field>
OPLS_2005

> <r_lp_Energy>
69.5253

> <b_lp_Chiralities_Consistent>
1

> <s_lp_Variant>
AV-unprocessed.smi:21-38

> <Gold.Version>
5.8.1

> <Gold.Id.Protein>
6NUR|6NUR_protein|mol2

> <Gold.PLP.Fitness>
57.1532

> <Gold.PLP.PLP>
-54.1779

> <Gold.PLP.part.hbond>
-3.1189

> <Gold.PLP.part.metal>
0.0000

> <Gold.PLP.part.buried>
-10.3365

> <Gold.PLP.part.nonpolar>
-43.1767

> <Gold.PLP.part.repulsive>
0.2033

> <Gold.PLP.ligand.clash>
0.0000

> <Gold.PLP.ligand.torsion>
1.4529

> <Gold.PLP.Chemscore.Hbond>
1.6880

> <Gold.PLP.Chemscore.CHOScore>
0.0000

> <Gold.PLP.Chemscore.Metal>
0.0000

> <Gold.Chemscore.Hbonds>
donor molecule, donor type, donor heavy atom, donor atom, acceptor molecule, acceptor atom, score
      P1  H  6896  6909       L1    12  0.90
      P1  H  6931  6943       L1    21  0.72

> <Gold.PLP.Chemscore.Internal.Correction>
0.8170

> <Gold.Rescore>
     Score         DG    S(hbond)    S(metal)    S(lipo)     H(rot)  DE(clash)    DE(int)     intcor
     14.10     -16.76       1.27        0.00     125.80       3.00       0.15       2.51       ----

> <Gold.Chemscore.Fitness>
14.1010

> <Gold.Chemscore.DG>
-16.7606

> <Gold.Chemscore.ZeroCoef>
-5.4800

> <Gold.Chemscore.Hbond>
1.2725

> <Gold.Chemscore.Metal>
0.0000

> <Gold.Chemscore.Lipo>
125.7989

> <Gold.Chemscore.Internal_Hbond>
0.0000

> <Gold.Chemscore.DEClash>
0.1482

> <Gold.Chemscore.DEInternal>
2.5113

> <Gold.Chemscore.Rot>
3.0031

> <Gold.Chemscore.Internal.Correction>
   9.000000E+99

> <Gold.Chemscore.Hbonds>
donor molecule, donor type, donor heavy atom, donor atom, acceptor molecule, acceptor atom, score
      P1  H  6896  6909       L1    12  0.18
      P1  H  6931  6943       L1    21  0.15

> <Gold.Chemscore.Hbond.Weighted>
-4.2501

> <Gold.Chemscore.Metal.Weighted>
-0.0000

> <Gold.Chemscore.Lipo.Weighted>
-14.7185

> <Gold.Chemscore.Internal_Hbond.Weighted>
0.0000

> <Gold.Chemscore.DEClash.Weighted>
0.1482

> <Gold.Chemscore.DEInternal.Weighted>
2.5113

> <Gold.Chemscore.Rot.Weighted>
7.6880

> <Gold.Chemscore.Internal.Correction.Weighted>
   9.000000E+99

> <Gold.Protein.RotatedTorsions>
[ 6907 6896 6895 6894 ] final   87.74 input  -60.11 | X-H torsion
[ 7974 7965 7964 7962 ] final  148.83 input  175.53 | X-H torsion
[ 8008 7997 7996 7995 ] final   84.77 input   59.86 | X-H torsion
[ 10167 10162 10161 10158 ] final   30.71 input  -65.29 | X-H torsion
[ 10718 10713 10712 10709 ] final -157.21 input   66.30 | X-H torsion
[ 10763 10752 10751 10750 ] final   82.35 input  -60.55 | X-H torsion
[ 11005 11000 10999 10996 ] final  -88.25 input  -57.11 | X-H torsion

> <Gold.Protein.ActiveResidues>
 VAL166  LYS551  ARG553  GLY616  TRP617  ASP618  TYR619  PRO620  LYS621  CYS622 
 ASP623  PHE694  ASN695  SER759  ASP760  ASP761  ALA762  ILE779  LEU786  VAL792 
 PHE793  MET794  SER795  GLU796  ALA797  LYS798  CYS799  TRP800  GLU811  SER814 

> <Gold.Protein.RotatedAtoms>
  152.5415  134.2230  159.8794 H   0  0  0  0  0  0  0  0  0  0  0  0  # atno 6907 bound_to 6896
  151.2206  133.4498  159.2608 H   0  0  0  0  0  0  0  0  0  0  0  0  # atno 6908 bound_to 6896
  151.0809  134.9871  159.8411 H   0  0  0  0  0  0  0  0  0  0  0  0  # atno 6909 bound_to 6896
  144.8484  139.6203  143.5985 H   0  0  0  0  0  0  0  0  0  0  0  0  # atno 7974 bound_to 7965
  155.9413  140.3408  155.6330 H   0  0  0  0  0  0  0  0  0  0  0  0  # atno 8008 bound_to 7997
  155.7036  140.0763  157.2419 H   0  0  0  0  0  0  0  0  0  0  0  0  # atno 8009 bound_to 7997
  154.4103  140.1635  156.2205 H   0  0  0  0  0  0  0  0  0  0  0  0  # atno 8010 bound_to 7997
  140.4653  144.0844  150.6223 H   0  0  0  0  0  0  0  0  0  0  0  0  # atno 10167 bound_to 10162
  156.5372  130.8547  151.2736 H   0  0  0  0  0  0  0  0  0  0  0  0  # atno 10718 bound_to 10713
  153.1195  135.4732  154.9171 H   0  0  0  0  0  0  0  0  0  0  0  0  # atno 10763 bound_to 10752
  154.7561  135.3119  154.8469 H   0  0  0  0  0  0  0  0  0  0  0  0  # atno 10764 bound_to 10752
  153.9037  135.6872  153.4807 H   0  0  0  0  0  0  0  0  0  0  0  0  # atno 10765 bound_to 10752
  141.1605  133.7559  156.9424 H   0  0  0  0  0  0  0  0  0  0  0  0  # atno 11005 bound_to 11000
  146.2764  139.6763  142.9260 LP  0  0  0  0  0  0  0  0  0  0  0  0  # atno 17320 bound_to 7965
  145.4550  141.0430  143.2783 LP  0  0  0  0  0  0  0  0  0  0  0  0  # atno 17321 bound_to 7965
  140.4043  143.2688  151.9910 LP  0  0  0  0  0  0  0  0  0  0  0  0  # atno 17342 bound_to 10162
  139.4811  144.5970  151.7672 LP  0  0  0  0  0  0  0  0  0  0  0  0  # atno 17343 bound_to 10162
  157.7411  130.9864  150.2426 LP  0  0  0  0  0  0  0  0  0  0  0  0  # atno 17370 bound_to 10713
  156.3005  130.3758  149.7755 LP  0  0  0  0  0  0  0  0  0  0  0  0  # atno 17371 bound_to 10713
  140.1313  134.9354  157.2340 LP  0  0  0  0  0  0  0  0  0  0  0  0  # atno 17394 bound_to 11000
  140.2950  134.3197  155.7305 LP  0  0  0  0  0  0  0  0  0  0  0  0  # atno 17395 bound_to 11000

$$$$
