AV-unprocessed.smi:2245|AV-procd|sdf|9080|dock6
  -GOLD-   2272012283D 1   1.00000     0.00000
 Structure written by MMmdl.
 45 46  0  0  0  0  0  0  0  0  2 V2000
  152.3545  145.7529  160.6325 C   0  0  0  0  0  0  0  0  0  0  0  0
  152.3263  144.4214  159.9120 C   0  0  0  0  0  0  0  0  0  0  0  0
  153.1282  143.3498  160.3487 C   0  0  0  0  0  0  0  0  0  0  0  0
  153.0624  142.1367  159.6358 C   0  0  0  0  0  0  0  0  0  0  0  0
  153.8945  140.9422  160.0521 C   0  0  0  0  0  0  0  0  0  0  0  0
  152.2693  141.9576  158.5577 N   0  0  0  0  0  0  0  0  0  0  0  0
  151.4937  142.9835  158.1273 C   0  0  0  0  0  0  0  0  0  0  0  0
  150.6290  142.8992  157.0038 N   0  0  0  0  0  0  0  0  0  0  0  0
  150.4605  141.8649  156.1613 C   0  0  0  0  0  0  0  0  0  0  0  0
  151.0388  140.7803  156.2370 O   0  0  0  0  0  0  0  0  0  0  0  0
  149.5739  142.1606  155.1998 N   0  0  0  0  0  0  0  0  0  0  0  0
  149.1825  141.2621  154.1186 C   0  0  0  0  0  0  0  0  0  0  0  0
  148.3080  140.0965  154.6202 C   0  0  2  0  0  0  0  0  0  0  0  0
  149.0818  138.9140  155.1970 C   0  0  0  0  0  0  0  0  0  0  0  0
  148.0528  137.7894  155.1381 C   0  0  0  0  0  0  0  0  0  0  0  0
  147.2792  138.0236  153.8977 N   0  3  1  0  0  0  0  0  0  0  0  0
  145.8695  137.5614  153.9357 C   0  0  0  0  0  0  0  0  0  0  0  0
  145.3718  137.0389  152.5759 C   0  0  0  0  0  0  0  0  0  0  0  0
  145.8117  135.7936  152.4031 F   0  0  0  0  0  0  0  0  0  0  0  0
  144.0390  137.0286  152.5492 F   0  0  0  0  0  0  0  0  0  0  0  0
  145.8267  137.7882  151.5722 F   0  0  0  0  0  0  0  0  0  0  0  0
  147.4413  139.4518  153.5304 C   0  0  0  0  0  0  0  0  0  0  0  0
  151.4995  144.2335  158.7860 C   0  0  0  0  0  0  0  0  0  0  0  0
  152.7001  145.6346  161.6599 H   0  0  0  0  0  0  0  0  0  0  0  0
  151.3591  146.1973  160.6595 H   0  0  0  0  0  0  0  0  0  0  0  0
  153.0260  146.4427  160.1210 H   0  0  0  0  0  0  0  0  0  0  0  0
  153.7756  143.4551  161.2068 H   0  0  0  0  0  0  0  0  0  0  0  0
  154.5866  141.2018  160.8537 H   0  0  0  0  0  0  0  0  0  0  0  0
  154.4767  140.5706  159.2081 H   0  0  0  0  0  0  0  0  0  0  0  0
  153.2491  140.1377  160.4056 H   0  0  0  0  0  0  0  0  0  0  0  0
  150.0834  143.7267  156.8147 H   0  0  0  0  0  0  0  0  0  0  0  0
  149.1407  143.0726  155.2151 H   0  0  0  0  0  0  0  0  0  0  0  0
  148.6567  141.8237  153.3445 H   0  0  0  0  0  0  0  0  0  0  0  0
  150.0914  140.8771  153.6557 H   0  0  0  0  0  0  0  0  0  0  0  0
  147.6360  140.4641  155.3978 H   0  0  0  0  0  0  0  0  0  0  0  0
  149.9375  138.6724  154.5644 H   0  0  0  0  0  0  0  0  0  0  0  0
  149.4475  139.0972  156.2080 H   0  0  0  0  0  0  0  0  0  0  0  0
  148.5171  136.8030  155.1425 H   0  0  0  0  0  0  0  0  0  0  0  0
  147.3956  137.8578  156.0068 H   0  0  0  0  0  0  0  0  0  0  0  0
  145.7419  136.8048  154.7115 H   0  0  0  0  0  0  0  0  0  0  0  0
  145.2441  138.4082  154.2225 H   0  0  0  0  0  0  0  0  0  0  0  0
  146.4888  139.9746  153.4299 H   0  0  0  0  0  0  0  0  0  0  0  0
  147.9391  139.4924  152.5607 H   0  0  0  0  0  0  0  0  0  0  0  0
  150.8776  145.0430  158.4320 H   0  0  0  0  0  0  0  0  0  0  0  0
  147.7392  137.4998  153.1665 H   0  0  0  0  0  0  0  0  0  0  0  0
  1  2  1  0  0  0  0
  1 24  1  0  0  0  0
  1 25  1  0  0  0  0
  1 26  1  0  0  0  0
  2 23  1  0  0  0  0
  2  3  2  0  0  0  0
  3  4  1  0  0  0  0
  3 27  1  0  0  0  0
  4  5  1  0  0  0  0
  4  6  2  0  0  0  0
  5 28  1  0  0  0  0
  5 29  1  0  0  0  0
  5 30  1  0  0  0  0
  6  7  1  0  0  0  0
  7  8  1  0  0  0  0
  7 23  2  0  0  0  0
  8  9  1  0  0  0  0
  8 31  1  0  0  0  0
  9 10  2  0  0  0  0
  9 11  1  0  0  0  0
 11 12  1  0  0  0  0
 11 32  1  0  0  0  0
 12 13  1  0  0  0  0
 12 33  1  0  0  0  0
 12 34  1  0  0  0  0
 13 22  1  0  0  0  0
 13 14  1  0  0  0  0
 13 35  1  0  0  0  0
 14 15  1  0  0  0  0
 14 36  1  0  0  0  0
 14 37  1  0  0  0  0
 15 16  1  0  0  0  0
 15 38  1  0  0  0  0
 15 39  1  0  0  0  0
 16 17  1  0  0  0  0
 16 22  1  0  0  0  0
 16 45  1  0  0  0  0
 17 18  1  0  0  0  0
 17 40  1  0  0  0  0
 17 41  1  0  0  0  0
 18 19  1  0  0  0  0
 18 20  1  0  0  0  0
 18 21  1  0  0  0  0
 22 42  1  0  0  0  0
 22 43  1  0  0  0  0
 23 44  1  0  0  0  0
M  CHG  1  16   1
M  END
> <s_m_source_file>
AV-unprocessed.smi

> <i_m_source_file_index>
2245

> <i_lp_mmshare_version>
43012

> <i_f3d_flags>
0

> <s_epik_input>
W0NIM11jMVtjSF1jKFtDSDNdKW5jKFtjSF0xKVtOSF1DKD1PKVtOSF1bQ0gyXVtDQEBIXTJbQ0gyXVtDSDJdTihbQ0gyXTIpW0NIMl1DKEYpKEYpRg==

> <s_epik_cmdline>
J2VwaWtfcHl0aG9uJywgJy1waCcsICc3LjAnLCAnLXRuJywgJzgnLCAnLW1hJywgJzIwMCcsICctbWV0YWxfYmluZGluZycsICctaW1hZScsICc8aW5maWxlLm1hZT4nLCAnLW9tYWUnLCAnPG91dGZpbGUubWFlPic=

> <r_epik_Ionization_Penalty>
0.628315

> <r_epik_Ionization_Penalty_Charging>
0.628113

> <r_epik_Ionization_Penalty_Neutral>
0.000202271

> <r_epik_State_Penalty>
0.644725

> <r_epik_Charging_Adjusted_Penalty>
1.27284

> <i_epik_Tot_Q>
1

> <i_epik_Tot_abs_Q>
1

> <r_epik_Metal_State_Penalty>
0.644752

> <b_epik_Metal_Only>
0

> <s_lp_Force_Field>
OPLS_2005

> <r_lp_Energy>
28.8046

> <b_lp_Chiralities_Consistent>
1

> <s_lp_Variant>
AV-unprocessed.smi:2245-5

> <Gold.Version>
5.8.1

> <Gold.Id.Protein>
6NUR|6NUR_protein|mol2

> <Gold.PLP.Fitness>
53.7405

> <Gold.PLP.PLP>
-43.5565

> <Gold.PLP.part.hbond>
-3.0000

> <Gold.PLP.part.metal>
0.0000

> <Gold.PLP.part.buried>
2.5814

> <Gold.PLP.part.nonpolar>
-42.0682

> <Gold.PLP.part.repulsive>
0.3065

> <Gold.PLP.ligand.clash>
0.0000

> <Gold.PLP.ligand.torsion>
0.9766

> <Gold.PLP.Chemscore.Hbond>
3.9120

> <Gold.PLP.Chemscore.CHOScore>
0.0000

> <Gold.PLP.Chemscore.Metal>
0.0000

> <Gold.Chemscore.Hbonds>
donor molecule, donor type, donor heavy atom, donor atom, acceptor molecule, acceptor atom, score
      L1  H     8    31       P1  8028  1.00
      L1  H    11    32       P1  8028  1.00
      L1  H    16    45       P1  7948  1.24

> <Gold.PLP.Chemscore.Internal.Correction>
0.4012

> <Gold.Rescore>
     Score         DG    S(hbond)    S(metal)    S(lipo)     H(rot)  DE(clash)    DE(int)     intcor
     18.31     -22.56       2.95        0.00      97.11       1.61       0.70       3.55       ----

> <Gold.Chemscore.Fitness>
18.3126

> <Gold.Chemscore.DG>
-22.5590

> <Gold.Chemscore.ZeroCoef>
-5.4800

> <Gold.Chemscore.Hbond>
2.9490

> <Gold.Chemscore.Metal>
0.0000

> <Gold.Chemscore.Lipo>
97.1086

> <Gold.Chemscore.Internal_Hbond>
0.0000

> <Gold.Chemscore.DEClash>
0.7011

> <Gold.Chemscore.DEInternal>
3.5454

> <Gold.Chemscore.Rot>
1.6143

> <Gold.Chemscore.Internal.Correction>
   9.000000E+99

> <Gold.Chemscore.Hbonds>
donor molecule, donor type, donor heavy atom, donor atom, acceptor molecule, acceptor atom, score
      L1  H     8    31       P1  8028  0.95
      L1  H    11    32       P1  8028  0.99
      L1  H    16    45       P1  7948  0.63

> <Gold.Chemscore.Hbond.Weighted>
-9.8498

> <Gold.Chemscore.Metal.Weighted>
-0.0000

> <Gold.Chemscore.Lipo.Weighted>
-11.3617

> <Gold.Chemscore.Internal_Hbond.Weighted>
0.0000

> <Gold.Chemscore.DEClash.Weighted>
0.7011

> <Gold.Chemscore.DEInternal.Weighted>
3.5454

> <Gold.Chemscore.Rot.Weighted>
4.1325

> <Gold.Chemscore.Internal.Correction.Weighted>
   9.000000E+99

> <Gold.Protein.RotatedTorsions>
[ 6907 6896 6895 6894 ] final   98.48 input  -60.11 | X-H torsion
[ 7974 7965 7964 7962 ] final   73.01 input  175.53 | X-H torsion
[ 8008 7997 7996 7995 ] final  157.13 input   59.86 | X-H torsion
[ 10167 10162 10161 10158 ] final -172.88 input  -65.29 | X-H torsion
[ 10718 10713 10712 10709 ] final   19.81 input   66.30 | X-H torsion
[ 10763 10752 10751 10750 ] final -171.64 input  -60.55 | X-H torsion
[ 11005 11000 10999 10996 ] final  134.09 input  -57.11 | X-H torsion

> <Gold.Protein.ActiveResidues>
 VAL166  LYS551  ARG553  GLY616  TRP617  ASP618  TYR619  PRO620  LYS621  CYS622 
 ASP623  PHE694  ASN695  SER759  ASP760  ASP761  ALA762  ILE779  LEU786  VAL792 
 PHE793  MET794  SER795  GLU796  ALA797  LYS798  CYS799  TRP800  GLU811  SER814 

> <Gold.Protein.RotatedAtoms>
  152.5408  134.0574  159.8136 H   0  0  0  0  0  0  0  0  0  0  0  0  # atno 6907 bound_to 6896
  151.0707  133.5461  159.2634 H   0  0  0  0  0  0  0  0  0  0  0  0  # atno 6908 bound_to 6896
  151.2325  135.0568  159.9047 H   0  0  0  0  0  0  0  0  0  0  0  0  # atno 6909 bound_to 6896
  145.7463  139.2741  143.1457 H   0  0  0  0  0  0  0  0  0  0  0  0  # atno 7974 bound_to 7965
  156.2382  140.1893  156.7061 H   0  0  0  0  0  0  0  0  0  0  0  0  # atno 8008 bound_to 7997
  154.6146  140.0617  156.9565 H   0  0  0  0  0  0  0  0  0  0  0  0  # atno 8009 bound_to 7997
  155.1960  140.3288  155.4353 H   0  0  0  0  0  0  0  0  0  0  0  0  # atno 8010 bound_to 7997
  139.5720  144.1620  152.1397 H   0  0  0  0  0  0  0  0  0  0  0  0  # atno 10167 bound_to 10162
  157.1156  130.6527  149.5909 H   0  0  0  0  0  0  0  0  0  0  0  0  # atno 10718 bound_to 10713
  154.6282  135.2883  155.0247 H   0  0  0  0  0  0  0  0  0  0  0  0  # atno 10763 bound_to 10752
  154.1417  135.6517  153.4947 H   0  0  0  0  0  0  0  0  0  0  0  0  # atno 10764 bound_to 10752
  153.0267  135.5334  154.7099 H   0  0  0  0  0  0  0  0  0  0  0  0  # atno 10765 bound_to 10752
  139.9892  134.9521  156.9817 H   0  0  0  0  0  0  0  0  0  0  0  0  # atno 11005 bound_to 11000
  146.0400  140.8174  142.9833 LP  0  0  0  0  0  0  0  0  0  0  0  0  # atno 17320 bound_to 7965
  144.6859  140.2896  143.7280 LP  0  0  0  0  0  0  0  0  0  0  0  0  # atno 17321 bound_to 7965
  140.1155  144.5419  150.6897 LP  0  0  0  0  0  0  0  0  0  0  0  0  # atno 17342 bound_to 10162
  140.7004  143.2431  151.4881 LP  0  0  0  0  0  0  0  0  0  0  0  0  # atno 17343 bound_to 10162
  155.9840  130.4863  150.6962 LP  0  0  0  0  0  0  0  0  0  0  0  0  # atno 17370 bound_to 10713
  157.4521  131.0873  151.0835 LP  0  0  0  0  0  0  0  0  0  0  0  0  # atno 17371 bound_to 10713
  140.4941  134.1163  155.7238 LP  0  0  0  0  0  0  0  0  0  0  0  0  # atno 17394 bound_to 11000
  141.1551  133.8896  157.1997 LP  0  0  0  0  0  0  0  0  0  0  0  0  # atno 17395 bound_to 11000

$$$$
