#       Name:                AV-unprocessed.smi:1550
#       Creating user name   scv26
#       Creation time:       Fri Mar 27 06:40:47 2020


#       File generated by GOLD software.
#

@<TRIPOS>MOLECULE
AV-unprocessed.smi:1550
    51    52     1
SMALL
NO_CHARGES


@<TRIPOS>ATOM
      1 ****        -1.5844  -2.8448  -2.1766 C.3            1 S1                 0.0000
      2 ****        -1.1667  -2.0408  -0.9365 C.3            1 S1                 0.0000
      3 ****         0.2581  -2.0117  -0.9058 O.3            1 S1                 0.0000
      4 ****         0.8354  -1.5476   0.3097 C.3            1 S1                 0.0000
      5 ****         2.3627  -1.6013   0.1794 C.3            1 S1                 0.0000
      6 ****         3.0632  -1.3847   1.5351 C.3            1 S1                 0.0000
      7 ****         4.5855  -1.3505   1.3563 C.3            1 S1                 0.0000
      8 ****         4.9562  -0.3151   0.2894 C.3            1 S1                 0.0000
      9 ****         4.1591  -0.5686  -0.9998 C.3            1 S1                 0.0000
     10 ****         2.7638  -0.5648  -0.7148 O.3            1 S1                 0.0000
     11 ****        -1.7275  -0.6102  -0.9832 C.2            1 S1                 0.0000
     12 ****        -1.4875   0.1025  -1.9579 O.2            1 S1                 0.0000
     13 ****        -2.4610  -0.2416   0.0851 N.am           1 S1                 0.0000
     14 ****        -3.0377   1.0052   0.3782 C.2            1 S1                 0.0000
     15 ****        -2.6354   2.1881  -0.1635 C.2            1 S1                 0.0000
     16 ****        -3.2533   3.4586   0.1961 C.2            1 S1                 0.0000
     17 ****        -2.8441   4.8029  -0.3773 C.3            1 S1                 0.0000
     18 ****        -3.8707   5.3626  -1.0166 F              1 S1                 0.0000
     19 ****        -2.4696   5.6265   0.6012 F              1 S1                 0.0000
     20 ****        -1.8308   4.6795  -1.2347 F              1 S1                 0.0000
     21 ****        -4.2541   3.3091   1.1353 C.2            1 S1                 0.0000
     22 ****        -4.7053   2.1809   1.7262 N.pl3          1 S1                -1.0000
     23 ****        -4.1229   0.9978   1.3812 C.2            1 S1                 0.0000
     24 ****        -4.4801  -0.0677   1.8851 O.2            1 S1                 0.0000
     25 ****        -2.6698  -2.8953  -2.2687 H              1 S1                 0.0000
     26 ****        -1.2116  -3.8674  -2.1170 H              1 S1                 0.0000
     27 ****        -1.1894  -2.4044  -3.0930 H              1 S1                 0.0000
     28 ****        -1.5369  -2.5594  -0.0497 H              1 S1                 0.0000
     29 ****         0.5197  -0.5325   0.5535 H              1 S1                 0.0000
     30 ****         0.5089  -2.1958   1.1243 H              1 S1                 0.0000
     31 ****         2.6514  -2.5722  -0.2274 H              1 S1                 0.0000
     32 ****         2.7276  -0.4449   1.9758 H              1 S1                 0.0000
     33 ****         2.7882  -2.1740   2.2354 H              1 S1                 0.0000
     34 ****         5.0757  -1.1161   2.3015 H              1 S1                 0.0000
     35 ****         4.9420  -2.3356   1.0530 H              1 S1                 0.0000
     36 ****         4.7378   0.6873   0.6600 H              1 S1                 0.0000
     37 ****         6.0268  -0.3484   0.0858 H              1 S1                 0.0000
     38 ****         4.3708   0.2121  -1.7307 H              1 S1                 0.0000
     39 ****         4.4456  -1.5175  -1.4559 H              1 S1                 0.0000
     40 ****        -2.6546  -0.9607   0.7669 H              1 S1                 0.0000
     41 ****        -1.8187   2.2197  -0.8661 H              1 S1                 0.0000
     42 ****        -4.7667   4.2391   1.4618 H              1 S1                 0.0000
     43 ****         0.5700  -1.4128  -1.6434 LP             1 S1                 0.0000
     44 ****         0.5888  -2.9412  -1.0688 LP             1 S1                 0.0000
     45 ****         2.5269   0.3161  -0.3050 LP             1 S1                 0.0000
     46 ****         2.2649  -0.6775  -1.5741 LP             1 S1                 0.0000
     47 ****        -0.9319  -0.2504  -2.7107 LP             1 S1                 0.0000
     48 ****        -1.8481   1.0344  -1.9969 LP             1 S1                 0.0000
     49 ****        -5.4456   2.2130   2.3977 LP             1 S1                 0.0000
     50 ****        -4.0363  -0.9221   1.6150 LP             1 S1                 0.0000
     51 ****        -5.2140  -0.0784   2.5643 LP             1 S1                 0.0000
@<TRIPOS>BOND
    1    1    2 1     
    2    1   25 1     
    3    1   26 1     
    4    1   27 1     
    5    2    3 1     
    6    2   11 1     
    7    2   28 1     
    8    3    4 1     
    9    4    5 1     
   10    4   29 1     
   11    4   30 1     
   12    5   10 1     
   13    5    6 1     
   14    5   31 1     
   15    6    7 1     
   16    6   32 1     
   17    6   33 1     
   18    7    8 1     
   19    7   34 1     
   20    7   35 1     
   21    8    9 1     
   22    8   36 1     
   23    8   37 1     
   24    9   10 1     
   25    9   38 1     
   26    9   39 1     
   27   11   12 2     
   28   11   13 am    
   29   13   14 1     
   30   13   40 1     
   31   14   23 1     
   32   14   15 2     
   33   15   16 1     
   34   15   41 1     
   35   16   17 1     
   36   16   21 2     
   37   17   18 1     
   38   17   19 1     
   39   17   20 1     
   40   21   22 1     
   41   21   42 1     
   42   22   23 1     
   43   23   24 2     
   44    3   43 1     
   45    3   44 1     
   46   10   45 1     
   47   10   46 1     
   48   12   47 1     
   49   12   48 1     
   50   22   49 1     
   51   24   50 1     
   52   24   51 1     
@<TRIPOS>SUBSTRUCTURE
      1 S1             1
@<TRIPOS>SET
LONE_PAIRS      STATIC     ATOMS    <user>   **** ""
9 43 44 45 46 47 48 49 50 51
DONOR_HYDROGENS      STATIC     ATOMS    <user>   **** ""
1 40
ATOM$BLUE        STATIC     ATOMS    COLORGROUP SYSTEM
9 43 44 45 46 47 48 49 50 51
ATOM$RED        STATIC     ATOMS    COLORGROUP SYSTEM
1 40
