AV-unprocessed.smi:1603|AV-procd|sdf|6445|dock8
  -GOLD-   22720 7 93D 1   1.00000     0.00000
 Structure written by MMmdl.
 44 46  0  0  0  0  0  0  0  0  1 V2000
  153.0469  139.6326  158.1923 O   0  0  0  0  0  0  0  0  0  0  0  0
  152.7040  140.7270  158.6408 C   0  0  0  0  0  0  0  0  0  0  0  0
  153.2349  141.2895  159.8920 C   0  0  0  0  0  0  0  0  0  0  0  0
  154.2817  140.4799  160.6525 C   0  0  0  0  0  0  0  0  0  0  0  0
  154.0034  139.1754  160.6383 F   0  0  0  0  0  0  0  0  0  0  0  0
  155.4875  140.6465  160.1081 F   0  0  0  0  0  0  0  0  0  0  0  0
  154.3421  140.8695  161.9268 F   0  0  0  0  0  0  0  0  0  0  0  0
  152.8025  142.4960  160.3324 C   0  0  0  0  0  0  0  0  0  0  0  0
  151.8111  143.2368  159.5796 C   0  0  0  0  0  0  0  0  0  0  0  0
  151.2722  144.5684  160.0181 C   0  0  0  0  0  0  0  0  0  0  0  0
  151.9855  145.8668  159.7168 C   0  0  0  0  0  0  0  0  0  0  0  0
  151.9153  145.3540  161.1369 C   0  0  0  0  0  0  0  0  0  0  0  0
  151.3551  142.7462  158.4768 N   0  0  0  0  0  0  0  0  0  0  0  0
  151.7952  141.5247  158.0045 N   0  0  0  0  0  0  0  0  0  0  0  0
  151.1800  141.1326  156.7282 C   0  0  0  0  0  0  0  0  0  0  0  0
  149.6441  140.9988  156.8297 C   0  0  2  0  0  0  0  0  0  0  0  0
  149.1251  142.2977  157.0356 O   0  0  0  0  0  0  0  0  0  0  0  0
  149.1728  140.0833  157.9828 C   0  0  0  0  0  0  0  0  0  0  0  0
  149.2711  138.6487  157.7167 N   0  0  0  0  0  0  0  0  0  0  0  0
  150.6598  138.2031  157.7582 C   0  0  0  0  0  0  0  0  0  0  0  0
  150.7885  136.6957  157.4794 C   0  0  0  0  0  0  0  0  0  0  0  0
  149.9996  135.9700  158.4164 O   0  0  0  0  0  0  0  0  0  0  0  0
  148.6253  136.3410  158.3804 C   0  0  0  0  0  0  0  0  0  0  0  0
  148.4874  137.8488  158.6553 C   0  0  0  0  0  0  0  0  0  0  0  0
  153.1847  142.9273  161.2456 H   0  0  0  0  0  0  0  0  0  0  0  0
  150.1851  144.5805  159.9647 H   0  0  0  0  0  0  0  0  0  0  0  0
  152.9532  145.8226  159.2205 H   0  0  0  0  0  0  0  0  0  0  0  0
  151.3717  146.7288  159.4632 H   0  0  0  0  0  0  0  0  0  0  0  0
  151.2549  145.8736  161.8282 H   0  0  0  0  0  0  0  0  0  0  0  0
  152.8333  144.9644  161.5733 H   0  0  0  0  0  0  0  0  0  0  0  0
  151.4450  141.8091  155.9140 H   0  0  0  0  0  0  0  0  0  0  0  0
  151.6069  140.1695  156.4413 H   0  0  0  0  0  0  0  0  0  0  0  0
  149.2559  140.6332  155.8778 H   0  0  0  0  0  0  0  0  0  0  0  0
  149.3028  142.8170  156.2665 H   0  0  0  0  0  0  0  0  0  0  0  0
  149.7936  140.2907  158.8527 H   0  0  0  0  0  0  0  0  0  0  0  0
  148.1596  140.3468  158.2908 H   0  0  0  0  0  0  0  0  0  0  0  0
  151.2486  138.7551  157.0248 H   0  0  0  0  0  0  0  0  0  0  0  0
  151.0908  138.4257  158.7357 H   0  0  0  0  0  0  0  0  0  0  0  0
  150.4676  136.4618  156.4631 H   0  0  0  0  0  0  0  0  0  0  0  0
  151.8280  136.3806  157.5687 H   0  0  0  0  0  0  0  0  0  0  0  0
  148.1987  136.0854  157.4090 H   0  0  0  0  0  0  0  0  0  0  0  0
  148.0808  135.7674  159.1304 H   0  0  0  0  0  0  0  0  0  0  0  0
  148.8054  138.0608  159.6773 H   0  0  0  0  0  0  0  0  0  0  0  0
  147.4338  138.1198  158.5931 H   0  0  0  0  0  0  0  0  0  0  0  0
  1  2  2  0  0  0  0
  2 14  1  0  0  0  0
  2  3  1  0  0  0  0
  3  4  1  0  0  0  0
  3  8  2  0  0  0  0
  4  5  1  0  0  0  0
  4  6  1  0  0  0  0
  4  7  1  0  0  0  0
  8  9  1  0  0  0  0
  8 25  1  0  0  0  0
  9 10  1  0  0  0  0
  9 13  2  0  0  0  0
 10 12  1  0  0  0  0
 10 11  1  0  0  0  0
 10 26  1  0  0  0  0
 11 12  1  0  0  0  0
 11 27  1  0  0  0  0
 11 28  1  0  0  0  0
 12 29  1  0  0  0  0
 12 30  1  0  0  0  0
 13 14  1  0  0  0  0
 14 15  1  0  0  0  0
 15 16  1  0  0  0  0
 15 31  1  0  0  0  0
 15 32  1  0  0  0  0
 16 17  1  0  0  0  0
 16 18  1  0  0  0  0
 16 33  1  0  0  0  0
 17 34  1  0  0  0  0
 18 19  1  0  0  0  0
 18 35  1  0  0  0  0
 18 36  1  0  0  0  0
 19 24  1  0  0  0  0
 19 20  1  0  0  0  0
 20 21  1  0  0  0  0
 20 37  1  0  0  0  0
 20 38  1  0  0  0  0
 21 22  1  0  0  0  0
 21 39  1  0  0  0  0
 21 40  1  0  0  0  0
 22 23  1  0  0  0  0
 23 24  1  0  0  0  0
 23 41  1  0  0  0  0
 23 42  1  0  0  0  0
 24 43  1  0  0  0  0
 24 44  1  0  0  0  0
M  END
> <s_m_source_file>
AV-unprocessed.smi

> <i_m_source_file_index>
1603

> <i_lp_mmshare_version>
43012

> <i_f3d_flags>
0

> <s_epik_input>
Tz1jMWMoQyhGKShGKUYpW2NIXWMoW0NIXTJbQ0gyXVtDSDJdMilubjFbQ0gyXVtDQEhdKFtPSF0pW0NIMl1OM1tDSDJdW0NIMl1PW0NIMl1bQ0gyXTM=

> <s_epik_cmdline>
J2VwaWtfcHl0aG9uJywgJy1waCcsICc3LjAnLCAnLXRuJywgJzgnLCAnLW1hJywgJzIwMCcsICctbWV0YWxfYmluZGluZycsICctaW1hZScsICc8aW5maWxlLm1hZT4nLCAnLW9tYWUnLCAnPG91dGZpbGUubWFlPic=

> <r_lp_tautomer_probability>
1

> <r_epik_Ionization_Penalty>
0.450313

> <r_epik_Ionization_Penalty_Charging>
7.22079e-10

> <r_epik_Ionization_Penalty_Neutral>
0.450313

> <r_epik_State_Penalty>
0.45306

> <r_epik_Charging_Adjusted_Penalty>
0.45306

> <i_epik_Tot_Q>
0

> <i_epik_Tot_abs_Q>
0

> <r_epik_Metal_State_Penalty>
0.45306

> <b_epik_Metal_Only>
0

> <s_lp_Force_Field>
OPLS_2005

> <r_lp_Energy>
49.46

> <b_lp_Chiralities_Consistent>
1

> <s_lp_Variant>
AV-unprocessed.smi:1603-3

> <Gold.Version>
5.8.1

> <Gold.Id.Protein>
6NUR|6NUR_protein|mol2

> <Gold.PLP.Fitness>
46.8268

> <Gold.PLP.PLP>
-41.1840

> <Gold.PLP.part.hbond>
-3.0000

> <Gold.PLP.part.metal>
0.0000

> <Gold.PLP.part.buried>
-1.7811

> <Gold.PLP.part.nonpolar>
-36.4726

> <Gold.PLP.part.repulsive>
0.0449

> <Gold.PLP.ligand.clash>
0.0315

> <Gold.PLP.ligand.torsion>
1.6326

> <Gold.PLP.Chemscore.Hbond>
2.7531

> <Gold.PLP.Chemscore.CHOScore>
0.0000

> <Gold.PLP.Chemscore.Metal>
0.0000

> <Gold.Chemscore.Hbonds>
donor molecule, donor type, donor heavy atom, donor atom, acceptor molecule, acceptor atom, score
      L1  H    17    34       P1  8028  0.69
      P1  H  6896  6909       L1    22  1.00
      P1  H  7997  8008       L1     1  1.00

> <Gold.PLP.Chemscore.Internal.Correction>
0.6801

> <Gold.Rescore>
     Score         DG    S(hbond)    S(metal)    S(lipo)     H(rot)  DE(clash)    DE(int)     intcor
     13.83     -19.51       2.62        0.00      98.30       2.43       1.58       4.10       ----

> <Gold.Chemscore.Fitness>
13.8335

> <Gold.Chemscore.DG>
-19.5132

> <Gold.Chemscore.ZeroCoef>
-5.4800

> <Gold.Chemscore.Hbond>
2.6183

> <Gold.Chemscore.Metal>
0.0000

> <Gold.Chemscore.Lipo>
98.3029

> <Gold.Chemscore.Internal_Hbond>
0.0000

> <Gold.Chemscore.DEClash>
1.5761

> <Gold.Chemscore.DEInternal>
4.1035

> <Gold.Chemscore.Rot>
2.4272

> <Gold.Chemscore.Internal.Correction>
   9.000000E+99

> <Gold.Chemscore.Hbonds>
donor molecule, donor type, donor heavy atom, donor atom, acceptor molecule, acceptor atom, score
      L1  H    17    34       P1  8028  0.66
      P1  H  6896  6909       L1    22  0.95
      P1  H  7997  8008       L1     1  0.43

> <Gold.Chemscore.Hbond.Weighted>
-8.7452

> <Gold.Chemscore.Metal.Weighted>
-0.0000

> <Gold.Chemscore.Lipo.Weighted>
-11.5014

> <Gold.Chemscore.Internal_Hbond.Weighted>
0.0000

> <Gold.Chemscore.DEClash.Weighted>
1.5761

> <Gold.Chemscore.DEInternal.Weighted>
4.1035

> <Gold.Chemscore.Rot.Weighted>
6.2135

> <Gold.Chemscore.Internal.Correction.Weighted>
   9.000000E+99

> <Gold.Protein.RotatedTorsions>
[ 6907 6896 6895 6894 ] final   60.06 input  -60.11 | X-H torsion
[ 7974 7965 7964 7962 ] final -128.89 input  175.53 | X-H torsion
[ 8008 7997 7996 7995 ] final  -91.15 input   59.86 | X-H torsion
[ 10167 10162 10161 10158 ] final   93.73 input  -65.29 | X-H torsion
[ 10718 10713 10712 10709 ] final   60.05 input   66.30 | X-H torsion
[ 10763 10752 10751 10750 ] final -134.42 input  -60.55 | X-H torsion
[ 11005 11000 10999 10996 ] final   30.69 input  -57.11 | X-H torsion

> <Gold.Protein.ActiveResidues>
 VAL166  LYS551  ARG553  GLY616  TRP617  ASP618  TYR619  PRO620  LYS621  CYS622 
 ASP623  PHE694  ASN695  SER759  ASP760  ASP761  ALA762  ILE779  LEU786  VAL792 
 PHE793  MET794  SER795  GLU796  ALA797  LYS798  CYS799  TRP800  GLU811  SER814 

> <Gold.Protein.RotatedAtoms>
  152.3970  134.6349  160.0084 H   0  0  0  0  0  0  0  0  0  0  0  0  # atno 6907 bound_to 6896
  151.6566  133.3313  159.3172 H   0  0  0  0  0  0  0  0  0  0  0  0  # atno 6908 bound_to 6896
  150.7876  134.6916  159.6545 H   0  0  0  0  0  0  0  0  0  0  0  0  # atno 6909 bound_to 6896
  144.9625  140.7462  143.4720 H   0  0  0  0  0  0  0  0  0  0  0  0  # atno 7974 bound_to 7965
  154.7072  140.0522  157.0515 H   0  0  0  0  0  0  0  0  0  0  0  0  # atno 8008 bound_to 7997
  155.0604  140.3189  155.4643 H   0  0  0  0  0  0  0  0  0  0  0  0  # atno 8009 bound_to 7997
  156.2778  140.2100  156.5731 H   0  0  0  0  0  0  0  0  0  0  0  0  # atno 8010 bound_to 7997
  139.8152  144.6756  150.9590 H   0  0  0  0  0  0  0  0  0  0  0  0  # atno 10167 bound_to 10162
  157.5723  130.8917  149.9288 H   0  0  0  0  0  0  0  0  0  0  0  0  # atno 10718 bound_to 10713
  154.8719  135.3735  154.4733 H   0  0  0  0  0  0  0  0  0  0  0  0  # atno 10763 bound_to 10752
  153.5392  135.7026  153.5650 H   0  0  0  0  0  0  0  0  0  0  0  0  # atno 10764 bound_to 10752
  153.3820  135.3994  155.1828 H   0  0  0  0  0  0  0  0  0  0  0  0  # atno 10765 bound_to 10752
  140.2917  134.2857  155.7774 H   0  0  0  0  0  0  0  0  0  0  0  0  # atno 11005 bound_to 11000
  145.2678  139.1966  143.4858 LP  0  0  0  0  0  0  0  0  0  0  0  0  # atno 17320 bound_to 7965
  146.3357  140.2619  142.8602 LP  0  0  0  0  0  0  0  0  0  0  0  0  # atno 17321 bound_to 7965
  140.7816  143.4146  151.0938 LP  0  0  0  0  0  0  0  0  0  0  0  0  # atno 17342 bound_to 10162
  139.7810  143.8355  152.3137 LP  0  0  0  0  0  0  0  0  0  0  0  0  # atno 17343 bound_to 10162
  156.0768  130.3678  150.0660 LP  0  0  0  0  0  0  0  0  0  0  0  0  # atno 17370 bound_to 10713
  156.8811  130.9557  151.3599 LP  0  0  0  0  0  0  0  0  0  0  0  0  # atno 17371 bound_to 10713
  141.2145  133.7589  156.9634 LP  0  0  0  0  0  0  0  0  0  0  0  0  # atno 17394 bound_to 11000
  140.1189  134.9429  157.2175 LP  0  0  0  0  0  0  0  0  0  0  0  0  # atno 17395 bound_to 11000

$$$$
