#       Name:                AV-unprocessed.smi:2919
#       Creating user name   scv26
#       Creation time:       Fri Mar 27 16:08:46 2020


#       File generated by GOLD software.
#

@<TRIPOS>MOLECULE
AV-unprocessed.smi:2919
    39    41     1
SMALL
NO_CHARGES


@<TRIPOS>ATOM
      1 ****        -4.8388  -0.0727   0.1460 C.3            1 S1                 0.0000
      2 ****        -3.3488  -0.3056  -0.0311 C.ar           1 S1                 0.0000
      3 ****        -2.6003   0.8170  -0.0998 N.ar           1 S1                 0.0000
      4 ****        -1.2778   0.7394  -0.2546 N.ar           1 S1                 0.0000
      5 ****        -0.6552  -0.4609  -0.3432 C.ar           1 S1                 0.0000
      6 ****         0.7428  -0.4609  -0.5050 N.pl3          1 S1                 0.0000
      7 ****         1.5304   0.7597  -0.3665 C.3            1 S1                 0.0000
      8 ****         1.6500   1.2380   1.0866 C.3            1 S1                 0.0000
      9 ****         3.1706   1.3032   1.2754 C.3            1 S1                 0.0000
     10 ****         3.8118   2.4296   0.4535 C.3            1 S1                 0.0000
     11 ****         3.7275   1.8676  -0.9653 C.3            1 S1                 0.0000
     12 ****         3.0065   0.5328  -0.7345 C.3            1 S1                 0.0000
     13 ****         3.5612   0.1705   0.5200 O.3            1 S1                 0.0000
     14 ****        -1.3793  -1.6798  -0.2806 C.ar           1 S1                 0.0000
     15 ****        -0.7035  -2.9723  -0.3776 C.1            1 S1                 0.0000
     16 ****        -0.1687  -3.9954  -0.4544 N.1            1 S1                 0.0000
     17 ****        -2.7855  -1.6019  -0.1175 C.ar           1 S1                 0.0000
     18 ****        -3.6449  -2.8613  -0.0381 C.3            1 S1                 0.0000
     19 ****        -5.3928  -0.4933  -0.6934 H              1 S1                 0.0000
     20 ****        -5.0740   0.9910   0.2003 H              1 S1                 0.0000
     21 ****        -5.1912  -0.5383   1.0666 H              1 S1                 0.0000
     22 ****         1.2353  -1.3422  -0.5337 H              1 S1                 0.0000
     23 ****         1.1073   1.5330  -1.0091 H              1 S1                 0.0000
     24 ****         1.1670   2.2014   1.2524 H              1 S1                 0.0000
     25 ****         1.2168   0.5196   1.7843 H              1 S1                 0.0000
     26 ****         3.4877   1.2785   2.3181 H              1 S1                 0.0000
     27 ****         3.2825   3.3764   0.5668 H              1 S1                 0.0000
     28 ****         4.8522   2.5809   0.7434 H              1 S1                 0.0000
     29 ****         3.1872   2.5221  -1.6501 H              1 S1                 0.0000
     30 ****         4.7264   1.7004  -1.3696 H              1 S1                 0.0000
     31 ****         3.1697  -0.1938  -1.5315 H              1 S1                 0.0000
     32 ****        -3.3429  -3.4695   0.8152 H              1 S1                 0.0000
     33 ****        -3.5229  -3.4583  -0.9423 H              1 S1                 0.0000
     34 ****        -4.7078  -2.6536   0.0708 H              1 S1                 0.0000
     35 ****        -3.0408   1.7123  -0.0342 LP             1 S1                 0.0000
     36 ****        -0.7377   1.5794  -0.3061 LP             1 S1                 0.0000
     37 ****         3.1607  -0.6735   0.8766 LP             1 S1                 0.0000
     38 ****         4.5557   0.0748   0.4759 LP             1 S1                 0.0000
     39 ****         0.2936  -4.8797  -0.5208 LP             1 S1                 0.0000
@<TRIPOS>BOND
    1    1    2 1     
    2    1   19 1     
    3    1   20 1     
    4    1   21 1     
    5    2   17 ar    
    6    2    3 ar    
    7    3    4 ar    
    8    4    5 ar    
    9    5    6 1     
   10    5   14 ar    
   11    6    7 1     
   12    6   22 1     
   13    7   12 1     
   14    7    8 1     
   15    7   23 1     
   16    8    9 1     
   17    8   24 1     
   18    8   25 1     
   19    9   13 1     
   20    9   10 1     
   21    9   26 1     
   22   10   11 1     
   23   10   27 1     
   24   10   28 1     
   25   11   12 1     
   26   11   29 1     
   27   11   30 1     
   28   12   13 1     
   29   12   31 1     
   30   14   15 1     
   31   14   17 ar    
   32   15   16 3     
   33   17   18 1     
   34   18   32 1     
   35   18   33 1     
   36   18   34 1     
   37    3   35 1     
   38    4   36 1     
   39   13   37 1     
   40   13   38 1     
   41   16   39 1     
@<TRIPOS>SUBSTRUCTURE
      1 S1             1
@<TRIPOS>SET
LONE_PAIRS      STATIC     ATOMS    <user>   **** ""
5 35 36 37 38 39
DONOR_HYDROGENS      STATIC     ATOMS    <user>   **** ""
1 22
ATOM$BLUE        STATIC     ATOMS    COLORGROUP SYSTEM
5 35 36 37 38 39
ATOM$RED        STATIC     ATOMS    COLORGROUP SYSTEM
1 22
