AV-unprocessed.smi:1936|AV-procd|sdf|7830|dock1
  -GOLD-   22720 9573D 1   1.00000     0.00000
 Structure written by MMmdl.
 38 39  0  0  0  0  0  0  0  0  1 V2000
  147.1030  139.5466  151.1229 C   0  0  0  0  0  0  0  0  0  0  0  0
  146.9351  138.3817  152.1122 C   0  0  1  0  0  0  0  0  0  0  0  0
  146.5742  138.8899  153.5253 C   0  0  0  0  0  0  0  0  0  0  0  0
  147.6903  139.4341  154.3001 N   0  0  0  0  0  0  0  0  0  0  0  0
  148.2230  140.6715  153.7332 C   0  0  0  0  0  0  0  0  0  0  0  0
  149.4170  141.2090  154.5413 C   0  0  0  0  0  0  0  0  0  0  0  0
  150.4279  140.2101  154.6253 O   0  0  0  0  0  0  0  0  0  0  0  0
  149.9586  139.0061  155.2229 C   0  0  0  0  0  0  0  0  0  0  0  0
  148.7709  138.4599  154.4120 C   0  0  0  0  0  0  0  0  0  0  0  0
  145.8848  137.4897  151.6251 N   0  0  0  0  0  0  0  0  0  0  0  0
  145.5048  136.3419  152.2071 C   0  0  0  0  0  0  0  0  0  0  0  0
  146.0263  135.9020  153.2332 O   0  0  0  0  0  0  0  0  0  0  0  0
  144.3609  135.5940  151.5108 C   0  0  0  0  0  0  0  0  0  0  0  0
  144.6922  134.2130  151.1979 N   0  0  0  0  0  0  0  0  0  0  0  0
  143.9049  133.2607  150.5842 C   0  0  0  0  0  0  0  0  0  0  0  0
  144.6423  132.1143  150.5027 C   0  0  0  0  0  0  0  0  0  0  0  0
  145.8839  132.4680  151.1011 C   0  0  0  0  0  0  0  0  0  0  0  0
  145.9102  133.7235  151.5186 N   0  0  0  0  0  0  0  0  0  0  0  0
  147.8943  140.2242  151.4451 H   0  0  0  0  0  0  0  0  0  0  0  0
  146.1841  140.1268  151.0321 H   0  0  0  0  0  0  0  0  0  0  0  0
  147.3697  139.1862  150.1287 H   0  0  0  0  0  0  0  0  0  0  0  0
  147.8875  137.8496  152.1630 H   0  0  0  0  0  0  0  0  0  0  0  0
  145.8385  139.6869  153.4089 H   0  0  0  0  0  0  0  0  0  0  0  0
  146.0627  138.1101  154.0922 H   0  0  0  0  0  0  0  0  0  0  0  0
  148.5320  140.5026  152.7005 H   0  0  0  0  0  0  0  0  0  0  0  0
  147.4496  141.4386  153.7082 H   0  0  0  0  0  0  0  0  0  0  0  0
  149.8305  142.0961  154.0614 H   0  0  0  0  0  0  0  0  0  0  0  0
  149.1031  141.5037  155.5440 H   0  0  0  0  0  0  0  0  0  0  0  0
  150.7701  138.2788  155.2447 H   0  0  0  0  0  0  0  0  0  0  0  0
  149.6674  139.1936  156.2577 H   0  0  0  0  0  0  0  0  0  0  0  0
  148.4015  137.5494  154.8854 H   0  0  0  0  0  0  0  0  0  0  0  0
  149.1167  138.1755  153.4169 H   0  0  0  0  0  0  0  0  0  0  0  0
  145.4025  137.7747  150.7850 H   0  0  0  0  0  0  0  0  0  0  0  0
  143.4737  135.6165  152.1459 H   0  0  0  0  0  0  0  0  0  0  0  0
  144.1048  136.1051  150.5819 H   0  0  0  0  0  0  0  0  0  0  0  0
  142.8982  133.4773  150.2583 H   0  0  0  0  0  0  0  0  0  0  0  0
  144.3415  131.1678  150.0788 H   0  0  0  0  0  0  0  0  0  0  0  0
  146.7606  131.8537  151.2441 H   0  0  0  0  0  0  0  0  0  0  0  0
  1  2  1  0  0  0  0
  1 19  1  0  0  0  0
  1 20  1  0  0  0  0
  1 21  1  0  0  0  0
  2  3  1  0  0  0  0
  2 10  1  0  0  0  0
  2 22  1  0  0  0  0
  3  4  1  0  0  0  0
  3 23  1  0  0  0  0
  3 24  1  0  0  0  0
  4  9  1  0  0  0  0
  4  5  1  0  0  0  0
  5  6  1  0  0  0  0
  5 25  1  0  0  0  0
  5 26  1  0  0  0  0
  6  7  1  0  0  0  0
  6 27  1  0  0  0  0
  6 28  1  0  0  0  0
  7  8  1  0  0  0  0
  8  9  1  0  0  0  0
  8 29  1  0  0  0  0
  8 30  1  0  0  0  0
  9 31  1  0  0  0  0
  9 32  1  0  0  0  0
 10 11  1  0  0  0  0
 10 33  1  0  0  0  0
 11 12  2  0  0  0  0
 11 13  1  0  0  0  0
 13 14  1  0  0  0  0
 13 34  1  0  0  0  0
 13 35  1  0  0  0  0
 14 18  1  0  0  0  0
 14 15  1  0  0  0  0
 15 16  2  0  0  0  0
 15 36  1  0  0  0  0
 16 17  1  0  0  0  0
 16 37  1  0  0  0  0
 17 18  2  0  0  0  0
 17 38  1  0  0  0  0
M  END
> <s_m_source_file>
AV-unprocessed.smi

> <i_m_source_file_index>
1936

> <i_lp_mmshare_version>
43012

> <i_f3d_flags>
0

> <s_epik_input>
W0NIMl0xW0NIMl1PW0NIMl1bQ0gyXU4xW0NIMl1bQ0BASF0oW0NIM10pW05IXUMoPU8pW0NIMl1uMltjSF1bY0hdW2NIXW4y

> <s_epik_cmdline>
J2VwaWtfcHl0aG9uJywgJy1waCcsICc3LjAnLCAnLXRuJywgJzgnLCAnLW1hJywgJzIwMCcsICctbWV0YWxfYmluZGluZycsICctaW1hZScsICc8aW5maWxlLm1hZT4nLCAnLW9tYWUnLCAnPG91dGZpbGUubWFlPic=

> <r_lp_tautomer_probability>
1

> <r_epik_Ionization_Penalty>
0.196927

> <r_epik_Ionization_Penalty_Charging>
0

> <r_epik_Ionization_Penalty_Neutral>
0.196927

> <r_epik_State_Penalty>
0.186684

> <r_epik_Charging_Adjusted_Penalty>
0.186684

> <i_epik_Tot_Q>
0

> <i_epik_Tot_abs_Q>
0

> <r_epik_Metal_State_Penalty>
0.186682

> <b_epik_Metal_Only>
0

> <s_lp_Force_Field>
OPLS_2005

> <r_lp_Energy>
27.4163

> <b_lp_Chiralities_Consistent>
1

> <s_lp_Variant>
AV-unprocessed.smi:1936-2

> <Gold.Version>
5.8.1

> <Gold.Id.Protein>
6NUR|6NUR_protein|mol2

> <Gold.PLP.Fitness>
45.7656

> <Gold.PLP.PLP>
-34.1521

> <Gold.PLP.part.hbond>
-2.0000

> <Gold.PLP.part.metal>
0.0000

> <Gold.PLP.part.buried>
-1.5234

> <Gold.PLP.part.nonpolar>
-30.9312

> <Gold.PLP.part.repulsive>
1.7411

> <Gold.PLP.ligand.clash>
0.0000

> <Gold.PLP.ligand.torsion>
0.2088

> <Gold.PLP.Chemscore.Hbond>
1.9440

> <Gold.PLP.Chemscore.CHOScore>
2.0000

> <Gold.PLP.Chemscore.Metal>
0.0000

> <Gold.Chemscore.Hbonds>
donor molecule, donor type, donor heavy atom, donor atom, acceptor molecule, acceptor atom, score
      L1  H    10    33       P1 10171  1.00
      P1  H  7989  7998       L1     7  1.00
      L1  C    15    36       P1 10186  1.00
      L1  C    17    38       P1 10747  0.79

> <Gold.PLP.Chemscore.Internal.Correction>
0.1991

> <Gold.Rescore>
     Score         DG    S(hbond)    S(metal)    S(lipo)     H(rot)  DE(clash)    DE(int)     intcor
     13.08     -17.10       1.89        0.00      85.83       1.85       1.32       2.70       ----

> <Gold.Chemscore.Fitness>
13.0760

> <Gold.Chemscore.DG>
-17.0971

> <Gold.Chemscore.ZeroCoef>
-5.4800

> <Gold.Chemscore.Hbond>
1.8931

> <Gold.Chemscore.Metal>
0.0000

> <Gold.Chemscore.Lipo>
85.8342

> <Gold.Chemscore.Internal_Hbond>
0.0000

> <Gold.Chemscore.DEClash>
1.3187

> <Gold.Chemscore.DEInternal>
2.7024

> <Gold.Chemscore.Rot>
1.8549

> <Gold.Chemscore.Internal.Correction>
   9.000000E+99

> <Gold.Chemscore.Hbonds>
donor molecule, donor type, donor heavy atom, donor atom, acceptor molecule, acceptor atom, score
      L1  H    10    33       P1 10171  0.95
      P1  H  7989  7998       L1     7  0.25

> <Gold.Chemscore.Hbond.Weighted>
-6.3230

> <Gold.Chemscore.Metal.Weighted>
-0.0000

> <Gold.Chemscore.Lipo.Weighted>
-10.0426

> <Gold.Chemscore.Internal_Hbond.Weighted>
0.0000

> <Gold.Chemscore.DEClash.Weighted>
1.3187

> <Gold.Chemscore.DEInternal.Weighted>
2.7024

> <Gold.Chemscore.Rot.Weighted>
4.7485

> <Gold.Chemscore.Internal.Correction.Weighted>
   9.000000E+99

> <Gold.Protein.RotatedTorsions>
[ 6907 6896 6895 6894 ] final -155.37 input  -60.11 | X-H torsion
[ 7974 7965 7964 7962 ] final  -37.55 input  175.53 | X-H torsion
[ 8008 7997 7996 7995 ] final -172.44 input   59.86 | X-H torsion
[ 10167 10162 10161 10158 ] final   62.04 input  -65.29 | X-H torsion
[ 10718 10713 10712 10709 ] final  -79.60 input   66.30 | X-H torsion
[ 10763 10752 10751 10750 ] final  170.15 input  -60.55 | X-H torsion
[ 11005 11000 10999 10996 ] final  112.39 input  -57.11 | X-H torsion

> <Gold.Protein.ActiveResidues>
 VAL166  LYS551  ARG553  GLY616  TRP617  ASP618  TYR619  PRO620  LYS621  CYS622 
 ASP623  PHE694  ASN695  SER759  ASP760  ASP761  ALA762  ILE779  LEU786  VAL792 
 PHE793  MET794  SER795  GLU796  ALA797  LYS798  CYS799  TRP800  GLU811  SER814 

> <Gold.Protein.RotatedAtoms>
  151.2715  133.4253  159.2621 H   0  0  0  0  0  0  0  0  0  0  0  0  # atno 6907 bound_to 6896
  151.0441  134.9628  159.8187 H   0  0  0  0  0  0  0  0  0  0  0  0  # atno 6908 bound_to 6896
  152.5370  134.2672  159.9010 H   0  0  0  0  0  0  0  0  0  0  0  0  # atno 6909 bound_to 6896
  146.0564  140.6409  142.9017 H   0  0  0  0  0  0  0  0  0  0  0  0  # atno 7974 bound_to 7965
  155.9446  140.1115  157.1027 H   0  0  0  0  0  0  0  0  0  0  0  0  # atno 8008 bound_to 7997
  154.4096  140.1212  156.5038 H   0  0  0  0  0  0  0  0  0  0  0  0  # atno 8009 bound_to 7997
  155.6919  140.3472  155.4899 H   0  0  0  0  0  0  0  0  0  0  0  0  # atno 8010 bound_to 7997
  140.1482  144.4488  150.6774 H   0  0  0  0  0  0  0  0  0  0  0  0  # atno 10167 bound_to 10162
  156.0089  130.4550  150.3673 H   0  0  0  0  0  0  0  0  0  0  0  0  # atno 10718 bound_to 10713
  154.3934  135.2754  155.2141 H   0  0  0  0  0  0  0  0  0  0  0  0  # atno 10763 bound_to 10752
  154.4197  135.6003  153.6006 H   0  0  0  0  0  0  0  0  0  0  0  0  # atno 10764 bound_to 10752
  152.9832  135.5969  154.4192 H   0  0  0  0  0  0  0  0  0  0  0  0  # atno 10765 bound_to 10752
  139.8926  134.9529  156.6578 H   0  0  0  0  0  0  0  0  0  0  0  0  # atno 11005 bound_to 11000
  144.7150  140.4179  143.7051 LP  0  0  0  0  0  0  0  0  0  0  0  0  # atno 17320 bound_to 7965
  145.6635  139.1586  143.2795 LP  0  0  0  0  0  0  0  0  0  0  0  0  # atno 17321 bound_to 7965
  140.6719  143.2289  151.5604 LP  0  0  0  0  0  0  0  0  0  0  0  0  # atno 17342 bound_to 10162
  139.5439  144.2574  152.1404 LP  0  0  0  0  0  0  0  0  0  0  0  0  # atno 17343 bound_to 10162
  157.1759  131.0380  151.2772 LP  0  0  0  0  0  0  0  0  0  0  0  0  # atno 17370 bound_to 10713
  157.4188  130.7426  149.6897 LP  0  0  0  0  0  0  0  0  0  0  0  0  # atno 17371 bound_to 10713
  140.7470  133.8929  155.8319 LP  0  0  0  0  0  0  0  0  0  0  0  0  # atno 17394 bound_to 11000
  141.0031  134.1122  157.4297 LP  0  0  0  0  0  0  0  0  0  0  0  0  # atno 17395 bound_to 11000

$$$$
