AV-unprocessed.smi:1928|AV-procd|sdf|7798|dock4
  -GOLD-   22720 9543D 1   1.00000     0.00000
 Structure written by MMmdl.
 34 35  0  0  0  0  0  0  0  0  1 V2000
  145.1534  143.1228  156.2923 C   0  0  0  0  0  0  0  0  0  0  0  0
  146.2517  142.4341  155.5574 C   0  0  0  0  0  0  0  0  0  0  0  0
  147.0274  141.4919  156.1000 N   0  0  0  0  0  0  0  0  0  0  0  0
  147.9828  140.9979  155.2050 C   0  0  0  0  0  0  0  0  0  0  0  0
  148.9398  139.9233  155.6399 C   0  0  0  0  0  0  0  0  0  0  0  0
  150.2892  140.5191  156.0529 C   0  0  0  0  0  0  0  0  0  0  0  0
  151.2888  140.3073  155.3668 O   0  0  0  0  0  0  0  0  0  0  0  0
  150.3093  141.2458  157.1823 N   0  0  0  0  0  0  0  0  0  0  0  0
  151.4797  141.9086  157.7469 C   0  0  0  0  0  0  0  0  0  0  0  0
  151.6590  141.5120  159.2264 C   0  0  0  0  0  0  0  0  0  0  0  0
  152.8285  142.2700  159.8754 C   0  0  0  0  0  0  0  0  0  0  0  0
  152.6607  143.7903  159.7264 C   0  0  0  0  0  0  0  0  0  0  0  0
  152.4932  144.1873  158.2515 C   0  0  0  0  0  0  0  0  0  0  0  0
  151.3217  143.4337  157.6016 C   0  0  0  0  0  0  0  0  0  0  0  0
  147.9234  141.5949  153.9694 C   0  0  0  0  0  0  0  0  0  0  0  0
  146.6572  142.7878  153.8828 S   0  0  0  0  0  0  0  0  0  0  0  0
  144.9110  142.5881  157.2112 H   0  0  0  0  0  0  0  0  0  0  0  0
  144.2594  143.1687  155.6700 H   0  0  0  0  0  0  0  0  0  0  0  0
  145.4559  144.1388  156.5463 H   0  0  0  0  0  0  0  0  0  0  0  0
  148.5330  139.3633  156.4826 H   0  0  0  0  0  0  0  0  0  0  0  0
  149.0943  139.2012  154.8368 H   0  0  0  0  0  0  0  0  0  0  0  0
  149.4400  141.3601  157.6829 H   0  0  0  0  0  0  0  0  0  0  0  0
  152.3707  141.6081  157.1916 H   0  0  0  0  0  0  0  0  0  0  0  0
  150.7421  141.7233  159.7788 H   0  0  0  0  0  0  0  0  0  0  0  0
  151.8287  140.4379  159.3095 H   0  0  0  0  0  0  0  0  0  0  0  0
  152.9018  142.0056  160.9306 H   0  0  0  0  0  0  0  0  0  0  0  0
  153.7658  141.9586  159.4126 H   0  0  0  0  0  0  0  0  0  0  0  0
  151.7902  144.1200  160.2952 H   0  0  0  0  0  0  0  0  0  0  0  0
  153.5222  144.3036  160.1542 H   0  0  0  0  0  0  0  0  0  0  0  0
  152.3328  145.2629  158.1714 H   0  0  0  0  0  0  0  0  0  0  0  0
  153.4132  143.9701  157.7075 H   0  0  0  0  0  0  0  0  0  0  0  0
  151.2526  143.7028  156.5468 H   0  0  0  0  0  0  0  0  0  0  0  0
  150.3869  143.7541  158.0640 H   0  0  0  0  0  0  0  0  0  0  0  0
  148.5427  141.4021  153.1059 H   0  0  0  0  0  0  0  0  0  0  0  0
  1  2  1  0  0  0  0
  1 17  1  0  0  0  0
  1 18  1  0  0  0  0
  1 19  1  0  0  0  0
  2 16  1  0  0  0  0
  2  3  2  0  0  0  0
  3  4  1  0  0  0  0
  4  5  1  0  0  0  0
  4 15  2  0  0  0  0
  5  6  1  0  0  0  0
  5 20  1  0  0  0  0
  5 21  1  0  0  0  0
  6  7  2  0  0  0  0
  6  8  1  0  0  0  0
  8  9  1  0  0  0  0
  8 22  1  0  0  0  0
  9 14  1  0  0  0  0
  9 10  1  0  0  0  0
  9 23  1  0  0  0  0
 10 11  1  0  0  0  0
 10 24  1  0  0  0  0
 10 25  1  0  0  0  0
 11 12  1  0  0  0  0
 11 26  1  0  0  0  0
 11 27  1  0  0  0  0
 12 13  1  0  0  0  0
 12 28  1  0  0  0  0
 12 29  1  0  0  0  0
 13 14  1  0  0  0  0
 13 30  1  0  0  0  0
 13 31  1  0  0  0  0
 14 32  1  0  0  0  0
 14 33  1  0  0  0  0
 15 16  1  0  0  0  0
 15 34  1  0  0  0  0
M  END
> <s_m_source_file>
AV-unprocessed.smi

> <i_m_source_file_index>
1928

> <i_lp_mmshare_version>
43012

> <i_f3d_flags>
0

> <s_epik_input>
W0NIM11jMW5jKFtjSF1zMSlbQ0gyXUMoPU8pW05IXVtDSF0yW0NIMl1bQ0gyXVtDSDJdW0NIMl1bQ0gyXTI=

> <s_epik_cmdline>
J2VwaWtfcHl0aG9uJywgJy1waCcsICc3LjAnLCAnLXRuJywgJzgnLCAnLW1hJywgJzIwMCcsICctbWV0YWxfYmluZGluZycsICctaW1hZScsICc8aW5maWxlLm1hZT4nLCAnLW9tYWUnLCAnPG91dGZpbGUubWFlPic=

> <r_lp_tautomer_probability>
1

> <r_epik_Ionization_Penalty>
6.58409e-05

> <r_epik_Ionization_Penalty_Charging>
0

> <r_epik_Ionization_Penalty_Neutral>
6.58409e-05

> <r_epik_State_Penalty>
-0

> <r_epik_Charging_Adjusted_Penalty>
0

> <i_epik_Tot_Q>
0

> <i_epik_Tot_abs_Q>
0

> <r_epik_Metal_State_Penalty>
-0

> <b_epik_Metal_Only>
0

> <s_lp_Force_Field>
OPLS_2005

> <r_lp_Energy>
7.15539

> <b_lp_Chiralities_Consistent>
1

> <s_lp_Variant>
AV-unprocessed.smi:1928-1

> <Gold.Version>
5.8.1

> <Gold.Id.Protein>
6NUR|6NUR_protein|mol2

> <Gold.PLP.Fitness>
39.7036

> <Gold.PLP.PLP>
-34.9436

> <Gold.PLP.part.hbond>
-1.0000

> <Gold.PLP.part.metal>
0.0000

> <Gold.PLP.part.buried>
-4.5596

> <Gold.PLP.part.nonpolar>
-29.3574

> <Gold.PLP.part.repulsive>
0.1235

> <Gold.PLP.ligand.clash>
0.0000

> <Gold.PLP.ligand.torsion>
0.4657

> <Gold.PLP.Chemscore.Hbond>
0.8960

> <Gold.PLP.Chemscore.CHOScore>
1.0000

> <Gold.PLP.Chemscore.Metal>
0.0000

> <Gold.Chemscore.Hbonds>
donor molecule, donor type, donor heavy atom, donor atom, acceptor molecule, acceptor atom, score
      P1  H  7989  7998       L1     7  0.99
      L1  C    15    34       P1  7957  0.85

> <Gold.PLP.Chemscore.Internal.Correction>
0.0035

> <Gold.Rescore>
     Score         DG    S(hbond)    S(metal)    S(lipo)     H(rot)  DE(clash)    DE(int)     intcor
     16.07     -16.45       0.95        0.00      94.48       1.28       0.07       0.31       ----

> <Gold.Chemscore.Fitness>
16.0692

> <Gold.Chemscore.DG>
-16.4476

> <Gold.Chemscore.ZeroCoef>
-5.4800

> <Gold.Chemscore.Hbond>
0.9522

> <Gold.Chemscore.Metal>
0.0000

> <Gold.Chemscore.Lipo>
94.4771

> <Gold.Chemscore.Internal_Hbond>
0.0000

> <Gold.Chemscore.DEClash>
0.0731

> <Gold.Chemscore.DEInternal>
0.3053

> <Gold.Chemscore.Rot>
1.2761

> <Gold.Chemscore.Internal.Correction>
   9.000000E+99

> <Gold.Chemscore.Hbonds>
donor molecule, donor type, donor heavy atom, donor atom, acceptor molecule, acceptor atom, score
      P1  H  7989  7998       L1     7  0.91

> <Gold.Chemscore.Hbond.Weighted>
-3.1805

> <Gold.Chemscore.Metal.Weighted>
-0.0000

> <Gold.Chemscore.Lipo.Weighted>
-11.0538

> <Gold.Chemscore.Internal_Hbond.Weighted>
0.0000

> <Gold.Chemscore.DEClash.Weighted>
0.0731

> <Gold.Chemscore.DEInternal.Weighted>
0.3053

> <Gold.Chemscore.Rot.Weighted>
3.2667

> <Gold.Chemscore.Internal.Correction.Weighted>
   9.000000E+99

> <Gold.Protein.RotatedTorsions>
[ 6907 6896 6895 6894 ] final  117.21 input  -60.11 | X-H torsion
[ 7974 7965 7964 7962 ] final  166.89 input  175.53 | X-H torsion
[ 8008 7997 7996 7995 ] final   77.43 input   59.86 | X-H torsion
[ 10167 10162 10161 10158 ] final   22.33 input  -65.29 | X-H torsion
[ 10718 10713 10712 10709 ] final -115.79 input   66.30 | X-H torsion
[ 10763 10752 10751 10750 ] final  114.14 input  -60.55 | X-H torsion
[ 11005 11000 10999 10996 ] final  -68.56 input  -57.11 | X-H torsion

> <Gold.Protein.ActiveResidues>
 VAL166  LYS551  ARG553  GLY616  TRP617  ASP618  TYR619  PRO620  LYS621  CYS622 
 ASP623  PHE694  ASN695  SER759  ASP760  ASP761  ALA762  ILE779  LEU786  VAL792 
 PHE793  MET794  SER795  GLU796  ALA797  LYS798  CYS799  TRP800  GLU811  SER814 

> <Gold.Protein.RotatedAtoms>
  152.4627  133.7856  159.6874 H   0  0  0  0  0  0  0  0  0  0  0  0  # atno 6907 bound_to 6896
  150.8578  133.7679  159.3009 H   0  0  0  0  0  0  0  0  0  0  0  0  # atno 6908 bound_to 6896
  151.5254  135.1071  159.9941 H   0  0  0  0  0  0  0  0  0  0  0  0  # atno 6909 bound_to 6896
  144.7445  139.8681  143.6386 H   0  0  0  0  0  0  0  0  0  0  0  0  # atno 7974 bound_to 7965
  155.8415  140.3462  155.5635 H   0  0  0  0  0  0  0  0  0  0  0  0  # atno 8008 bound_to 7997
  155.8135  140.0902  157.1910 H   0  0  0  0  0  0  0  0  0  0  0  0  # atno 8009 bound_to 7997
  154.4005  140.1443  156.3402 H   0  0  0  0  0  0  0  0  0  0  0  0  # atno 8010 bound_to 7997
  140.5357  143.9764  150.6490 H   0  0  0  0  0  0  0  0  0  0  0  0  # atno 10167 bound_to 10162
  156.0919  130.6100  150.8951 H   0  0  0  0  0  0  0  0  0  0  0  0  # atno 10718 bound_to 10713
  153.5028  135.3634  155.2548 H   0  0  0  0  0  0  0  0  0  0  0  0  # atno 10763 bound_to 10752
  154.8746  135.4004  154.3458 H   0  0  0  0  0  0  0  0  0  0  0  0  # atno 10764 bound_to 10752
  153.4097  135.7077  153.6434 H   0  0  0  0  0  0  0  0  0  0  0  0  # atno 10765 bound_to 10752
  141.1534  133.6743  156.6464 H   0  0  0  0  0  0  0  0  0  0  0  0  # atno 11005 bound_to 11000
  146.1300  139.4333  143.0175 LP  0  0  0  0  0  0  0  0  0  0  0  0  # atno 17320 bound_to 7965
  145.7177  141.0085  143.1419 LP  0  0  0  0  0  0  0  0  0  0  0  0  # atno 17321 bound_to 7965
  140.3151  143.3173  152.0840 LP  0  0  0  0  0  0  0  0  0  0  0  0  # atno 17342 bound_to 10162
  139.4970  144.6610  151.6464 LP  0  0  0  0  0  0  0  0  0  0  0  0  # atno 17343 bound_to 10162
  157.6070  131.0938  150.8861 LP  0  0  0  0  0  0  0  0  0  0  0  0  # atno 17370 bound_to 10713
  156.9007  130.5246  149.5283 LP  0  0  0  0  0  0  0  0  0  0  0  0  # atno 17371 bound_to 10713
  140.3354  134.7894  157.4357 LP  0  0  0  0  0  0  0  0  0  0  0  0  # atno 17394 bound_to 11000
  140.0982  134.5508  155.8378 LP  0  0  0  0  0  0  0  0  0  0  0  0  # atno 17395 bound_to 11000

$$$$
