AV-unprocessed.smi:2439|AV-procd|sdf|9603|dock2
  -GOLD-   2272013233D 1   1.00000     0.00000
 Structure written by MMmdl.
 41 43  0  0  0  0  0  0  0  0  2 V2000
  152.8373  133.0194  157.7069 N   0  0  0  0  0  0  0  0  0  0  0  0
  152.9583  132.0987  157.0168 C   0  0  0  0  0  0  0  0  0  0  0  0
  153.1117  130.9379  156.1480 C   0  0  0  0  0  0  0  0  0  0  0  0
  154.4074  130.4412  155.8945 C   0  0  0  0  0  0  0  0  0  0  0  0
  154.5604  129.3189  155.0603 C   0  0  0  0  0  0  0  0  0  0  0  0
  153.4049  128.7366  154.5090 C   0  0  0  0  0  0  0  0  0  0  0  0
  152.1599  129.2012  154.7433 N   0  0  0  0  0  0  0  0  0  0  0  0
  152.0036  130.2825  155.5465 C   0  0  0  0  0  0  0  0  0  0  0  0
  150.6941  130.7474  155.7704 N   0  0  0  0  0  0  0  0  0  0  0  0
  150.1145  131.8366  154.9933 C   0  0  0  0  0  0  0  0  0  0  0  0
  149.2029  131.3318  153.8622 C   0  0  2  0  0  0  0  0  0  0  0  0
  148.2901  132.4506  153.3294 C   0  0  0  0  0  0  0  0  0  0  0  0
  147.3749  131.9242  152.2908 N   0  3  2  0  0  0  0  0  0  0  0  0
  146.5047  132.9806  151.7153 C   0  0  0  0  0  0  0  0  0  0  0  0
  145.6364  132.4216  150.5768 C   0  0  0  0  0  0  0  0  0  0  0  0
  144.8065  131.2256  151.0605 C   0  0  0  0  0  0  0  0  0  0  0  0
  145.7260  130.1617  151.6752 C   0  0  0  0  0  0  0  0  0  0  0  0
  146.6003  130.7582  152.7962 C   0  0  1  0  0  0  0  0  0  0  0  0
  147.5607  129.7030  153.3796 C   0  0  0  0  0  0  0  0  0  0  0  0
  148.3783  130.2940  154.3817 O   0  0  0  0  0  0  0  0  0  0  0  0
  155.2772  130.9105  156.3318 H   0  0  0  0  0  0  0  0  0  0  0  0
  155.5392  128.9151  154.8479 H   0  0  0  0  0  0  0  0  0  0  0  0
  153.4814  127.8739  153.8639 H   0  0  0  0  0  0  0  0  0  0  0  0
  150.0964  130.2476  156.4135 H   0  0  0  0  0  0  0  0  0  0  0  0
  149.5467  132.4781  155.6677 H   0  0  0  0  0  0  0  0  0  0  0  0
  150.9150  132.4577  154.5893 H   0  0  0  0  0  0  0  0  0  0  0  0
  149.8106  130.9443  153.0428 H   0  0  0  0  0  0  0  0  0  0  0  0
  147.7083  132.8831  154.1452 H   0  0  0  0  0  0  0  0  0  0  0  0
  148.8963  133.2528  152.9065 H   0  0  0  0  0  0  0  0  0  0  0  0
  145.8715  133.4006  152.4986 H   0  0  0  0  0  0  0  0  0  0  0  0
  147.1228  133.7953  151.3358 H   0  0  0  0  0  0  0  0  0  0  0  0
  144.9782  133.2013  150.1926 H   0  0  0  0  0  0  0  0  0  0  0  0
  146.2731  132.1155  149.7456 H   0  0  0  0  0  0  0  0  0  0  0  0
  144.0778  131.5568  151.8015 H   0  0  0  0  0  0  0  0  0  0  0  0
  144.2395  130.8004  150.2318 H   0  0  0  0  0  0  0  0  0  0  0  0
  145.1261  129.3389  152.0655 H   0  0  0  0  0  0  0  0  0  0  0  0
  146.3613  129.7379  150.8961 H   0  0  0  0  0  0  0  0  0  0  0  0
  145.9481  131.1080  153.5987 H   0  0  0  0  0  0  0  0  0  0  0  0
  146.9952  128.8865  153.8293 H   0  0  0  0  0  0  0  0  0  0  0  0
  148.1855  129.2638  152.5999 H   0  0  0  0  0  0  0  0  0  0  0  0
  147.9554  131.5829  151.5379 H   0  0  0  0  0  0  0  0  0  0  0  0
  1  2  3  0  0  0  0
  2  3  1  0  0  0  0
  3  8  1  0  0  0  0
  3  4  2  0  0  0  0
  4  5  1  0  0  0  0
  4 21  1  0  0  0  0
  5  6  2  0  0  0  0
  5 22  1  0  0  0  0
  6  7  1  0  0  0  0
  6 23  1  0  0  0  0
  7  8  2  0  0  0  0
  8  9  1  0  0  0  0
  9 10  1  0  0  0  0
  9 24  1  0  0  0  0
 10 11  1  0  0  0  0
 10 25  1  0  0  0  0
 10 26  1  0  0  0  0
 11 20  1  0  0  0  0
 11 12  1  0  0  0  0
 11 27  1  0  0  0  0
 12 13  1  0  0  0  0
 12 28  1  0  0  0  0
 12 29  1  0  0  0  0
 13 18  1  0  0  0  0
 13 14  1  0  0  0  0
 13 41  1  0  0  0  0
 14 15  1  0  0  0  0
 14 30  1  0  0  0  0
 14 31  1  0  0  0  0
 15 16  1  0  0  0  0
 15 32  1  0  0  0  0
 15 33  1  0  0  0  0
 16 17  1  0  0  0  0
 16 34  1  0  0  0  0
 16 35  1  0  0  0  0
 17 18  1  0  0  0  0
 17 36  1  0  0  0  0
 17 37  1  0  0  0  0
 18 19  1  0  0  0  0
 18 38  1  0  0  0  0
 19 20  1  0  0  0  0
 19 39  1  0  0  0  0
 19 40  1  0  0  0  0
M  CHG  1  13   1
M  END
> <s_m_source_file>
AV-unprocessed.smi

> <i_m_source_file_index>
2439

> <i_lp_mmshare_version>
43012

> <i_f3d_flags>
0

> <s_epik_input>
TiNDYzFbY0hdW2NIXVtjSF1uYzFbTkhdW0NIMl1bQ0BIXShbQ0gyXTIpT1tDSDJdW0NAQEhdKE4yMylbQ0gyXVtDSDJdW0NIMl1bQ0gyXTM=

> <s_epik_cmdline>
J2VwaWtfcHl0aG9uJywgJy1waCcsICc3LjAnLCAnLXRuJywgJzgnLCAnLW1hJywgJzIwMCcsICctbWV0YWxfYmluZGluZycsICctaW1hZScsICc8aW5maWxlLm1hZT4nLCAnLW9tYWUnLCAnPG91dGZpbGUubWFlPic=

> <r_epik_Ionization_Penalty>
0.0803594

> <r_epik_Ionization_Penalty_Charging>
0.0803403

> <r_epik_Ionization_Penalty_Neutral>
1.90988e-05

> <r_epik_State_Penalty>
0.0711481

> <r_epik_Charging_Adjusted_Penalty>
0.151488

> <i_epik_Tot_Q>
1

> <i_epik_Tot_abs_Q>
1

> <r_epik_Metal_State_Penalty>
0.0711482

> <b_epik_Metal_Only>
0

> <s_lp_Force_Field>
OPLS_2005

> <r_lp_Energy>
27.3027

> <b_lp_Chiralities_Consistent>
1

> <s_lp_Variant>
AV-unprocessed.smi:2439-1

> <Gold.Version>
5.8.1

> <Gold.Id.Protein>
6NUR|6NUR_protein|mol2

> <Gold.PLP.Fitness>
41.8071

> <Gold.PLP.PLP>
-35.8089

> <Gold.PLP.part.hbond>
-2.0000

> <Gold.PLP.part.metal>
0.0000

> <Gold.PLP.part.buried>
-5.4948

> <Gold.PLP.part.nonpolar>
-29.2530

> <Gold.PLP.part.repulsive>
0.1313

> <Gold.PLP.ligand.clash>
0.0000

> <Gold.PLP.ligand.torsion>
1.0181

> <Gold.PLP.Chemscore.Hbond>
1.8640

> <Gold.PLP.Chemscore.CHOScore>
0.8113

> <Gold.PLP.Chemscore.Metal>
0.0000

> <Gold.Chemscore.Hbonds>
donor molecule, donor type, donor heavy atom, donor atom, acceptor molecule, acceptor atom, score
      L1  H    13    41       P1 10747  1.00
      P1  H  6896  6907       L1     1  0.86
      L1  C     6    23       P1 10737  0.81

> <Gold.PLP.Chemscore.Internal.Correction>
0.0086

> <Gold.Rescore>
     Score         DG    S(hbond)    S(metal)    S(lipo)     H(rot)  DE(clash)    DE(int)     intcor
     18.04     -19.01       2.00        0.00      86.38       1.27       0.05       0.93       ----

> <Gold.Chemscore.Fitness>
18.0407

> <Gold.Chemscore.DG>
-19.0139

> <Gold.Chemscore.ZeroCoef>
-5.4800

> <Gold.Chemscore.Hbond>
1.9966

> <Gold.Chemscore.Metal>
0.0000

> <Gold.Chemscore.Lipo>
86.3773

> <Gold.Chemscore.Internal_Hbond>
0.0000

> <Gold.Chemscore.DEClash>
0.0473

> <Gold.Chemscore.DEInternal>
0.9260

> <Gold.Chemscore.Rot>
1.2659

> <Gold.Chemscore.Internal.Correction>
   9.000000E+99

> <Gold.Chemscore.Hbonds>
donor molecule, donor type, donor heavy atom, donor atom, acceptor molecule, acceptor atom, score
      L1  H    13    41       P1 10747  1.00
      P1  H  6896  6907       L1     1  0.85

> <Gold.Chemscore.Hbond.Weighted>
-6.6686

> <Gold.Chemscore.Metal.Weighted>
-0.0000

> <Gold.Chemscore.Lipo.Weighted>
-10.1061

> <Gold.Chemscore.Internal_Hbond.Weighted>
0.0000

> <Gold.Chemscore.DEClash.Weighted>
0.0473

> <Gold.Chemscore.DEInternal.Weighted>
0.9260

> <Gold.Chemscore.Rot.Weighted>
3.2408

> <Gold.Chemscore.Internal.Correction.Weighted>
   9.000000E+99

> <Gold.Protein.RotatedTorsions>
[ 6907 6896 6895 6894 ] final  163.37 input  -60.11 | X-H torsion
[ 7974 7965 7964 7962 ] final  143.42 input  175.53 | X-H torsion
[ 8008 7997 7996 7995 ] final  -43.31 input   59.86 | X-H torsion
[ 10167 10162 10161 10158 ] final  150.31 input  -65.29 | X-H torsion
[ 10718 10713 10712 10709 ] final  -71.95 input   66.30 | X-H torsion
[ 10763 10752 10751 10750 ] final -168.38 input  -60.55 | X-H torsion
[ 11005 11000 10999 10996 ] final  170.82 input  -57.11 | X-H torsion

> <Gold.Protein.ActiveResidues>
 VAL166  LYS551  ARG553  GLY616  TRP617  ASP618  TYR619  PRO620  LYS621  CYS622 
 ASP623  PHE694  ASN695  SER759  ASP760  ASP761  ALA762  ILE779  LEU786  VAL792 
 PHE793  MET794  SER795  GLU796  ALA797  LYS798  CYS799  TRP800  GLU811  SER814 

> <Gold.Protein.RotatedAtoms>
  151.9263  133.3599  159.3914 H   0  0  0  0  0  0  0  0  0  0  0  0  # atno 6907 bound_to 6896
  150.7026  134.4584  159.5378 H   0  0  0  0  0  0  0  0  0  0  0  0  # atno 6908 bound_to 6896
  152.2216  134.8407  160.0536 H   0  0  0  0  0  0  0  0  0  0  0  0  # atno 6909 bound_to 6896
  144.8923  139.5541  143.5793 H   0  0  0  0  0  0  0  0  0  0  0  0  # atno 7974 bound_to 7965
  154.3997  140.1451  156.3498 H   0  0  0  0  0  0  0  0  0  0  0  0  # atno 8008 bound_to 7997
  155.8280  140.3467  155.5533 H   0  0  0  0  0  0  0  0  0  0  0  0  # atno 8009 bound_to 7997
  155.8218  140.0899  157.1835 H   0  0  0  0  0  0  0  0  0  0  0  0  # atno 8010 bound_to 7997
  139.4851  144.5532  151.7364 H   0  0  0  0  0  0  0  0  0  0  0  0  # atno 10167 bound_to 10162
  156.0341  130.4362  150.2520 H   0  0  0  0  0  0  0  0  0  0  0  0  # atno 10718 bound_to 10713
  154.6634  135.2928  154.9837 H   0  0  0  0  0  0  0  0  0  0  0  0  # atno 10763 bound_to 10752
  154.0889  135.6593  153.4853 H   0  0  0  0  0  0  0  0  0  0  0  0  # atno 10764 bound_to 10752
  153.0443  135.5215  154.7596 H   0  0  0  0  0  0  0  0  0  0  0  0  # atno 10765 bound_to 10752
  140.3124  134.7505  157.4001 H   0  0  0  0  0  0  0  0  0  0  0  0  # atno 11005 bound_to 11000
  146.3061  139.7584  142.9055 LP  0  0  0  0  0  0  0  0  0  0  0  0  # atno 17320 bound_to 7965
  145.3762  141.0351  143.3203 LP  0  0  0  0  0  0  0  0  0  0  0  0  # atno 17321 bound_to 7965
  140.5089  144.1055  150.5990 LP  0  0  0  0  0  0  0  0  0  0  0  0  # atno 17342 bound_to 10162
  140.3974  143.2721  151.9989 LP  0  0  0  0  0  0  0  0  0  0  0  0  # atno 17343 bound_to 10162
  157.0620  131.0092  151.3219 LP  0  0  0  0  0  0  0  0  0  0  0  0  # atno 17370 bound_to 10713
  157.5063  130.7911  149.7657 LP  0  0  0  0  0  0  0  0  0  0  0  0  # atno 17371 bound_to 10713
  140.1013  134.5469  155.8350 LP  0  0  0  0  0  0  0  0  0  0  0  0  # atno 17394 bound_to 11000
  141.2105  133.6695  156.6515 LP  0  0  0  0  0  0  0  0  0  0  0  0  # atno 17395 bound_to 11000

$$$$
