AV-unprocessed.smi:2855|AV-procd|sdf|10986|dock7
  -GOLD-   2272015443D 1   1.00000     0.00000
 Structure written by MMmdl.
 46 47  0  0  0  0  0  0  0  0  2 V2000
  149.9601  141.9408  156.9485 C   0  0  0  0  0  0  0  0  0  0  0  0
  151.3201  142.3921  157.4999 C   0  0  1  0  0  0  0  0  0  0  0  0
  151.2734  143.8522  157.9934 C   0  0  0  0  0  0  0  0  0  0  0  0
  152.6159  144.2880  158.6101 C   0  0  0  0  0  0  0  0  0  0  0  0
  153.0382  143.3760  159.7897 C   0  0  1  0  0  0  0  0  0  0  0  0
  152.1234  143.5357  161.0557 C   0  0  0  0  0  0  0  0  0  0  0  0
  151.8603  145.0121  161.4170 C   0  0  0  0  0  0  0  0  0  0  0  0
  152.6741  142.8360  162.3138 C   0  0  0  0  0  0  0  0  0  0  0  0
  153.1616  141.9386  159.1952 C   0  0  1  0  0  0  0  0  0  0  0  0
  153.7247  140.9471  160.1068 N   0  0  0  0  0  0  0  0  0  0  0  0
  153.9495  139.6562  159.8170 C   0  0  0  0  0  0  0  0  0  0  0  0
  153.6839  139.1525  158.7248 O   0  0  0  0  0  0  0  0  0  0  0  0
  154.5396  138.8052  160.9495 C   0  0  0  0  0  0  0  0  0  0  0  0
  154.8325  137.4239  160.5348 N   0  0  0  0  0  0  0  0  0  0  0  0
  156.1811  137.0297  160.4789 C   0  0  0  0  0  0  0  0  0  0  0  0
  156.5434  135.7845  160.1158 C   0  0  0  0  0  0  0  0  0  0  0  0
  155.4936  134.8321  159.7758 C   0  0  0  0  0  0  0  0  0  0  0  0
  155.8056  133.6913  159.4403 O   0  0  0  0  0  0  0  0  0  0  0  0
  154.1997  135.2616  159.8475 N   0  5  0  0  0  0  0  0  0  0  0  0
  153.8463  136.5316  160.2178 C   0  0  0  0  0  0  0  0  0  0  0  0
  152.6722  136.8986  160.2717 O   0  0  0  0  0  0  0  0  0  0  0  0
  151.8234  141.4466  158.6098 C   0  0  0  0  0  0  0  0  0  0  0  0
  149.1917  141.9617  157.7218 H   0  0  0  0  0  0  0  0  0  0  0  0
  150.0125  140.9240  156.5584 H   0  0  0  0  0  0  0  0  0  0  0  0
  149.6317  142.5890  156.1355 H   0  0  0  0  0  0  0  0  0  0  0  0
  152.0362  142.3464  156.6781 H   0  0  0  0  0  0  0  0  0  0  0  0
  151.0262  144.5133  157.1620 H   0  0  0  0  0  0  0  0  0  0  0  0
  150.4732  143.9742  158.7237 H   0  0  0  0  0  0  0  0  0  0  0  0
  153.3836  144.2478  157.8360 H   0  0  0  0  0  0  0  0  0  0  0  0
  152.5799  145.3363  158.9017 H   0  0  0  0  0  0  0  0  0  0  0  0
  154.0379  143.6987  160.0840 H   0  0  0  0  0  0  0  0  0  0  0  0
  151.1499  143.0942  160.8477 H   0  0  0  0  0  0  0  0  0  0  0  0
  152.7931  145.5631  161.5410 H   0  0  0  0  0  0  0  0  0  0  0  0
  151.3007  145.0988  162.3488 H   0  0  0  0  0  0  0  0  0  0  0  0
  151.2623  145.5184  160.6601 H   0  0  0  0  0  0  0  0  0  0  0  0
  153.7124  143.1133  162.4986 H   0  0  0  0  0  0  0  0  0  0  0  0
  152.6153  141.7518  162.2450 H   0  0  0  0  0  0  0  0  0  0  0  0
  152.1015  143.1052  163.2017 H   0  0  0  0  0  0  0  0  0  0  0  0
  153.8578  141.9910  158.3552 H   0  0  0  0  0  0  0  0  0  0  0  0
  153.9753  141.2702  161.0299 H   0  0  0  0  0  0  0  0  0  0  0  0
  155.4411  139.2811  161.3404 H   0  0  0  0  0  0  0  0  0  0  0  0
  153.8324  138.8095  161.7797 H   0  0  0  0  0  0  0  0  0  0  0  0
  156.8946  137.7931  160.7524 H   0  0  0  0  0  0  0  0  0  0  0  0
  157.5838  135.4971  160.0803 H   0  0  0  0  0  0  0  0  0  0  0  0
  151.0753  141.3529  159.3972 H   0  0  0  0  0  0  0  0  0  0  0  0
  151.9514  140.4457  158.1953 H   0  0  0  0  0  0  0  0  0  0  0  0
  1  2  1  0  0  0  0
  1 23  1  0  0  0  0
  1 24  1  0  0  0  0
  1 25  1  0  0  0  0
  2 22  1  0  0  0  0
  2  3  1  0  0  0  0
  2 26  1  0  0  0  0
  3  4  1  0  0  0  0
  3 27  1  0  0  0  0
  3 28  1  0  0  0  0
  4  5  1  0  0  0  0
  4 29  1  0  0  0  0
  4 30  1  0  0  0  0
  5  6  1  0  0  0  0
  5  9  1  0  0  0  0
  5 31  1  0  0  0  0
  6  7  1  0  0  0  0
  6  8  1  0  0  0  0
  6 32  1  0  0  0  0
  7 33  1  0  0  0  0
  7 34  1  0  0  0  0
  7 35  1  0  0  0  0
  8 36  1  0  0  0  0
  8 37  1  0  0  0  0
  8 38  1  0  0  0  0
  9 10  1  0  0  0  0
  9 22  1  0  0  0  0
  9 39  1  0  0  0  0
 10 11  1  0  0  0  0
 10 40  1  0  0  0  0
 11 12  2  0  0  0  0
 11 13  1  0  0  0  0
 13 14  1  0  0  0  0
 13 41  1  0  0  0  0
 13 42  1  0  0  0  0
 14 20  1  0  0  0  0
 14 15  1  0  0  0  0
 15 16  2  0  0  0  0
 15 43  1  0  0  0  0
 16 17  1  0  0  0  0
 16 44  1  0  0  0  0
 17 18  2  0  0  0  0
 17 19  1  0  0  0  0
 19 20  1  0  0  0  0
 20 21  2  0  0  0  0
 22 45  1  0  0  0  0
 22 46  1  0  0  0  0
M  CHG  1  19  -1
M  END
> <s_m_source_file>
AV-unprocessed.smi

> <i_m_source_file_index>
2855

> <i_lp_mmshare_version>
43012

> <i_f3d_flags>
0

> <s_epik_input>
W0NIM11bQ0BASF0xW0NIMl1bQ0gyXVtDQEBIXShbQ0hdKFtDSDNdKVtDSDNdKVtDQEhdKFtDSDJdMSlbTkhdQyg9TylbQ0gyXW4yW2NIXVtjSF1jKD1PKVtuSF1jMj1P

> <s_epik_cmdline>
J2VwaWtfcHl0aG9uJywgJy1waCcsICc3LjAnLCAnLXRuJywgJzgnLCAnLW1hJywgJzIwMCcsICctbWV0YWxfYmluZGluZycsICctaW1hZScsICc8aW5maWxlLm1hZT4nLCAnLW9tYWUnLCAnPG91dGZpbGUubWFlPic=

> <r_lp_tautomer_probability>
0.999537

> <r_epik_Ionization_Penalty>
3.12102

> <r_epik_Ionization_Penalty_Charging>
2.9581e-08

> <r_epik_Ionization_Penalty_Neutral>
3.12102

> <r_epik_State_Penalty>
3.12011

> <r_epik_Charging_Adjusted_Penalty>
3.12011

> <i_epik_Tot_Q>
-1

> <i_epik_Tot_abs_Q>
1

> <r_epik_Metal_State_Penalty>
0.463583

> <b_epik_Metal_Only>
1

> <s_lp_Force_Field>
OPLS_2005

> <r_lp_Energy>
27.3846

> <b_lp_Chiralities_Consistent>
1

> <s_lp_Variant>
AV-unprocessed.smi:2855-10

> <Gold.Version>
5.8.1

> <Gold.Id.Protein>
6NUR|6NUR_protein|mol2

> <Gold.PLP.Fitness>
43.1355

> <Gold.PLP.PLP>
-37.5112

> <Gold.PLP.part.hbond>
-2.4688

> <Gold.PLP.part.metal>
0.0000

> <Gold.PLP.part.buried>
-2.2911

> <Gold.PLP.part.nonpolar>
-33.2373

> <Gold.PLP.part.repulsive>
0.0607

> <Gold.PLP.ligand.clash>
0.0000

> <Gold.PLP.ligand.torsion>
0.2079

> <Gold.PLP.Chemscore.Hbond>
1.9913

> <Gold.PLP.Chemscore.CHOScore>
0.0000

> <Gold.PLP.Chemscore.Metal>
0.0000

> <Gold.Chemscore.Hbonds>
donor molecule, donor type, donor heavy atom, donor atom, acceptor molecule, acceptor atom, score
      P1  H  6896  6908       L1    21  0.55
      P1  H  7997  8008       L1    12  0.75

> <Gold.PLP.Chemscore.Internal.Correction>
0.0663

> <Gold.Rescore>
     Score         DG    S(hbond)    S(metal)    S(lipo)     H(rot)  DE(clash)    DE(int)     intcor
     18.44     -20.97       1.95        0.00     116.46       1.81       1.29       1.25       ----

> <Gold.Chemscore.Fitness>
18.4413

> <Gold.Chemscore.DG>
-20.9726

> <Gold.Chemscore.ZeroCoef>
-5.4800

> <Gold.Chemscore.Hbond>
1.9463

> <Gold.Chemscore.Metal>
0.0000

> <Gold.Chemscore.Lipo>
116.4559

> <Gold.Chemscore.Internal_Hbond>
0.0000

> <Gold.Chemscore.DEClash>
1.2857

> <Gold.Chemscore.DEInternal>
1.2457

> <Gold.Chemscore.Rot>
1.8100

> <Gold.Chemscore.Internal.Correction>
   9.000000E+99

> <Gold.Chemscore.Hbonds>
donor molecule, donor type, donor heavy atom, donor atom, acceptor molecule, acceptor atom, score
      P1  H  6896  6908       L1    21  0.03
      P1  H  7997  8008       L1    12  0.70

> <Gold.Chemscore.Hbond.Weighted>
-6.5007

> <Gold.Chemscore.Metal.Weighted>
-0.0000

> <Gold.Chemscore.Lipo.Weighted>
-13.6253

> <Gold.Chemscore.Internal_Hbond.Weighted>
0.0000

> <Gold.Chemscore.DEClash.Weighted>
1.2857

> <Gold.Chemscore.DEInternal.Weighted>
1.2457

> <Gold.Chemscore.Rot.Weighted>
4.6335

> <Gold.Chemscore.Internal.Correction.Weighted>
   9.000000E+99

> <Gold.Protein.RotatedTorsions>
[ 6907 6896 6895 6894 ] final  -90.39 input  -60.11 | X-H torsion
[ 7974 7965 7964 7962 ] final -166.44 input  175.53 | X-H torsion
[ 8008 7997 7996 7995 ] final  -82.97 input   59.86 | X-H torsion
[ 10167 10162 10161 10158 ] final  107.54 input  -65.29 | X-H torsion
[ 10718 10713 10712 10709 ] final -116.40 input   66.30 | X-H torsion
[ 10763 10752 10751 10750 ] final  121.26 input  -60.55 | X-H torsion
[ 11005 11000 10999 10996 ] final  127.17 input  -57.11 | X-H torsion

> <Gold.Protein.ActiveResidues>
 VAL166  LYS551  ARG553  GLY616  TRP617  ASP618  TYR619  PRO620  LYS621  CYS622 
 ASP623  PHE694  ASN695  SER759  ASP760  ASP761  ALA762  ILE779  LEU786  VAL792 
 PHE793  MET794  SER795  GLU796  ALA797  LYS798  CYS799  TRP800  GLU811  SER814 

> <Gold.Protein.RotatedAtoms>
  150.6881  134.2439  159.4483 H   0  0  0  0  0  0  0  0  0  0  0  0  # atno 6907 bound_to 6896
  152.0381  134.9725  160.0583 H   0  0  0  0  0  0  0  0  0  0  0  0  # atno 6908 bound_to 6896
  152.1238  133.4333  159.4725 H   0  0  0  0  0  0  0  0  0  0  0  0  # atno 6909 bound_to 6896
  144.7245  140.2666  143.6257 H   0  0  0  0  0  0  0  0  0  0  0  0  # atno 7974 bound_to 7965
  154.6142  140.0625  156.9532 H   0  0  0  0  0  0  0  0  0  0  0  0  # atno 8008 bound_to 7997
  155.1923  140.3308  155.4338 H   0  0  0  0  0  0  0  0  0  0  0  0  # atno 8009 bound_to 7997
  156.2394  140.1879  156.7013 H   0  0  0  0  0  0  0  0  0  0  0  0  # atno 8010 bound_to 7997
  139.6919  144.7106  151.1334 H   0  0  0  0  0  0  0  0  0  0  0  0  # atno 10167 bound_to 10162
  156.0961  130.6133  150.9031 H   0  0  0  0  0  0  0  0  0  0  0  0  # atno 10718 bound_to 10713
  153.6113  135.3430  155.2979 H   0  0  0  0  0  0  0  0  0  0  0  0  # atno 10763 bound_to 10752
  154.8618  135.4251  154.2307 H   0  0  0  0  0  0  0  0  0  0  0  0  # atno 10764 bound_to 10752
  153.3158  135.7035  153.7147 H   0  0  0  0  0  0  0  0  0  0  0  0  # atno 10765 bound_to 10752
  139.9493  134.9624  156.8815 H   0  0  0  0  0  0  0  0  0  0  0  0  # atno 11005 bound_to 11000
  145.8083  139.1993  143.2007 LP  0  0  0  0  0  0  0  0  0  0  0  0  # atno 17320 bound_to 7965
  146.0617  140.7963  142.9731 LP  0  0  0  0  0  0  0  0  0  0  0  0  # atno 17321 bound_to 7965
  140.7685  143.5547  150.9165 LP  0  0  0  0  0  0  0  0  0  0  0  0  # atno 17342 bound_to 10162
  139.9225  143.6589  152.3094 LP  0  0  0  0  0  0  0  0  0  0  0  0  # atno 17343 bound_to 10162
  157.6122  131.0935  150.8774 LP  0  0  0  0  0  0  0  0  0  0  0  0  # atno 17370 bound_to 10713
  156.8911  130.5213  149.5286 LP  0  0  0  0  0  0  0  0  0  0  0  0  # atno 17371 bound_to 10713
  140.5757  134.0401  155.7446 LP  0  0  0  0  0  0  0  0  0  0  0  0  # atno 17394 bound_to 11000
  141.1152  133.9551  157.2835 LP  0  0  0  0  0  0  0  0  0  0  0  0  # atno 17395 bound_to 11000

$$$$
