AV-unprocessed.smi:446|AV-procd|sdf|2594|dock1
  -GOLD-   2262022593D 1   1.00000     0.00000
 Structure written by MMmdl.
 35 37  0  0  0  0  0  0  0  0  1 V2000
  152.4748  139.6481  155.6782 C   0  0  0  0  0  0  0  0  0  0  0  0
  151.0990  140.2159  155.5295 C   0  0  0  0  0  0  0  0  0  0  0  0
  150.4349  140.1772  154.3742 N   0  0  0  0  0  0  0  0  0  0  0  0
  149.2412  140.7968  154.6904 C   0  0  0  0  0  0  0  0  0  0  0  0
  148.1071  141.0679  153.8915 C   0  0  0  0  0  0  0  0  0  0  0  0
  146.9870  141.7249  154.4419 C   0  0  0  0  0  0  0  0  0  0  0  0
  146.9848  142.1202  155.7953 C   0  0  0  0  0  0  0  0  0  0  0  0
  148.1036  141.8582  156.6093 C   0  0  0  0  0  0  0  0  0  0  0  0
  149.2187  141.2010  156.0558 C   0  0  0  0  0  0  0  0  0  0  0  0
  150.4501  140.8010  156.5659 N   0  0  0  0  0  0  0  0  0  0  0  0
  150.9222  140.9808  157.9320 C   0  0  0  0  0  0  0  0  0  0  0  0
  151.8292  142.2169  158.0971 C   0  0  1  0  0  0  0  0  0  0  0  0
  151.1683  143.3724  157.6179 O   0  0  0  0  0  0  0  0  0  0  0  0
  152.2865  142.3721  159.5391 C   0  0  0  0  0  0  0  0  0  0  0  0
  153.1346  141.4111  160.1331 C   0  0  0  0  0  0  0  0  0  0  0  0
  153.5618  141.5682  161.4659 C   0  0  0  0  0  0  0  0  0  0  0  0
  153.1457  142.6873  162.2120 C   0  0  0  0  0  0  0  0  0  0  0  0
  153.5568  142.8381  163.4933 F   0  0  0  0  0  0  0  0  0  0  0  0
  152.3037  143.6506  161.6240 C   0  0  0  0  0  0  0  0  0  0  0  0
  151.8765  143.4943  160.2909 C   0  0  0  0  0  0  0  0  0  0  0  0
  152.8159  139.2226  154.7339 H   0  0  0  0  0  0  0  0  0  0  0  0
  152.4798  138.8589  156.4300 H   0  0  0  0  0  0  0  0  0  0  0  0
  153.1770  140.4265  155.9755 H   0  0  0  0  0  0  0  0  0  0  0  0
  148.0996  140.7702  152.8534 H   0  0  0  0  0  0  0  0  0  0  0  0
  146.1257  141.9274  153.8223 H   0  0  0  0  0  0  0  0  0  0  0  0
  146.1242  142.6254  156.2084 H   0  0  0  0  0  0  0  0  0  0  0  0
  148.1067  142.1622  157.6456 H   0  0  0  0  0  0  0  0  0  0  0  0
  150.0559  141.0555  158.5904 H   0  0  0  0  0  0  0  0  0  0  0  0
  151.4540  140.0799  158.2389 H   0  0  0  0  0  0  0  0  0  0  0  0
  152.7148  142.0908  157.4738 H   0  0  0  0  0  0  0  0  0  0  0  0
  150.2913  143.3834  157.9696 H   0  0  0  0  0  0  0  0  0  0  0  0
  153.4629  140.5515  159.5672 H   0  0  0  0  0  0  0  0  0  0  0  0
  154.2098  140.8302  161.9153 H   0  0  0  0  0  0  0  0  0  0  0  0
  151.9864  144.5106  162.1951 H   0  0  0  0  0  0  0  0  0  0  0  0
  151.2340  144.2409  159.8476 H   0  0  0  0  0  0  0  0  0  0  0  0
  1  2  1  0  0  0  0
  1 21  1  0  0  0  0
  1 22  1  0  0  0  0
  1 23  1  0  0  0  0
  2 10  1  0  0  0  0
  2  3  2  0  0  0  0
  3  4  1  0  0  0  0
  4  9  2  0  0  0  0
  4  5  1  0  0  0  0
  5  6  2  0  0  0  0
  5 24  1  0  0  0  0
  6  7  1  0  0  0  0
  6 25  1  0  0  0  0
  7  8  2  0  0  0  0
  7 26  1  0  0  0  0
  8  9  1  0  0  0  0
  8 27  1  0  0  0  0
  9 10  1  0  0  0  0
 10 11  1  0  0  0  0
 11 12  1  0  0  0  0
 11 28  1  0  0  0  0
 11 29  1  0  0  0  0
 12 13  1  0  0  0  0
 12 14  1  0  0  0  0
 12 30  1  0  0  0  0
 13 31  1  0  0  0  0
 14 20  1  0  0  0  0
 14 15  2  0  0  0  0
 15 16  1  0  0  0  0
 15 32  1  0  0  0  0
 16 17  2  0  0  0  0
 16 33  1  0  0  0  0
 17 18  1  0  0  0  0
 17 19  1  0  0  0  0
 19 20  2  0  0  0  0
 19 34  1  0  0  0  0
 20 35  1  0  0  0  0
M  END
> <s_m_source_file>
AV-unprocessed.smi

> <i_m_source_file_index>
446

> <i_lp_mmshare_version>
43012

> <i_f3d_flags>
0

> <s_epik_input>
W2NIXTFbY0hdW2NIXVtjSF1jKGMxMiluKGMobjIpW0NIM10pW0NIMl1bQ0BIXShbT0hdKWMzW2NIXVtjSF1jKEYpW2NIXVtjSF0z

> <s_epik_cmdline>
J2VwaWtfcHl0aG9uJywgJy1waCcsICc3LjAnLCAnLXRuJywgJzgnLCAnLW1hJywgJzIwMCcsICctbWV0YWxfYmluZGluZycsICctaW1hZScsICc8aW5maWxlLm1hZT4nLCAnLW9tYWUnLCAnPG91dGZpbGUubWFlPic=

> <r_epik_Ionization_Penalty>
0.129663

> <r_epik_Ionization_Penalty_Charging>
0

> <r_epik_Ionization_Penalty_Neutral>
0.129663

> <r_epik_State_Penalty>
0.119073

> <r_epik_Charging_Adjusted_Penalty>
0.119073

> <i_epik_Tot_Q>
0

> <i_epik_Tot_abs_Q>
0

> <r_epik_Metal_State_Penalty>
0.000131867

> <b_epik_Metal_Only>
0

> <s_lp_Force_Field>
OPLS_2005

> <r_lp_Energy>
11.2099

> <b_lp_Chiralities_Consistent>
1

> <s_lp_Variant>
AV-unprocessed.smi:446-2

> <Gold.Version>
5.8.1

> <Gold.Id.Protein>
6NUR|6NUR_protein|mol2

> <Gold.PLP.Fitness>
51.4407

> <Gold.PLP.PLP>
-49.7261

> <Gold.PLP.part.hbond>
-1.3062

> <Gold.PLP.part.metal>
0.0000

> <Gold.PLP.part.buried>
-1.9592

> <Gold.PLP.part.nonpolar>
-45.5465

> <Gold.PLP.part.repulsive>
0.1066

> <Gold.PLP.ligand.clash>
0.0000

> <Gold.PLP.ligand.torsion>
0.4328

> <Gold.PLP.Chemscore.Hbond>
0.8500

> <Gold.PLP.Chemscore.CHOScore>
0.0000

> <Gold.PLP.Chemscore.Metal>
0.0000

> <Gold.Chemscore.Hbonds>
donor molecule, donor type, donor heavy atom, donor atom, acceptor molecule, acceptor atom, score
      P1  H  7989  7998       L1     3  0.80

> <Gold.PLP.Chemscore.Internal.Correction>
0.0302

> <Gold.Rescore>
     Score         DG    S(hbond)    S(metal)    S(lipo)     H(rot)  DE(clash)    DE(int)     intcor
     15.56     -16.44       0.63        0.00     114.85       1.79       0.36       0.52       ----

> <Gold.Chemscore.Fitness>
15.5640

> <Gold.Chemscore.DG>
-16.4443

> <Gold.Chemscore.ZeroCoef>
-5.4800

> <Gold.Chemscore.Hbond>
0.6334

> <Gold.Chemscore.Metal>
0.0000

> <Gold.Chemscore.Lipo>
114.8538

> <Gold.Chemscore.Internal_Hbond>
0.0000

> <Gold.Chemscore.DEClash>
0.3632

> <Gold.Chemscore.DEInternal>
0.5170

> <Gold.Chemscore.Rot>
1.7926

> <Gold.Chemscore.Internal.Correction>
   9.000000E+99

> <Gold.Chemscore.Hbonds>
donor molecule, donor type, donor heavy atom, donor atom, acceptor molecule, acceptor atom, score
      P1  H  7989  7998       L1     3  0.12

> <Gold.Chemscore.Hbond.Weighted>
-2.1154

> <Gold.Chemscore.Metal.Weighted>
-0.0000

> <Gold.Chemscore.Lipo.Weighted>
-13.4379

> <Gold.Chemscore.Internal_Hbond.Weighted>
0.0000

> <Gold.Chemscore.DEClash.Weighted>
0.3632

> <Gold.Chemscore.DEInternal.Weighted>
0.5170

> <Gold.Chemscore.Rot.Weighted>
4.5890

> <Gold.Chemscore.Internal.Correction.Weighted>
   9.000000E+99

> <Gold.Protein.RotatedTorsions>
[ 6907 6896 6895 6894 ] final -145.55 input  -60.11 | X-H torsion
[ 7974 7965 7964 7962 ] final  156.08 input  175.53 | X-H torsion
[ 8008 7997 7996 7995 ] final  115.58 input   59.86 | X-H torsion
[ 10167 10162 10161 10158 ] final  153.30 input  -65.29 | X-H torsion
[ 10718 10713 10712 10709 ] final   -8.32 input   66.30 | X-H torsion
[ 10763 10752 10751 10750 ] final  166.15 input  -60.55 | X-H torsion
[ 11005 11000 10999 10996 ] final  104.63 input  -57.11 | X-H torsion

> <Gold.Protein.ActiveResidues>
 VAL166  LYS551  ARG553  GLY616  TRP617  ASP618  TYR619  PRO620  LYS621  CYS622 
 ASP623  PHE694  ASN695  SER759  ASP760  ASP761  ALA762  ILE779  LEU786  VAL792 
 PHE793  MET794  SER795  GLU796  ALA797  LYS798  CYS799  TRP800  GLU811  SER814 

> <Gold.Protein.RotatedAtoms>
  151.1293  133.5048  159.2599 H   0  0  0  0  0  0  0  0  0  0  0  0  # atno 6907 bound_to 6896
  151.1775  135.0346  159.8788 H   0  0  0  0  0  0  0  0  0  0  0  0  # atno 6908 bound_to 6896
  152.5459  134.1149  159.8427 H   0  0  0  0  0  0  0  0  0  0  0  0  # atno 6909 bound_to 6896
  144.7985  139.7155  143.6192 H   0  0  0  0  0  0  0  0  0  0  0  0  # atno 7974 bound_to 7965
  156.2390  140.2935  156.0391 H   0  0  0  0  0  0  0  0  0  0  0  0  # atno 8008 bound_to 7997
  155.2008  140.0409  157.2934 H   0  0  0  0  0  0  0  0  0  0  0  0  # atno 8009 bound_to 7997
  154.6132  140.2457  155.7650 H   0  0  0  0  0  0  0  0  0  0  0  0  # atno 8010 bound_to 7997
  139.4828  144.5285  151.7762 H   0  0  0  0  0  0  0  0  0  0  0  0  # atno 10167 bound_to 10162
  156.7043  130.5103  149.5909 H   0  0  0  0  0  0  0  0  0  0  0  0  # atno 10718 bound_to 10713
  154.3347  135.2754  155.2453 H   0  0  0  0  0  0  0  0  0  0  0  0  # atno 10763 bound_to 10752
  154.4750  135.5873  153.6352 H   0  0  0  0  0  0  0  0  0  0  0  0  # atno 10764 bound_to 10752
  152.9863  135.6097  154.3543 H   0  0  0  0  0  0  0  0  0  0  0  0  # atno 10765 bound_to 10752
  139.8794  134.9307  156.5391 H   0  0  0  0  0  0  0  0  0  0  0  0  # atno 11005 bound_to 11000
  146.2260  139.5723  142.9587 LP  0  0  0  0  0  0  0  0  0  0  0  0  # atno 17320 bound_to 7965
  145.5613  141.0404  143.2225 LP  0  0  0  0  0  0  0  0  0  0  0  0  # atno 17321 bound_to 7965
  140.4808  144.1453  150.5932 LP  0  0  0  0  0  0  0  0  0  0  0  0  # atno 17342 bound_to 10162
  140.4280  143.2581  151.9631 LP  0  0  0  0  0  0  0  0  0  0  0  0  # atno 17343 bound_to 10162
  156.1706  130.6434  151.0833 LP  0  0  0  0  0  0  0  0  0  0  0  0  # atno 17370 bound_to 10713
  157.6961  131.0793  150.6965 LP  0  0  0  0  0  0  0  0  0  0  0  0  # atno 17371 bound_to 10713
  140.8324  133.8269  155.8996 LP  0  0  0  0  0  0  0  0  0  0  0  0  # atno 17394 bound_to 11000
  140.9316  134.2014  157.4860 LP  0  0  0  0  0  0  0  0  0  0  0  0  # atno 17395 bound_to 11000

$$$$
