#       Name:                AV-unprocessed.smi:304
#       Creating user name   scv26
#       Creation time:       Thu Mar 26 22:17:42 2020


#       File generated by GOLD software.
#

@<TRIPOS>MOLECULE
AV-unprocessed.smi:304
    41    43     1
SMALL
NO_CHARGES


@<TRIPOS>ATOM
      1 ****        -0.3542   0.0877  -2.1247 O.3            1 S1                 0.0000
      2 ****         0.1314   0.5468  -0.8784 C.3            1 S1                 0.0000
      3 ****         1.6654   0.4654  -0.8914 C.3            1 S1                 0.0000
      4 ****         2.0497  -0.8702  -0.6133 O.3            1 S1                 0.0000
      5 ****         3.4564  -1.0472  -0.5904 C.3            1 S1                 0.0000
      6 ****         3.7225  -2.4849  -0.2803 C.2            1 S1                 0.0000
      7 ****         4.7786  -2.9961   0.4304 C.2            1 S1                 0.0000
      8 ****         4.7507  -4.4177   0.5369 C.2            1 S1                 0.0000
      9 ****         3.6775  -4.9776  -0.1035 C.2            1 S1                 0.0000
     10 ****         2.6767  -3.7643  -0.8532 S.3            1 S1                 0.0000
     11 ****        -0.3694   1.9866  -0.6495 C.3            1 S1                 0.0000
     12 ****        -1.8351   2.0847  -0.6464 N.pl3          1 S1                 0.0000
     13 ****        -2.6888   2.4610  -1.6370 C.2            1 S1                 0.0000
     14 ****        -3.9548   2.3778  -1.1413 N.pl3          1 S1                 1.0000
     15 ****        -3.9088   1.9418   0.1851 C.ar           1 S1                 0.0000
     16 ****        -4.9260   1.7046   1.1040 C.ar           1 S1                 0.0000
     17 ****        -4.5343   1.2621   2.3850 C.ar           1 S1                 0.0000
     18 ****        -5.4842   1.0183   3.3186 F              1 S1                 0.0000
     19 ****        -3.1749   1.0690   2.7112 C.ar           1 S1                 0.0000
     20 ****        -2.8425   0.6412   3.9520 F              1 S1                 0.0000
     21 ****        -2.1523   1.3124   1.7706 C.ar           1 S1                 0.0000
     22 ****        -2.5492   1.7516   0.5087 C.ar           1 S1                 0.0000
     23 ****        -0.0379  -0.7928  -2.2612 H              1 S1                 0.0000
     24 ****        -0.2596  -0.0975  -0.0899 H              1 S1                 0.0000
     25 ****         2.0739   0.8098  -1.8433 H              1 S1                 0.0000
     26 ****         2.0746   1.1088  -0.1107 H              1 S1                 0.0000
     27 ****         3.8904  -0.7869  -1.5568 H              1 S1                 0.0000
     28 ****         3.9099  -0.4058   0.1668 H              1 S1                 0.0000
     29 ****         5.5628  -2.4031   0.8771 H              1 S1                 0.0000
     30 ****         5.5090  -4.9715   1.0703 H              1 S1                 0.0000
     31 ****         3.4160  -6.0224  -0.1823 H              1 S1                 0.0000
     32 ****         0.0042   2.3869   0.2939 H              1 S1                 0.0000
     33 ****         0.0021   2.6468  -1.4345 H              1 S1                 0.0000
     34 ****        -2.4116   2.7643  -2.6365 H              1 S1                 0.0000
     35 ****        -5.9676   1.8498   0.8580 H              1 S1                 0.0000
     36 ****        -1.1151   1.1599   2.0288 H              1 S1                 0.0000
     37 ****        -4.7866   2.6005  -1.6732 H              1 S1                 0.0000
     38 ****        -0.0228   0.6831  -2.8566 LP             1 S1                 0.0000
     39 ****        -1.3542   0.0906  -2.1196 LP             1 S1                 0.0000
     40 ****         1.6647  -1.4661  -1.3180 LP             1 S1                 0.0000
     41 ****         1.6812  -1.1287   0.2796 LP             1 S1                 0.0000
@<TRIPOS>BOND
    1    1    2 1     
    2    1   23 1     
    3    2    3 1     
    4    2   11 1     
    5    2   24 1     
    6    3    4 1     
    7    3   25 1     
    8    3   26 1     
    9    4    5 1     
   10    5    6 1     
   11    5   27 1     
   12    5   28 1     
   13    6   10 1     
   14    6    7 2     
   15    7    8 1     
   16    7   29 1     
   17    8    9 2     
   18    8   30 1     
   19    9   10 1     
   20    9   31 1     
   21   11   12 1     
   22   11   32 1     
   23   11   33 1     
   24   12   22 1     
   25   12   13 1     
   26   13   14 2     
   27   13   34 1     
   28   14   15 1     
   29   14   37 1     
   30   15   22 ar    
   31   15   16 ar    
   32   16   17 ar    
   33   16   35 1     
   34   17   18 1     
   35   17   19 ar    
   36   19   20 1     
   37   19   21 ar    
   38   21   22 ar    
   39   21   36 1     
   40    1   38 1     
   41    1   39 1     
   42    4   40 1     
   43    4   41 1     
@<TRIPOS>SUBSTRUCTURE
      1 S1             1
@<TRIPOS>SET
LONE_PAIRS      STATIC     ATOMS    <user>   **** ""
4 38 39 40 41
DONOR_HYDROGENS      STATIC     ATOMS    <user>   **** ""
2 23 37
ATOM$BLUE        STATIC     ATOMS    COLORGROUP SYSTEM
4 38 39 40 41
ATOM$RED        STATIC     ATOMS    COLORGROUP SYSTEM
2 23 37
