AV-unprocessed.smi:3249|AV-procd|sdf|12418|dock1
  -GOLD-   2272018303D 1   1.00000     0.00000
 Structure written by MMmdl.
 44 45  0  0  0  0  0  0  0  0  2 V2000
  144.3035  142.8600  153.7118 C   0  0  0  0  0  0  0  0  0  0  0  0
  145.3106  142.0520  154.4781 C   0  0  0  0  0  0  0  0  0  0  0  0
  145.2493  141.6406  155.8394 C   0  0  0  0  0  0  0  0  0  0  0  0
  146.3103  140.9449  156.2135 N   0  0  0  0  0  0  0  0  0  0  0  0
  147.0782  140.8700  155.1052 N   0  0  0  0  0  0  0  0  0  0  0  0
  148.3669  140.1882  155.1652 C   0  0  1  0  0  0  0  0  0  0  0  0
  148.2935  138.8659  154.3786 C   0  0  0  0  0  0  0  0  0  0  0  0
  149.5055  141.1292  154.6924 C   0  0  2  0  0  0  0  0  0  0  0  0
  150.7847  140.3645  154.3028 C   0  0  0  0  0  0  0  0  0  0  0  0
  149.8136  142.1152  155.7552 N   0  3  0  0  0  0  0  0  0  0  0  0
  150.4061  141.5568  156.9881 C   0  0  0  0  0  0  0  0  0  0  0  0
  151.1262  142.6497  157.7897 C   0  0  2  0  0  0  0  0  0  0  0  0
  151.9787  142.0600  158.9299 C   0  0  0  0  0  0  0  0  0  0  0  0
  152.6122  143.1797  159.7635 C   0  0  0  0  0  0  0  0  0  0  0  0
  151.5257  144.1533  160.2317 C   0  0  0  0  0  0  0  0  0  0  0  0
  150.6861  144.6322  159.0369 C   0  0  0  0  0  0  0  0  0  0  0  0
  150.1372  143.5119  158.3488 O   0  0  0  0  0  0  0  0  0  0  0  0
  146.5004  141.5398  154.0448 C   0  0  0  0  0  0  0  0  0  0  0  0
  143.3768  142.9892  154.2713 H   0  0  0  0  0  0  0  0  0  0  0  0
  144.0428  142.3860  152.7655 H   0  0  0  0  0  0  0  0  0  0  0  0
  144.6803  143.8565  153.4804 H   0  0  0  0  0  0  0  0  0  0  0  0
  144.4721  141.8321  156.5649 H   0  0  0  0  0  0  0  0  0  0  0  0
  148.5524  139.9286  156.2096 H   0  0  0  0  0  0  0  0  0  0  0  0
  149.1742  138.2471  154.5477 H   0  0  0  0  0  0  0  0  0  0  0  0
  148.2093  139.0408  153.3056 H   0  0  0  0  0  0  0  0  0  0  0  0
  147.4296  138.2764  154.6877 H   0  0  0  0  0  0  0  0  0  0  0  0
  149.1468  141.6729  153.8165 H   0  0  0  0  0  0  0  0  0  0  0  0
  150.6126  139.6950  153.4606 H   0  0  0  0  0  0  0  0  0  0  0  0
  151.1569  139.7655  155.1345 H   0  0  0  0  0  0  0  0  0  0  0  0
  151.5824  141.0425  154.0005 H   0  0  0  0  0  0  0  0  0  0  0  0
  150.4836  142.7679  155.3729 H   0  0  0  0  0  0  0  0  0  0  0  0
  149.6374  141.0841  157.6000 H   0  0  0  0  0  0  0  0  0  0  0  0
  151.1202  140.7803  156.7106 H   0  0  0  0  0  0  0  0  0  0  0  0
  151.7683  143.2206  157.1160 H   0  0  0  0  0  0  0  0  0  0  0  0
  151.3547  141.4361  159.5716 H   0  0  0  0  0  0  0  0  0  0  0  0
  152.7572  141.4117  158.5260 H   0  0  0  0  0  0  0  0  0  0  0  0
  153.1452  142.7636  160.6189 H   0  0  0  0  0  0  0  0  0  0  0  0
  153.3500  143.7130  159.1629 H   0  0  0  0  0  0  0  0  0  0  0  0
  150.8775  143.6588  160.9563 H   0  0  0  0  0  0  0  0  0  0  0  0
  151.9756  145.0045  160.7436 H   0  0  0  0  0  0  0  0  0  0  0  0
  149.8700  145.2664  159.3835 H   0  0  0  0  0  0  0  0  0  0  0  0
  151.2878  145.2334  158.3535 H   0  0  0  0  0  0  0  0  0  0  0  0
  146.9801  141.6002  153.0789 H   0  0  0  0  0  0  0  0  0  0  0  0
  148.9732  142.6256  155.9872 H   0  0  0  0  0  0  0  0  0  0  0  0
  1  2  1  0  0  0  0
  1 19  1  0  0  0  0
  1 20  1  0  0  0  0
  1 21  1  0  0  0  0
  2 18  2  0  0  0  0
  2  3  1  0  0  0  0
  3  4  2  0  0  0  0
  3 22  1  0  0  0  0
  4  5  1  0  0  0  0
  5  6  1  0  0  0  0
  5 18  1  0  0  0  0
  6  7  1  0  0  0  0
  6  8  1  0  0  0  0
  6 23  1  0  0  0  0
  7 24  1  0  0  0  0
  7 25  1  0  0  0  0
  7 26  1  0  0  0  0
  8  9  1  0  0  0  0
  8 10  1  0  0  0  0
  8 27  1  0  0  0  0
  9 28  1  0  0  0  0
  9 29  1  0  0  0  0
  9 30  1  0  0  0  0
 10 11  1  0  0  0  0
 10 31  1  0  0  0  0
 10 44  1  0  0  0  0
 11 12  1  0  0  0  0
 11 32  1  0  0  0  0
 11 33  1  0  0  0  0
 12 17  1  0  0  0  0
 12 13  1  0  0  0  0
 12 34  1  0  0  0  0
 13 14  1  0  0  0  0
 13 35  1  0  0  0  0
 13 36  1  0  0  0  0
 14 15  1  0  0  0  0
 14 37  1  0  0  0  0
 14 38  1  0  0  0  0
 15 16  1  0  0  0  0
 15 39  1  0  0  0  0
 15 40  1  0  0  0  0
 16 17  1  0  0  0  0
 16 41  1  0  0  0  0
 16 42  1  0  0  0  0
 18 43  1  0  0  0  0
M  CHG  1  10   1
M  END
> <s_m_source_file>
AV-unprocessed.smi

> <i_m_source_file_index>
3249

> <i_lp_mmshare_version>
43012

> <i_f3d_flags>
0

> <s_epik_input>
W0NIM11jMVtjSF1ubihbY0hdMSlbQ0BIXShbQ0gzXSlbQ0BIXShbQ0gzXSlbTkhdW0NIMl1bQ0BASF0yW0NIMl1bQ0gyXVtDSDJdW0NIMl1PMg==

> <s_epik_cmdline>
J2VwaWtfcHl0aG9uJywgJy1waCcsICc3LjAnLCAnLXRuJywgJzgnLCAnLW1hJywgJzIwMCcsICctbWV0YWxfYmluZGluZycsICctaW1hZScsICc8aW5maWxlLm1hZT4nLCAnLW9tYWUnLCAnPG91dGZpbGUubWFlPic=

> <r_lp_tautomer_probability>
1

> <r_epik_Ionization_Penalty>
0.00659207

> <r_epik_Ionization_Penalty_Charging>
0.00656881

> <r_epik_Ionization_Penalty_Neutral>
2.32662e-05

> <r_epik_State_Penalty>
0.0048654

> <r_epik_Charging_Adjusted_Penalty>
0.0114342

> <i_epik_Tot_Q>
1

> <i_epik_Tot_abs_Q>
1

> <r_epik_Metal_State_Penalty>
-0

> <b_epik_Metal_Only>
0

> <s_lp_Force_Field>
OPLS_2005

> <r_lp_Energy>
17.4327

> <b_lp_Chiralities_Consistent>
1

> <s_lp_Variant>
AV-unprocessed.smi:3249-2

> <Gold.Version>
5.8.1

> <Gold.Id.Protein>
6NUR|6NUR_protein|mol2

> <Gold.PLP.Fitness>
46.5837

> <Gold.PLP.PLP>
-41.8377

> <Gold.PLP.part.hbond>
-1.0000

> <Gold.PLP.part.metal>
0.0000

> <Gold.PLP.part.buried>
-6.1170

> <Gold.PLP.part.nonpolar>
-34.9058

> <Gold.PLP.part.repulsive>
0.6481

> <Gold.PLP.ligand.clash>
0.0000

> <Gold.PLP.ligand.torsion>
0.6808

> <Gold.PLP.Chemscore.Hbond>
2.0000

> <Gold.PLP.Chemscore.CHOScore>
0.0000

> <Gold.PLP.Chemscore.Metal>
0.0000

> <Gold.Chemscore.Hbonds>
donor molecule, donor type, donor heavy atom, donor atom, acceptor molecule, acceptor atom, score
      L1  H    10    44       P1  8028  0.62

> <Gold.PLP.Chemscore.Internal.Correction>
0.1075

> <Gold.Rescore>
     Score         DG    S(hbond)    S(metal)    S(lipo)     H(rot)  DE(clash)    DE(int)     intcor
     16.90     -17.67       0.98        0.00     109.73       1.53       0.06       0.71       ----

> <Gold.Chemscore.Fitness>
16.8999

> <Gold.Chemscore.DG>
-17.6686

> <Gold.Chemscore.ZeroCoef>
-5.4800

> <Gold.Chemscore.Hbond>
0.9807

> <Gold.Chemscore.Metal>
0.0000

> <Gold.Chemscore.Lipo>
109.7297

> <Gold.Chemscore.Internal_Hbond>
0.0000

> <Gold.Chemscore.DEClash>
0.0597

> <Gold.Chemscore.DEInternal>
0.7090

> <Gold.Chemscore.Rot>
1.5333

> <Gold.Chemscore.Internal.Correction>
   9.000000E+99

> <Gold.Chemscore.Hbonds>
donor molecule, donor type, donor heavy atom, donor atom, acceptor molecule, acceptor atom, score
      L1  H    10    44       P1  8028  0.31

> <Gold.Chemscore.Hbond.Weighted>
-3.2754

> <Gold.Chemscore.Metal.Weighted>
-0.0000

> <Gold.Chemscore.Lipo.Weighted>
-12.8384

> <Gold.Chemscore.Internal_Hbond.Weighted>
0.0000

> <Gold.Chemscore.DEClash.Weighted>
0.0597

> <Gold.Chemscore.DEInternal.Weighted>
0.7090

> <Gold.Chemscore.Rot.Weighted>
3.9252

> <Gold.Chemscore.Internal.Correction.Weighted>
   9.000000E+99

> <Gold.Protein.RotatedTorsions>
[ 6907 6896 6895 6894 ] final  123.38 input  -60.11 | X-H torsion
[ 7974 7965 7964 7962 ] final   47.84 input  175.53 | X-H torsion
[ 8008 7997 7996 7995 ] final  -97.84 input   59.86 | X-H torsion
[ 10167 10162 10161 10158 ] final   -0.66 input  -65.29 | X-H torsion
[ 10718 10713 10712 10709 ] final  161.31 input   66.30 | X-H torsion
[ 10763 10752 10751 10750 ] final   13.77 input  -60.55 | X-H torsion
[ 11005 11000 10999 10996 ] final -158.33 input  -57.11 | X-H torsion

> <Gold.Protein.ActiveResidues>
 VAL166  LYS551  ARG553  GLY616  TRP617  ASP618  TYR619  PRO620  LYS621  CYS622 
 ASP623  PHE694  ASN695  SER759  ASP760  ASP761  ALA762  ILE779  LEU786  VAL792 
 PHE793  MET794  SER795  GLU796  ALA797  LYS798  CYS799  TRP800  GLU811  SER814 

> <Gold.Protein.RotatedAtoms>
  152.4166  133.7048  159.6444 H   0  0  0  0  0  0  0  0  0  0  0  0  # atno 6907 bound_to 6896
  150.8043  133.8529  159.3219 H   0  0  0  0  0  0  0  0  0  0  0  0  # atno 6908 bound_to 6896
  151.6257  135.1030  160.0162 H   0  0  0  0  0  0  0  0  0  0  0  0  # atno 6909 bound_to 6896
  146.0260  139.4707  142.9867 H   0  0  0  0  0  0  0  0  0  0  0  0  # atno 7974 bound_to 7965
  154.7931  140.0460  157.1216 H   0  0  0  0  0  0  0  0  0  0  0  0  # atno 8008 bound_to 7997
  154.9567  140.3072  155.5030 H   0  0  0  0  0  0  0  0  0  0  0  0  # atno 8009 bound_to 7997
  156.2952  140.2278  156.4650 H   0  0  0  0  0  0  0  0  0  0  0  0  # atno 8010 bound_to 7997
  140.6777  143.6868  150.8060 H   0  0  0  0  0  0  0  0  0  0  0  0  # atno 10167 bound_to 10162
  157.1383  131.0534  151.2339 H   0  0  0  0  0  0  0  0  0  0  0  0  # atno 10718 bound_to 10713
  153.1688  135.6809  153.8637 H   0  0  0  0  0  0  0  0  0  0  0  0  # atno 10763 bound_to 10752
  153.8008  135.3156  155.3391 H   0  0  0  0  0  0  0  0  0  0  0  0  # atno 10764 bound_to 10752
  154.7984  135.4793  154.0307 H   0  0  0  0  0  0  0  0  0  0  0  0  # atno 10765 bound_to 10752
  140.6548  134.4412  157.5235 H   0  0  0  0  0  0  0  0  0  0  0  0  # atno 11005 bound_to 11000
  145.7117  141.0104  143.1450 LP  0  0  0  0  0  0  0  0  0  0  0  0  # atno 17320 bound_to 7965
  144.7010  139.8765  143.7444 LP  0  0  0  0  0  0  0  0  0  0  0  0  # atno 17321 bound_to 7965
  140.0563  143.5199  152.2649 LP  0  0  0  0  0  0  0  0  0  0  0  0  # atno 17342 bound_to 10162
  139.6079  144.7601  151.3019 LP  0  0  0  0  0  0  0  0  0  0  0  0  # atno 17343 bound_to 10162
  157.4330  130.7501  149.7006 LP  0  0  0  0  0  0  0  0  0  0  0  0  # atno 17370 bound_to 10713
  155.9794  130.4041  150.3592 LP  0  0  0  0  0  0  0  0  0  0  0  0  # atno 17371 bound_to 10713
  139.9033  134.8506  156.1806 LP  0  0  0  0  0  0  0  0  0  0  0  0  # atno 17394 bound_to 11000
  141.0510  133.6889  156.1771 LP  0  0  0  0  0  0  0  0  0  0  0  0  # atno 17395 bound_to 11000

$$$$
