AV-unprocessed.smi:2356|AV-procd|sdf|9394|dock6
  -GOLD-   2272013 23D 1   1.00000     0.00000
 Structure written by MMmdl.
 53 56  0  0  0  0  0  0  0  0  1 V2000
  149.4522  140.7197  154.6309 C   0  0  0  0  0  0  0  0  0  0  0  0
  150.3198  140.4797  155.8549 C   0  0  0  0  0  0  0  0  0  0  0  0
  150.8159  141.5919  156.4384 N   0  0  0  0  0  0  0  0  0  0  0  0
  151.6045  141.4710  157.5318 C   0  0  0  0  0  0  0  0  0  0  0  0
  152.0987  142.6604  158.1039 N   0  0  0  0  0  0  0  0  0  0  0  0
  151.6054  143.9700  157.7094 C   0  0  0  0  0  0  0  0  0  0  0  0
  152.2763  144.9469  158.6743 C   0  0  0  0  0  0  0  0  0  0  0  0
  152.4252  144.1248  159.9541 C   0  0  0  0  0  0  0  0  0  0  0  0
  152.6511  142.6943  159.4526 C   0  0  0  0  0  0  0  0  0  0  0  0
  151.9172  140.2066  158.0835 C   0  0  0  0  0  0  0  0  0  0  0  0
  151.3999  139.0464  157.4775 C   0  0  0  0  0  0  0  0  0  0  0  0
  150.5716  139.1744  156.3385 C   0  0  0  0  0  0  0  0  0  0  0  0
  150.0222  138.0653  155.6393 N   0  0  0  0  0  0  0  0  0  0  0  0
  150.5229  136.8241  155.4856 C   0  0  0  0  0  0  0  0  0  0  0  0
  151.6042  136.4439  155.9294 O   0  0  0  0  0  0  0  0  0  0  0  0
  149.7146  135.9887  154.8067 N   0  0  0  0  0  0  0  0  0  0  0  0
  149.9493  134.5831  154.4657 C   0  0  1  0  0  0  0  0  0  0  0  0
  150.4138  133.8064  155.7060 C   0  0  0  0  0  0  0  0  0  0  0  0
  150.5505  132.3085  155.3836 C   0  0  0  0  0  0  0  0  0  0  0  0
  149.3209  131.8000  154.8738 O   0  0  0  0  0  0  0  0  0  0  0  0
  148.9172  132.4232  153.6578 C   0  0  1  0  0  0  0  0  0  0  0  0
  147.6673  131.7319  153.1511 C   0  0  0  0  0  0  0  0  0  0  0  0
  146.8388  132.3374  152.0417 C   0  0  0  0  0  0  0  0  0  0  0  0
  146.3018  132.3065  153.4518 C   0  0  0  0  0  0  0  0  0  0  0  0
  148.6748  133.9203  153.9152 C   0  0  0  0  0  0  0  0  0  0  0  0
  148.4285  140.4002  154.8258 H   0  0  0  0  0  0  0  0  0  0  0  0
  149.8322  140.1602  153.7757 H   0  0  0  0  0  0  0  0  0  0  0  0
  149.4281  141.7753  154.3570 H   0  0  0  0  0  0  0  0  0  0  0  0
  151.8523  144.1997  156.6725 H   0  0  0  0  0  0  0  0  0  0  0  0
  150.5211  143.9992  157.8241 H   0  0  0  0  0  0  0  0  0  0  0  0
  153.2624  145.2216  158.2970 H   0  0  0  0  0  0  0  0  0  0  0  0
  151.7023  145.8626  158.8175 H   0  0  0  0  0  0  0  0  0  0  0  0
  153.2302  144.4795  160.5979 H   0  0  0  0  0  0  0  0  0  0  0  0
  151.4962  144.1690  160.5240 H   0  0  0  0  0  0  0  0  0  0  0  0
  152.1779  141.9703  160.1167 H   0  0  0  0  0  0  0  0  0  0  0  0
  153.7161  142.4657  159.4012 H   0  0  0  0  0  0  0  0  0  0  0  0
  152.5473  140.1067  158.9543 H   0  0  0  0  0  0  0  0  0  0  0  0
  151.6620  138.0843  157.8889 H   0  0  0  0  0  0  0  0  0  0  0  0
  149.0884  138.2043  155.2817 H   0  0  0  0  0  0  0  0  0  0  0  0
  148.8281  136.3689  154.5076 H   0  0  0  0  0  0  0  0  0  0  0  0
  150.7412  134.5198  153.7169 H   0  0  0  0  0  0  0  0  0  0  0  0
  151.3650  134.1995  156.0669 H   0  0  0  0  0  0  0  0  0  0  0  0
  149.6944  133.9339  156.5163 H   0  0  0  0  0  0  0  0  0  0  0  0
  151.3513  132.1386  154.6623 H   0  0  0  0  0  0  0  0  0  0  0  0
  150.8134  131.7544  156.2848 H   0  0  0  0  0  0  0  0  0  0  0  0
  149.7052  132.3021  152.9121 H   0  0  0  0  0  0  0  0  0  0  0  0
  147.7317  130.6453  153.1620 H   0  0  0  0  0  0  0  0  0  0  0  0
  147.1485  133.3019  151.6441 H   0  0  0  0  0  0  0  0  0  0  0  0
  146.3942  131.6567  151.3186 H   0  0  0  0  0  0  0  0  0  0  0  0
  145.5002  131.6044  153.6716 H   0  0  0  0  0  0  0  0  0  0  0  0
  146.2567  133.2496  153.9934 H   0  0  0  0  0  0  0  0  0  0  0  0
  147.8566  134.0426  154.6267 H   0  0  0  0  0  0  0  0  0  0  0  0
  148.3566  134.4048  152.9924 H   0  0  0  0  0  0  0  0  0  0  0  0
  1  2  1  0  0  0  0
  1 26  1  0  0  0  0
  1 27  1  0  0  0  0
  1 28  1  0  0  0  0
  2 12  1  0  0  0  0
  2  3  2  0  0  0  0
  3  4  1  0  0  0  0
  4  5  1  0  0  0  0
  4 10  2  0  0  0  0
  5  9  1  0  0  0  0
  5  6  1  0  0  0  0
  6  7  1  0  0  0  0
  6 29  1  0  0  0  0
  6 30  1  0  0  0  0
  7  8  1  0  0  0  0
  7 31  1  0  0  0  0
  7 32  1  0  0  0  0
  8  9  1  0  0  0  0
  8 33  1  0  0  0  0
  8 34  1  0  0  0  0
  9 35  1  0  0  0  0
  9 36  1  0  0  0  0
 10 11  1  0  0  0  0
 10 37  1  0  0  0  0
 11 12  2  0  0  0  0
 11 38  1  0  0  0  0
 12 13  1  0  0  0  0
 13 14  1  0  0  0  0
 13 39  1  0  0  0  0
 14 15  2  0  0  0  0
 14 16  1  0  0  0  0
 16 17  1  0  0  0  0
 16 40  1  0  0  0  0
 17 25  1  0  0  0  0
 17 18  1  0  0  0  0
 17 41  1  0  0  0  0
 18 19  1  0  0  0  0
 18 42  1  0  0  0  0
 18 43  1  0  0  0  0
 19 20  1  0  0  0  0
 19 44  1  0  0  0  0
 19 45  1  0  0  0  0
 20 21  1  0  0  0  0
 21 22  1  0  0  0  0
 21 25  1  0  0  0  0
 21 46  1  0  0  0  0
 22 24  1  0  0  0  0
 22 23  1  0  0  0  0
 22 47  1  0  0  0  0
 23 24  1  0  0  0  0
 23 48  1  0  0  0  0
 23 49  1  0  0  0  0
 24 50  1  0  0  0  0
 24 51  1  0  0  0  0
 25 52  1  0  0  0  0
 25 53  1  0  0  0  0
M  END
> <s_m_source_file>
AV-unprocessed.smi

> <i_m_source_file_index>
2356

> <i_lp_mmshare_version>
43012

> <i_f3d_flags>
0

> <s_epik_input>
W0NIMl0xW0NIMl1bQ0gyXVtDSDJdTjFjKG5jMltDSDNdKVtjSF1bY0hdYzJbTkhdQyg9TylbTkhdW0NAQEhdM1tDSDJdW0NIMl1PW0NASF0oW0NIMl0zKVtDSF00W0NIMl1bQ0gyXTQ=

> <s_epik_cmdline>
J2VwaWtfcHl0aG9uJywgJy1waCcsICc3LjAnLCAnLXRuJywgJzgnLCAnLW1hJywgJzIwMCcsICctbWV0YWxfYmluZGluZycsICctaW1hZScsICc8aW5maWxlLm1hZT4nLCAnLW9tYWUnLCAnPG91dGZpbGUubWFlPic=

> <r_lp_tautomer_probability>
1

> <r_epik_Ionization_Penalty>
0.308781

> <r_epik_Ionization_Penalty_Charging>
0

> <r_epik_Ionization_Penalty_Neutral>
0.308781

> <r_epik_State_Penalty>
0.302092

> <r_epik_Charging_Adjusted_Penalty>
0.302092

> <i_epik_Tot_Q>
0

> <i_epik_Tot_abs_Q>
0

> <r_epik_Metal_State_Penalty>
0.197467

> <b_epik_Metal_Only>
0

> <s_lp_Force_Field>
OPLS_2005

> <r_lp_Energy>
52.5469

> <b_lp_Chiralities_Consistent>
1

> <s_lp_Variant>
AV-unprocessed.smi:2356-2

> <Gold.Version>
5.8.1

> <Gold.Id.Protein>
6NUR|6NUR_protein|mol2

> <Gold.PLP.Fitness>
49.3198

> <Gold.PLP.PLP>
-47.0066

> <Gold.PLP.part.hbond>
-1.9614

> <Gold.PLP.part.metal>
0.0000

> <Gold.PLP.part.buried>
-4.0139

> <Gold.PLP.part.nonpolar>
-41.0637

> <Gold.PLP.part.repulsive>
0.1497

> <Gold.PLP.ligand.clash>
0.0000

> <Gold.PLP.ligand.torsion>
0.9774

> <Gold.PLP.Chemscore.Hbond>
1.0000

> <Gold.PLP.Chemscore.CHOScore>
0.0000

> <Gold.PLP.Chemscore.Metal>
0.0000

> <Gold.Chemscore.Hbonds>
donor molecule, donor type, donor heavy atom, donor atom, acceptor molecule, acceptor atom, score
      P1  H 10752 10765       L1    15  1.00

> <Gold.PLP.Chemscore.Internal.Correction>
1.2679

> <Gold.Rescore>
     Score         DG    S(hbond)    S(metal)    S(lipo)     H(rot)  DE(clash)    DE(int)     intcor
     16.91     -20.01       0.99        0.00     120.84       1.14       0.01       3.09       ----

> <Gold.Chemscore.Fitness>
16.9133

> <Gold.Chemscore.DG>
-20.0134

> <Gold.Chemscore.ZeroCoef>
-5.4800

> <Gold.Chemscore.Hbond>
0.9918

> <Gold.Chemscore.Metal>
0.0000

> <Gold.Chemscore.Lipo>
120.8380

> <Gold.Chemscore.Internal_Hbond>
0.0000

> <Gold.Chemscore.DEClash>
0.0127

> <Gold.Chemscore.DEInternal>
3.0875

> <Gold.Chemscore.Rot>
1.1395

> <Gold.Chemscore.Internal.Correction>
   9.000000E+99

> <Gold.Chemscore.Hbonds>
donor molecule, donor type, donor heavy atom, donor atom, acceptor molecule, acceptor atom, score
      P1  H 10752 10765       L1    15  0.97

> <Gold.Chemscore.Hbond.Weighted>
-3.3125

> <Gold.Chemscore.Metal.Weighted>
-0.0000

> <Gold.Chemscore.Lipo.Weighted>
-14.1380

> <Gold.Chemscore.Internal_Hbond.Weighted>
0.0000

> <Gold.Chemscore.DEClash.Weighted>
0.0127

> <Gold.Chemscore.DEInternal.Weighted>
3.0875

> <Gold.Chemscore.Rot.Weighted>
2.9171

> <Gold.Chemscore.Internal.Correction.Weighted>
   9.000000E+99

> <Gold.Protein.RotatedTorsions>
[ 6907 6896 6895 6894 ] final  144.30 input  -60.11 | X-H torsion
[ 7974 7965 7964 7962 ] final   16.00 input  175.53 | X-H torsion
[ 8008 7997 7996 7995 ] final -148.34 input   59.86 | X-H torsion
[ 10167 10162 10161 10158 ] final   23.49 input  -65.29 | X-H torsion
[ 10718 10713 10712 10709 ] final  122.79 input   66.30 | X-H torsion
[ 10763 10752 10751 10750 ] final -156.09 input  -60.55 | X-H torsion
[ 11005 11000 10999 10996 ] final   56.87 input  -57.11 | X-H torsion

> <Gold.Protein.ActiveResidues>
 VAL166  LYS551  ARG553  GLY616  TRP617  ASP618  TYR619  PRO620  LYS621  CYS622 
 ASP623  PHE694  ASN695  SER759  ASP760  ASP761  ALA762  ILE779  LEU786  VAL792 
 PHE793  MET794  SER795  GLU796  ALA797  LYS798  CYS799  TRP800  GLU811  SER814 

> <Gold.Protein.RotatedAtoms>
  152.1954  133.4803  159.5029 H   0  0  0  0  0  0  0  0  0  0  0  0  # atno 6907 bound_to 6896
  150.6959  134.1659  159.4203 H   0  0  0  0  0  0  0  0  0  0  0  0  # atno 6908 bound_to 6896
  151.9575  135.0139  160.0596 H   0  0  0  0  0  0  0  0  0  0  0  0  # atno 6909 bound_to 6896
  146.2262  139.8811  142.8570 H   0  0  0  0  0  0  0  0  0  0  0  0  # atno 7974 bound_to 7965
  155.5900  140.0651  157.2761 H   0  0  0  0  0  0  0  0  0  0  0  0  # atno 8008 bound_to 7997
  154.4308  140.1837  156.1112 H   0  0  0  0  0  0  0  0  0  0  0  0  # atno 8009 bound_to 7997
  156.0240  140.3314  155.7072 H   0  0  0  0  0  0  0  0  0  0  0  0  # atno 8010 bound_to 7997
  140.5265  143.9915  150.6443 H   0  0  0  0  0  0  0  0  0  0  0  0  # atno 10167 bound_to 10162
  157.5715  131.1083  150.8358 H   0  0  0  0  0  0  0  0  0  0  0  0  # atno 10718 bound_to 10713
  154.7739  135.3153  154.8133 H   0  0  0  0  0  0  0  0  0  0  0  0  # atno 10763 bound_to 10752
  153.8861  135.6830  153.4768 H   0  0  0  0  0  0  0  0  0  0  0  0  # atno 10764 bound_to 10752
  153.1358  135.4760  154.9356 H   0  0  0  0  0  0  0  0  0  0  0  0  # atno 10765 bound_to 10752
  140.0496  134.5756  155.9280 H   0  0  0  0  0  0  0  0  0  0  0  0  # atno 11005 bound_to 11000
  145.2511  141.0044  143.3880 LP  0  0  0  0  0  0  0  0  0  0  0  0  # atno 17320 bound_to 7965
  144.9374  139.4228  143.6466 LP  0  0  0  0  0  0  0  0  0  0  0  0  # atno 17321 bound_to 7965
  140.3278  143.3097  152.0719 LP  0  0  0  0  0  0  0  0  0  0  0  0  # atno 17342 bound_to 10162
  139.4940  144.6530  151.6634 LP  0  0  0  0  0  0  0  0  0  0  0  0  # atno 17343 bound_to 10162
  156.8828  130.5185  149.5290 LP  0  0  0  0  0  0  0  0  0  0  0  0  # atno 17370 bound_to 10713
  156.0760  130.5782  150.9475 LP  0  0  0  0  0  0  0  0  0  0  0  0  # atno 17371 bound_to 10713
  141.1924  133.6575  156.5499 LP  0  0  0  0  0  0  0  0  0  0  0  0  # atno 17394 bound_to 11000
  140.3938  134.7416  157.4738 LP  0  0  0  0  0  0  0  0  0  0  0  0  # atno 17395 bound_to 11000

$$$$
