AV-unprocessed.smi:1401|AV-procd|sdf|5695|dock3
  -GOLD-   22720 5323D 1   1.00000     0.00000
 Structure written by MMmdl.
 48 50  0  0  0  0  0  0  0  0  1 V2000
  147.2347  144.9788  161.5759 C   0  0  0  0  0  0  0  0  0  0  0  0
  146.3225  144.0328  160.8428 C   0  0  0  0  0  0  0  0  0  0  0  0
  146.7453  143.5821  159.7075 N   0  0  0  0  0  0  0  0  0  0  0  0
  145.9821  142.7163  158.9485 N   0  0  0  0  0  0  0  0  0  0  0  0
  146.5952  142.3376  157.6671 C   0  0  0  0  0  0  0  0  0  0  0  0
  148.0134  141.7807  157.8465 C   0  0  0  0  0  0  0  0  0  0  0  0
  148.2041  140.7857  158.5465 O   0  0  0  0  0  0  0  0  0  0  0  0
  148.9933  142.4382  157.2068 N   0  0  0  0  0  0  0  0  0  0  0  0
  150.4236  142.1488  157.2945 C   0  0  1  0  0  0  0  0  0  0  0  0
  150.8531  141.3972  156.0255 C   0  0  0  0  0  0  0  0  0  0  0  0
  151.2086  143.4696  157.4941 C   0  0  1  0  0  0  0  0  0  0  0  0
  150.5807  144.4676  158.4962 C   0  0  0  0  0  0  0  0  0  0  0  0
  151.7680  144.8479  159.3992 C   0  0  1  0  0  0  0  0  0  0  0  0
  152.0778  143.6694  160.3399 C   0  0  0  0  0  0  0  0  0  0  0  0
  152.7202  142.6413  159.3911 C   0  0  0  0  0  0  0  0  0  0  0  0
  152.6599  143.3516  158.0228 C   0  0  2  0  0  0  0  0  0  0  0  0
  152.9424  144.7947  158.4291 C   0  0  0  0  0  0  0  0  0  0  0  0
  144.7533  142.2441  159.3088 C   0  0  0  0  0  0  0  0  0  0  0  0
  144.1111  141.4623  158.6051 O   0  0  0  0  0  0  0  0  0  0  0  0
  144.2809  142.7591  160.5954 C   0  0  0  0  0  0  0  0  0  0  0  0
  142.9915  142.3025  161.0022 C   0  0  0  0  0  0  0  0  0  0  0  0
  141.9544  141.9221  161.3485 N   0  0  0  0  0  0  0  0  0  0  0  0
  145.0174  143.6157  161.3461 C   0  0  0  0  0  0  0  0  0  0  0  0
  144.5690  144.1813  162.6866 C   0  0  0  0  0  0  0  0  0  0  0  0
  147.5793  144.5363  162.5106 H   0  0  0  0  0  0  0  0  0  0  0  0
  146.7203  145.9107  161.8110 H   0  0  0  0  0  0  0  0  0  0  0  0
  148.1163  145.2326  160.9854 H   0  0  0  0  0  0  0  0  0  0  0  0
  145.9949  141.5771  157.1645 H   0  0  0  0  0  0  0  0  0  0  0  0
  146.6069  143.1964  156.9930 H   0  0  0  0  0  0  0  0  0  0  0  0
  148.7310  143.2381  156.6492 H   0  0  0  0  0  0  0  0  0  0  0  0
  150.6043  141.4893  158.1433 H   0  0  0  0  0  0  0  0  0  0  0  0
  151.9007  141.1004  156.0754 H   0  0  0  0  0  0  0  0  0  0  0  0
  150.7229  142.0125  155.1345 H   0  0  0  0  0  0  0  0  0  0  0  0
  150.2663  140.4878  155.8917 H   0  0  0  0  0  0  0  0  0  0  0  0
  151.2610  143.9663  156.5230 H   0  0  0  0  0  0  0  0  0  0  0  0
  150.1882  145.3401  157.9723 H   0  0  0  0  0  0  0  0  0  0  0  0
  149.7640  144.0395  159.0779 H   0  0  0  0  0  0  0  0  0  0  0  0
  151.6373  145.7982  159.9174 H   0  0  0  0  0  0  0  0  0  0  0  0
  152.7821  143.9657  161.1181 H   0  0  0  0  0  0  0  0  0  0  0  0
  151.1830  143.2824  160.8284 H   0  0  0  0  0  0  0  0  0  0  0  0
  153.7570  142.4621  159.6784 H   0  0  0  0  0  0  0  0  0  0  0  0
  152.2128  141.6778  159.4041 H   0  0  0  0  0  0  0  0  0  0  0  0
  153.3603  142.9478  157.2913 H   0  0  0  0  0  0  0  0  0  0  0  0
  152.8549  145.5049  157.6048 H   0  0  0  0  0  0  0  0  0  0  0  0
  153.9110  144.9281  158.9143 H   0  0  0  0  0  0  0  0  0  0  0  0
  143.6432  143.7260  163.0370 H   0  0  0  0  0  0  0  0  0  0  0  0
  144.3995  145.2556  162.6059 H   0  0  0  0  0  0  0  0  0  0  0  0
  145.3247  144.0078  163.4534 H   0  0  0  0  0  0  0  0  0  0  0  0
  1  2  1  0  0  0  0
  1 25  1  0  0  0  0
  1 26  1  0  0  0  0
  1 27  1  0  0  0  0
  2 23  1  0  0  0  0
  2  3  2  0  0  0  0
  3  4  1  0  0  0  0
  4  5  1  0  0  0  0
  4 18  1  0  0  0  0
  5  6  1  0  0  0  0
  5 28  1  0  0  0  0
  5 29  1  0  0  0  0
  6  7  2  0  0  0  0
  6  8  1  0  0  0  0
  8  9  1  0  0  0  0
  8 30  1  0  0  0  0
  9 10  1  0  0  0  0
  9 11  1  0  0  0  0
  9 31  1  0  0  0  0
 10 32  1  0  0  0  0
 10 33  1  0  0  0  0
 10 34  1  0  0  0  0
 11 16  1  0  0  0  0
 11 12  1  0  0  0  0
 11 35  1  0  0  0  0
 12 13  1  0  0  0  0
 12 36  1  0  0  0  0
 12 37  1  0  0  0  0
 13 17  1  0  0  0  0
 13 14  1  0  0  0  0
 13 38  1  0  0  0  0
 14 15  1  0  0  0  0
 14 39  1  0  0  0  0
 14 40  1  0  0  0  0
 15 16  1  0  0  0  0
 15 41  1  0  0  0  0
 15 42  1  0  0  0  0
 16 17  1  0  0  0  0
 16 43  1  0  0  0  0
 17 44  1  0  0  0  0
 17 45  1  0  0  0  0
 18 19  2  0  0  0  0
 18 20  1  0  0  0  0
 20 21  1  0  0  0  0
 20 23  2  0  0  0  0
 21 22  3  0  0  0  0
 23 24  1  0  0  0  0
 24 46  1  0  0  0  0
 24 47  1  0  0  0  0
 24 48  1  0  0  0  0
M  END
> <s_m_source_file>
AV-unprocessed.smi

> <i_m_source_file_index>
1401

> <i_lp_mmshare_version>
43012

> <i_f3d_flags>
0

> <s_epik_input>
TiNDYyhjMVtDSDNdKWMoPU8pbihuYzFbQ0gzXSlbQ0gyXUMoPU8pW05IXVtDQEhdKFtDSDNdKVtDQEhdKFtDSDJdW0NASF0yMylbQ0BIXShbQ0gyXTMpW0NIMl1bQ0gyXTI=

> <s_epik_cmdline>
J2VwaWtfcHl0aG9uJywgJy1waCcsICc3LjAnLCAnLXRuJywgJzgnLCAnLW1hJywgJzIwMCcsICctbWV0YWxfYmluZGluZycsICctaW1hZScsICc8aW5maWxlLm1hZT4nLCAnLW9tYWUnLCAnPG91dGZpbGUubWFlPic=

> <r_lp_tautomer_probability>
1

> <r_epik_Ionization_Penalty>
2.16501e-08

> <r_epik_Ionization_Penalty_Charging>
2.29436e-11

> <r_epik_Ionization_Penalty_Neutral>
2.16271e-08

> <r_epik_State_Penalty>
-0

> <r_epik_Charging_Adjusted_Penalty>
2.29436e-11

> <i_epik_Tot_Q>
0

> <i_epik_Tot_abs_Q>
0

> <r_epik_Metal_State_Penalty>
-0

> <b_epik_Metal_Only>
0

> <s_lp_Force_Field>
OPLS_2005

> <r_lp_Energy>
66.0828

> <b_lp_Chiralities_Consistent>
1

> <s_lp_Variant>
AV-unprocessed.smi:1401-8

> <Gold.Version>
5.8.1

> <Gold.Id.Protein>
6NUR|6NUR_protein|mol2

> <Gold.PLP.Fitness>
47.0115

> <Gold.PLP.PLP>
-45.0521

> <Gold.PLP.part.hbond>
-2.7726

> <Gold.PLP.part.metal>
0.0000

> <Gold.PLP.part.buried>
-7.0498

> <Gold.PLP.part.nonpolar>
-35.8781

> <Gold.PLP.part.repulsive>
0.1118

> <Gold.PLP.ligand.clash>
0.0000

> <Gold.PLP.ligand.torsion>
0.5286

> <Gold.PLP.Chemscore.Hbond>
1.0000

> <Gold.PLP.Chemscore.CHOScore>
0.0000

> <Gold.PLP.Chemscore.Metal>
0.0000

> <Gold.Chemscore.Hbonds>
donor molecule, donor type, donor heavy atom, donor atom, acceptor molecule, acceptor atom, score
      L1  H     8    30       P1  8028  1.00

> <Gold.PLP.Chemscore.Internal.Correction>
0.0165

> <Gold.Rescore>
     Score         DG    S(hbond)    S(metal)    S(lipo)     H(rot)  DE(clash)    DE(int)     intcor
     17.61     -18.75       0.97        0.00     121.42       1.63       0.64       0.51       ----

> <Gold.Chemscore.Fitness>
17.6091

> <Gold.Chemscore.DG>
-18.7513

> <Gold.Chemscore.ZeroCoef>
-5.4800

> <Gold.Chemscore.Hbond>
0.9679

> <Gold.Chemscore.Metal>
0.0000

> <Gold.Chemscore.Lipo>
121.4211

> <Gold.Chemscore.Internal_Hbond>
0.0000

> <Gold.Chemscore.DEClash>
0.6359

> <Gold.Chemscore.DEInternal>
0.5063

> <Gold.Chemscore.Rot>
1.6281

> <Gold.Chemscore.Internal.Correction>
   9.000000E+99

> <Gold.Chemscore.Hbonds>
donor molecule, donor type, donor heavy atom, donor atom, acceptor molecule, acceptor atom, score
      L1  H     8    30       P1  8028  0.82

> <Gold.Chemscore.Hbond.Weighted>
-3.2329

> <Gold.Chemscore.Metal.Weighted>
-0.0000

> <Gold.Chemscore.Lipo.Weighted>
-14.2063

> <Gold.Chemscore.Internal_Hbond.Weighted>
0.0000

> <Gold.Chemscore.DEClash.Weighted>
0.6359

> <Gold.Chemscore.DEInternal.Weighted>
0.5063

> <Gold.Chemscore.Rot.Weighted>
4.1678

> <Gold.Chemscore.Internal.Correction.Weighted>
   9.000000E+99

> <Gold.Protein.RotatedTorsions>
[ 6907 6896 6895 6894 ] final -147.96 input  -60.11 | X-H torsion
[ 7974 7965 7964 7962 ] final -103.16 input  175.53 | X-H torsion
[ 8008 7997 7996 7995 ] final -106.18 input   59.86 | X-H torsion
[ 10167 10162 10161 10158 ] final  129.78 input  -65.29 | X-H torsion
[ 10718 10713 10712 10709 ] final  155.60 input   66.30 | X-H torsion
[ 10763 10752 10751 10750 ] final -162.77 input  -60.55 | X-H torsion
[ 11005 11000 10999 10996 ] final   36.22 input  -57.11 | X-H torsion

> <Gold.Protein.ActiveResidues>
 VAL166  LYS551  ARG553  GLY616  TRP617  ASP618  TYR619  PRO620  LYS621  CYS622 
 ASP623  PHE694  ASN695  SER759  ASP760  ASP761  ALA762  ILE779  LEU786  VAL792 
 PHE793  MET794  SER795  GLU796  ALA797  LYS798  CYS799  TRP800  GLU811  SER814 

> <Gold.Protein.RotatedAtoms>
  151.1630  133.4833  159.2593 H   0  0  0  0  0  0  0  0  0  0  0  0  # atno 6907 bound_to 6896
  151.1435  135.0191  159.8646 H   0  0  0  0  0  0  0  0  0  0  0  0  # atno 6908 bound_to 6896
  152.5463  134.1521  159.8576 H   0  0  0  0  0  0  0  0  0  0  0  0  # atno 6909 bound_to 6896
  145.2595  140.9264  143.3049 H   0  0  0  0  0  0  0  0  0  0  0  0  # atno 7974 bound_to 7965
  154.9107  140.0410  157.1944 H   0  0  0  0  0  0  0  0  0  0  0  0  # atno 8008 bound_to 7997
  154.8351  140.2905  155.5675 H   0  0  0  0  0  0  0  0  0  0  0  0  # atno 8009 bound_to 7997
  156.2989  140.2493  156.3283 H   0  0  0  0  0  0  0  0  0  0  0  0  # atno 8010 bound_to 7997
  139.5461  144.6774  151.4468 H   0  0  0  0  0  0  0  0  0  0  0  0  # atno 10167 bound_to 10162
  157.2161  131.0708  151.1940 H   0  0  0  0  0  0  0  0  0  0  0  0  # atno 10718 bound_to 10713
  154.7183  135.3020  154.9087 H   0  0  0  0  0  0  0  0  0  0  0  0  # atno 10763 bound_to 10752
  153.9967  135.6712  153.4761 H   0  0  0  0  0  0  0  0  0  0  0  0  # atno 10764 bound_to 10752
  153.0812  135.5008  154.8424 H   0  0  0  0  0  0  0  0  0  0  0  0  # atno 10765 bound_to 10752
  140.2347  134.3485  155.7949 H   0  0  0  0  0  0  0  0  0  0  0  0  # atno 11005 bound_to 11000
  144.9431  139.4166  143.6439 LP  0  0  0  0  0  0  0  0  0  0  0  0  # atno 17320 bound_to 7965
  146.3279  139.8401  142.8892 LP  0  0  0  0  0  0  0  0  0  0  0  0  # atno 17321 bound_to 7965
  140.6710  143.8294  150.6999 LP  0  0  0  0  0  0  0  0  0  0  0  0  # atno 17342 bound_to 10162
  140.1718  143.4188  152.1995 LP  0  0  0  0  0  0  0  0  0  0  0  0  # atno 17343 bound_to 10162
  157.3623  130.7138  149.6510 LP  0  0  0  0  0  0  0  0  0  0  0  0  # atno 17370 bound_to 10713
  155.9686  130.4222  150.4505 LP  0  0  0  0  0  0  0  0  0  0  0  0  # atno 17371 bound_to 10713
  141.2215  133.7265  156.8789 LP  0  0  0  0  0  0  0  0  0  0  0  0  # atno 17394 bound_to 11000
  140.1714  134.9097  157.2838 LP  0  0  0  0  0  0  0  0  0  0  0  0  # atno 17395 bound_to 11000

$$$$
