AV-unprocessed.smi:535|AV-procd|sdf|2861|dock1
  -GOLD-   2262023353D 1   1.00000     0.00000
 Structure written by MMmdl.
 45 47  0  0  0  0  0  0  0  0  2 V2000
  150.8437  135.2710  156.2504 C   0  0  0  0  0  0  0  0  0  0  0  0
  152.0193  135.9749  156.6104 O   0  0  0  0  0  0  0  0  0  0  0  0
  151.7500  137.0881  157.4459 C   0  0  0  0  0  0  0  0  0  0  0  0
  153.0450  137.8985  157.6234 C   0  0  0  0  0  0  0  0  0  0  0  0
  152.7906  139.2670  158.0664 N   0  0  0  0  0  0  0  0  0  0  0  0
  152.0538  140.2450  157.4616 C   0  0  0  0  0  0  0  0  0  0  0  0
  151.4024  140.0825  156.2300 N   0  0  0  0  0  0  0  0  0  0  0  0
  151.6785  139.0831  155.1946 C   0  0  0  0  0  0  0  0  0  0  0  0
  150.3994  138.3645  154.7298 C   0  0  0  0  0  0  0  0  0  0  0  0
  149.3773  139.3768  154.2002 C   0  0  0  0  0  0  0  0  0  0  0  0
  149.1475  140.4853  155.2403 C   0  0  2  0  0  0  0  0  0  0  0  0
  148.1915  141.5638  154.7130 C   0  0  0  0  0  0  0  0  0  0  0  0
  150.4991  141.0914  155.6700 C   0  0  0  0  0  0  0  0  0  0  0  0
  151.9726  141.3785  158.1638 N   0  0  0  0  0  0  0  0  0  0  0  0
  152.7251  141.1127  159.2948 C   0  0  0  0  0  0  0  0  0  0  0  0
  153.2183  139.8468  159.2675 C   0  0  0  0  0  0  0  0  0  0  0  0
  154.0311  139.2610  160.3583 C   0  0  0  0  0  0  0  0  0  0  0  0
  154.4321  138.1005  160.3011 O   0  0  0  0  0  0  0  0  0  0  0  0
  154.2495  140.1508  161.3776 N   0  5  0  0  0  0  0  0  0  0  0  0
  153.7762  141.4435  161.4399 C   0  0  0  0  0  0  0  0  0  0  0  0
  154.0191  142.1794  162.3973 O   0  0  0  0  0  0  0  0  0  0  0  0
  153.0122  141.9382  160.4161 N   0  0  0  0  0  0  0  0  0  0  0  0
  152.4908  143.3074  160.4572 C   0  0  0  0  0  0  0  0  0  0  0  0
  151.1040  134.4233  155.6168 H   0  0  0  0  0  0  0  0  0  0  0  0
  150.1572  135.9098  155.6932 H   0  0  0  0  0  0  0  0  0  0  0  0
  150.3281  134.8869  157.1314 H   0  0  0  0  0  0  0  0  0  0  0  0
  150.9688  137.7047  157.0014 H   0  0  0  0  0  0  0  0  0  0  0  0
  151.3695  136.7450  158.4079 H   0  0  0  0  0  0  0  0  0  0  0  0
  153.7144  137.4062  158.3239 H   0  0  0  0  0  0  0  0  0  0  0  0
  153.6015  137.9298  156.6872 H   0  0  0  0  0  0  0  0  0  0  0  0
  152.1447  139.5839  154.3451 H   0  0  0  0  0  0  0  0  0  0  0  0
  152.4106  138.3588  155.5377 H   0  0  0  0  0  0  0  0  0  0  0  0
  150.6407  137.6381  153.9534 H   0  0  0  0  0  0  0  0  0  0  0  0
  149.9625  137.8022  155.5551 H   0  0  0  0  0  0  0  0  0  0  0  0
  149.7459  139.8122  153.2703 H   0  0  0  0  0  0  0  0  0  0  0  0
  148.4393  138.8744  153.9614 H   0  0  0  0  0  0  0  0  0  0  0  0
  148.6848  140.0356  156.1203 H   0  0  0  0  0  0  0  0  0  0  0  0
  148.6009  142.0603  153.8327 H   0  0  0  0  0  0  0  0  0  0  0  0
  148.0059  142.3268  155.4695 H   0  0  0  0  0  0  0  0  0  0  0  0
  147.2289  141.1334  154.4361 H   0  0  0  0  0  0  0  0  0  0  0  0
  150.3176  141.8723  156.4091 H   0  0  0  0  0  0  0  0  0  0  0  0
  150.9852  141.5785  154.8236 H   0  0  0  0  0  0  0  0  0  0  0  0
  153.3080  144.0254  160.5356 H   0  0  0  0  0  0  0  0  0  0  0  0
  151.8353  143.4406  161.3188 H   0  0  0  0  0  0  0  0  0  0  0  0
  151.9168  143.5667  159.5680 H   0  0  0  0  0  0  0  0  0  0  0  0
  1  2  1  0  0  0  0
  1 24  1  0  0  0  0
  1 25  1  0  0  0  0
  1 26  1  0  0  0  0
  2  3  1  0  0  0  0
  3  4  1  0  0  0  0
  3 27  1  0  0  0  0
  3 28  1  0  0  0  0
  4  5  1  0  0  0  0
  4 29  1  0  0  0  0
  4 30  1  0  0  0  0
  5 16  1  0  0  0  0
  5  6  1  0  0  0  0
  6  7  1  0  0  0  0
  6 14  2  0  0  0  0
  7 13  1  0  0  0  0
  7  8  1  0  0  0  0
  8  9  1  0  0  0  0
  8 31  1  0  0  0  0
  8 32  1  0  0  0  0
  9 10  1  0  0  0  0
  9 33  1  0  0  0  0
  9 34  1  0  0  0  0
 10 11  1  0  0  0  0
 10 35  1  0  0  0  0
 10 36  1  0  0  0  0
 11 12  1  0  0  0  0
 11 13  1  0  0  0  0
 11 37  1  0  0  0  0
 12 38  1  0  0  0  0
 12 39  1  0  0  0  0
 12 40  1  0  0  0  0
 13 41  1  0  0  0  0
 13 42  1  0  0  0  0
 14 15  1  0  0  0  0
 15 22  1  0  0  0  0
 15 16  2  0  0  0  0
 16 17  1  0  0  0  0
 17 18  2  0  0  0  0
 17 19  1  0  0  0  0
 19 20  1  0  0  0  0
 20 21  2  0  0  0  0
 20 22  1  0  0  0  0
 22 23  1  0  0  0  0
 23 43  1  0  0  0  0
 23 44  1  0  0  0  0
 23 45  1  0  0  0  0
M  CHG  1  19  -1
M  END
> <s_m_source_file>
AV-unprocessed.smi

> <i_m_source_file_index>
535

> <i_lp_mmshare_version>
43012

> <i_f3d_flags>
0

> <s_epik_input>
W0NIM11uMWMoPU8pW25IXWMoPU8pYyhjMTIpbihbQ0gyXVtDSDJdT1tDSDNdKWMobjIpTjNbQ0gyXVtDSDJdW0NIMl1bQ0BASF0oW0NIM10pW0NIMl0z

> <s_epik_cmdline>
J2VwaWtfcHl0aG9uJywgJy1waCcsICc3LjAnLCAnLXRuJywgJzgnLCAnLW1hJywgJzIwMCcsICctbWV0YWxfYmluZGluZycsICctaW1hZScsICc8aW5maWxlLm1hZT4nLCAnLW9tYWUnLCAnPG91dGZpbGUubWFlPic=

> <r_lp_tautomer_probability>
1

> <r_epik_Ionization_Penalty>
5.11375

> <r_epik_Ionization_Penalty_Charging>
0.0788329

> <r_epik_Ionization_Penalty_Neutral>
5.03492

> <r_epik_State_Penalty>
5.02848

> <r_epik_Charging_Adjusted_Penalty>
5.10731

> <i_epik_Tot_Q>
-1

> <i_epik_Tot_abs_Q>
1

> <r_epik_Metal_State_Penalty>
1.14014

> <b_epik_Metal_Only>
1

> <s_lp_Force_Field>
OPLS_2005

> <r_lp_Energy>
42.0611

> <b_lp_Chiralities_Consistent>
1

> <s_lp_Variant>
AV-unprocessed.smi:535-4

> <Gold.Version>
5.8.1

> <Gold.Id.Protein>
6NUR|6NUR_protein|mol2

> <Gold.PLP.Fitness>
44.7197

> <Gold.PLP.PLP>
-42.0089

> <Gold.PLP.part.hbond>
-2.0000

> <Gold.PLP.part.metal>
0.0000

> <Gold.PLP.part.buried>
-1.2591

> <Gold.PLP.part.nonpolar>
-36.9572

> <Gold.PLP.part.repulsive>
0.0198

> <Gold.PLP.ligand.clash>
0.0000

> <Gold.PLP.ligand.torsion>
0.1976

> <Gold.PLP.Chemscore.Hbond>
1.0000

> <Gold.PLP.Chemscore.CHOScore>
0.0000

> <Gold.PLP.Chemscore.Metal>
0.0000

> <Gold.Chemscore.Hbonds>
donor molecule, donor type, donor heavy atom, donor atom, acceptor molecule, acceptor atom, score
      P1  H 10752 10763       L1     2  0.95

> <Gold.PLP.Chemscore.Internal.Correction>
0.1060

> <Gold.Rescore>
     Score         DG    S(hbond)    S(metal)    S(lipo)     H(rot)  DE(clash)    DE(int)     intcor
     10.32     -12.87       0.85        0.00      70.27       1.44       1.36       1.19       ----

> <Gold.Chemscore.Fitness>
10.3247

> <Gold.Chemscore.DG>
-12.8709

> <Gold.Chemscore.ZeroCoef>
-5.4800

> <Gold.Chemscore.Hbond>
0.8529

> <Gold.Chemscore.Metal>
0.0000

> <Gold.Chemscore.Lipo>
70.2707

> <Gold.Chemscore.Internal_Hbond>
0.0000

> <Gold.Chemscore.DEClash>
1.3587

> <Gold.Chemscore.DEInternal>
1.1875

> <Gold.Chemscore.Rot>
1.4372

> <Gold.Chemscore.Internal.Correction>
   9.000000E+99

> <Gold.Chemscore.Hbonds>
donor molecule, donor type, donor heavy atom, donor atom, acceptor molecule, acceptor atom, score
      P1  H 10752 10763       L1     2  0.21

> <Gold.Chemscore.Hbond.Weighted>
-2.8486

> <Gold.Chemscore.Metal.Weighted>
-0.0000

> <Gold.Chemscore.Lipo.Weighted>
-8.2217

> <Gold.Chemscore.Internal_Hbond.Weighted>
0.0000

> <Gold.Chemscore.DEClash.Weighted>
1.3587

> <Gold.Chemscore.DEInternal.Weighted>
1.1875

> <Gold.Chemscore.Rot.Weighted>
3.6793

> <Gold.Chemscore.Internal.Correction.Weighted>
   9.000000E+99

> <Gold.Protein.RotatedTorsions>
[ 6907 6896 6895 6894 ] final   32.78 input  -60.11 | X-H torsion
[ 7974 7965 7964 7962 ] final  -65.71 input  175.53 | X-H torsion
[ 8008 7997 7996 7995 ] final -138.84 input   59.86 | X-H torsion
[ 10167 10162 10161 10158 ] final   44.19 input  -65.29 | X-H torsion
[ 10718 10713 10712 10709 ] final   72.25 input   66.30 | X-H torsion
[ 10763 10752 10751 10750 ] final   91.90 input  -60.55 | X-H torsion
[ 11005 11000 10999 10996 ] final  155.52 input  -57.11 | X-H torsion

> <Gold.Protein.ActiveResidues>
 VAL166  LYS551  ARG553  GLY616  TRP617  ASP618  TYR619  PRO620  LYS621  CYS622 
 ASP623  PHE694  ASN695  SER759  ASP760  ASP761  ALA762  ILE779  LEU786  VAL792 
 PHE793  MET794  SER795  GLU796  ALA797  LYS798  CYS799  TRP800  GLU811  SER814 

> <Gold.Protein.RotatedAtoms>
  152.0792  134.9482  160.0573 H   0  0  0  0  0  0  0  0  0  0  0  0  # atno 6907 bound_to 6896
  152.0777  133.4133  159.4495 H   0  0  0  0  0  0  0  0  0  0  0  0  # atno 6908 bound_to 6896
  150.6836  134.2938  159.4721 H   0  0  0  0  0  0  0  0  0  0  0  0  # atno 6909 bound_to 6896
  145.7509  140.8909  143.0480 H   0  0  0  0  0  0  0  0  0  0  0  0  # atno 7974 bound_to 7965
  155.4350  140.0528  157.3015 H   0  0  0  0  0  0  0  0  0  0  0  0  # atno 8008 bound_to 7997
  154.4843  140.2094  155.9649 H   0  0  0  0  0  0  0  0  0  0  0  0  # atno 8009 bound_to 7997
  156.1252  140.3181  155.8271 H   0  0  0  0  0  0  0  0  0  0  0  0  # atno 8010 bound_to 7997
  140.3368  144.2520  150.6160 H   0  0  0  0  0  0  0  0  0  0  0  0  # atno 10167 bound_to 10162
  157.6492  130.9569  150.0902 H   0  0  0  0  0  0  0  0  0  0  0  0  # atno 10718 bound_to 10713
  153.2132  135.4381  155.0404 H   0  0  0  0  0  0  0  0  0  0  0  0  # atno 10763 bound_to 10752
  154.8211  135.3338  154.7037 H   0  0  0  0  0  0  0  0  0  0  0  0  # atno 10764 bound_to 10752
  153.7473  135.7000  153.5009 H   0  0  0  0  0  0  0  0  0  0  0  0  # atno 10765 bound_to 10752
  140.1589  134.8623  157.2550 H   0  0  0  0  0  0  0  0  0  0  0  0  # atno 11005 bound_to 11000
  144.6850  139.9590  143.7480 LP  0  0  0  0  0  0  0  0  0  0  0  0  # atno 17320 bound_to 7965
  146.0358  139.3376  143.0728 LP  0  0  0  0  0  0  0  0  0  0  0  0  # atno 17321 bound_to 7965
  140.5346  143.2236  151.8183 LP  0  0  0  0  0  0  0  0  0  0  0  0  # atno 17342 bound_to 10162
  139.4847  144.4677  151.9463 LP  0  0  0  0  0  0  0  0  0  0  0  0  # atno 17343 bound_to 10162
  156.1853  130.3652  149.8980 LP  0  0  0  0  0  0  0  0  0  0  0  0  # atno 17370 bound_to 10713
  156.6922  130.8900  151.3589 LP  0  0  0  0  0  0  0  0  0  0  0  0  # atno 17371 bound_to 10713
  140.2513  134.3679  155.7441 LP  0  0  0  0  0  0  0  0  0  0  0  0  # atno 17394 bound_to 11000
  141.2207  133.7318  156.8940 LP  0  0  0  0  0  0  0  0  0  0  0  0  # atno 17395 bound_to 11000

$$$$
