AV-unprocessed.smi:2856|AV-procd|sdf|10995|dock8
  -GOLD-   2272015453D 1   1.00000     0.00000
 Structure written by MMmdl.
 37 38  0  0  0  0  0  0  0  0  1 V2000
  154.7241  140.1049  160.8889 C   0  0  0  0  0  0  0  0  0  0  0  0
  153.5442  140.5735  159.5950 S   0  0  0  0  0  0  0  0  0  0  0  0
  153.2862  142.3360  159.9775 C   0  0  2  0  0  0  0  0  0  0  0  0
  152.7104  142.5023  161.3974 C   0  0  0  0  0  0  0  0  0  0  0  0
  152.5146  143.9837  161.7569 C   0  0  0  0  0  0  0  0  0  0  0  0
  151.6311  144.6968  160.7224 C   0  0  0  0  0  0  0  0  0  0  0  0
  152.1980  144.5365  159.3014 C   0  0  0  0  0  0  0  0  0  0  0  0
  152.4110  143.0552  158.9209 C   0  0  2  0  0  0  0  0  0  0  0  0
  151.1277  142.3724  158.7507 N   0  0  0  0  0  0  0  0  0  0  0  0
  150.4950  142.1863  157.5839 C   0  0  0  0  0  0  0  0  0  0  0  0
  150.9263  142.5904  156.5038 O   0  0  0  0  0  0  0  0  0  0  0  0
  149.3464  141.5105  157.7562 N   0  0  0  0  0  0  0  0  0  0  0  0
  148.4130  141.1249  156.7608 C   0  0  0  0  0  0  0  0  0  0  0  0
  148.6376  141.4332  155.3926 C   0  0  0  0  0  0  0  0  0  0  0  0
  147.5387  140.9062  154.7738 C   0  0  0  0  0  0  0  0  0  0  0  0
  147.1021  140.8574  153.3499 C   0  0  0  0  0  0  0  0  0  0  0  0
  146.7131  140.3267  155.6872 O   0  0  0  0  0  0  0  0  0  0  0  0
  147.2796  140.4693  156.9593 N   0  0  0  0  0  0  0  0  0  0  0  0
  154.9212  139.0341  160.8423 H   0  0  0  0  0  0  0  0  0  0  0  0
  154.3235  140.3389  161.8751 H   0  0  0  0  0  0  0  0  0  0  0  0
  155.6702  140.6298  160.7602 H   0  0  0  0  0  0  0  0  0  0  0  0
  154.2737  142.7996  159.9714 H   0  0  0  0  0  0  0  0  0  0  0  0
  151.7569  141.9785  161.4776 H   0  0  0  0  0  0  0  0  0  0  0  0
  153.3766  142.0370  162.1246 H   0  0  0  0  0  0  0  0  0  0  0  0
  152.0695  144.0699  162.7485 H   0  0  0  0  0  0  0  0  0  0  0  0
  153.4855  144.4778  161.8098 H   0  0  0  0  0  0  0  0  0  0  0  0
  150.6186  144.2930  160.7642 H   0  0  0  0  0  0  0  0  0  0  0  0
  151.5497  145.7553  160.9712 H   0  0  0  0  0  0  0  0  0  0  0  0
  151.5419  145.0258  158.5806 H   0  0  0  0  0  0  0  0  0  0  0  0
  153.1531  145.0597  159.2402 H   0  0  0  0  0  0  0  0  0  0  0  0
  152.9407  143.0318  157.9679 H   0  0  0  0  0  0  0  0  0  0  0  0
  150.7004  142.0029  159.5871 H   0  0  0  0  0  0  0  0  0  0  0  0
  149.1159  141.2411  158.7010 H   0  0  0  0  0  0  0  0  0  0  0  0
  149.4660  141.9552  154.9370 H   0  0  0  0  0  0  0  0  0  0  0  0
  147.9257  141.1084  152.6813 H   0  0  0  0  0  0  0  0  0  0  0  0
  146.2928  141.5653  153.1707 H   0  0  0  0  0  0  0  0  0  0  0  0
  146.7455  139.8614  153.0869 H   0  0  0  0  0  0  0  0  0  0  0  0
  1  2  1  0  0  0  0
  1 19  1  0  0  0  0
  1 20  1  0  0  0  0
  1 21  1  0  0  0  0
  2  3  1  0  0  0  0
  3  8  1  0  0  0  0
  3  4  1  0  0  0  0
  3 22  1  0  0  0  0
  4  5  1  0  0  0  0
  4 23  1  0  0  0  0
  4 24  1  0  0  0  0
  5  6  1  0  0  0  0
  5 25  1  0  0  0  0
  5 26  1  0  0  0  0
  6  7  1  0  0  0  0
  6 27  1  0  0  0  0
  6 28  1  0  0  0  0
  7  8  1  0  0  0  0
  7 29  1  0  0  0  0
  7 30  1  0  0  0  0
  8  9  1  0  0  0  0
  8 31  1  0  0  0  0
  9 10  1  0  0  0  0
  9 32  1  0  0  0  0
 10 11  2  0  0  0  0
 10 12  1  0  0  0  0
 12 13  1  0  0  0  0
 12 33  1  0  0  0  0
 13 18  2  0  0  0  0
 13 14  1  0  0  0  0
 14 15  2  0  0  0  0
 14 34  1  0  0  0  0
 15 16  1  0  0  0  0
 15 17  1  0  0  0  0
 16 35  1  0  0  0  0
 16 36  1  0  0  0  0
 16 37  1  0  0  0  0
 17 18  1  0  0  0  0
M  END
> <s_m_source_file>
AV-unprocessed.smi

> <i_m_source_file_index>
2856

> <i_lp_mmshare_version>
43012

> <i_f3d_flags>
0

> <s_epik_input>
W0NIM11TW0NAQEhdMVtDSDJdW0NIMl1bQ0gyXVtDSDJdW0NASF0xW05IXUMoPU8pW05IXWMyW2NIXWMoW0NIM10pb24y

> <s_epik_cmdline>
J2VwaWtfcHl0aG9uJywgJy1waCcsICc3LjAnLCAnLXRuJywgJzgnLCAnLW1hJywgJzIwMCcsICctbWV0YWxfYmluZGluZycsICctaW1hZScsICc8aW5maWxlLm1hZT4nLCAnLW9tYWUnLCAnPG91dGZpbGUubWFlPic=

> <r_lp_tautomer_probability>
1

> <r_epik_Ionization_Penalty>
2.20874e-05

> <r_epik_Ionization_Penalty_Charging>
0

> <r_epik_Ionization_Penalty_Neutral>
2.20874e-05

> <r_epik_State_Penalty>
-0

> <r_epik_Charging_Adjusted_Penalty>
0

> <i_epik_Tot_Q>
0

> <i_epik_Tot_abs_Q>
0

> <r_epik_Metal_State_Penalty>
-0

> <b_epik_Metal_Only>
0

> <s_lp_Force_Field>
OPLS_2005

> <r_lp_Energy>
4.88366

> <b_lp_Chiralities_Consistent>
1

> <s_lp_Variant>
AV-unprocessed.smi:2856-3

> <Gold.Version>
5.8.1

> <Gold.Id.Protein>
6NUR|6NUR_protein|mol2

> <Gold.PLP.Fitness>
37.1901

> <Gold.PLP.PLP>
-37.8273

> <Gold.PLP.part.hbond>
0.0000

> <Gold.PLP.part.metal>
0.0000

> <Gold.PLP.part.buried>
-5.1858

> <Gold.PLP.part.nonpolar>
-33.0871

> <Gold.PLP.part.repulsive>
0.4559

> <Gold.PLP.ligand.clash>
0.0000

> <Gold.PLP.ligand.torsion>
0.3264

> <Gold.PLP.Chemscore.Hbond>
0.0000

> <Gold.PLP.Chemscore.CHOScore>
0.0000

> <Gold.PLP.Chemscore.Metal>
0.0000

> <Gold.PLP.Chemscore.Internal.Correction>
0.0156

> <Gold.Rescore>
     Score         DG    S(hbond)    S(metal)    S(lipo)     H(rot)  DE(clash)    DE(int)     intcor
     13.40     -15.02       0.00        0.00     108.07       1.21       0.04       1.59       ----

> <Gold.Chemscore.Fitness>
13.4023

> <Gold.Chemscore.DG>
-15.0238

> <Gold.Chemscore.ZeroCoef>
-5.4800

> <Gold.Chemscore.Hbond>
0.0000

> <Gold.Chemscore.Metal>
0.0000

> <Gold.Chemscore.Lipo>
108.0665

> <Gold.Chemscore.Internal_Hbond>
0.0000

> <Gold.Chemscore.DEClash>
0.0359

> <Gold.Chemscore.DEInternal>
1.5856

> <Gold.Chemscore.Rot>
1.2109

> <Gold.Chemscore.Internal.Correction>
   9.000000E+99

> <Gold.Chemscore.Hbond.Weighted>
-0.0000

> <Gold.Chemscore.Metal.Weighted>
-0.0000

> <Gold.Chemscore.Lipo.Weighted>
-12.6438

> <Gold.Chemscore.Internal_Hbond.Weighted>
0.0000

> <Gold.Chemscore.DEClash.Weighted>
0.0359

> <Gold.Chemscore.DEInternal.Weighted>
1.5856

> <Gold.Chemscore.Rot.Weighted>
3.1000

> <Gold.Chemscore.Internal.Correction.Weighted>
   9.000000E+99

> <Gold.Protein.RotatedTorsions>
[ 6907 6896 6895 6894 ] final -131.19 input  -60.11 | X-H torsion
[ 7974 7965 7964 7962 ] final    6.64 input  175.53 | X-H torsion
[ 8008 7997 7996 7995 ] final  -87.64 input   59.86 | X-H torsion
[ 10167 10162 10161 10158 ] final   23.83 input  -65.29 | X-H torsion
[ 10718 10713 10712 10709 ] final   -8.42 input   66.30 | X-H torsion
[ 10763 10752 10751 10750 ] final    1.12 input  -60.55 | X-H torsion
[ 11005 11000 10999 10996 ] final   84.83 input  -57.11 | X-H torsion

> <Gold.Protein.ActiveResidues>
 VAL166  LYS551  ARG553  GLY616  TRP617  ASP618  TYR619  PRO620  LYS621  CYS622 
 ASP623  PHE694  ASN695  SER759  ASP760  ASP761  ALA762  ILE779  LEU786  VAL792 
 PHE793  MET794  SER795  GLU796  ALA797  LYS798  CYS799  TRP800  GLU811  SER814 

> <Gold.Protein.RotatedAtoms>
  150.9481  133.6580  159.2777 H   0  0  0  0  0  0  0  0  0  0  0  0  # atno 6907 bound_to 6896
  151.3945  135.0960  159.9546 H   0  0  0  0  0  0  0  0  0  0  0  0  # atno 6908 bound_to 6896
  152.5098  133.8989  159.7485 H   0  0  0  0  0  0  0  0  0  0  0  0  # atno 6909 bound_to 6896
  146.2433  140.0203  142.8398 H   0  0  0  0  0  0  0  0  0  0  0  0  # atno 7974 bound_to 7965
  154.6655  140.0563  157.0109 H   0  0  0  0  0  0  0  0  0  0  0  0  # atno 8008 bound_to 7997
  155.1165  140.3243  155.4489 H   0  0  0  0  0  0  0  0  0  0  0  0  # atno 8009 bound_to 7997
  156.2636  140.2005  156.6288 H   0  0  0  0  0  0  0  0  0  0  0  0  # atno 8010 bound_to 7997
  140.5237  143.9959  150.6429 H   0  0  0  0  0  0  0  0  0  0  0  0  # atno 10167 bound_to 10162
  156.7029  130.5099  149.5912 H   0  0  0  0  0  0  0  0  0  0  0  0  # atno 10718 bound_to 10713
  153.3120  135.6963  153.7107 H   0  0  0  0  0  0  0  0  0  0  0  0  # atno 10763 bound_to 10752
  153.5981  135.3467  155.2936 H   0  0  0  0  0  0  0  0  0  0  0  0  # atno 10764 bound_to 10752
  154.8577  135.4334  154.2261 H   0  0  0  0  0  0  0  0  0  0  0  0  # atno 10765 bound_to 10752
  139.8989  134.8244  156.2499 H   0  0  0  0  0  0  0  0  0  0  0  0  # atno 11005 bound_to 11000
  145.1247  140.9483  143.4579 LP  0  0  0  0  0  0  0  0  0  0  0  0  # atno 17320 bound_to 7965
  145.0446  139.3231  143.5959 LP  0  0  0  0  0  0  0  0  0  0  0  0  # atno 17321 bound_to 7965
  140.3315  143.3074  152.0682 LP  0  0  0  0  0  0  0  0  0  0  0  0  # atno 17342 bound_to 10162
  139.4931  144.6505  151.6685 LP  0  0  0  0  0  0  0  0  0  0  0  0  # atno 17343 bound_to 10162
  156.1716  130.6440  151.0844 LP  0  0  0  0  0  0  0  0  0  0  0  0  # atno 17370 bound_to 10713
  157.6966  131.0791  150.6950 LP  0  0  0  0  0  0  0  0  0  0  0  0  # atno 17371 bound_to 10713
  141.0230  133.7030  156.1301 LP  0  0  0  0  0  0  0  0  0  0  0  0  # atno 17394 bound_to 11000
  140.7206  134.4363  157.5575 LP  0  0  0  0  0  0  0  0  0  0  0  0  # atno 17395 bound_to 11000

$$$$
