AV-unprocessed.smi:245|AV-procd|sdf|1877|dock7
  -GOLD-   2262020523D 1   1.00000     0.00000
 Structure written by MMmdl.
 54 58  0  0  0  0  0  0  0  0  1 V2000
  153.1078  137.9722  158.3479 O   0  0  0  0  0  0  0  0  0  0  0  0
  152.7548  139.1396  158.1983 C   0  0  0  0  0  0  0  0  0  0  0  0
  151.7297  139.4864  157.1035 C   0  0  0  0  0  0  0  0  0  0  0  0
  151.3357  140.9038  157.0319 N   0  0  0  0  0  0  0  0  0  0  0  0
  150.2089  141.0509  156.2937 C   0  0  0  0  0  0  0  0  0  0  0  0
  150.2162  140.7440  154.9693 N   0  0  0  0  0  0  0  0  0  0  0  0
  149.1095  140.9089  154.2388 C   0  0  0  0  0  0  0  0  0  0  0  0
  147.9164  141.3680  154.6227 N   0  0  0  0  0  0  0  0  0  0  0  0
  147.9111  141.6920  155.9481 C   0  0  0  0  0  0  0  0  0  0  0  0
  149.0063  141.5651  156.8476 C   0  0  0  0  0  0  0  0  0  0  0  0
  148.6315  141.9814  158.1179 N   0  0  0  0  0  0  0  0  0  0  0  0
  147.3812  142.3303  157.9792 C   0  0  0  0  0  0  0  0  0  0  0  0
  146.8704  142.2035  156.7052 N   0  0  0  0  0  0  0  0  0  0  0  0
  145.5302  142.4901  156.2755 C   0  0  0  0  0  0  0  0  0  0  0  0
  145.1779  142.6855  154.7972 C   0  0  0  0  0  0  0  0  0  0  0  0
  144.1795  143.8044  155.1725 C   0  0  0  0  0  0  0  0  0  0  0  0
  144.2926  145.0889  154.3369 C   0  0  0  0  0  0  0  0  0  0  0  0
  143.8033  144.8977  153.0250 O   0  0  0  0  0  0  0  0  0  0  0  0
  142.6829  143.4233  155.2197 C   0  0  0  0  0  0  0  0  0  0  0  0
  142.4475  142.0526  154.9686 O   0  0  0  0  0  0  0  0  0  0  0  0
  144.9131  143.8658  156.5319 C   0  0  0  0  0  0  0  0  0  0  0  0
  151.4751  141.7159  158.2472 C   0  0  2  0  0  0  0  0  0  0  0  0
  151.2166  143.2270  158.0236 C   0  0  0  0  0  0  0  0  0  0  0  0
  151.3952  144.0197  159.3298 C   0  0  0  0  0  0  0  0  0  0  0  0
  152.7853  143.7935  159.9449 C   0  0  0  0  0  0  0  0  0  0  0  0
  153.0757  142.2965  160.1376 C   0  0  0  0  0  0  0  0  0  0  0  0
  152.9005  141.5324  158.8139 C   0  0  1  0  0  0  0  0  0  0  0  0
  153.2281  140.1221  158.9801 N   0  0  0  0  0  0  0  0  0  0  0  0
  152.1523  139.1902  156.1425 H   0  0  0  0  0  0  0  0  0  0  0  0
  150.8505  138.8599  157.2675 H   0  0  0  0  0  0  0  0  0  0  0  0
  149.1924  140.6360  153.1971 H   0  0  0  0  0  0  0  0  0  0  0  0
  146.7961  142.6887  158.8132 H   0  0  0  0  0  0  0  0  0  0  0  0
  144.8978  141.7086  156.6985 H   0  0  0  0  0  0  0  0  0  0  0  0
  146.0123  143.0529  154.1988 H   0  0  0  0  0  0  0  0  0  0  0  0
  144.7247  141.8117  154.3279 H   0  0  0  0  0  0  0  0  0  0  0  0
  143.7486  145.9120  154.8014 H   0  0  0  0  0  0  0  0  0  0  0  0
  145.3314  145.4116  154.2583 H   0  0  0  0  0  0  0  0  0  0  0  0
  143.3626  144.0625  152.9874 H   0  0  0  0  0  0  0  0  0  0  0  0
  142.2553  143.6584  156.1948 H   0  0  0  0  0  0  0  0  0  0  0  0
  142.1119  143.9903  154.4838 H   0  0  0  0  0  0  0  0  0  0  0  0
  142.2695  141.9423  154.0469 H   0  0  0  0  0  0  0  0  0  0  0  0
  144.2609  143.9068  157.4049 H   0  0  0  0  0  0  0  0  0  0  0  0
  145.6667  144.6538  156.5758 H   0  0  0  0  0  0  0  0  0  0  0  0
  150.7576  141.3437  158.9816 H   0  0  0  0  0  0  0  0  0  0  0  0
  151.9006  143.6104  157.2651 H   0  0  0  0  0  0  0  0  0  0  0  0
  150.2105  143.4079  157.6468 H   0  0  0  0  0  0  0  0  0  0  0  0
  151.2411  145.0827  159.1430 H   0  0  0  0  0  0  0  0  0  0  0  0
  150.6281  143.7181  160.0443 H   0  0  0  0  0  0  0  0  0  0  0  0
  153.5452  144.2306  159.2958 H   0  0  0  0  0  0  0  0  0  0  0  0
  152.8593  144.3137  160.9002 H   0  0  0  0  0  0  0  0  0  0  0  0
  154.0903  142.1669  160.5164 H   0  0  0  0  0  0  0  0  0  0  0  0
  152.4059  141.8869  160.8950 H   0  0  0  0  0  0  0  0  0  0  0  0
  153.6173  141.9292  158.0924 H   0  0  0  0  0  0  0  0  0  0  0  0
  153.8859  139.8810  159.7074 H   0  0  0  0  0  0  0  0  0  0  0  0
  1  2  2  0  0  0  0
  2 28  1  0  0  0  0
  2  3  1  0  0  0  0
  3  4  1  0  0  0  0
  3 29  1  0  0  0  0
  3 30  1  0  0  0  0
  4  5  1  0  0  0  0
  4 22  1  0  0  0  0
  5 10  1  0  0  0  0
  5  6  2  0  0  0  0
  6  7  1  0  0  0  0
  7  8  2  0  0  0  0
  7 31  1  0  0  0  0
  8  9  1  0  0  0  0
  9 13  1  0  0  0  0
  9 10  2  0  0  0  0
 10 11  1  0  0  0  0
 11 12  2  0  0  0  0
 12 13  1  0  0  0  0
 12 32  1  0  0  0  0
 13 14  1  0  0  0  0
 14 21  1  0  0  0  0
 14 15  1  0  0  0  0
 14 33  1  0  0  0  0
 15 16  1  0  0  0  0
 15 34  1  0  0  0  0
 15 35  1  0  0  0  0
 16 17  1  0  0  0  0
 16 19  1  0  0  0  0
 16 21  1  0  0  0  0
 17 18  1  0  0  0  0
 17 36  1  0  0  0  0
 17 37  1  0  0  0  0
 18 38  1  0  0  0  0
 19 20  1  0  0  0  0
 19 39  1  0  0  0  0
 19 40  1  0  0  0  0
 20 41  1  0  0  0  0
 21 42  1  0  0  0  0
 21 43  1  0  0  0  0
 22 27  1  0  0  0  0
 22 23  1  0  0  0  0
 22 44  1  0  0  0  0
 23 24  1  0  0  0  0
 23 45  1  0  0  0  0
 23 46  1  0  0  0  0
 24 25  1  0  0  0  0
 24 47  1  0  0  0  0
 24 48  1  0  0  0  0
 25 26  1  0  0  0  0
 25 49  1  0  0  0  0
 25 50  1  0  0  0  0
 26 27  1  0  0  0  0
 26 51  1  0  0  0  0
 26 52  1  0  0  0  0
 27 28  1  0  0  0  0
 27 53  1  0  0  0  0
 28 54  1  0  0  0  0
M  END
> <s_m_source_file>
AV-unprocessed.smi

> <i_m_source_file_index>
245

> <i_lp_mmshare_version>
43012

> <i_f3d_flags>
0

> <s_epik_input>
W0NIMl0xW0NIMl1bQ0gyXVtDSDJdW0NASF0oW0NASF0xMilbTkhdQyg9TylbQ0gyXU4yYyhuW2NIXW4zKWMoYzM0KW5bY0hdbjRbQ0hdKFtDSDJdNSlbQ0gyXUM1KFtDSDJdW09IXSlbQ0gyXVtPSF0=

> <s_epik_cmdline>
J2VwaWtfcHl0aG9uJywgJy1waCcsICc3LjAnLCAnLXRuJywgJzgnLCAnLW1hJywgJzIwMCcsICctbWV0YWxfYmluZGluZycsICctaW1hZScsICc8aW5maWxlLm1hZT4nLCAnLW9tYWUnLCAnPG91dGZpbGUubWFlPic=

> <r_lp_tautomer_probability>
1

> <r_epik_Ionization_Penalty>
0.000702616

> <r_epik_Ionization_Penalty_Charging>
0

> <r_epik_Ionization_Penalty_Neutral>
0.000702616

> <r_epik_State_Penalty>
0.000343985

> <r_epik_Charging_Adjusted_Penalty>
0.000343985

> <i_epik_Tot_Q>
0

> <i_epik_Tot_abs_Q>
0

> <r_epik_Metal_State_Penalty>
-0

> <b_epik_Metal_Only>
0

> <s_lp_Force_Field>
OPLS_2005

> <r_lp_Energy>
50.1647

> <b_lp_Chiralities_Consistent>
1

> <s_lp_Variant>
AV-unprocessed.smi:245-2

> <Gold.Version>
5.8.1

> <Gold.Id.Protein>
6NUR|6NUR_protein|mol2

> <Gold.PLP.Fitness>
52.1515

> <Gold.PLP.PLP>
-43.1901

> <Gold.PLP.part.hbond>
-4.6683

> <Gold.PLP.part.metal>
0.0000

> <Gold.PLP.part.buried>
-7.1137

> <Gold.PLP.part.nonpolar>
-32.0289

> <Gold.PLP.part.repulsive>
0.4463

> <Gold.PLP.ligand.clash>
0.0000

> <Gold.PLP.ligand.torsion>
1.6583

> <Gold.PLP.Chemscore.Hbond>
2.8326

> <Gold.PLP.Chemscore.CHOScore>
1.0000

> <Gold.PLP.Chemscore.Metal>
0.0000

> <Gold.Chemscore.Hbonds>
donor molecule, donor type, donor heavy atom, donor atom, acceptor molecule, acceptor atom, score
      L1  H    18    38       P1 10174  1.00
      L1  H    20    41       P1 10174  0.99
      P1  H  7989  7998       L1     6  0.77
      L1  C     7    31       P1  7957  1.00

> <Gold.PLP.Chemscore.Internal.Correction>
0.7802

> <Gold.Rescore>
     Score         DG    S(hbond)    S(metal)    S(lipo)     H(rot)  DE(clash)    DE(int)     intcor
      9.60     -15.14       1.94        0.00      98.87       3.28       1.58       3.96       ----

> <Gold.Chemscore.Fitness>
9.6022

> <Gold.Chemscore.DG>
-15.1422

> <Gold.Chemscore.ZeroCoef>
-5.4800

> <Gold.Chemscore.Hbond>
1.9401

> <Gold.Chemscore.Metal>
0.0000

> <Gold.Chemscore.Lipo>
98.8733

> <Gold.Chemscore.Internal_Hbond>
0.0000

> <Gold.Chemscore.DEClash>
1.5805

> <Gold.Chemscore.DEInternal>
3.9595

> <Gold.Chemscore.Rot>
3.2758

> <Gold.Chemscore.Internal.Correction>
   9.000000E+99

> <Gold.Chemscore.Hbonds>
donor molecule, donor type, donor heavy atom, donor atom, acceptor molecule, acceptor atom, score
      L1  H    18    38       P1 10174  0.97
      L1  H    20    41       P1 10174  0.23
      P1  H  7989  7998       L1     6  0.17

> <Gold.Chemscore.Hbond.Weighted>
-6.4799

> <Gold.Chemscore.Metal.Weighted>
-0.0000

> <Gold.Chemscore.Lipo.Weighted>
-11.5682

> <Gold.Chemscore.Internal_Hbond.Weighted>
0.0000

> <Gold.Chemscore.DEClash.Weighted>
1.5805

> <Gold.Chemscore.DEInternal.Weighted>
3.9595

> <Gold.Chemscore.Rot.Weighted>
8.3859

> <Gold.Chemscore.Internal.Correction.Weighted>
   9.000000E+99

> <Gold.Protein.RotatedTorsions>
[ 6907 6896 6895 6894 ] final   88.21 input  -60.11 | X-H torsion
[ 7974 7965 7964 7962 ] final  170.83 input  175.53 | X-H torsion
[ 8008 7997 7996 7995 ] final   19.79 input   59.86 | X-H torsion
[ 10167 10162 10161 10158 ] final   52.68 input  -65.29 | X-H torsion
[ 10718 10713 10712 10709 ] final  141.19 input   66.30 | X-H torsion
[ 10763 10752 10751 10750 ] final -106.94 input  -60.55 | X-H torsion
[ 11005 11000 10999 10996 ] final   94.21 input  -57.11 | X-H torsion

> <Gold.Protein.ActiveResidues>
 VAL166  LYS551  ARG553  GLY616  TRP617  ASP618  TYR619  PRO620  LYS621  CYS622 
 ASP623  PHE694  ASN695  SER759  ASP760  ASP761  ALA762  ILE779  LEU786  VAL792 
 PHE793  MET794  SER795  GLU796  ALA797  LYS798  CYS799  TRP800  GLU811  SER814 

> <Gold.Protein.RotatedAtoms>
  152.5422  134.2157  159.8767 H   0  0  0  0  0  0  0  0  0  0  0  0  # atno 6907 bound_to 6896
  151.2137  133.4534  159.2606 H   0  0  0  0  0  0  0  0  0  0  0  0  # atno 6908 bound_to 6896
  151.0872  134.9907  159.8441 H   0  0  0  0  0  0  0  0  0  0  0  0  # atno 6909 bound_to 6896
  144.7312  139.9260  143.6422 H   0  0  0  0  0  0  0  0  0  0  0  0  # atno 7974 bound_to 7965
  154.9260  140.3034  155.5192 H   0  0  0  0  0  0  0  0  0  0  0  0  # atno 8008 bound_to 7997
  156.3007  140.2363  156.4251 H   0  0  0  0  0  0  0  0  0  0  0  0  # atno 8009 bound_to 7997
  154.8284  140.0419  157.1449 H   0  0  0  0  0  0  0  0  0  0  0  0  # atno 8010 bound_to 7997
  140.2488  144.3502  150.6355 H   0  0  0  0  0  0  0  0  0  0  0  0  # atno 10167 bound_to 10162
  157.3948  131.1009  151.0610 H   0  0  0  0  0  0  0  0  0  0  0  0  # atno 10718 bound_to 10713
  154.8044  135.4693  154.0355 H   0  0  0  0  0  0  0  0  0  0  0  0  # atno 10763 bound_to 10752
  153.1836  135.6844  153.8452 H   0  0  0  0  0  0  0  0  0  0  0  0  # atno 10764 bound_to 10752
  153.7994  135.3232  155.3366 H   0  0  0  0  0  0  0  0  0  0  0  0  # atno 10765 bound_to 10752
  139.8801  134.8833  156.3831 H   0  0  0  0  0  0  0  0  0  0  0  0  # atno 11005 bound_to 11000
  146.0893  139.3882  143.0415 LP  0  0  0  0  0  0  0  0  0  0  0  0  # atno 17320 bound_to 7965
  145.7733  140.9887  143.1138 LP  0  0  0  0  0  0  0  0  0  0  0  0  # atno 17321 bound_to 7965
  140.6057  143.2167  151.6986 LP  0  0  0  0  0  0  0  0  0  0  0  0  # atno 17342 bound_to 10162
  139.5053  144.3722  152.0458 LP  0  0  0  0  0  0  0  0  0  0  0  0  # atno 17343 bound_to 10162
  157.1631  130.6234  149.5617 LP  0  0  0  0  0  0  0  0  0  0  0  0  # atno 17370 bound_to 10713
  155.9807  130.4810  150.6790 LP  0  0  0  0  0  0  0  0  0  0  0  0  # atno 17371 bound_to 10713
  140.9385  133.7531  156.0115 LP  0  0  0  0  0  0  0  0  0  0  0  0  # atno 17394 bound_to 11000
  140.8247  134.3248  157.5369 LP  0  0  0  0  0  0  0  0  0  0  0  0  # atno 17395 bound_to 11000

$$$$
