#       Name:                AV-unprocessed.smi:538
#       Creating user name   scv26
#       Creation time:       Thu Mar 26 23:35:50 2020


#       File generated by GOLD software.
#

@<TRIPOS>MOLECULE
AV-unprocessed.smi:538
    52    53     1
SMALL
NO_CHARGES


@<TRIPOS>ATOM
      1 ****        -3.5831  -1.0774  -3.7779 C.3            1 S1                 0.0000
      2 ****        -3.5900  -0.5252  -2.4734 O.3            1 S1                 0.0000
      3 ****        -3.0680  -1.4191  -1.5039 C.3            1 S1                 0.0000
      4 ****        -3.0724  -0.7335  -0.1318 C.3            1 S1                 0.0000
      5 ****        -2.0955   0.3372  -0.0558 N.pl3          1 S1                 0.0000
      6 ****        -0.7068   0.3304  -0.0139 C.2            1 S1                 0.0000
      7 ****         0.0536   1.4253   0.0551 N.2            1 S1                 0.0000
      8 ****         1.3399   0.9038   0.0628 C.2            1 S1                 0.0000
      9 ****         1.3171  -0.4485  -0.0017 C.2            1 S1                 0.0000
     10 ****         2.5358  -1.2638  -0.0214 C.2            1 S1                 0.0000
     11 ****         2.4877  -2.4931  -0.0898 O.2            1 S1                 0.0000
     12 ****         3.6951  -0.5375   0.0398 N.am           1 S1                 0.0000
     13 ****         4.9432  -1.3233   0.0257 C.3            1 S1                 0.0000
     14 ****         3.7676   0.8433   0.1203 C.2            1 S1                 0.0000
     15 ****         4.8506   1.4303   0.1894 O.2            1 S1                 0.0000
     16 ****         2.5966   1.5597   0.1238 N.am           1 S1                 0.0000
     17 ****         2.6334   3.0228   0.2035 C.3            1 S1                 0.0000
     18 ****        -0.0218  -0.8396  -0.0437 N.pl3          1 S1                 0.0000
     19 ****        -0.5638  -2.1938  -0.1104 C.3            1 S1                 0.0000
     20 ****        -0.6090  -2.7275  -1.5489 C.3            1 S1                 0.0000
     21 ****        -1.4292  -1.8868  -2.3439 O.3            1 S1                 0.0000
     22 ****        -1.4931  -2.3088  -3.6943 C.3            1 S1                 0.0000
     23 ****        -3.9963  -0.3563  -4.4831 H              1 S1                 0.0000
     24 ****        -4.1896  -1.9826  -3.8272 H              1 S1                 0.0000
     25 ****        -2.5684  -1.3172  -4.0983 H              1 S1                 0.0000
     26 ****        -3.6931  -2.3123  -1.4654 H              1 S1                 0.0000
     27 ****        -2.0602  -1.7401  -1.7728 H              1 S1                 0.0000
     28 ****        -4.0624  -0.3364   0.0936 H              1 S1                 0.0000
     29 ****        -2.8385  -1.4619   0.6449 H              1 S1                 0.0000
     30 ****        -2.5089   1.2585  -0.0510 H              1 S1                 0.0000
     31 ****         5.8594  -0.7338  -0.0128 H              1 S1                 0.0000
     32 ****         4.9726  -1.9840  -0.8425 H              1 S1                 0.0000
     33 ****         5.0066  -1.9448   0.9204 H              1 S1                 0.0000
     34 ****         3.2147   3.4385  -0.6208 H              1 S1                 0.0000
     35 ****         3.0929   3.3420   1.1401 H              1 S1                 0.0000
     36 ****         1.6420   3.4740   0.1575 H              1 S1                 0.0000
     37 ****         0.0351  -2.8484   0.5218 H              1 S1                 0.0000
     38 ****        -1.5639  -2.2065   0.3232 H              1 S1                 0.0000
     39 ****         0.3985  -2.7691  -1.9656 H              1 S1                 0.0000
     40 ****        -1.0045  -3.7442  -1.5522 H              1 S1                 0.0000
     41 ****        -2.1421  -1.6377  -4.2568 H              1 S1                 0.0000
     42 ****        -1.9007  -3.3174  -3.7743 H              1 S1                 0.0000
     43 ****        -0.5066  -2.2911  -4.1592 H              1 S1                 0.0000
     44 ****        -4.5319  -0.2979  -2.2261 LP             1 S1                 0.0000
     45 ****        -3.0355   0.3070  -2.4742 LP             1 S1                 0.0000
     46 ****        -0.2322   2.3828   0.0920 LP             1 S1                 0.0000
     47 ****         1.6030  -2.9572  -0.1334 LP             1 S1                 0.0000
     48 ****         3.3334  -3.0267  -0.1017 LP             1 S1                 0.0000
     49 ****         5.7034   0.9080   0.1881 LP             1 S1                 0.0000
     50 ****         4.8757   2.4283   0.2467 LP             1 S1                 0.0000
     51 ****        -1.0590  -0.9583  -2.3155 LP             1 S1                 0.0000
     52 ****        -2.3540  -1.8888  -1.9635 LP             1 S1                 0.0000
@<TRIPOS>BOND
    1    1    2 1     
    2    1   23 1     
    3    1   24 1     
    4    1   25 1     
    5    2    3 1     
    6    3    4 1     
    7    3   26 1     
    8    3   27 1     
    9    4    5 1     
   10    4   28 1     
   11    4   29 1     
   12    5    6 1     
   13    5   30 1     
   14    6   18 1     
   15    6    7 2     
   16    7    8 1     
   17    8   16 1     
   18    8    9 2     
   19    9   10 1     
   20    9   18 1     
   21   10   11 2     
   22   10   12 am    
   23   12   13 1     
   24   12   14 am    
   25   13   31 1     
   26   13   32 1     
   27   13   33 1     
   28   14   15 2     
   29   14   16 am    
   30   16   17 1     
   31   17   34 1     
   32   17   35 1     
   33   17   36 1     
   34   18   19 1     
   35   19   20 1     
   36   19   37 1     
   37   19   38 1     
   38   20   21 1     
   39   20   39 1     
   40   20   40 1     
   41   21   22 1     
   42   22   41 1     
   43   22   42 1     
   44   22   43 1     
   45    2   44 1     
   46    2   45 1     
   47    7   46 1     
   48   11   47 1     
   49   11   48 1     
   50   15   49 1     
   51   15   50 1     
   52   21   51 1     
   53   21   52 1     
@<TRIPOS>SUBSTRUCTURE
      1 S1             1
@<TRIPOS>SET
LONE_PAIRS      STATIC     ATOMS    <user>   **** ""
9 44 45 46 47 48 49 50 51 52
DONOR_HYDROGENS      STATIC     ATOMS    <user>   **** ""
1 30
ATOM$BLUE        STATIC     ATOMS    COLORGROUP SYSTEM
9 44 45 46 47 48 49 50 51 52
ATOM$RED        STATIC     ATOMS    COLORGROUP SYSTEM
1 30
