AV-unprocessed.smi:1599|AV-procd|sdf|6424|dock3
  -GOLD-   22720 7 63D 1   1.00000     0.00000
 Structure written by MMmdl.
 39 40  0  0  0  0  0  0  0  0  1 V2000
  153.4284  144.1443  158.0149 C   0  0  0  0  0  0  0  0  0  0  0  0
  151.9603  144.3814  158.3990 C   0  0  1  0  0  0  0  0  0  0  0  0
  151.0916  143.7427  157.4126 N   0  0  0  0  0  0  0  0  0  0  0  0
  151.0009  142.4248  157.1850 C   0  0  0  0  0  0  0  0  0  0  0  0
  151.6400  141.5768  157.8072 O   0  0  0  0  0  0  0  0  0  0  0  0
  150.1312  142.1629  156.1964 N   0  0  0  0  0  0  0  0  0  0  0  0
  149.7969  140.8932  155.6636 C   0  0  0  0  0  0  0  0  0  0  0  0
  150.5007  139.6598  155.7628 C   0  0  0  0  0  0  0  0  0  0  0  0
  149.8600  138.6948  155.1206 N   0  0  0  0  0  0  0  0  0  0  0  0
  148.7493  139.2842  154.6112 N   0  0  0  0  0  0  0  0  0  0  0  0
  147.8099  138.4969  153.8313 C   0  0  0  0  0  0  0  0  0  0  0  0
  146.6586  139.3568  153.3022 C   0  0  0  0  0  0  0  0  0  0  0  0
  146.8441  139.9665  152.1285 N   0  0  0  0  0  0  0  0  0  0  0  0
  145.6148  139.4719  153.9418 O   0  0  0  0  0  0  0  0  0  0  0  0
  148.6838  140.6284  154.9242 C   0  0  0  0  0  0  0  0  0  0  0  0
  151.6338  143.8434  159.8049 C   0  0  2  0  0  0  0  0  0  0  0  0
  152.1954  144.6804  160.9540 C   0  0  0  0  0  0  0  0  0  0  0  0
  152.2241  143.6950  162.1078 C   0  0  0  0  0  0  0  0  0  0  0  0
  152.2687  142.3262  161.4213 C   0  0  0  0  0  0  0  0  0  0  0  0
  152.2623  142.5897  160.0230 O   0  0  0  0  0  0  0  0  0  0  0  0
  154.1032  144.6261  158.7228 H   0  0  0  0  0  0  0  0  0  0  0  0
  153.6462  144.5516  157.0269 H   0  0  0  0  0  0  0  0  0  0  0  0
  153.6692  143.0808  157.9978 H   0  0  0  0  0  0  0  0  0  0  0  0
  151.7835  145.4585  158.4067 H   0  0  0  0  0  0  0  0  0  0  0  0
  150.5230  144.3582  156.8499 H   0  0  0  0  0  0  0  0  0  0  0  0
  149.6712  142.9549  155.7722 H   0  0  0  0  0  0  0  0  0  0  0  0
  151.4304  139.4281  156.2604 H   0  0  0  0  0  0  0  0  0  0  0  0
  148.3527  138.0286  153.0088 H   0  0  0  0  0  0  0  0  0  0  0  0
  147.4055  137.6925  154.4477 H   0  0  0  0  0  0  0  0  0  0  0  0
  146.1155  140.5470  151.7392 H   0  0  0  0  0  0  0  0  0  0  0  0
  147.7171  139.8459  151.6356 H   0  0  0  0  0  0  0  0  0  0  0  0
  147.8704  141.2608  154.6001 H   0  0  0  0  0  0  0  0  0  0  0  0
  150.5554  143.7244  159.9290 H   0  0  0  0  0  0  0  0  0  0  0  0
  153.2108  145.0051  160.7214 H   0  0  0  0  0  0  0  0  0  0  0  0
  151.5980  145.5671  161.1685 H   0  0  0  0  0  0  0  0  0  0  0  0
  153.0807  143.8613  162.7615 H   0  0  0  0  0  0  0  0  0  0  0  0
  151.3194  143.7829  162.7102 H   0  0  0  0  0  0  0  0  0  0  0  0
  153.1575  141.7563  161.6936 H   0  0  0  0  0  0  0  0  0  0  0  0
  151.3917  141.7343  161.6854 H   0  0  0  0  0  0  0  0  0  0  0  0
  1  2  1  0  0  0  0
  1 21  1  0  0  0  0
  1 22  1  0  0  0  0
  1 23  1  0  0  0  0
  2  3  1  0  0  0  0
  2 16  1  0  0  0  0
  2 24  1  0  0  0  0
  3  4  1  0  0  0  0
  3 25  1  0  0  0  0
  4  5  2  0  0  0  0
  4  6  1  0  0  0  0
  6  7  1  0  0  0  0
  6 26  1  0  0  0  0
  7 15  2  0  0  0  0
  7  8  1  0  0  0  0
  8  9  2  0  0  0  0
  8 27  1  0  0  0  0
  9 10  1  0  0  0  0
 10 11  1  0  0  0  0
 10 15  1  0  0  0  0
 11 12  1  0  0  0  0
 11 28  1  0  0  0  0
 11 29  1  0  0  0  0
 12 13  1  0  0  0  0
 12 14  2  0  0  0  0
 13 30  1  0  0  0  0
 13 31  1  0  0  0  0
 15 32  1  0  0  0  0
 16 20  1  0  0  0  0
 16 17  1  0  0  0  0
 16 33  1  0  0  0  0
 17 18  1  0  0  0  0
 17 34  1  0  0  0  0
 17 35  1  0  0  0  0
 18 19  1  0  0  0  0
 18 36  1  0  0  0  0
 18 37  1  0  0  0  0
 19 20  1  0  0  0  0
 19 38  1  0  0  0  0
 19 39  1  0  0  0  0
M  END
> <s_m_source_file>
AV-unprocessed.smi

> <i_m_source_file_index>
1599

> <i_lp_mmshare_version>
43012

> <i_f3d_flags>
0

> <s_epik_input>
TzFbQ0gyXVtDSDJdW0NIMl1bQ0BIXTFbQ0BIXShbQ0gzXSlbTkhdQyg9TylbTkhdYzJbY0hdbm4oW2NIXTIpW0NIMl1DKD1PKVtOSDJd

> <s_epik_cmdline>
J2VwaWtfcHl0aG9uJywgJy1waCcsICc3LjAnLCAnLXRuJywgJzgnLCAnLW1hJywgJzIwMCcsICctbWV0YWxfYmluZGluZycsICctaW1hZScsICc8aW5maWxlLm1hZT4nLCAnLW9tYWUnLCAnPG91dGZpbGUubWFlPic=

> <r_lp_tautomer_probability>
1

> <r_epik_Ionization_Penalty>
4.15391e-05

> <r_epik_Ionization_Penalty_Charging>
0

> <r_epik_Ionization_Penalty_Neutral>
4.15391e-05

> <r_epik_State_Penalty>
-0

> <r_epik_Charging_Adjusted_Penalty>
0

> <i_epik_Tot_Q>
0

> <i_epik_Tot_abs_Q>
0

> <r_epik_Metal_State_Penalty>
-0

> <b_epik_Metal_Only>
0

> <s_lp_Force_Field>
OPLS_2005

> <r_lp_Energy>
20.7391

> <b_lp_Chiralities_Consistent>
1

> <s_lp_Variant>
AV-unprocessed.smi:1599-2

> <Gold.Version>
5.8.1

> <Gold.Id.Protein>
6NUR|6NUR_protein|mol2

> <Gold.PLP.Fitness>
49.8059

> <Gold.PLP.PLP>
-41.0609

> <Gold.PLP.part.hbond>
-3.6528

> <Gold.PLP.part.metal>
0.0000

> <Gold.PLP.part.buried>
-2.6789

> <Gold.PLP.part.nonpolar>
-34.4831

> <Gold.PLP.part.repulsive>
0.4638

> <Gold.PLP.ligand.clash>
0.0000

> <Gold.PLP.ligand.torsion>
0.7509

> <Gold.PLP.Chemscore.Hbond>
3.3961

> <Gold.PLP.Chemscore.CHOScore>
0.0000

> <Gold.PLP.Chemscore.Metal>
0.0000

> <Gold.Chemscore.Hbonds>
donor molecule, donor type, donor heavy atom, donor atom, acceptor molecule, acceptor atom, score
      L1  H     3    25       P1  8028  1.00
      L1  H     6    26       P1  8028  1.00
      L1  H    13    31       P1  7957  1.00

> <Gold.PLP.Chemscore.Internal.Correction>
0.0586

> <Gold.Rescore>
     Score         DG    S(hbond)    S(metal)    S(lipo)     H(rot)  DE(clash)    DE(int)     intcor
     15.65     -21.27       2.92        0.00     101.66       2.28       1.37       4.26       ----

> <Gold.Chemscore.Fitness>
15.6526

> <Gold.Chemscore.DG>
-21.2742

> <Gold.Chemscore.ZeroCoef>
-5.4800

> <Gold.Chemscore.Hbond>
2.9171

> <Gold.Chemscore.Metal>
0.0000

> <Gold.Chemscore.Lipo>
101.6572

> <Gold.Chemscore.Internal_Hbond>
0.0000

> <Gold.Chemscore.DEClash>
1.3656

> <Gold.Chemscore.DEInternal>
4.2561

> <Gold.Chemscore.Rot>
2.2823

> <Gold.Chemscore.Internal.Correction>
   9.000000E+99

> <Gold.Chemscore.Hbonds>
donor molecule, donor type, donor heavy atom, donor atom, acceptor molecule, acceptor atom, score
      L1  H     3    25       P1  8028  0.87
      L1  H     6    26       P1  8028  0.99
      L1  H    13    31       P1  7957  0.99

> <Gold.Chemscore.Hbond.Weighted>
-9.7430

> <Gold.Chemscore.Metal.Weighted>
-0.0000

> <Gold.Chemscore.Lipo.Weighted>
-11.8939

> <Gold.Chemscore.Internal_Hbond.Weighted>
0.0000

> <Gold.Chemscore.DEClash.Weighted>
1.3656

> <Gold.Chemscore.DEInternal.Weighted>
4.2561

> <Gold.Chemscore.Rot.Weighted>
5.8427

> <Gold.Chemscore.Internal.Correction.Weighted>
   9.000000E+99

> <Gold.Protein.RotatedTorsions>
[ 6907 6896 6895 6894 ] final   78.18 input  -60.11 | X-H torsion
[ 7974 7965 7964 7962 ] final  136.92 input  175.53 | X-H torsion
[ 8008 7997 7996 7995 ] final  -43.27 input   59.86 | X-H torsion
[ 10167 10162 10161 10158 ] final -165.84 input  -65.29 | X-H torsion
[ 10718 10713 10712 10709 ] final   95.71 input   66.30 | X-H torsion
[ 10763 10752 10751 10750 ] final  156.32 input  -60.55 | X-H torsion
[ 11005 11000 10999 10996 ] final  151.71 input  -57.11 | X-H torsion

> <Gold.Protein.ActiveResidues>
 VAL166  LYS551  ARG553  GLY616  TRP617  ASP618  TYR619  PRO620  LYS621  CYS622 
 ASP623  PHE694  ASN695  SER759  ASP760  ASP761  ALA762  ILE779  LEU786  VAL792 
 PHE793  MET794  SER795  GLU796  ALA797  LYS798  CYS799  TRP800  GLU811  SER814 

> <Gold.Protein.RotatedAtoms>
  152.5149  134.3703  159.9315 H   0  0  0  0  0  0  0  0  0  0  0  0  # atno 6907 bound_to 6896
  151.3657  133.3867  159.2702 H   0  0  0  0  0  0  0  0  0  0  0  0  # atno 6908 bound_to 6896
  150.9617  134.9023  159.7792 H   0  0  0  0  0  0  0  0  0  0  0  0  # atno 6909 bound_to 6896
  144.9518  139.4810  143.5522 H   0  0  0  0  0  0  0  0  0  0  0  0  # atno 7974 bound_to 7965
  154.3997  140.1452  156.3492 H   0  0  0  0  0  0  0  0  0  0  0  0  # atno 8008 bound_to 7997
  155.8285  140.3467  155.5536 H   0  0  0  0  0  0  0  0  0  0  0  0  # atno 8009 bound_to 7997
  155.8213  140.0898  157.1837 H   0  0  0  0  0  0  0  0  0  0  0  0  # atno 8010 bound_to 7997
  139.6155  144.0728  152.1884 H   0  0  0  0  0  0  0  0  0  0  0  0  # atno 10167 bound_to 10162
  157.6935  131.0554  150.4381 H   0  0  0  0  0  0  0  0  0  0  0  0  # atno 10718 bound_to 10713
  154.1824  135.2799  155.3048 H   0  0  0  0  0  0  0  0  0  0  0  0  # atno 10763 bound_to 10752
  154.5992  135.5535  153.7360 H   0  0  0  0  0  0  0  0  0  0  0  0  # atno 10764 bound_to 10752
  153.0134  135.6387  154.1963 H   0  0  0  0  0  0  0  0  0  0  0  0  # atno 10765 bound_to 10752
  140.1243  134.8843  157.2116 H   0  0  0  0  0  0  0  0  0  0  0  0  # atno 11005 bound_to 11000
  146.3323  139.8609  142.8856 LP  0  0  0  0  0  0  0  0  0  0  0  0  # atno 17320 bound_to 7965
  145.2832  141.0145  143.3705 LP  0  0  0  0  0  0  0  0  0  0  0  0  # atno 17321 bound_to 7965
  140.0357  144.6046  150.7451 LP  0  0  0  0  0  0  0  0  0  0  0  0  # atno 17342 bound_to 10162
  140.7348  143.2733  151.3820 LP  0  0  0  0  0  0  0  0  0  0  0  0  # atno 17343 bound_to 10162
  156.4742  130.4059  149.6500 LP  0  0  0  0  0  0  0  0  0  0  0  0  # atno 17370 bound_to 10713
  156.3569  130.7461  151.2428 LP  0  0  0  0  0  0  0  0  0  0  0  0  # atno 17371 bound_to 10713
  140.2924  134.3225  155.7311 LP  0  0  0  0  0  0  0  0  0  0  0  0  # atno 17394 bound_to 11000
  141.2158  133.7542  156.9522 LP  0  0  0  0  0  0  0  0  0  0  0  0  # atno 17395 bound_to 11000

$$$$
