AV-unprocessed.smi:2371|AV-procd|sdf|9436|dock2
  -GOLD-   2272013 63D 1   1.00000     0.00000
 Structure written by MMmdl.
 35 36  0  0  0  0  0  0  0  0  1 V2000
  152.4968  143.9550  161.8904 C   0  0  0  0  0  0  0  0  0  0  0  0
  152.5126  142.9731  160.8031 N   0  0  0  0  0  0  0  0  0  0  0  0
  153.3825  141.8768  160.9298 C   0  0  0  0  0  0  0  0  0  0  0  0
  153.4642  140.9309  159.9838 C   0  0  0  0  0  0  0  0  0  0  0  0
  152.6291  141.0570  158.8136 C   0  0  0  0  0  0  0  0  0  0  0  0
  151.7762  142.1032  158.6746 C   0  0  0  0  0  0  0  0  0  0  0  0
  150.9359  142.3057  157.5662 N   0  0  0  0  0  0  0  0  0  0  0  0
  150.6260  141.4596  156.5665 C   0  0  0  0  0  0  0  0  0  0  0  0
  151.0211  140.2993  156.4564 O   0  0  0  0  0  0  0  0  0  0  0  0
  149.7910  142.0392  155.6928 N   0  0  0  0  0  0  0  0  0  0  0  0
  149.2287  141.4017  154.5063 C   0  0  0  0  0  0  0  0  0  0  0  0
  147.6910  141.3744  154.5469 C   0  0  2  0  0  0  0  0  0  0  0  0
  147.0029  142.6165  153.9787 C   0  0  0  0  0  0  0  0  0  0  0  0
  145.6709  142.5776  154.6909 C   0  0  0  0  0  0  0  0  0  0  0  0
  146.0771  142.0966  156.0809 C   0  0  0  0  0  0  0  0  0  0  0  0
  147.2358  141.2869  155.8948 O   0  0  0  0  0  0  0  0  0  0  0  0
  151.7032  143.1468  159.7160 C   0  0  0  0  0  0  0  0  0  0  0  0
  150.9578  144.1254  159.6257 O   0  0  0  0  0  0  0  0  0  0  0  0
  153.1484  143.6761  162.7192 H   0  0  0  0  0  0  0  0  0  0  0  0
  151.4896  144.0658  162.2950 H   0  0  0  0  0  0  0  0  0  0  0  0
  152.8273  144.9297  161.5286 H   0  0  0  0  0  0  0  0  0  0  0  0
  153.9738  141.8540  161.8335 H   0  0  0  0  0  0  0  0  0  0  0  0
  154.1378  140.0940  160.0945 H   0  0  0  0  0  0  0  0  0  0  0  0
  152.7265  140.2971  158.0553 H   0  0  0  0  0  0  0  0  0  0  0  0
  150.4728  143.2030  157.5517 H   0  0  0  0  0  0  0  0  0  0  0  0
  149.5140  142.9946  155.8654 H   0  0  0  0  0  0  0  0  0  0  0  0
  149.5572  141.9738  153.6384 H   0  0  0  0  0  0  0  0  0  0  0  0
  149.6264  140.3941  154.3733 H   0  0  0  0  0  0  0  0  0  0  0  0
  147.3216  140.4910  154.0235 H   0  0  0  0  0  0  0  0  0  0  0  0
  147.5464  143.5205  154.2574 H   0  0  0  0  0  0  0  0  0  0  0  0
  146.9091  142.5934  152.8927 H   0  0  0  0  0  0  0  0  0  0  0  0
  145.1606  143.5410  154.7038 H   0  0  0  0  0  0  0  0  0  0  0  0
  145.0139  141.8475  154.2162 H   0  0  0  0  0  0  0  0  0  0  0  0
  146.3466  142.9433  156.7133 H   0  0  0  0  0  0  0  0  0  0  0  0
  145.2798  141.5437  156.5780 H   0  0  0  0  0  0  0  0  0  0  0  0
  1  2  1  0  0  0  0
  1 19  1  0  0  0  0
  1 20  1  0  0  0  0
  1 21  1  0  0  0  0
  2 17  1  0  0  0  0
  2  3  1  0  0  0  0
  3  4  2  0  0  0  0
  3 22  1  0  0  0  0
  4  5  1  0  0  0  0
  4 23  1  0  0  0  0
  5  6  2  0  0  0  0
  5 24  1  0  0  0  0
  6  7  1  0  0  0  0
  6 17  1  0  0  0  0
  7  8  1  0  0  0  0
  7 25  1  0  0  0  0
  8  9  2  0  0  0  0
  8 10  1  0  0  0  0
 10 11  1  0  0  0  0
 10 26  1  0  0  0  0
 11 12  1  0  0  0  0
 11 27  1  0  0  0  0
 11 28  1  0  0  0  0
 12 16  1  0  0  0  0
 12 13  1  0  0  0  0
 12 29  1  0  0  0  0
 13 14  1  0  0  0  0
 13 30  1  0  0  0  0
 13 31  1  0  0  0  0
 14 15  1  0  0  0  0
 14 32  1  0  0  0  0
 14 33  1  0  0  0  0
 15 16  1  0  0  0  0
 15 34  1  0  0  0  0
 15 35  1  0  0  0  0
 17 18  2  0  0  0  0
M  END
> <s_m_source_file>
AV-unprocessed.smi

> <i_m_source_file_index>
2371

> <i_lp_mmshare_version>
43012

> <i_f3d_flags>
0

> <s_epik_input>
W0NIM11uMVtjSF1bY0hdW2NIXWMoYzE9TylbTkhdQyg9TylbTkhdW0NIMl1bQ0BASF0yW0NIMl1bQ0gyXVtDSDJdTzI=

> <s_epik_cmdline>
J2VwaWtfcHl0aG9uJywgJy1waCcsICc3LjAnLCAnLXRuJywgJzgnLCAnLW1hJywgJzIwMCcsICctbWV0YWxfYmluZGluZycsICctaW1hZScsICc8aW5maWxlLm1hZT4nLCAnLW9tYWUnLCAnPG91dGZpbGUubWFlPic=

> <r_lp_tautomer_probability>
1

> <r_epik_Ionization_Penalty>
2.36512e-05

> <r_epik_Ionization_Penalty_Charging>
4.84074e-06

> <r_epik_Ionization_Penalty_Neutral>
1.88105e-05

> <r_epik_State_Penalty>
-0

> <r_epik_Charging_Adjusted_Penalty>
4.84074e-06

> <i_epik_Tot_Q>
0

> <i_epik_Tot_abs_Q>
0

> <r_epik_Metal_State_Penalty>
-0

> <b_epik_Metal_Only>
0

> <s_lp_Force_Field>
OPLS_2005

> <r_lp_Energy>
29.8245

> <b_lp_Chiralities_Consistent>
1

> <s_lp_Variant>
AV-unprocessed.smi:2371-1

> <Gold.Version>
5.8.1

> <Gold.Id.Protein>
6NUR|6NUR_protein|mol2

> <Gold.PLP.Fitness>
41.1026

> <Gold.PLP.PLP>
-38.8359

> <Gold.PLP.part.hbond>
-1.0000

> <Gold.PLP.part.metal>
0.0000

> <Gold.PLP.part.buried>
-5.7388

> <Gold.PLP.part.nonpolar>
-31.8238

> <Gold.PLP.part.repulsive>
0.3402

> <Gold.PLP.ligand.clash>
0.0000

> <Gold.PLP.ligand.torsion>
0.3698

> <Gold.PLP.Chemscore.Hbond>
1.0000

> <Gold.PLP.Chemscore.CHOScore>
0.0000

> <Gold.PLP.Chemscore.Metal>
0.0000

> <Gold.Chemscore.Hbonds>
donor molecule, donor type, donor heavy atom, donor atom, acceptor molecule, acceptor atom, score
      L1  H    10    26       P1  8028  1.00

> <Gold.PLP.Chemscore.Internal.Correction>
0.0063

> <Gold.Rescore>
     Score         DG    S(hbond)    S(metal)    S(lipo)     H(rot)  DE(clash)    DE(int)     intcor
     13.38     -14.96       1.00        0.00      79.84       1.25       0.02       1.57       ----

> <Gold.Chemscore.Fitness>
13.3790

> <Gold.Chemscore.DG>
-14.9596

> <Gold.Chemscore.ZeroCoef>
-5.4800

> <Gold.Chemscore.Hbond>
0.9978

> <Gold.Chemscore.Metal>
0.0000

> <Gold.Chemscore.Lipo>
79.8404

> <Gold.Chemscore.Internal_Hbond>
0.0000

> <Gold.Chemscore.DEClash>
0.0155

> <Gold.Chemscore.DEInternal>
1.5651

> <Gold.Chemscore.Rot>
1.2478

> <Gold.Chemscore.Internal.Correction>
   9.000000E+99

> <Gold.Chemscore.Hbonds>
donor molecule, donor type, donor heavy atom, donor atom, acceptor molecule, acceptor atom, score
      L1  H    10    26       P1  8028  1.00

> <Gold.Chemscore.Hbond.Weighted>
-3.3327

> <Gold.Chemscore.Metal.Weighted>
-0.0000

> <Gold.Chemscore.Lipo.Weighted>
-9.3413

> <Gold.Chemscore.Internal_Hbond.Weighted>
0.0000

> <Gold.Chemscore.DEClash.Weighted>
0.0155

> <Gold.Chemscore.DEInternal.Weighted>
1.5651

> <Gold.Chemscore.Rot.Weighted>
3.1944

> <Gold.Chemscore.Internal.Correction.Weighted>
   9.000000E+99

> <Gold.Protein.RotatedTorsions>
[ 6907 6896 6895 6894 ] final   -2.02 input  -60.11 | X-H torsion
[ 7974 7965 7964 7962 ] final  151.90 input  175.53 | X-H torsion
[ 8008 7997 7996 7995 ] final  -68.76 input   59.86 | X-H torsion
[ 10167 10162 10161 10158 ] final  132.24 input  -65.29 | X-H torsion
[ 10718 10713 10712 10709 ] final -164.63 input   66.30 | X-H torsion
[ 10763 10752 10751 10750 ] final  139.65 input  -60.55 | X-H torsion
[ 11005 11000 10999 10996 ] final   85.86 input  -57.11 | X-H torsion

> <Gold.Protein.ActiveResidues>
 VAL166  LYS551  ARG553  GLY616  TRP617  ASP618  TYR619  PRO620  LYS621  CYS622 
 ASP623  PHE694  ASN695  SER759  ASP760  ASP761  ALA762  ILE779  LEU786  VAL792 
 PHE793  MET794  SER795  GLU796  ALA797  LYS798  CYS799  TRP800  GLU811  SER814 

> <Gold.Protein.RotatedAtoms>
  151.5366  135.1068  159.9915 H   0  0  0  0  0  0  0  0  0  0  0  0  # atno 6907 bound_to 6896
  152.4554  133.7709  159.6809 H   0  0  0  0  0  0  0  0  0  0  0  0  # atno 6908 bound_to 6896
  150.8496  133.7742  159.3055 H   0  0  0  0  0  0  0  0  0  0  0  0  # atno 6909 bound_to 6896
  144.8260  139.6597  143.6080 H   0  0  0  0  0  0  0  0  0  0  0  0  # atno 7974 bound_to 7965
  154.4891  140.0866  156.7553 H   0  0  0  0  0  0  0  0  0  0  0  0  # atno 8008 bound_to 7997
  155.4276  140.3448  155.4259 H   0  0  0  0  0  0  0  0  0  0  0  0  # atno 8009 bound_to 7997
  156.1304  140.1499  156.9062 H   0  0  0  0  0  0  0  0  0  0  0  0  # atno 8010 bound_to 7997
  139.5348  144.6671  151.4823 H   0  0  0  0  0  0  0  0  0  0  0  0  # atno 10167 bound_to 10162
  156.6418  130.8972  151.2997 H   0  0  0  0  0  0  0  0  0  0  0  0  # atno 10718 bound_to 10713
  153.9096  135.3012  155.3448 H   0  0  0  0  0  0  0  0  0  0  0  0  # atno 10763 bound_to 10752
  154.7630  135.4924  153.9503 H   0  0  0  0  0  0  0  0  0  0  0  0  # atno 10764 bound_to 10752
  153.1200  135.6780  153.9453 H   0  0  0  0  0  0  0  0  0  0  0  0  # atno 10765 bound_to 10752
  139.8960  134.8316  156.2641 H   0  0  0  0  0  0  0  0  0  0  0  0  # atno 11005 bound_to 11000
  146.2565  139.6314  142.9391 LP  0  0  0  0  0  0  0  0  0  0  0  0  # atno 17320 bound_to 7965
  145.4999  141.0437  143.2546 LP  0  0  0  0  0  0  0  0  0  0  0  0  # atno 17321 bound_to 7965
  140.6548  143.8621  150.6824 LP  0  0  0  0  0  0  0  0  0  0  0  0  # atno 17342 bound_to 10162
  140.1998  143.3969  152.1800 LP  0  0  0  0  0  0  0  0  0  0  0  0  # atno 17343 bound_to 10162
  157.7169  130.9508  150.1287 LP  0  0  0  0  0  0  0  0  0  0  0  0  # atno 17370 bound_to 10713
  156.2153  130.3670  149.8621 LP  0  0  0  0  0  0  0  0  0  0  0  0  # atno 17371 bound_to 10713
  141.0143  133.7077  156.1163 LP  0  0  0  0  0  0  0  0  0  0  0  0  # atno 17394 bound_to 11000
  140.7323  134.4241  157.5564 LP  0  0  0  0  0  0  0  0  0  0  0  0  # atno 17395 bound_to 11000

$$$$
