#       Name:                AV-unprocessed.smi:2276
#       Creating user name   scv26
#       Creation time:       Fri Mar 27 12:38:42 2020


#       File generated by GOLD software.
#

@<TRIPOS>MOLECULE
AV-unprocessed.smi:2276
    57    58     1
SMALL
NO_CHARGES


@<TRIPOS>ATOM
      1 ****        -3.0996   5.1224  -0.0979 C.3            1 S1                 0.0000
      2 ****        -2.7499   3.7286   0.3794 C.ar           1 S1                 0.0000
      3 ****        -2.5810   3.4547   1.7502 C.ar           1 S1                 0.0000
      4 ****        -2.2563   2.1381   2.1303 C.ar           1 S1                 0.0000
      5 ****        -2.0578   1.7753   3.5869 C.3            1 S1                 0.0000
      6 ****        -2.0967   1.1337   1.2423 N.ar           1 S1                 0.0000
      7 ****        -2.2650   1.3838  -0.0803 C.ar           1 S1                 0.0000
      8 ****        -2.0992   0.4002  -1.0908 N.am           1 S1                 0.0000
      9 ****        -1.8458  -0.9092  -0.9245 C.2            1 S1                 0.0000
     10 ****        -1.9659  -1.5239   0.1359 O.2            1 S1                 0.0000
     11 ****        -1.4159  -1.4713  -2.0638 N.am           1 S1                 0.0000
     12 ****        -0.9136  -2.8369  -2.2078 C.3            1 S1                 0.0000
     13 ****         0.6307  -2.8918  -2.1592 C.3            1 S1                 0.0000
     14 ****         1.1356  -4.2573  -2.6512 C.3            1 S1                 0.0000
     15 ****         1.1789  -2.5988  -0.7397 C.3            1 S1                 0.0000
     16 ****         2.5229  -2.0133  -0.7295 N.3            1 S1                 0.0000
     17 ****         2.6000  -0.6282  -1.2143 C.3            1 S1                 0.0000
     18 ****         1.8954   0.3717  -0.2720 C.3            1 S1                 0.0000
     19 ****         2.4587   0.2889   1.0949 N.4            1 S1                 1.0000
     20 ****         1.8265   1.2486   2.0246 C.3            1 S1                 0.0000
     21 ****         2.4184  -1.1041   1.5983 C.3            1 S1                 0.0000
     22 ****         3.1202  -2.0618   0.6087 C.3            1 S1                 0.0000
     23 ****        -2.5871   2.6780  -0.5461 C.ar           1 S1                 0.0000
     24 ****        -3.1011   5.8354   0.7271 H              1 S1                 0.0000
     25 ****        -4.0888   5.1272  -0.5558 H              1 S1                 0.0000
     26 ****        -2.3758   5.4615  -0.8392 H              1 S1                 0.0000
     27 ****        -2.6984   4.2325   2.4908 H              1 S1                 0.0000
     28 ****        -2.4457   2.5550   4.2429 H              1 S1                 0.0000
     29 ****        -0.9976   1.6439   3.8026 H              1 S1                 0.0000
     30 ****        -2.5752   0.8453   3.8246 H              1 S1                 0.0000
     31 ****        -2.0658   0.7506  -2.0367 H              1 S1                 0.0000
     32 ****        -1.3717  -0.8896  -2.8878 H              1 S1                 0.0000
     33 ****        -1.3473  -3.5011  -1.4582 H              1 S1                 0.0000
     34 ****        -1.2641  -3.2010  -3.1739 H              1 S1                 0.0000
     35 ****         0.9891  -2.1472  -2.8682 H              1 S1                 0.0000
     36 ****         0.7779  -5.0669  -2.0144 H              1 S1                 0.0000
     37 ****         2.2253  -4.2942  -2.6568 H              1 S1                 0.0000
     38 ****         0.7967  -4.4602  -3.6675 H              1 S1                 0.0000
     39 ****         0.5073  -1.9499  -0.1896 H              1 S1                 0.0000
     40 ****         1.1914  -3.5332  -0.1769 H              1 S1                 0.0000
     41 ****         3.6531  -0.3576  -1.3017 H              1 S1                 0.0000
     42 ****         2.1919  -0.5420  -2.2196 H              1 S1                 0.0000
     43 ****         2.0356   1.3837  -0.6532 H              1 S1                 0.0000
     44 ****         0.8194   0.2032  -0.2455 H              1 S1                 0.0000
     45 ****         0.7648   1.0314   2.1452 H              1 S1                 0.0000
     46 ****         1.9256   2.2682   1.6512 H              1 S1                 0.0000
     47 ****         2.2990   1.2036   3.0062 H              1 S1                 0.0000
     48 ****         2.9259  -1.1486   2.5625 H              1 S1                 0.0000
     49 ****         1.3868  -1.4084   1.7801 H              1 S1                 0.0000
     50 ****         3.0909  -3.0842   0.9872 H              1 S1                 0.0000
     51 ****         4.1754  -1.7968   0.5299 H              1 S1                 0.0000
     52 ****        -2.7105   2.8668  -1.6028 H              1 S1                 0.0000
     53 ****         3.4334   0.5436   1.0235 H              1 S1                 0.0000
     54 ****        -1.8570   0.2151   1.5563 LP             1 S1                 0.0000
     55 ****        -2.2734  -1.0460   0.9588 LP             1 S1                 0.0000
     56 ****        -1.7559  -2.5008   0.1740 LP             1 S1                 0.0000
     57 ****         3.0336  -2.5834  -1.3731 LP             1 S1                 0.0000
@<TRIPOS>BOND
    1    1    2 1     
    2    1   24 1     
    3    1   25 1     
    4    1   26 1     
    5    2   23 ar    
    6    2    3 ar    
    7    3    4 ar    
    8    3   27 1     
    9    4    5 1     
   10    4    6 ar    
   11    5   28 1     
   12    5   29 1     
   13    5   30 1     
   14    6    7 ar    
   15    7    8 1     
   16    7   23 ar    
   17    8    9 am    
   18    8   31 1     
   19    9   10 2     
   20    9   11 am    
   21   11   12 1     
   22   11   32 1     
   23   12   13 1     
   24   12   33 1     
   25   12   34 1     
   26   13   14 1     
   27   13   15 1     
   28   13   35 1     
   29   14   36 1     
   30   14   37 1     
   31   14   38 1     
   32   15   16 1     
   33   15   39 1     
   34   15   40 1     
   35   16   22 1     
   36   16   17 1     
   37   17   18 1     
   38   17   41 1     
   39   17   42 1     
   40   18   19 1     
   41   18   43 1     
   42   18   44 1     
   43   19   20 1     
   44   19   21 1     
   45   19   53 1     
   46   20   45 1     
   47   20   46 1     
   48   20   47 1     
   49   21   22 1     
   50   21   48 1     
   51   21   49 1     
   52   22   50 1     
   53   22   51 1     
   54   23   52 1     
   55    6   54 1     
   56   10   55 1     
   57   10   56 1     
   58   16   57 1     
@<TRIPOS>SUBSTRUCTURE
      1 S1             1
@<TRIPOS>SET
LONE_PAIRS      STATIC     ATOMS    <user>   **** ""
4 54 55 56 57
DONOR_HYDROGENS      STATIC     ATOMS    <user>   **** ""
3 31 32 53
ATOM$BLUE        STATIC     ATOMS    COLORGROUP SYSTEM
4 54 55 56 57
ATOM$RED        STATIC     ATOMS    COLORGROUP SYSTEM
3 31 32 53
