AV-unprocessed.smi:2855|AV-procd|sdf|10992|dock8
  -GOLD-   2272015443D 1   1.00000     0.00000
 Structure written by MMmdl.
 46 47  0  0  0  0  0  0  0  0  2 V2000
  151.6141  141.4038  158.5086 C   0  0  0  0  0  0  0  0  0  0  0  0
  150.5830  140.8011  157.5440 C   0  0  1  0  0  0  0  0  0  0  0  0
  149.1524  140.9430  158.0860 C   0  0  0  0  0  0  0  0  0  0  0  0
  148.1160  140.3426  157.1233 C   0  0  0  0  0  0  0  0  0  0  0  0
  148.1903  140.9629  155.7042 C   0  0  2  0  0  0  0  0  0  0  0  0
  147.1135  140.3638  154.7457 C   0  0  0  0  0  0  0  0  0  0  0  0
  147.1047  141.0340  153.3580 C   0  0  0  0  0  0  0  0  0  0  0  0
  145.6927  140.4332  155.3382 C   0  0  0  0  0  0  0  0  0  0  0  0
  149.6440  140.8575  155.1594 C   0  0  2  0  0  0  0  0  0  0  0  0
  149.9622  139.4717  154.8281 N   0  0  0  0  0  0  0  0  0  0  0  0
  151.1780  138.9632  154.5714 C   0  0  0  0  0  0  0  0  0  0  0  0
  152.2097  139.6313  154.6279 O   0  0  0  0  0  0  0  0  0  0  0  0
  151.2591  137.4754  154.1879 C   0  0  0  0  0  0  0  0  0  0  0  0
  150.8188  136.5511  155.2501 N   0  0  0  0  0  0  0  0  0  0  0  0
  149.5366  135.9864  155.1310 C   0  0  0  0  0  0  0  0  0  0  0  0
  149.0638  135.1016  156.0294 C   0  0  0  0  0  0  0  0  0  0  0  0
  149.9192  134.7317  157.1501 C   0  0  0  0  0  0  0  0  0  0  0  0
  149.5047  133.9239  157.9789 O   0  0  0  0  0  0  0  0  0  0  0  0
  151.1550  135.3075  157.2224 N   0  5  0  0  0  0  0  0  0  0  0  0
  151.6243  136.2030  156.2994 C   0  0  0  0  0  0  0  0  0  0  0  0
  152.7497  136.6969  156.3735 O   0  0  0  0  0  0  0  0  0  0  0  0
  150.6767  141.4408  156.1474 C   0  0  0  0  0  0  0  0  0  0  0  0
  151.4477  142.4718  158.6516 H   0  0  0  0  0  0  0  0  0  0  0  0
  152.6281  141.2722  158.1297 H   0  0  0  0  0  0  0  0  0  0  0  0
  151.5636  140.9244  159.4865 H   0  0  0  0  0  0  0  0  0  0  0  0
  150.8068  139.7373  157.4513 H   0  0  0  0  0  0  0  0  0  0  0  0
  149.0723  140.4524  159.0566 H   0  0  0  0  0  0  0  0  0  0  0  0
  148.9230  141.9963  158.2535 H   0  0  0  0  0  0  0  0  0  0  0  0
  148.2570  139.2622  157.0638 H   0  0  0  0  0  0  0  0  0  0  0  0
  147.1314  140.4966  157.5616 H   0  0  0  0  0  0  0  0  0  0  0  0
  147.9715  142.0270  155.8074 H   0  0  0  0  0  0  0  0  0  0  0  0
  147.3392  139.3081  154.5889 H   0  0  0  0  0  0  0  0  0  0  0  0
  146.9695  142.1128  153.4390 H   0  0  0  0  0  0  0  0  0  0  0  0
  146.2967  140.6438  152.7387 H   0  0  0  0  0  0  0  0  0  0  0  0
  148.0282  140.8481  152.8100 H   0  0  0  0  0  0  0  0  0  0  0  0
  145.4245  141.4553  155.6072 H   0  0  0  0  0  0  0  0  0  0  0  0
  145.5866  139.8107  156.2256 H   0  0  0  0  0  0  0  0  0  0  0  0
  144.9518  140.0755  154.6226 H   0  0  0  0  0  0  0  0  0  0  0  0
  149.7145  141.4495  154.2461 H   0  0  0  0  0  0  0  0  0  0  0  0
  149.1769  138.8415  154.7487 H   0  0  0  0  0  0  0  0  0  0  0  0
  150.6749  137.3162  153.2801 H   0  0  0  0  0  0  0  0  0  0  0  0
  152.2893  137.2552  153.9044 H   0  0  0  0  0  0  0  0  0  0  0  0
  148.9718  136.3063  154.2675 H   0  0  0  0  0  0  0  0  0  0  0  0
  148.0783  134.6730  155.9209 H   0  0  0  0  0  0  0  0  0  0  0  0
  150.5153  142.5162  156.2327 H   0  0  0  0  0  0  0  0  0  0  0  0
  151.6850  141.3216  155.7488 H   0  0  0  0  0  0  0  0  0  0  0  0
  1  2  1  0  0  0  0
  1 23  1  0  0  0  0
  1 24  1  0  0  0  0
  1 25  1  0  0  0  0
  2 22  1  0  0  0  0
  2  3  1  0  0  0  0
  2 26  1  0  0  0  0
  3  4  1  0  0  0  0
  3 27  1  0  0  0  0
  3 28  1  0  0  0  0
  4  5  1  0  0  0  0
  4 29  1  0  0  0  0
  4 30  1  0  0  0  0
  5  6  1  0  0  0  0
  5  9  1  0  0  0  0
  5 31  1  0  0  0  0
  6  7  1  0  0  0  0
  6  8  1  0  0  0  0
  6 32  1  0  0  0  0
  7 33  1  0  0  0  0
  7 34  1  0  0  0  0
  7 35  1  0  0  0  0
  8 36  1  0  0  0  0
  8 37  1  0  0  0  0
  8 38  1  0  0  0  0
  9 10  1  0  0  0  0
  9 22  1  0  0  0  0
  9 39  1  0  0  0  0
 10 11  1  0  0  0  0
 10 40  1  0  0  0  0
 11 12  2  0  0  0  0
 11 13  1  0  0  0  0
 13 14  1  0  0  0  0
 13 41  1  0  0  0  0
 13 42  1  0  0  0  0
 14 20  1  0  0  0  0
 14 15  1  0  0  0  0
 15 16  2  0  0  0  0
 15 43  1  0  0  0  0
 16 17  1  0  0  0  0
 16 44  1  0  0  0  0
 17 18  2  0  0  0  0
 17 19  1  0  0  0  0
 19 20  1  0  0  0  0
 20 21  2  0  0  0  0
 22 45  1  0  0  0  0
 22 46  1  0  0  0  0
M  CHG  1  19  -1
M  END
> <s_m_source_file>
AV-unprocessed.smi

> <i_m_source_file_index>
2855

> <i_lp_mmshare_version>
43012

> <i_f3d_flags>
0

> <s_epik_input>
W0NIM11bQ0BASF0xW0NIMl1bQ0gyXVtDQEBIXShbQ0hdKFtDSDNdKVtDSDNdKVtDQEhdKFtDSDJdMSlbTkhdQyg9TylbQ0gyXW4yW2NIXVtjSF1jKD1PKVtuSF1jMj1P

> <s_epik_cmdline>
J2VwaWtfcHl0aG9uJywgJy1waCcsICc3LjAnLCAnLXRuJywgJzgnLCAnLW1hJywgJzIwMCcsICctbWV0YWxfYmluZGluZycsICctaW1hZScsICc8aW5maWxlLm1hZT4nLCAnLW9tYWUnLCAnPG91dGZpbGUubWFlPic=

> <r_lp_tautomer_probability>
0.999537

> <r_epik_Ionization_Penalty>
3.12102

> <r_epik_Ionization_Penalty_Charging>
2.9581e-08

> <r_epik_Ionization_Penalty_Neutral>
3.12102

> <r_epik_State_Penalty>
3.12011

> <r_epik_Charging_Adjusted_Penalty>
3.12011

> <i_epik_Tot_Q>
-1

> <i_epik_Tot_abs_Q>
1

> <r_epik_Metal_State_Penalty>
0.463583

> <b_epik_Metal_Only>
1

> <s_lp_Force_Field>
OPLS_2005

> <r_lp_Energy>
20.8659

> <b_lp_Chiralities_Consistent>
1

> <s_lp_Variant>
AV-unprocessed.smi:2855-16

> <Gold.Version>
5.8.1

> <Gold.Id.Protein>
6NUR|6NUR_protein|mol2

> <Gold.PLP.Fitness>
39.8937

> <Gold.PLP.PLP>
-30.0731

> <Gold.PLP.part.hbond>
-4.0000

> <Gold.PLP.part.metal>
0.0000

> <Gold.PLP.part.buried>
-5.3130

> <Gold.PLP.part.nonpolar>
-22.5571

> <Gold.PLP.part.repulsive>
0.1419

> <Gold.PLP.ligand.clash>
0.0000

> <Gold.PLP.ligand.torsion>
0.4928

> <Gold.PLP.Chemscore.Hbond>
2.5948

> <Gold.PLP.Chemscore.CHOScore>
0.9947

> <Gold.PLP.Chemscore.Metal>
0.0000

> <Gold.Chemscore.Hbonds>
donor molecule, donor type, donor heavy atom, donor atom, acceptor molecule, acceptor atom, score
      P1  H  6896  6908       L1    18  1.00
      P1  H  7989  7998       L1    12  0.61
      P1  H 10752 10765       L1    21  0.58
      L1  C    15    43       P1  7948  1.00

> <Gold.PLP.Chemscore.Internal.Correction>
0.0378

> <Gold.Rescore>
     Score         DG    S(hbond)    S(metal)    S(lipo)     H(rot)  DE(clash)    DE(int)     intcor
     11.98     -14.41       2.10        0.00      55.96       1.81       0.72       1.71       ----

> <Gold.Chemscore.Fitness>
11.9831

> <Gold.Chemscore.DG>
-14.4128

> <Gold.Chemscore.ZeroCoef>
-5.4800

> <Gold.Chemscore.Hbond>
2.1015

> <Gold.Chemscore.Metal>
0.0000

> <Gold.Chemscore.Lipo>
55.9585

> <Gold.Chemscore.Internal_Hbond>
0.0000

> <Gold.Chemscore.DEClash>
0.7153

> <Gold.Chemscore.DEInternal>
1.7144

> <Gold.Chemscore.Rot>
1.8100

> <Gold.Chemscore.Internal.Correction>
   9.000000E+99

> <Gold.Chemscore.Hbonds>
donor molecule, donor type, donor heavy atom, donor atom, acceptor molecule, acceptor atom, score
      P1  H  6896  6908       L1    18  0.55
      P1  H  7989  7998       L1    12  0.09
      P1  H 10752 10765       L1    21  0.05

> <Gold.Chemscore.Hbond.Weighted>
-7.0192

> <Gold.Chemscore.Metal.Weighted>
-0.0000

> <Gold.Chemscore.Lipo.Weighted>
-6.5471

> <Gold.Chemscore.Internal_Hbond.Weighted>
0.0000

> <Gold.Chemscore.DEClash.Weighted>
0.7153

> <Gold.Chemscore.DEInternal.Weighted>
1.7144

> <Gold.Chemscore.Rot.Weighted>
4.6335

> <Gold.Chemscore.Internal.Correction.Weighted>
   9.000000E+99

> <Gold.Protein.RotatedTorsions>
[ 6907 6896 6895 6894 ] final  119.02 input  -60.11 | X-H torsion
[ 7974 7965 7964 7962 ] final  -14.91 input  175.53 | X-H torsion
[ 8008 7997 7996 7995 ] final -144.83 input   59.86 | X-H torsion
[ 10167 10162 10161 10158 ] final  109.24 input  -65.29 | X-H torsion
[ 10718 10713 10712 10709 ] final  -71.91 input   66.30 | X-H torsion
[ 10763 10752 10751 10750 ] final -124.04 input  -60.55 | X-H torsion
[ 11005 11000 10999 10996 ] final   78.98 input  -57.11 | X-H torsion

> <Gold.Protein.ActiveResidues>
 VAL166  LYS551  ARG553  GLY616  TRP617  ASP618  TYR619  PRO620  LYS621  CYS622 
 ASP623  PHE694  ASN695  SER759  ASP760  ASP761  ALA762  ILE779  LEU786  VAL792 
 PHE793  MET794  SER795  GLU796  ALA797  LYS798  CYS799  TRP800  GLU811  SER814 

> <Gold.Protein.RotatedAtoms>
  152.4502  133.7614  159.6748 H   0  0  0  0  0  0  0  0  0  0  0  0  # atno 6907 bound_to 6896
  150.8412  133.7923  159.3066 H   0  0  0  0  0  0  0  0  0  0  0  0  # atno 6908 bound_to 6896
  151.5548  135.1069  160.0010 H   0  0  0  0  0  0  0  0  0  0  0  0  # atno 6909 bound_to 6896
  146.2054  140.3417  142.8409 H   0  0  0  0  0  0  0  0  0  0  0  0  # atno 7974 bound_to 7965
  155.5332  140.0601  157.2885 H   0  0  0  0  0  0  0  0  0  0  0  0  # atno 8008 bound_to 7997
  154.4477  140.1932  156.0560 H   0  0  0  0  0  0  0  0  0  0  0  0  # atno 8009 bound_to 7997
  156.0637  140.3269  155.7496 H   0  0  0  0  0  0  0  0  0  0  0  0  # atno 8010 bound_to 7997
  139.6782  144.7120  151.1563 H   0  0  0  0  0  0  0  0  0  0  0  0  # atno 10167 bound_to 10162
  156.0342  130.4361  150.2514 H   0  0  0  0  0  0  0  0  0  0  0  0  # atno 10718 bound_to 10713
  154.8717  135.4077  154.3041 H   0  0  0  0  0  0  0  0  0  0  0  0  # atno 10763 bound_to 10752
  153.3896  135.7014  153.6510 H   0  0  0  0  0  0  0  0  0  0  0  0  # atno 10764 bound_to 10752
  153.5299  135.3670  155.2642 H   0  0  0  0  0  0  0  0  0  0  0  0  # atno 10765 bound_to 10752
  139.9190  134.7807  156.1720 H   0  0  0  0  0  0  0  0  0  0  0  0  # atno 11005 bound_to 11000
  144.8781  140.7363  143.6004 LP  0  0  0  0  0  0  0  0  0  0  0  0  # atno 17320 bound_to 7965
  145.3337  139.1752  143.4523 LP  0  0  0  0  0  0  0  0  0  0  0  0  # atno 17321 bound_to 7965
  140.7643  143.5739  150.8966 LP  0  0  0  0  0  0  0  0  0  0  0  0  # atno 17342 bound_to 10162
  139.9410  143.6382  152.3054 LP  0  0  0  0  0  0  0  0  0  0  0  0  # atno 17343 bound_to 10162
  157.0614  131.0091  151.3221 LP  0  0  0  0  0  0  0  0  0  0  0  0  # atno 17370 bound_to 10713
  157.5067  130.7913  149.7662 LP  0  0  0  0  0  0  0  0  0  0  0  0  # atno 17371 bound_to 10713
  141.0694  133.6804  156.2111 LP  0  0  0  0  0  0  0  0  0  0  0  0  # atno 17394 bound_to 11000
  140.6531  134.5046  157.5579 LP  0  0  0  0  0  0  0  0  0  0  0  0  # atno 17395 bound_to 11000

$$$$
