AV-unprocessed.smi:788|AV-procd|sdf|3737|dock4
  -GOLD-   22720 1173D 1   1.00000     0.00000
 Structure written by MMmdl.
 34 35  0  0  0  0  0  0  0  0  2 V2000
  152.0697  144.1928  159.0763 C   0  0  0  0  0  0  0  0  0  0  0  0
  152.2691  143.2763  160.2974 C   0  0  2  0  0  0  0  0  0  0  0  0
  152.3346  144.1115  161.5901 C   0  0  0  0  0  0  0  0  0  0  0  0
  152.5082  143.2242  162.8291 C   0  0  0  0  0  0  0  0  0  0  0  0
  153.7589  142.3459  162.7015 C   0  0  0  0  0  0  0  0  0  0  0  0
  153.7177  141.4821  161.4265 C   0  0  2  0  0  0  0  0  0  0  0  0
  154.9747  140.5975  161.3367 C   0  0  0  0  0  0  0  0  0  0  0  0
  153.5182  142.3655  160.1673 C   0  0  1  0  0  0  0  0  0  0  0  0
  153.3897  141.5094  158.9863 N   0  0  0  0  0  0  0  0  0  0  0  0
  152.3854  140.6568  158.6995 C   0  0  0  0  0  0  0  0  0  0  0  0
  151.4577  140.5309  159.4972 O   0  0  0  0  0  0  0  0  0  0  0  0
  152.4543  139.9724  157.5272 N   0  5  0  0  0  0  0  0  0  0  0  0
  151.4903  140.0424  156.5905 C   0  0  0  0  0  0  0  0  0  0  0  0
  151.5261  139.3127  155.4637 N   0  0  0  0  0  0  0  0  0  0  0  0
  150.4394  139.5417  154.6309 N   0  0  0  0  0  0  0  0  0  0  0  0
  149.6028  140.4353  155.1581 C   0  0  0  0  0  0  0  0  0  0  0  0
  150.0671  141.0800  156.7183 S   0  0  0  0  0  0  0  0  0  0  0  0
  152.9389  144.8311  158.9154 H   0  0  0  0  0  0  0  0  0  0  0  0
  151.2019  144.8392  159.2086 H   0  0  0  0  0  0  0  0  0  0  0  0
  151.9053  143.6196  158.1637 H   0  0  0  0  0  0  0  0  0  0  0  0
  151.3896  142.6339  160.3663 H   0  0  0  0  0  0  0  0  0  0  0  0
  153.1633  144.8186  161.5306 H   0  0  0  0  0  0  0  0  0  0  0  0
  151.4277  144.7078  161.6959 H   0  0  0  0  0  0  0  0  0  0  0  0
  152.5799  143.8442  163.7230 H   0  0  0  0  0  0  0  0  0  0  0  0
  151.6271  142.5943  162.9578 H   0  0  0  0  0  0  0  0  0  0  0  0
  154.6479  142.9780  162.6907 H   0  0  0  0  0  0  0  0  0  0  0  0
  153.8450  141.7083  163.5821 H   0  0  0  0  0  0  0  0  0  0  0  0
  152.8577  140.8156  161.5100 H   0  0  0  0  0  0  0  0  0  0  0  0
  155.8732  141.2014  161.2066 H   0  0  0  0  0  0  0  0  0  0  0  0
  154.9193  139.9005  160.5001 H   0  0  0  0  0  0  0  0  0  0  0  0
  155.1012  140.0029  162.2414 H   0  0  0  0  0  0  0  0  0  0  0  0
  154.3941  143.0096  160.0738 H   0  0  0  0  0  0  0  0  0  0  0  0
  154.1358  141.5746  158.3097 H   0  0  0  0  0  0  0  0  0  0  0  0
  148.7067  140.7160  154.6255 H   0  0  0  0  0  0  0  0  0  0  0  0
  1  2  1  0  0  0  0
  1 18  1  0  0  0  0
  1 19  1  0  0  0  0
  1 20  1  0  0  0  0
  2  8  1  0  0  0  0
  2  3  1  0  0  0  0
  2 21  1  0  0  0  0
  3  4  1  0  0  0  0
  3 22  1  0  0  0  0
  3 23  1  0  0  0  0
  4  5  1  0  0  0  0
  4 24  1  0  0  0  0
  4 25  1  0  0  0  0
  5  6  1  0  0  0  0
  5 26  1  0  0  0  0
  5 27  1  0  0  0  0
  6  7  1  0  0  0  0
  6  8  1  0  0  0  0
  6 28  1  0  0  0  0
  7 29  1  0  0  0  0
  7 30  1  0  0  0  0
  7 31  1  0  0  0  0
  8  9  1  0  0  0  0
  8 32  1  0  0  0  0
  9 10  1  0  0  0  0
  9 33  1  0  0  0  0
 10 11  2  0  0  0  0
 10 12  1  0  0  0  0
 12 13  1  0  0  0  0
 13 17  1  0  0  0  0
 13 14  2  0  0  0  0
 14 15  1  0  0  0  0
 15 16  2  0  0  0  0
 16 17  1  0  0  0  0
 16 34  1  0  0  0  0
M  CHG  1  12  -1
M  END
> <s_m_source_file>
AV-unprocessed.smi

> <i_m_source_file_index>
788

> <i_lp_mmshare_version>
43012

> <i_f3d_flags>
0

> <s_epik_input>
W0NIM11bQ0BASF0xW0NIMl1bQ0gyXVtDSDJdW0NAQEhdKFtDSDNdKVtDQEhdMVtOSF1DKD1PKVtOSF1jMm5uW2NIXXMy

> <s_epik_cmdline>
J2VwaWtfcHl0aG9uJywgJy1waCcsICc3LjAnLCAnLXRuJywgJzgnLCAnLW1hJywgJzIwMCcsICctbWV0YWxfYmluZGluZycsICctaW1hZScsICc8aW5maWxlLm1hZT4nLCAnLW9tYWUnLCAnPG91dGZpbGUubWFlPic=

> <r_lp_tautomer_probability>
1

> <r_epik_Ionization_Penalty>
4.58638

> <r_epik_Ionization_Penalty_Charging>
4.53816

> <r_epik_Ionization_Penalty_Neutral>
0.048215

> <r_epik_State_Penalty>
4.53788

> <r_epik_Charging_Adjusted_Penalty>
9.07605

> <i_epik_Tot_Q>
-1

> <i_epik_Tot_abs_Q>
1

> <r_epik_Metal_State_Penalty>
0.838628

> <b_epik_Metal_Only>
1

> <s_lp_Force_Field>
OPLS_2005

> <r_lp_Energy>
11.4954

> <b_lp_Chiralities_Consistent>
1

> <s_lp_Variant>
AV-unprocessed.smi:788-7

> <Gold.Version>
5.8.1

> <Gold.Id.Protein>
6NUR|6NUR_protein|mol2

> <Gold.PLP.Fitness>
45.3142

> <Gold.PLP.PLP>
-39.0868

> <Gold.PLP.part.hbond>
-3.0000

> <Gold.PLP.part.metal>
0.0000

> <Gold.PLP.part.buried>
1.5920

> <Gold.PLP.part.nonpolar>
-37.5001

> <Gold.PLP.part.repulsive>
0.2394

> <Gold.PLP.ligand.clash>
0.0000

> <Gold.PLP.ligand.torsion>
0.5682

> <Gold.PLP.Chemscore.Hbond>
2.4500

> <Gold.PLP.Chemscore.CHOScore>
0.0000

> <Gold.PLP.Chemscore.Metal>
0.0000

> <Gold.Chemscore.Hbonds>
donor molecule, donor type, donor heavy atom, donor atom, acceptor molecule, acceptor atom, score
      P1  H  7989  7998       L1    15  0.34
      P1  H  7997  8010       L1    12  1.50

> <Gold.PLP.Chemscore.Internal.Correction>
0.0138

> <Gold.Rescore>
     Score         DG    S(hbond)    S(metal)    S(lipo)     H(rot)  DE(clash)    DE(int)     intcor
     14.36     -17.53       0.74        0.00     103.58       1.00       1.53       1.64       ----

> <Gold.Chemscore.Fitness>
14.3594

> <Gold.Chemscore.DG>
-17.5270

> <Gold.Chemscore.ZeroCoef>
-5.4800

> <Gold.Chemscore.Hbond>
0.7448

> <Gold.Chemscore.Metal>
0.0000

> <Gold.Chemscore.Lipo>
103.5838

> <Gold.Chemscore.Internal_Hbond>
0.0000

> <Gold.Chemscore.DEClash>
1.5264

> <Gold.Chemscore.DEInternal>
1.6412

> <Gold.Chemscore.Rot>
1.0000

> <Gold.Chemscore.Internal.Correction>
   9.000000E+99

> <Gold.Chemscore.Hbonds>
donor molecule, donor type, donor heavy atom, donor atom, acceptor molecule, acceptor atom, score
      P1  H  7997  8010       L1    12  0.43

> <Gold.Chemscore.Hbond.Weighted>
-2.4877

> <Gold.Chemscore.Metal.Weighted>
-0.0000

> <Gold.Chemscore.Lipo.Weighted>
-12.1193

> <Gold.Chemscore.Internal_Hbond.Weighted>
0.0000

> <Gold.Chemscore.DEClash.Weighted>
1.5264

> <Gold.Chemscore.DEInternal.Weighted>
1.6412

> <Gold.Chemscore.Rot.Weighted>
2.5600

> <Gold.Chemscore.Internal.Correction.Weighted>
   9.000000E+99

> <Gold.Protein.RotatedTorsions>
[ 6907 6896 6895 6894 ] final   47.36 input  -60.11 | X-H torsion
[ 7974 7965 7964 7962 ] final  123.23 input  175.53 | X-H torsion
[ 8008 7997 7996 7995 ] final   65.34 input   59.86 | X-H torsion
[ 10167 10162 10161 10158 ] final  -24.22 input  -65.29 | X-H torsion
[ 10718 10713 10712 10709 ] final  -49.41 input   66.30 | X-H torsion
[ 10763 10752 10751 10750 ] final  176.56 input  -60.55 | X-H torsion
[ 11005 11000 10999 10996 ] final   39.51 input  -57.11 | X-H torsion

> <Gold.Protein.ActiveResidues>
 VAL166  LYS551  ARG553  GLY616  TRP617  ASP618  TYR619  PRO620  LYS621  CYS622 
 ASP623  PHE694  ASN695  SER759  ASP760  ASP761  ALA762  ILE779  LEU786  VAL792 
 PHE793  MET794  SER795  GLU796  ALA797  LYS798  CYS799  TRP800  GLU811  SER814 

> <Gold.Protein.RotatedAtoms>
  152.2672  134.7972  160.0420 H   0  0  0  0  0  0  0  0  0  0  0  0  # atno 6907 bound_to 6896
  151.8597  133.3450  159.3708 H   0  0  0  0  0  0  0  0  0  0  0  0  # atno 6908 bound_to 6896
  150.7138  134.5145  159.5668 H   0  0  0  0  0  0  0  0  0  0  0  0  # atno 6909 bound_to 6896
  145.0983  139.3537  143.4825 H   0  0  0  0  0  0  0  0  0  0  0  0  # atno 7974 bound_to 7965
  155.6602  140.3497  155.4780 H   0  0  0  0  0  0  0  0  0  0  0  0  # atno 8008 bound_to 7997
  155.9775  140.1168  157.0780 H   0  0  0  0  0  0  0  0  0  0  0  0  # atno 8009 bound_to 7997
  154.4182  140.1145  156.5376 H   0  0  0  0  0  0  0  0  0  0  0  0  # atno 8010 bound_to 7997
  140.7288  143.4373  151.0711 H   0  0  0  0  0  0  0  0  0  0  0  0  # atno 10167 bound_to 10162
  156.1896  130.4152  149.9390 H   0  0  0  0  0  0  0  0  0  0  0  0  # atno 10718 bound_to 10713
  154.4827  135.2775  155.1558 H   0  0  0  0  0  0  0  0  0  0  0  0  # atno 10763 bound_to 10752
  154.3262  135.6199  153.5534 H   0  0  0  0  0  0  0  0  0  0  0  0  # atno 10764 bound_to 10752
  152.9877  135.5754  154.5231 H   0  0  0  0  0  0  0  0  0  0  0  0  # atno 10765 bound_to 10752
  140.2021  134.3857  155.8091 H   0  0  0  0  0  0  0  0  0  0  0  0  # atno 11005 bound_to 11000
  146.3530  140.0849  142.8615 LP  0  0  0  0  0  0  0  0  0  0  0  0  # atno 17320 bound_to 7965
  145.0985  140.9330  143.4727 LP  0  0  0  0  0  0  0  0  0  0  0  0  # atno 17321 bound_to 7965
  139.8036  143.8049  152.3165 LP  0  0  0  0  0  0  0  0  0  0  0  0  # atno 17342 bound_to 10162
  139.8074  144.7349  150.9742 LP  0  0  0  0  0  0  0  0  0  0  0  0  # atno 17343 bound_to 10162
  156.7135  130.8979  151.3611 LP  0  0  0  0  0  0  0  0  0  0  0  0  # atno 17370 bound_to 10713
  157.6921  130.9244  150.0541 LP  0  0  0  0  0  0  0  0  0  0  0  0  # atno 17371 bound_to 10713
  141.2227  133.7099  156.8276 LP  0  0  0  0  0  0  0  0  0  0  0  0  # atno 17394 bound_to 11000
  140.2042  134.8874  157.3203 LP  0  0  0  0  0  0  0  0  0  0  0  0  # atno 17395 bound_to 11000

$$$$
