AV-unprocessed.smi:2536|AV-procd|sdf|9978|dock4
  -GOLD-   2272014 23D 1   1.00000     0.00000
 Structure written by MMmdl.
 32 33  0  0  0  0  0  0  0  0  1 V2000
  151.7359  145.8215  160.0658 C   0  0  0  0  0  0  0  0  0  0  0  0
  151.8005  144.5177  159.2931 C   0  0  0  0  0  0  0  0  0  0  0  0
  151.2094  144.4031  158.0166 C   0  0  0  0  0  0  0  0  0  0  0  0
  151.2564  143.2552  157.3069 N   0  0  0  0  0  0  0  0  0  0  0  0
  151.8909  142.2224  157.8650 C   0  0  0  0  0  0  0  0  0  0  0  0
  151.9224  141.0659  157.1063 N   0  0  0  0  0  0  0  0  0  0  0  0
  151.2413  140.8806  155.8309 C   0  0  2  0  0  0  0  0  0  0  0  0
  149.7467  141.2321  155.9281 C   0  0  0  0  0  0  0  0  0  0  0  0
  149.0550  140.9316  154.5944 C   0  0  0  0  0  0  0  0  0  0  0  0
  149.3346  139.4839  154.1611 C   0  0  0  0  0  0  0  0  0  0  0  0
  150.7392  139.2632  154.0858 O   0  0  0  0  0  0  0  0  0  0  0  0
  151.3994  139.4305  155.3366 C   0  0  0  0  0  0  0  0  0  0  0  0
  152.4825  142.2141  159.0649 N   0  0  0  0  0  0  0  0  0  0  0  0
  152.4433  143.3559  159.7867 C   0  0  0  0  0  0  0  0  0  0  0  0
  153.1337  143.2955  161.1373 C   0  0  0  0  0  0  0  0  0  0  0  0
  151.2125  146.5903  159.4967 H   0  0  0  0  0  0  0  0  0  0  0  0
  152.7404  146.1868  160.2807 H   0  0  0  0  0  0  0  0  0  0  0  0
  151.2059  145.6809  161.0080 H   0  0  0  0  0  0  0  0  0  0  0  0
  150.6970  145.2359  157.5580 H   0  0  0  0  0  0  0  0  0  0  0  0
  152.3890  140.2674  157.5112 H   0  0  0  0  0  0  0  0  0  0  0  0
  151.7099  141.5351  155.0947 H   0  0  0  0  0  0  0  0  0  0  0  0
  149.2773  140.6479  156.7211 H   0  0  0  0  0  0  0  0  0  0  0  0
  149.6087  142.2817  156.1892 H   0  0  0  0  0  0  0  0  0  0  0  0
  147.9812  141.0996  154.6801 H   0  0  0  0  0  0  0  0  0  0  0  0
  149.4200  141.6180  153.8296 H   0  0  0  0  0  0  0  0  0  0  0  0
  148.8810  138.7755  154.8561 H   0  0  0  0  0  0  0  0  0  0  0  0
  148.8953  139.2943  153.1816 H   0  0  0  0  0  0  0  0  0  0  0  0
  152.4551  139.1917  155.2035 H   0  0  0  0  0  0  0  0  0  0  0  0
  151.0022  138.7202  156.0640 H   0  0  0  0  0  0  0  0  0  0  0  0
  153.0101  144.2089  161.7168 H   0  0  0  0  0  0  0  0  0  0  0  0
  154.2020  143.1253  161.0018 H   0  0  0  0  0  0  0  0  0  0  0  0
  152.7313  142.4714  161.7270 H   0  0  0  0  0  0  0  0  0  0  0  0
  1  2  1  0  0  0  0
  1 16  1  0  0  0  0
  1 17  1  0  0  0  0
  1 18  1  0  0  0  0
  2 14  1  0  0  0  0
  2  3  2  0  0  0  0
  3  4  1  0  0  0  0
  3 19  1  0  0  0  0
  4  5  2  0  0  0  0
  5  6  1  0  0  0  0
  5 13  1  0  0  0  0
  6  7  1  0  0  0  0
  6 20  1  0  0  0  0
  7 12  1  0  0  0  0
  7  8  1  0  0  0  0
  7 21  1  0  0  0  0
  8  9  1  0  0  0  0
  8 22  1  0  0  0  0
  8 23  1  0  0  0  0
  9 10  1  0  0  0  0
  9 24  1  0  0  0  0
  9 25  1  0  0  0  0
 10 11  1  0  0  0  0
 10 26  1  0  0  0  0
 10 27  1  0  0  0  0
 11 12  1  0  0  0  0
 12 28  1  0  0  0  0
 12 29  1  0  0  0  0
 13 14  2  0  0  0  0
 14 15  1  0  0  0  0
 15 30  1  0  0  0  0
 15 31  1  0  0  0  0
 15 32  1  0  0  0  0
M  END
> <s_m_source_file>
AV-unprocessed.smi

> <i_m_source_file_index>
2536

> <i_lp_mmshare_version>
43012

> <i_f3d_flags>
0

> <s_epik_input>
W0NIM11jMVtjSF1uYyhuYzFbQ0gzXSlbTkhdW0NAQEhdMltDSDJdW0NIMl1bQ0gyXU9bQ0gyXTI=

> <s_epik_cmdline>
J2VwaWtfcHl0aG9uJywgJy1waCcsICc3LjAnLCAnLXRuJywgJzgnLCAnLW1hJywgJzIwMCcsICctbWV0YWxfYmluZGluZycsICctaW1hZScsICc8aW5maWxlLm1hZT4nLCAnLW9tYWUnLCAnPG91dGZpbGUubWFlPic=

> <r_lp_tautomer_probability>
1

> <r_epik_Ionization_Penalty>
0.00982357

> <r_epik_Ionization_Penalty_Charging>
0

> <r_epik_Ionization_Penalty_Neutral>
0.00982357

> <r_epik_State_Penalty>
0.0064698

> <r_epik_Charging_Adjusted_Penalty>
0.0064698

> <i_epik_Tot_Q>
0

> <i_epik_Tot_abs_Q>
0

> <r_epik_Metal_State_Penalty>
-0

> <b_epik_Metal_Only>
0

> <s_lp_Force_Field>
OPLS_2005

> <r_lp_Energy>
1.83983

> <b_lp_Chiralities_Consistent>
1

> <s_lp_Variant>
AV-unprocessed.smi:2536-1

> <Gold.Version>
5.8.1

> <Gold.Id.Protein>
6NUR|6NUR_protein|mol2

> <Gold.PLP.Fitness>
39.3322

> <Gold.PLP.PLP>
-36.3186

> <Gold.PLP.part.hbond>
-1.0000

> <Gold.PLP.part.metal>
0.0000

> <Gold.PLP.part.buried>
-1.4493

> <Gold.PLP.part.nonpolar>
-34.0472

> <Gold.PLP.part.repulsive>
0.4035

> <Gold.PLP.ligand.clash>
0.0000

> <Gold.PLP.ligand.torsion>
0.0431

> <Gold.PLP.Chemscore.Hbond>
0.7500

> <Gold.PLP.Chemscore.CHOScore>
0.2822

> <Gold.PLP.Chemscore.Metal>
0.0000

> <Gold.Chemscore.Hbonds>
donor molecule, donor type, donor heavy atom, donor atom, acceptor molecule, acceptor atom, score
      P1  H  7989  7998       L1    11  0.40
      L1  C     3    19       P1  8028  0.48
      L1  C     3    19       P1  8029  0.03

> <Gold.PLP.Chemscore.Internal.Correction>
0.0031

> <Gold.Rescore>
     Score         DG    S(hbond)    S(metal)    S(lipo)     H(rot)  DE(clash)    DE(int)     intcor
     12.70     -14.16       0.07        0.00      94.13       1.00       0.16       1.30       ----

> <Gold.Chemscore.Fitness>
12.7041

> <Gold.Chemscore.DG>
-14.1640

> <Gold.Chemscore.ZeroCoef>
-5.4800

> <Gold.Chemscore.Hbond>
0.0690

> <Gold.Chemscore.Metal>
0.0000

> <Gold.Chemscore.Lipo>
94.1325

> <Gold.Chemscore.Internal_Hbond>
0.0000

> <Gold.Chemscore.DEClash>
0.1596

> <Gold.Chemscore.DEInternal>
1.3003

> <Gold.Chemscore.Rot>
1.0000

> <Gold.Chemscore.Internal.Correction>
   9.000000E+99

> <Gold.Chemscore.Hbonds>
donor molecule, donor type, donor heavy atom, donor atom, acceptor molecule, acceptor atom, score
      P1  H  7989  7998       L1    11  0.01

> <Gold.Chemscore.Hbond.Weighted>
-0.2305

> <Gold.Chemscore.Metal.Weighted>
-0.0000

> <Gold.Chemscore.Lipo.Weighted>
-11.0135

> <Gold.Chemscore.Internal_Hbond.Weighted>
0.0000

> <Gold.Chemscore.DEClash.Weighted>
0.1596

> <Gold.Chemscore.DEInternal.Weighted>
1.3003

> <Gold.Chemscore.Rot.Weighted>
2.5600

> <Gold.Chemscore.Internal.Correction.Weighted>
   9.000000E+99

> <Gold.Protein.RotatedTorsions>
[ 6907 6896 6895 6894 ] final   47.31 input  -60.11 | X-H torsion
[ 7974 7965 7964 7962 ] final  118.62 input  175.53 | X-H torsion
[ 8008 7997 7996 7995 ] final -147.79 input   59.86 | X-H torsion
[ 10167 10162 10161 10158 ] final  150.53 input  -65.29 | X-H torsion
[ 10718 10713 10712 10709 ] final -136.73 input   66.30 | X-H torsion
[ 10763 10752 10751 10750 ] final -177.38 input  -60.55 | X-H torsion
[ 11005 11000 10999 10996 ] final  -38.81 input  -57.11 | X-H torsion

> <Gold.Protein.ActiveResidues>
 VAL166  LYS551  ARG553  GLY616  TRP617  ASP618  TYR619  PRO620  LYS621  CYS622 
 ASP623  PHE694  ASN695  SER759  ASP760  ASP761  ALA762  ILE779  LEU786  VAL792 
 PHE793  MET794  SER795  GLU796  ALA797  LYS798  CYS799  TRP800  GLU811  SER814 

> <Gold.Protein.RotatedAtoms>
  152.2666  134.7977  160.0421 H   0  0  0  0  0  0  0  0  0  0  0  0  # atno 6907 bound_to 6896
  151.8605  133.3451  159.3710 H   0  0  0  0  0  0  0  0  0  0  0  0  # atno 6908 bound_to 6896
  150.7136  134.5138  159.5665 H   0  0  0  0  0  0  0  0  0  0  0  0  # atno 6909 bound_to 6896
  145.1530  139.3199  143.4556 H   0  0  0  0  0  0  0  0  0  0  0  0  # atno 7974 bound_to 7965
  155.5813  140.0643  157.2782 H   0  0  0  0  0  0  0  0  0  0  0  0  # atno 8008 bound_to 7997
  154.4332  140.1851  156.1025 H   0  0  0  0  0  0  0  0  0  0  0  0  # atno 8009 bound_to 7997
  156.0303  140.3307  155.7136 H   0  0  0  0  0  0  0  0  0  0  0  0  # atno 8010 bound_to 7997
  139.4849  144.5515  151.7393 H   0  0  0  0  0  0  0  0  0  0  0  0  # atno 10167 bound_to 10162
  156.2803  130.7316  151.1312 H   0  0  0  0  0  0  0  0  0  0  0  0  # atno 10718 bound_to 10713
  154.5609  135.2820  155.0920 H   0  0  0  0  0  0  0  0  0  0  0  0  # atno 10763 bound_to 10752
  154.2330  135.6371  153.5185 H   0  0  0  0  0  0  0  0  0  0  0  0  # atno 10764 bound_to 10752
  153.0029  135.5541  154.6202 H   0  0  0  0  0  0  0  0  0  0  0  0  # atno 10765 bound_to 10752
  141.0055  133.6934  156.2103 H   0  0  0  0  0  0  0  0  0  0  0  0  # atno 11005 bound_to 11000
  146.3492  140.1612  142.8591 LP  0  0  0  0  0  0  0  0  0  0  0  0  # atno 17320 bound_to 7965
  145.0410  140.8945  143.5052 LP  0  0  0  0  0  0  0  0  0  0  0  0  # atno 17321 bound_to 7965
  140.5069  144.1084  150.5985 LP  0  0  0  0  0  0  0  0  0  0  0  0  # atno 17342 bound_to 10162
  140.3996  143.2710  151.9963 LP  0  0  0  0  0  0  0  0  0  0  0  0  # atno 17343 bound_to 10162
  157.7312  131.0610  150.5689 LP  0  0  0  0  0  0  0  0  0  0  0  0  # atno 17370 bound_to 10713
  156.5794  130.4300  149.5984 LP  0  0  0  0  0  0  0  0  0  0  0  0  # atno 17371 bound_to 10713
  140.6819  134.4758  157.5589 LP  0  0  0  0  0  0  0  0  0  0  0  0  # atno 17394 bound_to 11000
  139.9061  134.8446  156.1701 LP  0  0  0  0  0  0  0  0  0  0  0  0  # atno 17395 bound_to 11000

$$$$
