AV-unprocessed.smi:1978|AV-procd|sdf|7993|dock8
  -GOLD-   2272010173D 1   1.00000     0.00000
 Structure written by MMmdl.
 45 46  0  0  0  0  0  0  0  0  2 V2000
  150.3033  124.5238  149.6041 C   0  0  0  0  0  0  0  0  0  0  0  0
  149.4199  125.5645  150.2021 C   0  0  0  0  0  0  0  0  0  0  0  0
  149.1270  126.8517  149.8487 C   0  0  0  0  0  0  0  0  0  0  0  0
  148.2174  127.2619  150.8594 C   0  0  0  0  0  0  0  0  0  0  0  0
  147.6694  128.5702  150.8595 N   0  0  0  0  0  0  0  0  0  0  0  0
  146.6273  129.0193  151.5792 C   0  0  0  0  0  0  0  0  0  0  0  0
  145.9465  128.3375  152.3461 O   0  0  0  0  0  0  0  0  0  0  0  0
  146.4086  130.3250  151.3647 N   0  0  0  0  0  0  0  0  0  0  0  0
  145.3513  131.1063  152.0020 C   0  0  0  0  0  0  0  0  0  0  0  0
  145.8878  132.3186  152.8185 C   0  0  1  0  0  0  0  0  0  0  0  0
  147.0522  132.9803  152.0361 C   0  0  0  0  0  0  0  0  0  0  0  0
  144.7877  133.2876  153.1584 N   0  3  1  0  0  0  0  0  0  0  0  0
  145.2449  134.4685  153.9540 C   0  0  0  0  0  0  0  0  0  0  0  0
  144.0589  135.2898  154.4862 C   0  0  0  0  0  0  0  0  0  0  0  0
  143.1399  135.7456  153.3515 C   0  0  0  0  0  0  0  0  0  0  0  0
  142.7041  134.5301  152.5257 C   0  0  0  0  0  0  0  0  0  0  0  0
  143.9077  133.7094  152.0162 C   0  0  1  0  0  0  0  0  0  0  0  0
  144.6695  134.4431  150.8882 C   0  0  0  0  0  0  0  0  0  0  0  0
  147.9757  126.3107  151.7485 N   0  0  0  0  0  0  0  0  0  0  0  0
  148.7451  125.2180  151.3318 O   0  0  0  0  0  0  0  0  0  0  0  0
  150.7240  124.8661  148.6585 H   0  0  0  0  0  0  0  0  0  0  0  0
  149.7464  123.6063  149.4136 H   0  0  0  0  0  0  0  0  0  0  0  0
  151.1287  124.2862  150.2752 H   0  0  0  0  0  0  0  0  0  0  0  0
  149.5060  127.4071  149.0038 H   0  0  0  0  0  0  0  0  0  0  0  0
  148.1291  129.2367  150.2570 H   0  0  0  0  0  0  0  0  0  0  0  0
  147.0121  130.8121  150.7181 H   0  0  0  0  0  0  0  0  0  0  0  0
  144.6750  131.4564  151.2216 H   0  0  0  0  0  0  0  0  0  0  0  0
  144.7785  130.4088  152.6091 H   0  0  0  0  0  0  0  0  0  0  0  0
  146.2926  131.9476  153.7609 H   0  0  0  0  0  0  0  0  0  0  0  0
  147.8194  132.2588  151.7569 H   0  0  0  0  0  0  0  0  0  0  0  0
  147.5759  133.7366  152.6186 H   0  0  0  0  0  0  0  0  0  0  0  0
  146.6960  133.4479  151.1176 H   0  0  0  0  0  0  0  0  0  0  0  0
  145.8246  134.1714  154.8229 H   0  0  0  0  0  0  0  0  0  0  0  0
  145.9049  135.0942  153.3527 H   0  0  0  0  0  0  0  0  0  0  0  0
  143.4905  134.6889  155.1972 H   0  0  0  0  0  0  0  0  0  0  0  0
  144.4238  136.1569  155.0379 H   0  0  0  0  0  0  0  0  0  0  0  0
  142.2665  136.2570  153.7573 H   0  0  0  0  0  0  0  0  0  0  0  0
  143.6564  136.4692  152.7203 H   0  0  0  0  0  0  0  0  0  0  0  0
  142.0698  133.8909  153.1417 H   0  0  0  0  0  0  0  0  0  0  0  0
  142.0836  134.8521  151.6886 H   0  0  0  0  0  0  0  0  0  0  0  0
  143.4587  132.8185  151.5799 H   0  0  0  0  0  0  0  0  0  0  0  0
  143.9944  134.6873  150.0675 H   0  0  0  0  0  0  0  0  0  0  0  0
  145.4704  133.8363  150.4681 H   0  0  0  0  0  0  0  0  0  0  0  0
  145.1145  135.3783  151.2249 H   0  0  0  0  0  0  0  0  0  0  0  0
  144.1746  132.7733  153.7747 H   0  0  0  0  0  0  0  0  0  0  0  0
  1  2  1  0  0  0  0
  1 21  1  0  0  0  0
  1 22  1  0  0  0  0
  1 23  1  0  0  0  0
  2 20  1  0  0  0  0
  2  3  2  0  0  0  0
  3  4  1  0  0  0  0
  3 24  1  0  0  0  0
  4  5  1  0  0  0  0
  4 19  2  0  0  0  0
  5  6  1  0  0  0  0
  5 25  1  0  0  0  0
  6  7  2  0  0  0  0
  6  8  1  0  0  0  0
  8  9  1  0  0  0  0
  8 26  1  0  0  0  0
  9 10  1  0  0  0  0
  9 27  1  0  0  0  0
  9 28  1  0  0  0  0
 10 11  1  0  0  0  0
 10 12  1  0  0  0  0
 10 29  1  0  0  0  0
 11 30  1  0  0  0  0
 11 31  1  0  0  0  0
 11 32  1  0  0  0  0
 12 17  1  0  0  0  0
 12 13  1  0  0  0  0
 12 45  1  0  0  0  0
 13 14  1  0  0  0  0
 13 33  1  0  0  0  0
 13 34  1  0  0  0  0
 14 15  1  0  0  0  0
 14 35  1  0  0  0  0
 14 36  1  0  0  0  0
 15 16  1  0  0  0  0
 15 37  1  0  0  0  0
 15 38  1  0  0  0  0
 16 17  1  0  0  0  0
 16 39  1  0  0  0  0
 16 40  1  0  0  0  0
 17 18  1  0  0  0  0
 17 41  1  0  0  0  0
 18 42  1  0  0  0  0
 18 43  1  0  0  0  0
 18 44  1  0  0  0  0
 19 20  1  0  0  0  0
M  CHG  1  12   1
M  END
> <s_m_source_file>
AV-unprocessed.smi

> <i_m_source_file_index>
1978

> <i_lp_mmshare_version>
43012

> <i_f3d_flags>
0

> <s_epik_input>
W0NIM11jMVtjSF1jKG5vMSlbTkhdQyg9TylbTkhdW0NIMl1bQ0BIXShbQ0gzXSlOMltDSDJdW0NIMl1bQ0gyXVtDSDJdW0NASF0yW0NIM10=

> <s_epik_cmdline>
J2VwaWtfcHl0aG9uJywgJy1waCcsICc3LjAnLCAnLXRuJywgJzgnLCAnLW1hJywgJzIwMCcsICctbWV0YWxfYmluZGluZycsICctaW1hZScsICc8aW5maWxlLm1hZT4nLCAnLW9tYWUnLCAnPG91dGZpbGUubWFlPic=

> <r_epik_Ionization_Penalty>
0.00265971

> <r_epik_Ionization_Penalty_Charging>
0.00262393

> <r_epik_Ionization_Penalty_Neutral>
3.57846e-05

> <r_epik_State_Penalty>
0.00182566

> <r_epik_Charging_Adjusted_Penalty>
0.00444959

> <i_epik_Tot_Q>
1

> <i_epik_Tot_abs_Q>
1

> <r_epik_Metal_State_Penalty>
0.0216344

> <b_epik_Metal_Only>
0

> <s_lp_Force_Field>
OPLS_2005

> <r_lp_Energy>
22.9601

> <b_lp_Chiralities_Consistent>
1

> <s_lp_Variant>
AV-unprocessed.smi:1978-2

> <Gold.Version>
5.8.1

> <Gold.Id.Protein>
6NUR|6NUR_protein|mol2

> <Gold.PLP.Fitness>
44.9346

> <Gold.PLP.PLP>
-34.0585

> <Gold.PLP.part.hbond>
-3.2833

> <Gold.PLP.part.metal>
0.0000

> <Gold.PLP.part.buried>
-6.5888

> <Gold.PLP.part.nonpolar>
-25.0118

> <Gold.PLP.part.repulsive>
0.3232

> <Gold.PLP.ligand.clash>
0.0000

> <Gold.PLP.ligand.torsion>
0.2629

> <Gold.PLP.Chemscore.Hbond>
3.7736

> <Gold.PLP.Chemscore.CHOScore>
0.0000

> <Gold.PLP.Chemscore.Metal>
0.0000

> <Gold.Chemscore.Hbonds>
donor molecule, donor type, donor heavy atom, donor atom, acceptor molecule, acceptor atom, score
      L1  H     5    25       P1 10747  0.73
      L1  H     8    26       P1 10747  0.74
      L1  H    12    45       P1 10957  1.82

> <Gold.PLP.Chemscore.Internal.Correction>
0.0811

> <Gold.Rescore>
     Score         DG    S(hbond)    S(metal)    S(lipo)     H(rot)  DE(clash)    DE(int)     intcor
     13.45     -15.12       1.92        0.00      61.48       1.55       0.02       1.65       ----

> <Gold.Chemscore.Fitness>
13.4494

> <Gold.Chemscore.DG>
-15.1202

> <Gold.Chemscore.ZeroCoef>
-5.4800

> <Gold.Chemscore.Hbond>
1.9186

> <Gold.Chemscore.Metal>
0.0000

> <Gold.Chemscore.Lipo>
61.4813

> <Gold.Chemscore.Internal_Hbond>
0.0000

> <Gold.Chemscore.DEClash>
0.0183

> <Gold.Chemscore.DEInternal>
1.6525

> <Gold.Chemscore.Rot>
1.5474

> <Gold.Chemscore.Internal.Correction>
   9.000000E+99

> <Gold.Chemscore.Hbonds>
donor molecule, donor type, donor heavy atom, donor atom, acceptor molecule, acceptor atom, score
      L1  H     5    25       P1 10747  0.13
      L1  H     8    26       P1 10747  0.70
      L1  H    12    45       P1 10957  0.65

> <Gold.Chemscore.Hbond.Weighted>
-6.4081

> <Gold.Chemscore.Metal.Weighted>
-0.0000

> <Gold.Chemscore.Lipo.Weighted>
-7.1933

> <Gold.Chemscore.Internal_Hbond.Weighted>
0.0000

> <Gold.Chemscore.DEClash.Weighted>
0.0183

> <Gold.Chemscore.DEInternal.Weighted>
1.6525

> <Gold.Chemscore.Rot.Weighted>
3.9612

> <Gold.Chemscore.Internal.Correction.Weighted>
   9.000000E+99

> <Gold.Protein.RotatedTorsions>
[ 6907 6896 6895 6894 ] final   -3.98 input  -60.11 | X-H torsion
[ 7974 7965 7964 7962 ] final  163.61 input  175.53 | X-H torsion
[ 8008 7997 7996 7995 ] final  -79.69 input   59.86 | X-H torsion
[ 10167 10162 10161 10158 ] final   75.13 input  -65.29 | X-H torsion
[ 10718 10713 10712 10709 ] final   50.16 input   66.30 | X-H torsion
[ 10763 10752 10751 10750 ] final  -36.76 input  -60.55 | X-H torsion
[ 11005 11000 10999 10996 ] final -174.52 input  -57.11 | X-H torsion

> <Gold.Protein.ActiveResidues>
 VAL166  LYS551  ARG553  GLY616  TRP617  ASP618  TYR619  PRO620  LYS621  CYS622 
 ASP623  PHE694  ASN695  SER759  ASP760  ASP761  ALA762  ILE779  LEU786  VAL792 
 PHE793  MET794  SER795  GLU796  ALA797  LYS798  CYS799  TRP800  GLU811  SER814 

> <Gold.Protein.RotatedAtoms>
  151.5049  135.1063  159.9838 H   0  0  0  0  0  0  0  0  0  0  0  0  # atno 6907 bound_to 6896
  152.4686  133.7974  159.6945 H   0  0  0  0  0  0  0  0  0  0  0  0  # atno 6908 bound_to 6896
  150.8682  133.7480  159.2995 H   0  0  0  0  0  0  0  0  0  0  0  0  # atno 6909 bound_to 6896
  144.7582  139.8207  143.6342 H   0  0  0  0  0  0  0  0  0  0  0  0  # atno 7974 bound_to 7965
  154.5810  140.0674  156.9103 H   0  0  0  0  0  0  0  0  0  0  0  0  # atno 8008 bound_to 7997
  155.2463  140.3348  155.4268 H   0  0  0  0  0  0  0  0  0  0  0  0  # atno 8009 bound_to 7997
  156.2189  140.1790  156.7509 H   0  0  0  0  0  0  0  0  0  0  0  0  # atno 8010 bound_to 7997
  140.0063  144.5648  150.7695 H   0  0  0  0  0  0  0  0  0  0  0  0  # atno 10167 bound_to 10162
  157.4857  130.8344  149.8144 H   0  0  0  0  0  0  0  0  0  0  0  0  # atno 10718 bound_to 10713
  153.8851  135.6818  153.4764 H   0  0  0  0  0  0  0  0  0  0  0  0  # atno 10763 bound_to 10752
  153.1212  135.4739  154.9196 H   0  0  0  0  0  0  0  0  0  0  0  0  # atno 10764 bound_to 10752
  154.7650  135.3221  154.8256 H   0  0  0  0  0  0  0  0  0  0  0  0  # atno 10765 bound_to 10752
  140.4736  134.6142  157.4892 H   0  0  0  0  0  0  0  0  0  0  0  0  # atno 11005 bound_to 11000
  146.1616  139.4732  142.9985 LP  0  0  0  0  0  0  0  0  0  0  0  0  # atno 17320 bound_to 7965
  145.6708  141.0217  143.1659 LP  0  0  0  0  0  0  0  0  0  0  0  0  # atno 17321 bound_to 7965
  140.7399  143.2797  151.3634 LP  0  0  0  0  0  0  0  0  0  0  0  0  # atno 17342 bound_to 10162
  139.6236  144.0858  152.2414 LP  0  0  0  0  0  0  0  0  0  0  0  0  # atno 17343 bound_to 10162
  156.0145  130.3819  150.2154 LP  0  0  0  0  0  0  0  0  0  0  0  0  # atno 17370 bound_to 10713
  157.0341  131.0016  151.3303 LP  0  0  0  0  0  0  0  0  0  0  0  0  # atno 17371 bound_to 10713
  139.9870  134.7046  155.9757 LP  0  0  0  0  0  0  0  0  0  0  0  0  # atno 17394 bound_to 11000
  141.1565  133.6542  156.4178 LP  0  0  0  0  0  0  0  0  0  0  0  0  # atno 17395 bound_to 11000

$$$$
