AV-unprocessed.smi:1180|AV-procd|sdf|4965|dock8
  -GOLD-   22720 3553D 1   1.00000     0.00000
 Structure written by MMmdl.
 37 38  0  0  0  0  0  0  0  0  2 V2000
  150.8528  142.8064  157.4995 C   0  0  0  0  0  0  0  0  0  0  0  0
  150.9015  141.5761  156.6188 C   0  0  0  0  0  0  0  0  0  0  0  0
  149.9324  141.3407  155.8187 N   0  0  0  0  0  0  0  0  0  0  0  0
  149.9730  140.1998  154.9992 C   0  0  0  0  0  0  0  0  0  0  0  0
  148.7813  140.0017  154.0789 C   0  0  0  0  0  0  0  0  0  0  0  0
  151.0282  139.3369  155.0429 C   0  0  0  0  0  0  0  0  0  0  0  0
  151.1216  138.0832  154.1732 C   0  0  0  0  0  0  0  0  0  0  0  0
  151.0712  136.7529  154.9257 C   0  0  0  0  0  0  0  0  0  0  0  0
  151.7881  136.5744  155.9102 O   0  0  0  0  0  0  0  0  0  0  0  0
  150.2124  135.8339  154.4578 N   0  0  0  0  0  0  0  0  0  0  0  0
  150.0089  134.4996  155.0116 C   0  0  0  0  0  0  0  0  0  0  0  0
  149.3266  133.5561  154.0035 C   0  0  1  0  0  0  0  0  0  0  0  0
  149.3448  132.1000  154.4212 C   0  0  0  0  0  0  0  0  0  0  0  0
  148.2544  131.5026  153.5364 C   0  0  0  0  0  0  0  0  0  0  0  0
  147.3056  132.5453  153.3291 O   0  0  0  0  0  0  0  0  0  0  0  0
  147.8252  133.7811  153.8111 C   0  0  0  0  0  0  0  0  0  0  0  0
  152.1205  139.6396  155.9855 C   0  0  0  0  0  0  0  0  0  0  0  0
  153.0852  138.8815  156.0809 O   0  0  0  0  0  0  0  0  0  0  0  0
  152.0103  140.7692  156.7410 N   0  5  0  0  0  0  0  0  0  0  0  0
  149.9955  143.4342  157.2522 H   0  0  0  0  0  0  0  0  0  0  0  0
  151.7581  143.4010  157.3717 H   0  0  0  0  0  0  0  0  0  0  0  0
  150.7740  142.5163  158.5476 H   0  0  0  0  0  0  0  0  0  0  0  0
  148.3142  139.0332  154.2576 H   0  0  0  0  0  0  0  0  0  0  0  0
  149.0918  140.0517  153.0354 H   0  0  0  0  0  0  0  0  0  0  0  0
  148.0255  140.7710  154.2405 H   0  0  0  0  0  0  0  0  0  0  0  0
  150.3058  138.0995  153.4503 H   0  0  0  0  0  0  0  0  0  0  0  0
  152.0254  138.1022  153.5635 H   0  0  0  0  0  0  0  0  0  0  0  0
  149.6669  136.0759  153.6422 H   0  0  0  0  0  0  0  0  0  0  0  0
  150.9891  134.1017  155.2751 H   0  0  0  0  0  0  0  0  0  0  0  0
  149.4410  134.5478  155.9423 H   0  0  0  0  0  0  0  0  0  0  0  0
  149.8213  133.6418  153.0344 H   0  0  0  0  0  0  0  0  0  0  0  0
  150.3154  131.6240  154.2774 H   0  0  0  0  0  0  0  0  0  0  0  0
  149.0683  132.0018  155.4722 H   0  0  0  0  0  0  0  0  0  0  0  0
  148.6655  131.2124  152.5689 H   0  0  0  0  0  0  0  0  0  0  0  0
  147.7908  130.6235  153.9847 H   0  0  0  0  0  0  0  0  0  0  0  0
  147.3426  134.0053  154.7635 H   0  0  0  0  0  0  0  0  0  0  0  0
  147.6094  134.5984  153.1225 H   0  0  0  0  0  0  0  0  0  0  0  0
  1  2  1  0  0  0  0
  1 20  1  0  0  0  0
  1 21  1  0  0  0  0
  1 22  1  0  0  0  0
  2 19  1  0  0  0  0
  2  3  2  0  0  0  0
  3  4  1  0  0  0  0
  4  5  1  0  0  0  0
  4  6  2  0  0  0  0
  5 23  1  0  0  0  0
  5 24  1  0  0  0  0
  5 25  1  0  0  0  0
  6  7  1  0  0  0  0
  6 17  1  0  0  0  0
  7  8  1  0  0  0  0
  7 26  1  0  0  0  0
  7 27  1  0  0  0  0
  8  9  2  0  0  0  0
  8 10  1  0  0  0  0
 10 11  1  0  0  0  0
 10 28  1  0  0  0  0
 11 12  1  0  0  0  0
 11 29  1  0  0  0  0
 11 30  1  0  0  0  0
 12 16  1  0  0  0  0
 12 13  1  0  0  0  0
 12 31  1  0  0  0  0
 13 14  1  0  0  0  0
 13 32  1  0  0  0  0
 13 33  1  0  0  0  0
 14 15  1  0  0  0  0
 14 34  1  0  0  0  0
 14 35  1  0  0  0  0
 15 16  1  0  0  0  0
 16 36  1  0  0  0  0
 16 37  1  0  0  0  0
 17 18  2  0  0  0  0
 17 19  1  0  0  0  0
M  CHG  1  19  -1
M  END
> <s_m_source_file>
AV-unprocessed.smi

> <i_m_source_file_index>
1180

> <i_lp_mmshare_version>
43012

> <i_f3d_flags>
0

> <s_epik_input>
W0NIM11jMW5jKFtDSDNdKWMoYyg9TylbbkhdMSlbQ0gyXUMoPU8pW05IXVtDSDJdW0NAQEhdMltDSDJdW0NIMl1PW0NIMl0y

> <s_epik_cmdline>
J2VwaWtfcHl0aG9uJywgJy1waCcsICc3LjAnLCAnLXRuJywgJzgnLCAnLW1hJywgJzIwMCcsICctbWV0YWxfYmluZGluZycsICctaW1hZScsICc8aW5maWxlLm1hZT4nLCAnLW9tYWUnLCAnPG91dGZpbGUubWFlPic=

> <r_lp_tautomer_probability>
0.839158

> <r_epik_Ionization_Penalty>
6.60319

> <r_epik_Ionization_Penalty_Charging>
6.85407e-08

> <r_epik_Ionization_Penalty_Neutral>
6.60319

> <r_epik_State_Penalty>
4.42883

> <r_epik_Charging_Adjusted_Penalty>
4.42883

> <i_epik_Tot_Q>
-1

> <i_epik_Tot_abs_Q>
1

> <r_epik_Metal_State_Penalty>
0.797578

> <b_epik_Metal_Only>
1

> <s_lp_Force_Field>
OPLS_2005

> <r_lp_Energy>
23.195

> <b_lp_Chiralities_Consistent>
1

> <s_lp_Variant>
AV-unprocessed.smi:1180-6

> <Gold.Version>
5.8.1

> <Gold.Id.Protein>
6NUR|6NUR_protein|mol2

> <Gold.PLP.Fitness>
43.2364

> <Gold.PLP.PLP>
-34.9763

> <Gold.PLP.part.hbond>
-4.2656

> <Gold.PLP.part.metal>
0.0000

> <Gold.PLP.part.buried>
1.3805

> <Gold.PLP.part.nonpolar>
-31.1810

> <Gold.PLP.part.repulsive>
0.2862

> <Gold.PLP.ligand.clash>
0.0000

> <Gold.PLP.ligand.torsion>
0.3768

> <Gold.PLP.Chemscore.Hbond>
3.0000

> <Gold.PLP.Chemscore.CHOScore>
0.0000

> <Gold.PLP.Chemscore.Metal>
0.0000

> <Gold.Chemscore.Hbonds>
donor molecule, donor type, donor heavy atom, donor atom, acceptor molecule, acceptor atom, score
      L1  H    10    28       P1  7948  1.00
      P1  H  7997  8009       L1    18  0.95
      P1  H 10752 10763       L1     9  0.95

> <Gold.PLP.Chemscore.Internal.Correction>
0.0137

> <Gold.Rescore>
     Score         DG    S(hbond)    S(metal)    S(lipo)     H(rot)  DE(clash)    DE(int)     intcor
     14.76     -16.46       2.52        0.00      60.52       1.76       0.08       1.62       ----

> <Gold.Chemscore.Fitness>
14.7557

> <Gold.Chemscore.DG>
-16.4613

> <Gold.Chemscore.ZeroCoef>
-5.4800

> <Gold.Chemscore.Hbond>
2.5151

> <Gold.Chemscore.Metal>
0.0000

> <Gold.Chemscore.Lipo>
60.5194

> <Gold.Chemscore.Internal_Hbond>
0.0000

> <Gold.Chemscore.DEClash>
0.0828

> <Gold.Chemscore.DEInternal>
1.6228

> <Gold.Chemscore.Rot>
1.7577

> <Gold.Chemscore.Internal.Correction>
   9.000000E+99

> <Gold.Chemscore.Hbonds>
donor molecule, donor type, donor heavy atom, donor atom, acceptor molecule, acceptor atom, score
      L1  H    10    28       P1  7948  0.30
      P1  H  7997  8009       L1    18  0.21
      P1  H 10752 10763       L1     9  0.21

> <Gold.Chemscore.Hbond.Weighted>
-8.4004

> <Gold.Chemscore.Metal.Weighted>
-0.0000

> <Gold.Chemscore.Lipo.Weighted>
-7.0808

> <Gold.Chemscore.Internal_Hbond.Weighted>
0.0000

> <Gold.Chemscore.DEClash.Weighted>
0.0828

> <Gold.Chemscore.DEInternal.Weighted>
1.6228

> <Gold.Chemscore.Rot.Weighted>
4.4998

> <Gold.Chemscore.Internal.Correction.Weighted>
   9.000000E+99

> <Gold.Protein.RotatedTorsions>
[ 6907 6896 6895 6894 ] final  158.46 input  -60.11 | X-H torsion
[ 7974 7965 7964 7962 ] final  -54.38 input  175.53 | X-H torsion
[ 8008 7997 7996 7995 ] final -167.50 input   59.86 | X-H torsion
[ 10167 10162 10161 10158 ] final   73.95 input  -65.29 | X-H torsion
[ 10718 10713 10712 10709 ] final   96.54 input   66.30 | X-H torsion
[ 10763 10752 10751 10750 ] final   92.48 input  -60.55 | X-H torsion
[ 11005 11000 10999 10996 ] final  -87.67 input  -57.11 | X-H torsion

> <Gold.Protein.ActiveResidues>
 VAL166  LYS551  ARG553  GLY616  TRP617  ASP618  TYR619  PRO620  LYS621  CYS622 
 ASP623  PHE694  ASN695  SER759  ASP760  ASP761  ALA762  ILE779  LEU786  VAL792 
 PHE793  MET794  SER795  GLU796  ALA797  LYS798  CYS799  TRP800  GLU811  SER814 

> <Gold.Protein.RotatedAtoms>
  152.0001  133.3822  159.4177 H   0  0  0  0  0  0  0  0  0  0  0  0  # atno 6907 bound_to 6896
  150.6911  134.3843  159.5057 H   0  0  0  0  0  0  0  0  0  0  0  0  # atno 6908 bound_to 6896
  152.1589  134.8928  160.0593 H   0  0  0  0  0  0  0  0  0  0  0  0  # atno 6909 bound_to 6896
  145.8862  140.8106  142.9814 H   0  0  0  0  0  0  0  0  0  0  0  0  # atno 7974 bound_to 7965
  155.8786  140.1005  157.1501 H   0  0  0  0  0  0  0  0  0  0  0  0  # atno 8008 bound_to 7997
  154.4003  140.1333  156.4231 H   0  0  0  0  0  0  0  0  0  0  0  0  # atno 8009 bound_to 7997
  155.7669  140.3462  155.5229 H   0  0  0  0  0  0  0  0  0  0  0  0  # atno 8010 bound_to 7997
  140.0189  144.5556  150.7598 H   0  0  0  0  0  0  0  0  0  0  0  0  # atno 10167 bound_to 10162
  157.6925  131.0581  150.4507 H   0  0  0  0  0  0  0  0  0  0  0  0  # atno 10718 bound_to 10713
  153.2196  135.4360  155.0474 H   0  0  0  0  0  0  0  0  0  0  0  0  # atno 10763 bound_to 10752
  154.8243  135.3353  154.6947 H   0  0  0  0  0  0  0  0  0  0  0  0  # atno 10764 bound_to 10752
  153.7379  135.7006  153.5029 H   0  0  0  0  0  0  0  0  0  0  0  0  # atno 10765 bound_to 10752
  141.1613  133.7525  156.9340 H   0  0  0  0  0  0  0  0  0  0  0  0  # atno 11005 bound_to 11000
  144.6728  140.1460  143.7433 LP  0  0  0  0  0  0  0  0  0  0  0  0  # atno 17320 bound_to 7965
  145.8963  139.2405  143.1519 LP  0  0  0  0  0  0  0  0  0  0  0  0  # atno 17321 bound_to 7965
  140.7351  143.2736  151.3810 LP  0  0  0  0  0  0  0  0  0  0  0  0  # atno 17342 bound_to 10162
  139.6153  144.1015  152.2339 LP  0  0  0  0  0  0  0  0  0  0  0  0  # atno 17343 bound_to 10162
  156.4858  130.4084  149.6435 LP  0  0  0  0  0  0  0  0  0  0  0  0  # atno 17370 bound_to 10713
  156.3464  130.7409  151.2362 LP  0  0  0  0  0  0  0  0  0  0  0  0  # atno 17371 bound_to 10713
  140.1367  134.9320  157.2411 LP  0  0  0  0  0  0  0  0  0  0  0  0  # atno 17394 bound_to 11000
  140.2886  134.3266  155.7321 LP  0  0  0  0  0  0  0  0  0  0  0  0  # atno 17395 bound_to 11000

$$$$
