AV-unprocessed.smi:1978|AV-procd|sdf|8012|dock5
  -GOLD-   2272010203D 1   1.00000     0.00000
 Structure written by MMmdl.
 44 45  0  0  0  0  0  0  0  0  3 V2000
  153.2999  142.2155  160.8260 C   0  0  0  0  0  0  0  0  0  0  0  0
  152.4239  142.0455  159.6328 C   0  0  0  0  0  0  0  0  0  0  0  0
  152.5826  141.3818  158.4491 C   0  0  0  0  0  0  0  0  0  0  0  0
  151.3616  141.6390  157.7703 C   0  0  0  0  0  0  0  0  0  0  0  0
  151.1296  141.1102  156.4730 N   0  0  0  0  0  0  0  0  0  0  0  0
  151.8017  140.1412  155.8246 C   0  0  0  0  0  0  0  0  0  0  0  0
  152.7613  139.5776  156.3644 O   0  0  0  0  0  0  0  0  0  0  0  0
  151.2922  139.9043  154.5850 N   0  5  0  0  0  0  0  0  0  0  0  0
  150.4534  138.7579  154.2362 C   0  0  0  0  0  0  0  0  0  0  0  0
  148.9682  139.1903  154.0927 C   0  0  2  0  0  0  0  0  0  0  0  0
  148.4706  140.1483  155.2057 C   0  0  0  0  0  0  0  0  0  0  0  0
  148.0798  137.9891  153.9149 N   0  3  1  0  0  0  0  0  0  0  0  0
  148.0075  137.0989  155.1183 C   0  0  0  0  0  0  0  0  0  0  0  0
  147.3154  135.7677  154.8044 C   0  0  0  0  0  0  0  0  0  0  0  0
  145.9000  136.0233  154.2890 C   0  0  0  0  0  0  0  0  0  0  0  0
  145.9660  136.9397  153.0652 C   0  0  0  0  0  0  0  0  0  0  0  0
  146.7124  138.2640  153.3525 C   0  0  2  0  0  0  0  0  0  0  0  0
  146.7276  139.0880  152.0457 C   0  0  0  0  0  0  0  0  0  0  0  0
  150.5308  142.3886  158.4798 N   0  0  0  0  0  0  0  0  0  0  0  0
  151.2072  142.6527  159.6766 O   0  0  0  0  0  0  0  0  0  0  0  0
  154.3112  141.8643  160.6201 H   0  0  0  0  0  0  0  0  0  0  0  0
  152.9112  141.6510  161.6735 H   0  0  0  0  0  0  0  0  0  0  0  0
  153.3596  143.2647  161.1161 H   0  0  0  0  0  0  0  0  0  0  0  0
  153.4365  140.8076  158.1214 H   0  0  0  0  0  0  0  0  0  0  0  0
  150.3516  141.5123  155.9721 H   0  0  0  0  0  0  0  0  0  0  0  0
  150.7689  138.3086  153.2931 H   0  0  0  0  0  0  0  0  0  0  0  0
  150.5271  137.9630  154.9788 H   0  0  0  0  0  0  0  0  0  0  0  0
  148.9543  139.7754  153.1788 H   0  0  0  0  0  0  0  0  0  0  0  0
  149.0226  141.0898  155.2073 H   0  0  0  0  0  0  0  0  0  0  0  0
  148.5608  139.7222  156.2062 H   0  0  0  0  0  0  0  0  0  0  0  0
  147.4227  140.4070  155.0517 H   0  0  0  0  0  0  0  0  0  0  0  0
  149.0040  136.8843  155.5046 H   0  0  0  0  0  0  0  0  0  0  0  0
  147.4628  137.5999  155.9198 H   0  0  0  0  0  0  0  0  0  0  0  0
  147.8918  135.2136  154.0623 H   0  0  0  0  0  0  0  0  0  0  0  0
  147.2782  135.1464  155.6996 H   0  0  0  0  0  0  0  0  0  0  0  0
  145.4145  135.0815  154.0314 H   0  0  0  0  0  0  0  0  0  0  0  0
  145.2946  136.4867  155.0692 H   0  0  0  0  0  0  0  0  0  0  0  0
  146.4609  136.4106  152.2492 H   0  0  0  0  0  0  0  0  0  0  0  0
  144.9516  137.1480  152.7228 H   0  0  0  0  0  0  0  0  0  0  0  0
  146.1461  138.8215  154.1000 H   0  0  0  0  0  0  0  0  0  0  0  0
  145.7502  139.0709  151.5628 H   0  0  0  0  0  0  0  0  0  0  0  0
  147.4508  138.6915  151.3321 H   0  0  0  0  0  0  0  0  0  0  0  0
  146.9513  140.1405  152.2143 H   0  0  0  0  0  0  0  0  0  0  0  0
  148.5443  137.4461  153.2007 H   0  0  0  0  0  0  0  0  0  0  0  0
  1  2  1  0  0  0  0
  1 21  1  0  0  0  0
  1 22  1  0  0  0  0
  1 23  1  0  0  0  0
  2 20  1  0  0  0  0
  2  3  2  0  0  0  0
  3  4  1  0  0  0  0
  3 24  1  0  0  0  0
  4  5  1  0  0  0  0
  4 19  2  0  0  0  0
  5  6  1  0  0  0  0
  5 25  1  0  0  0  0
  6  7  2  0  0  0  0
  6  8  1  0  0  0  0
  8  9  1  0  0  0  0
  9 10  1  0  0  0  0
  9 26  1  0  0  0  0
  9 27  1  0  0  0  0
 10 11  1  0  0  0  0
 10 12  1  0  0  0  0
 10 28  1  0  0  0  0
 11 29  1  0  0  0  0
 11 30  1  0  0  0  0
 11 31  1  0  0  0  0
 12 17  1  0  0  0  0
 12 13  1  0  0  0  0
 12 44  1  0  0  0  0
 13 14  1  0  0  0  0
 13 32  1  0  0  0  0
 13 33  1  0  0  0  0
 14 15  1  0  0  0  0
 14 34  1  0  0  0  0
 14 35  1  0  0  0  0
 15 16  1  0  0  0  0
 15 36  1  0  0  0  0
 15 37  1  0  0  0  0
 16 17  1  0  0  0  0
 16 38  1  0  0  0  0
 16 39  1  0  0  0  0
 17 18  1  0  0  0  0
 17 40  1  0  0  0  0
 18 41  1  0  0  0  0
 18 42  1  0  0  0  0
 18 43  1  0  0  0  0
 19 20  1  0  0  0  0
M  CHG  1   8  -1
M  CHG  1  12   1
M  END
> <s_m_source_file>
AV-unprocessed.smi

> <i_m_source_file_index>
1978

> <i_lp_mmshare_version>
43012

> <i_f3d_flags>
0

> <s_epik_input>
W0NIM11jMVtjSF1jKG5vMSlbTkhdQyg9TylbTkhdW0NIMl1bQ0BIXShbQ0gzXSlOMltDSDJdW0NIMl1bQ0gyXVtDSDJdW0NASF0yW0NIM10=

> <s_epik_cmdline>
J2VwaWtfcHl0aG9uJywgJy1waCcsICc3LjAnLCAnLXRuJywgJzgnLCAnLW1hJywgJzIwMCcsICctbWV0YWxfYmluZGluZycsICctaW1hZScsICc8aW5maWxlLm1hZT4nLCAnLW9tYWUnLCAnPG91dGZpbGUubWFlPic=

> <r_epik_Ionization_Penalty>
6.7666

> <r_epik_Ionization_Penalty_Charging>
6.7666

> <r_epik_Ionization_Penalty_Neutral>
5.77131e-06

> <r_epik_State_Penalty>
6.79217

> <r_epik_Charging_Adjusted_Penalty>
13.5588

> <i_epik_Tot_Q>
0

> <i_epik_Tot_abs_Q>
2

> <r_epik_Metal_State_Penalty>
2.72569

> <b_epik_Metal_Only>
1

> <s_lp_Force_Field>
OPLS_2005

> <r_lp_Energy>
22.8368

> <b_lp_Chiralities_Consistent>
1

> <s_lp_Variant>
AV-unprocessed.smi:1978-21

> <Gold.Version>
5.8.1

> <Gold.Id.Protein>
6NUR|6NUR_protein|mol2

> <Gold.PLP.Fitness>
41.8551

> <Gold.PLP.PLP>
-31.7668

> <Gold.PLP.part.hbond>
-4.0000

> <Gold.PLP.part.metal>
0.0000

> <Gold.PLP.part.buried>
-3.5639

> <Gold.PLP.part.nonpolar>
-24.5736

> <Gold.PLP.part.repulsive>
0.2586

> <Gold.PLP.ligand.clash>
0.0000

> <Gold.PLP.ligand.torsion>
1.0425

> <Gold.PLP.Chemscore.Hbond>
4.0000

> <Gold.PLP.Chemscore.CHOScore>
0.0000

> <Gold.PLP.Chemscore.Metal>
0.0000

> <Gold.Chemscore.Hbonds>
donor molecule, donor type, donor heavy atom, donor atom, acceptor molecule, acceptor atom, score
      L1  H    12    44       P1  7948  2.00
      P1  H  7989  7998       L1     8  0.89
      P1  H  7997  8008       L1     7  1.00

> <Gold.PLP.Chemscore.Internal.Correction>
0.1733

> <Gold.Rescore>
     Score         DG    S(hbond)    S(metal)    S(lipo)     H(rot)  DE(clash)    DE(int)     intcor
     16.97     -19.46       2.89        0.00      70.11       1.52       0.04       2.45       ----

> <Gold.Chemscore.Fitness>
16.9731

> <Gold.Chemscore.DG>
-19.4596

> <Gold.Chemscore.ZeroCoef>
-5.4800

> <Gold.Chemscore.Hbond>
2.8939

> <Gold.Chemscore.Metal>
0.0000

> <Gold.Chemscore.Lipo>
70.1069

> <Gold.Chemscore.Internal_Hbond>
0.0000

> <Gold.Chemscore.DEClash>
0.0370

> <Gold.Chemscore.DEInternal>
2.4496

> <Gold.Chemscore.Rot>
1.5190

> <Gold.Chemscore.Internal.Correction>
   9.000000E+99

> <Gold.Chemscore.Hbonds>
donor molecule, donor type, donor heavy atom, donor atom, acceptor molecule, acceptor atom, score
      L1  H    12    44       P1  7948  1.00
      P1  H  7989  7998       L1     8  0.80
      P1  H  7997  8008       L1     7  0.99

> <Gold.Chemscore.Hbond.Weighted>
-9.6658

> <Gold.Chemscore.Metal.Weighted>
-0.0000

> <Gold.Chemscore.Lipo.Weighted>
-8.2025

> <Gold.Chemscore.Internal_Hbond.Weighted>
0.0000

> <Gold.Chemscore.DEClash.Weighted>
0.0370

> <Gold.Chemscore.DEInternal.Weighted>
2.4496

> <Gold.Chemscore.Rot.Weighted>
3.8886

> <Gold.Chemscore.Internal.Correction.Weighted>
   9.000000E+99

> <Gold.Protein.RotatedTorsions>
[ 6907 6896 6895 6894 ] final  127.68 input  -60.11 | X-H torsion
[ 7974 7965 7964 7962 ] final  -83.15 input  175.53 | X-H torsion
[ 8008 7997 7996 7995 ] final  -37.00 input   59.86 | X-H torsion
[ 10167 10162 10161 10158 ] final  -85.07 input  -65.29 | X-H torsion
[ 10718 10713 10712 10709 ] final  -31.35 input   66.30 | X-H torsion
[ 10763 10752 10751 10750 ] final  -46.95 input  -60.55 | X-H torsion
[ 11005 11000 10999 10996 ] final  104.10 input  -57.11 | X-H torsion

> <Gold.Protein.ActiveResidues>
 VAL166  LYS551  ARG553  GLY616  TRP617  ASP618  TYR619  PRO620  LYS621  CYS622 
 ASP623  PHE694  ASN695  SER759  ASP760  ASP761  ALA762  ILE779  LEU786  VAL792 
 PHE793  MET794  SER795  GLU796  ALA797  LYS798  CYS799  TRP800  GLU811  SER814 

> <Gold.Protein.RotatedAtoms>
  152.3790  133.6520  159.6145 H   0  0  0  0  0  0  0  0  0  0  0  0  # atno 6907 bound_to 6896
  150.7726  133.9146  159.3388 H   0  0  0  0  0  0  0  0  0  0  0  0  # atno 6908 bound_to 6896
  151.6955  135.0940  160.0292 H   0  0  0  0  0  0  0  0  0  0  0  0  # atno 6909 bound_to 6896
  145.5238  140.9528  143.1641 H   0  0  0  0  0  0  0  0  0  0  0  0  # atno 7974 bound_to 7965
  154.4062  140.1616  156.2466 H   0  0  0  0  0  0  0  0  0  0  0  0  # atno 8008 bound_to 7997
  155.9155  140.3424  155.6109 H   0  0  0  0  0  0  0  0  0  0  0  0  # atno 8009 bound_to 7997
  155.7284  140.0777  157.2290 H   0  0  0  0  0  0  0  0  0  0  0  0  # atno 8010 bound_to 7997
  140.4073  143.2637  151.9064 H   0  0  0  0  0  0  0  0  0  0  0  0  # atno 10167 bound_to 10162
  156.3884  130.4368  149.7414 H   0  0  0  0  0  0  0  0  0  0  0  0  # atno 10718 bound_to 10713
  154.0534  135.6628  153.4803 H   0  0  0  0  0  0  0  0  0  0  0  0  # atno 10763 bound_to 10752
  153.0455  135.5117  154.7729 H   0  0  0  0  0  0  0  0  0  0  0  0  # atno 10764 bound_to 10752
  154.6743  135.3034  154.9667 H   0  0  0  0  0  0  0  0  0  0  0  0  # atno 10765 bound_to 10752
  139.8789  134.9288  156.5311 H   0  0  0  0  0  0  0  0  0  0  0  0  # atno 11005 bound_to 11000
  144.7662  139.6840  143.7214 LP  0  0  0  0  0  0  0  0  0  0  0  0  # atno 17320 bound_to 7965
  146.2089  139.5431  142.9694 LP  0  0  0  0  0  0  0  0  0  0  0  0  # atno 17321 bound_to 7965
  139.4783  144.5573  151.8294 LP  0  0  0  0  0  0  0  0  0  0  0  0  # atno 17342 bound_to 10162
  140.4676  144.1633  150.5914 LP  0  0  0  0  0  0  0  0  0  0  0  0  # atno 17343 bound_to 10162
  156.4477  130.7891  151.2913 LP  0  0  0  0  0  0  0  0  0  0  0  0  # atno 17370 bound_to 10713
  157.7497  131.0105  150.3309 LP  0  0  0  0  0  0  0  0  0  0  0  0  # atno 17371 bound_to 10713
  140.8380  133.8227  155.9047 LP  0  0  0  0  0  0  0  0  0  0  0  0  # atno 17394 bound_to 11000
  140.9265  134.2076  157.4892 LP  0  0  0  0  0  0  0  0  0  0  0  0  # atno 17395 bound_to 11000

$$$$
