AV-unprocessed.smi:951|AV-procd|sdf|4254|dock4
  -GOLD-   22720 2163D 1   1.00000     0.00000
 Structure written by MMmdl.
 52 54  0  0  0  0  0  0  0  0  2 V2000
  150.7263  137.2679  159.2872 O   0  0  0  0  0  0  0  0  0  0  0  0
  149.9522  137.7617  158.4660 C   0  0  0  0  0  0  0  0  0  0  0  0
  150.1748  138.9363  157.8556 N   0  0  0  0  0  0  0  0  0  0  0  0
  151.3434  139.7891  158.0589 C   0  0  0  0  0  0  0  0  0  0  0  0
  151.0615  141.2694  157.7334 C   0  0  0  0  0  0  0  0  0  0  0  0
  151.9869  142.2451  158.4412 C   0  0  0  0  0  0  0  0  0  0  0  0
  153.0621  141.8080  159.2444 C   0  0  0  0  0  0  0  0  0  0  0  0
  153.9037  142.7647  159.8496 C   0  0  0  0  0  0  0  0  0  0  0  0
  153.6529  144.1365  159.6394 C   0  0  0  0  0  0  0  0  0  0  0  0
  152.5655  144.5179  158.8279 C   0  0  0  0  0  0  0  0  0  0  0  0
  151.7824  143.5716  158.2656 N   0  3  0  0  0  0  0  0  0  0  0  0
  148.6759  137.0075  158.0465 C   0  0  1  0  0  0  0  0  0  0  0  0
  148.9338  136.2662  156.7243 C   0  0  0  0  0  0  0  0  0  0  0  0
  148.0303  135.0512  156.7809 C   0  0  0  0  0  0  0  0  0  0  0  0
  147.9072  134.7295  158.2688 C   0  0  0  0  0  0  0  0  0  0  0  0
  148.2223  135.9663  158.9914 N   0  0  0  0  0  0  0  0  0  0  0  0
  148.0272  136.1471  160.3241 C   0  0  0  0  0  0  0  0  0  0  0  0
  148.1876  137.2458  160.8564 O   0  0  0  0  0  0  0  0  0  0  0  0
  147.5789  134.9500  161.1997 C   0  0  0  0  0  0  0  0  0  0  0  0
  146.2279  134.3634  160.7271 C   0  0  0  0  0  0  0  0  0  0  0  0
  145.0189  135.2222  161.1369 C   0  0  0  0  0  0  0  0  0  0  0  0
  144.9874  135.4354  162.6566 C   0  0  0  0  0  0  0  0  0  0  0  0
  146.2889  136.0817  163.1531 C   0  0  0  0  0  0  0  0  0  0  0  0
  147.5299  135.2764  162.7152 C   0  0  0  0  0  0  0  0  0  0  0  0
  149.4807  139.2651  157.1998 H   0  0  0  0  0  0  0  0  0  0  0  0
  151.6501  139.6986  159.1012 H   0  0  0  0  0  0  0  0  0  0  0  0
  152.1876  139.4330  157.4661 H   0  0  0  0  0  0  0  0  0  0  0  0
  151.1413  141.4275  156.6568 H   0  0  0  0  0  0  0  0  0  0  0  0
  150.0310  141.5100  157.9965 H   0  0  0  0  0  0  0  0  0  0  0  0
  153.2464  140.7532  159.3888 H   0  0  0  0  0  0  0  0  0  0  0  0
  154.7329  142.4500  160.4660 H   0  0  0  0  0  0  0  0  0  0  0  0
  154.2869  144.8847  160.0925 H   0  0  0  0  0  0  0  0  0  0  0  0
  152.3021  145.5427  158.6100 H   0  0  0  0  0  0  0  0  0  0  0  0
  147.8519  137.7120  157.9174 H   0  0  0  0  0  0  0  0  0  0  0  0
  148.7368  136.8891  155.8510 H   0  0  0  0  0  0  0  0  0  0  0  0
  149.9686  135.9248  156.6555 H   0  0  0  0  0  0  0  0  0  0  0  0
  147.0483  135.3171  156.3873 H   0  0  0  0  0  0  0  0  0  0  0  0
  148.4063  134.2120  156.1950 H   0  0  0  0  0  0  0  0  0  0  0  0
  146.9115  134.3509  158.5022 H   0  0  0  0  0  0  0  0  0  0  0  0
  148.6368  133.9650  158.5396 H   0  0  0  0  0  0  0  0  0  0  0  0
  148.3279  134.1655  161.1075 H   0  0  0  0  0  0  0  0  0  0  0  0
  146.2274  134.2305  159.6446 H   0  0  0  0  0  0  0  0  0  0  0  0
  146.1106  133.3639  161.1477 H   0  0  0  0  0  0  0  0  0  0  0  0
  145.0521  136.1863  160.6286 H   0  0  0  0  0  0  0  0  0  0  0  0
  144.0972  134.7376  160.8134 H   0  0  0  0  0  0  0  0  0  0  0  0
  144.1357  136.0597  162.9278 H   0  0  0  0  0  0  0  0  0  0  0  0
  144.8406  134.4773  163.1569 H   0  0  0  0  0  0  0  0  0  0  0  0
  146.3485  137.1062  162.7874 H   0  0  0  0  0  0  0  0  0  0  0  0
  146.2682  136.1568  164.2406 H   0  0  0  0  0  0  0  0  0  0  0  0
  147.5437  134.3376  163.2704 H   0  0  0  0  0  0  0  0  0  0  0  0
  148.4343  135.8073  163.0155 H   0  0  0  0  0  0  0  0  0  0  0  0
  151.0050  143.8704  157.6766 H   0  0  0  0  0  0  0  0  0  0  0  0
  1  2  2  0  0  0  0
  2  3  1  0  0  0  0
  2 12  1  0  0  0  0
  3  4  1  0  0  0  0
  3 25  1  0  0  0  0
  4  5  1  0  0  0  0
  4 26  1  0  0  0  0
  4 27  1  0  0  0  0
  5  6  1  0  0  0  0
  5 28  1  0  0  0  0
  5 29  1  0  0  0  0
  6 11  1  0  0  0  0
  6  7  2  0  0  0  0
  7  8  1  0  0  0  0
  7 30  1  0  0  0  0
  8  9  2  0  0  0  0
  8 31  1  0  0  0  0
  9 10  1  0  0  0  0
  9 32  1  0  0  0  0
 10 11  2  0  0  0  0
 10 33  1  0  0  0  0
 11 52  1  0  0  0  0
 12 16  1  0  0  0  0
 12 13  1  0  0  0  0
 12 34  1  0  0  0  0
 13 14  1  0  0  0  0
 13 35  1  0  0  0  0
 13 36  1  0  0  0  0
 14 15  1  0  0  0  0
 14 37  1  0  0  0  0
 14 38  1  0  0  0  0
 15 16  1  0  0  0  0
 15 39  1  0  0  0  0
 15 40  1  0  0  0  0
 16 17  1  0  0  0  0
 17 18  2  0  0  0  0
 17 19  1  0  0  0  0
 19 24  1  0  0  0  0
 19 20  1  0  0  0  0
 19 41  1  0  0  0  0
 20 21  1  0  0  0  0
 20 42  1  0  0  0  0
 20 43  1  0  0  0  0
 21 22  1  0  0  0  0
 21 44  1  0  0  0  0
 21 45  1  0  0  0  0
 22 23  1  0  0  0  0
 22 46  1  0  0  0  0
 22 47  1  0  0  0  0
 23 24  1  0  0  0  0
 23 48  1  0  0  0  0
 23 49  1  0  0  0  0
 24 50  1  0  0  0  0
 24 51  1  0  0  0  0
M  CHG  1  11   1
M  END
> <s_m_source_file>
AV-unprocessed.smi

> <i_m_source_file_index>
951

> <i_lp_mmshare_version>
43012

> <i_f3d_flags>
0

> <s_epik_input>
bjFbY0hdW2NIXVtjSF1bY0hdYzFbQ0gyXVtDSDJdW05IXUMoPU8pW0NAQEhdMltDSDJdW0NIMl1bQ0gyXU4yQyg9TylbQ0hdM1tDSDJdW0NIMl1bQ0gyXVtDSDJdW0NIMl0z

> <s_epik_cmdline>
J2VwaWtfcHl0aG9uJywgJy1waCcsICc3LjAnLCAnLXRuJywgJzgnLCAnLW1hJywgJzIwMCcsICctbWV0YWxfYmluZGluZycsICctaW1hZScsICc8aW5maWxlLm1hZT4nLCAnLW9tYWUnLCAnPG91dGZpbGUubWFlPic=

> <r_epik_Ionization_Penalty>
1.85306

> <r_epik_Ionization_Penalty_Charging>
1.85306

> <r_epik_Ionization_Penalty_Neutral>
5.78903e-08

> <r_epik_State_Penalty>
1.97071

> <r_epik_Charging_Adjusted_Penalty>
3.82377

> <i_epik_Tot_Q>
1

> <i_epik_Tot_abs_Q>
1

> <r_epik_Metal_State_Penalty>
1.99634

> <b_epik_Metal_Only>
0

> <s_lp_Force_Field>
OPLS_2005

> <r_lp_Energy>
29.0494

> <b_lp_Chiralities_Consistent>
1

> <s_lp_Variant>
AV-unprocessed.smi:951-4

> <Gold.Version>
5.8.1

> <Gold.Id.Protein>
6NUR|6NUR_protein|mol2

> <Gold.PLP.Fitness>
52.3745

> <Gold.PLP.PLP>
-42.7023

> <Gold.PLP.part.hbond>
-3.1216

> <Gold.PLP.part.metal>
0.0000

> <Gold.PLP.part.buried>
-6.7503

> <Gold.PLP.part.nonpolar>
-32.9863

> <Gold.PLP.part.repulsive>
0.0700

> <Gold.PLP.ligand.clash>
0.0141

> <Gold.PLP.ligand.torsion>
0.9369

> <Gold.PLP.Chemscore.Hbond>
3.8259

> <Gold.PLP.Chemscore.CHOScore>
0.0000

> <Gold.PLP.Chemscore.Metal>
0.0000

> <Gold.Chemscore.Hbonds>
donor molecule, donor type, donor heavy atom, donor atom, acceptor molecule, acceptor atom, score
      P1  H  6896  6909       L1     1  0.37
      P1  H  6931  6943       L1    18  0.88
      P1  H  6934  6947       L1    18  0.63

> <Gold.PLP.Chemscore.Internal.Correction>
0.0825

> <Gold.Rescore>
     Score         DG    S(hbond)    S(metal)    S(lipo)     H(rot)  DE(clash)    DE(int)     intcor
     20.10     -25.14       2.91        0.00     121.27       1.65       1.38       3.66       ----

> <Gold.Chemscore.Fitness>
20.0975

> <Gold.Chemscore.DG>
-25.1370

> <Gold.Chemscore.ZeroCoef>
-5.4800

> <Gold.Chemscore.Hbond>
2.9057

> <Gold.Chemscore.Metal>
0.0000

> <Gold.Chemscore.Lipo>
121.2678

> <Gold.Chemscore.Internal_Hbond>
0.0000

> <Gold.Chemscore.DEClash>
1.3804

> <Gold.Chemscore.DEInternal>
3.6591

> <Gold.Chemscore.Rot>
1.6548

> <Gold.Chemscore.Internal.Correction>
   9.000000E+99

> <Gold.Chemscore.Hbonds>
donor molecule, donor type, donor heavy atom, donor atom, acceptor molecule, acceptor atom, score
      P1  H  6896  6909       L1     1  0.37
      P1  H  6931  6943       L1    18  0.86
      P1  H  6934  6947       L1    18  0.59

> <Gold.Chemscore.Hbond.Weighted>
-9.7049

> <Gold.Chemscore.Metal.Weighted>
-0.0000

> <Gold.Chemscore.Lipo.Weighted>
-14.1883

> <Gold.Chemscore.Internal_Hbond.Weighted>
0.0000

> <Gold.Chemscore.DEClash.Weighted>
1.3804

> <Gold.Chemscore.DEInternal.Weighted>
3.6591

> <Gold.Chemscore.Rot.Weighted>
4.2362

> <Gold.Chemscore.Internal.Correction.Weighted>
   9.000000E+99

> <Gold.Protein.RotatedTorsions>
[ 6907 6896 6895 6894 ] final   98.80 input  -60.11 | X-H torsion
[ 7974 7965 7964 7962 ] final  160.22 input  175.53 | X-H torsion
[ 8008 7997 7996 7995 ] final  -15.05 input   59.86 | X-H torsion
[ 10167 10162 10161 10158 ] final  145.33 input  -65.29 | X-H torsion
[ 10718 10713 10712 10709 ] final   63.89 input   66.30 | X-H torsion
[ 10763 10752 10751 10750 ] final  139.24 input  -60.55 | X-H torsion
[ 11005 11000 10999 10996 ] final  137.91 input  -57.11 | X-H torsion

> <Gold.Protein.ActiveResidues>
 VAL166  LYS551  ARG553  GLY616  TRP617  ASP618  TYR619  PRO620  LYS621  CYS622 
 ASP623  PHE694  ASN695  SER759  ASP760  ASP761  ALA762  ILE779  LEU786  VAL792 
 PHE793  MET794  SER795  GLU796  ALA797  LYS798  CYS799  TRP800  GLU811  SER814 

> <Gold.Protein.RotatedAtoms>
  152.5403  134.0525  159.8116 H   0  0  0  0  0  0  0  0  0  0  0  0  # atno 6907 bound_to 6896
  151.0665  133.5494  159.2637 H   0  0  0  0  0  0  0  0  0  0  0  0  # atno 6908 bound_to 6896
  151.2373  135.0584  159.9065 H   0  0  0  0  0  0  0  0  0  0  0  0  # atno 6909 bound_to 6896
  144.7748  139.7727  143.6283 H   0  0  0  0  0  0  0  0  0  0  0  0  # atno 7974 bound_to 7965
  154.5161  140.2206  155.9064 H   0  0  0  0  0  0  0  0  0  0  0  0  # atno 8008 bound_to 7997
  156.1609  140.3142  155.8770 H   0  0  0  0  0  0  0  0  0  0  0  0  # atno 8009 bound_to 7997
  155.3754  140.0469  157.3035 H   0  0  0  0  0  0  0  0  0  0  0  0  # atno 8010 bound_to 7997
  139.4928  144.5909  151.6683 H   0  0  0  0  0  0  0  0  0  0  0  0  # atno 10167 bound_to 10162
  157.6002  130.9130  149.9774 H   0  0  0  0  0  0  0  0  0  0  0  0  # atno 10718 bound_to 10713
  153.9029  135.3020  155.3448 H   0  0  0  0  0  0  0  0  0  0  0  0  # atno 10763 bound_to 10752
  154.7661  135.4909  153.9561 H   0  0  0  0  0  0  0  0  0  0  0  0  # atno 10764 bound_to 10752
  153.1235  135.6787  153.9397 H   0  0  0  0  0  0  0  0  0  0  0  0  # atno 10765 bound_to 10752
  140.0147  134.9423  157.0351 H   0  0  0  0  0  0  0  0  0  0  0  0  # atno 11005 bound_to 11000
  146.1920  139.5166  142.9799 LP  0  0  0  0  0  0  0  0  0  0  0  0  # atno 17320 bound_to 7965
  145.6218  141.0321  143.1911 LP  0  0  0  0  0  0  0  0  0  0  0  0  # atno 17321 bound_to 7965
  140.5536  144.0385  150.6137 LP  0  0  0  0  0  0  0  0  0  0  0  0  # atno 17342 bound_to 10162
  140.3448  143.2998  152.0550 LP  0  0  0  0  0  0  0  0  0  0  0  0  # atno 17343 bound_to 10162
  156.1074  130.3652  150.0110 LP  0  0  0  0  0  0  0  0  0  0  0  0  # atno 17370 bound_to 10713
  156.8214  130.9360  151.3641 LP  0  0  0  0  0  0  0  0  0  0  0  0  # atno 17371 bound_to 10713
  140.4492  134.1600  155.7180 LP  0  0  0  0  0  0  0  0  0  0  0  0  # atno 17394 bound_to 11000
  141.1735  133.8562  157.1497 LP  0  0  0  0  0  0  0  0  0  0  0  0  # atno 17395 bound_to 11000

$$$$
