#       Name:                AV-unprocessed.smi:40
#       Creating user name   scv26
#       Creation time:       Thu Mar 26 16:21:38 2020


#       File generated by GOLD software.
#

@<TRIPOS>MOLECULE
AV-unprocessed.smi:40
    58    59     1
SMALL
NO_CHARGES


@<TRIPOS>ATOM
      1 ****        -7.0335   3.1755   1.4553 C.3            1 S1                 0.0000
      2 ****        -5.5302   2.8770   1.4587 C.3            1 S1                 0.0000
      3 ****        -5.2254   1.3856   1.6601 C.3            1 S1                 0.0000
      4 ****        -3.7203   1.0873   1.6650 C.3            1 S1                 0.0000
      5 ****        -3.4239  -0.4077   1.8568 C.3            1 S1                 0.0000
      6 ****        -2.0247  -0.6514   1.8090 O.3            1 S1                 0.0000
      7 ****        -1.2622  -0.5446   2.9180 C.2            1 S1                 0.0000
      8 ****        -1.7066  -0.2842   4.0358 O.2            1 S1                 0.0000
      9 ****         0.1410  -0.8042   2.6378 N.am           1 S1                 0.0000
     10 ****         1.2074  -0.7950   3.4754 C.2            1 S1                 0.0000
     11 ****         1.0984  -0.9702   4.7825 N.2            1 S1                 0.0000
     12 ****         2.1602  -0.9849   5.6455 C.2            1 S1                 0.0000
     13 ****         1.9772  -1.0937   6.8569 O.2            1 S1                 0.0000
     14 ****         3.4583  -0.8595   5.0926 N.am           1 S1                 0.0000
     15 ****         4.6500  -0.8352   6.0370 C.3            1 S1                 0.0000
     16 ****         5.8352  -0.7241   5.2972 O.3            1 S1                 0.0000
     17 ****         6.5368  -1.9639   5.2589 C.3            1 S1                 0.0000
     18 ****         6.1095  -2.7961   4.0332 C.3            1 S1                 0.0000
     19 ****         6.2034  -2.5793   6.6194 C.3            1 S1                 0.0000
     20 ****         6.3281  -3.9883   6.6261 O.3            1 S1                 0.0000
     21 ****         4.7666  -2.1377   6.8681 C.3            1 S1                 0.0000
     22 ****         4.5817  -1.9003   8.2493 O.3            1 S1                 0.0000
     23 ****         3.5893  -0.6405   3.7266 C.2            1 S1                 0.0000
     24 ****         2.5224  -0.6191   2.8988 C.2            1 S1                 0.0000
     25 ****         2.6831  -0.4317   1.5773 F              1 S1                 0.0000
     26 ****         4.5065   0.0668   6.6349 H              1 S1                 0.0000
     27 ****         7.6063  -1.7641   5.1844 H              1 S1                 0.0000
     28 ****         6.8700  -2.1510   7.3703 H              1 S1                 0.0000
     29 ****         4.0618  -2.8857   6.5007 H              1 S1                 0.0000
     30 ****        -7.2182   4.2402   1.3105 H              1 S1                 0.0000
     31 ****        -7.4951   2.8827   2.3986 H              1 S1                 0.0000
     32 ****        -7.5389   2.6379   0.6524 H              1 S1                 0.0000
     33 ****        -5.0957   3.2155   0.5174 H              1 S1                 0.0000
     34 ****        -5.0508   3.4587   2.2470 H              1 S1                 0.0000
     35 ****        -5.6630   1.0493   2.6009 H              1 S1                 0.0000
     36 ****        -5.7072   0.8070   0.8709 H              1 S1                 0.0000
     37 ****        -3.2782   1.4242   0.7267 H              1 S1                 0.0000
     38 ****        -3.2402   1.6622   2.4576 H              1 S1                 0.0000
     39 ****        -3.8538  -0.7743   2.7901 H              1 S1                 0.0000
     40 ****        -3.8922  -0.9784   1.0546 H              1 S1                 0.0000
     41 ****         0.3328  -1.0065   1.6671 H              1 S1                 0.0000
     42 ****         6.6828  -3.7211   3.9664 H              1 S1                 0.0000
     43 ****         6.2836  -2.2434   3.1100 H              1 S1                 0.0000
     44 ****         5.0542  -3.0660   4.0701 H              1 S1                 0.0000
     45 ****         6.0793  -4.3048   7.4814 H              1 S1                 0.0000
     46 ****         3.6930  -1.6052   8.3826 H              1 S1                 0.0000
     47 ****         4.5584  -0.4828   3.2788 H              1 S1                 0.0000
     48 ****        -2.6877  -0.1376   4.1621 LP             1 S1                 0.0000
     49 ****        -1.0866  -0.2193   4.8177 LP             1 S1                 0.0000
     50 ****         0.1829  -1.1000   5.1633 LP             1 S1                 0.0000
     51 ****         1.0477  -1.1722   7.2172 LP             1 S1                 0.0000
     52 ****         2.7581  -1.1037   7.4816 LP             1 S1                 0.0000
     53 ****         6.4197  -0.0314   5.7197 LP             1 S1                 0.0000
     54 ****         5.6117  -0.4467   4.3628 LP             1 S1                 0.0000
     55 ****         7.2752  -4.2448   6.4331 LP             1 S1                 0.0000
     56 ****         5.7274  -4.3841   5.9314 LP             1 S1                 0.0000
     57 ****         5.2218  -1.1979   8.5607 LP             1 S1                 0.0000
     58 ****         4.7382  -2.7447   8.7617 LP             1 S1                 0.0000
@<TRIPOS>BOND
    1    1    2 1     
    2    1   30 1     
    3    1   31 1     
    4    1   32 1     
    5    2    3 1     
    6    2   33 1     
    7    2   34 1     
    8    3    4 1     
    9    3   35 1     
   10    3   36 1     
   11    4    5 1     
   12    4   37 1     
   13    4   38 1     
   14    5    6 1     
   15    5   39 1     
   16    5   40 1     
   17    6    7 1     
   18    7    8 2     
   19    7    9 am    
   20    9   10 1     
   21    9   41 1     
   22   10   24 1     
   23   10   11 2     
   24   11   12 1     
   25   12   13 2     
   26   12   14 am    
   27   14   15 1     
   28   14   23 1     
   29   15   26 1     
   30   15   21 1     
   31   15   16 1     
   32   16   17 1     
   33   17   27 1     
   34   17   18 1     
   35   17   19 1     
   36   18   42 1     
   37   18   43 1     
   38   18   44 1     
   39   19   28 1     
   40   19   20 1     
   41   19   21 1     
   42   20   45 1     
   43   21   29 1     
   44   21   22 1     
   45   22   46 1     
   46   23   24 2     
   47   23   47 1     
   48   24   25 1     
   49    8   48 1     
   50    8   49 1     
   51   11   50 1     
   52   13   51 1     
   53   13   52 1     
   54   16   53 1     
   55   16   54 1     
   56   20   55 1     
   57   20   56 1     
   58   22   57 1     
   59   22   58 1     
@<TRIPOS>SUBSTRUCTURE
      1 S1             1
@<TRIPOS>SET
LONE_PAIRS      STATIC     ATOMS    <user>   **** ""
11 48 49 50 51 52 53 54 55 56 57 58
DONOR_HYDROGENS      STATIC     ATOMS    <user>   **** ""
3 41 45 46
ATOM$BLUE        STATIC     ATOMS    COLORGROUP SYSTEM
11 48 49 50 51 52 53 54 55 56 57 58
ATOM$RED        STATIC     ATOMS    COLORGROUP SYSTEM
3 41 45 46
