AV-unprocessed.smi:2952|AV-procd|sdf|11291|dock1
  -GOLD-   2272016183D 1   1.00000     0.00000
 Structure written by MMmdl.
 38 40  0  0  0  0  0  0  0  0  1 V2000
  151.7512  136.8987  159.2583 O   0  0  0  0  0  0  0  0  0  0  0  0
  151.4112  138.2603  159.1039 C   0  0  0  0  0  0  0  0  0  0  0  0
  152.0506  138.8590  157.8398 C   0  0  0  0  0  0  0  0  0  0  0  0
  151.6652  140.2475  157.6219 N   0  0  0  0  0  0  0  0  0  0  0  0
  151.0553  140.8065  156.5441 C   0  0  0  0  0  0  0  0  0  0  0  0
  150.6555  140.0045  155.3341 C   0  0  0  0  0  0  0  0  0  0  0  0
  149.2288  140.0650  155.0169 N   0  0  0  0  0  0  0  0  0  0  0  0
  148.8244  139.0224  154.0761 C   0  0  0  0  0  0  0  0  0  0  0  0
  147.3258  139.1061  153.7400 C   0  0  0  0  0  0  0  0  0  0  0  0
  147.0238  140.4001  153.2270 O   0  0  0  0  0  0  0  0  0  0  0  0
  147.3640  141.4443  154.1336 C   0  0  0  0  0  0  0  0  0  0  0  0
  148.8632  141.3664  154.4709 C   0  0  0  0  0  0  0  0  0  0  0  0
  150.8486  142.1238  156.6194 N   0  0  0  0  0  0  0  0  0  0  0  0
  151.3499  142.4438  157.8647 C   0  0  0  0  0  0  0  0  0  0  0  0
  151.4169  143.6850  158.5369 C   0  0  0  0  0  0  0  0  0  0  0  0
  151.9847  143.7688  159.8252 C   0  0  0  0  0  0  0  0  0  0  0  0
  152.4929  142.6153  160.4579 C   0  0  0  0  0  0  0  0  0  0  0  0
  153.1862  142.7299  162.0333 Cl  0  0  0  0  0  0  0  0  0  0  0  0
  152.4361  141.3694  159.8042 C   0  0  0  0  0  0  0  0  0  0  0  0
  151.8680  141.2915  158.5187 C   0  0  0  0  0  0  0  0  0  0  0  0
  152.3211  136.6489  158.5468 H   0  0  0  0  0  0  0  0  0  0  0  0
  150.3255  138.3499  159.0616 H   0  0  0  0  0  0  0  0  0  0  0  0
  151.7434  138.8066  159.9868 H   0  0  0  0  0  0  0  0  0  0  0  0
  153.1363  138.8213  157.9335 H   0  0  0  0  0  0  0  0  0  0  0  0
  151.8129  138.2626  156.9597 H   0  0  0  0  0  0  0  0  0  0  0  0
  151.2321  140.3879  154.4918 H   0  0  0  0  0  0  0  0  0  0  0  0
  150.9473  138.9626  155.4569 H   0  0  0  0  0  0  0  0  0  0  0  0
  149.4025  139.1120  153.1554 H   0  0  0  0  0  0  0  0  0  0  0  0
  149.0432  138.0363  154.4866 H   0  0  0  0  0  0  0  0  0  0  0  0
  147.0617  138.3558  152.9947 H   0  0  0  0  0  0  0  0  0  0  0  0
  146.7199  138.9070  154.6252 H   0  0  0  0  0  0  0  0  0  0  0  0
  147.1269  142.4053  153.6770 H   0  0  0  0  0  0  0  0  0  0  0  0
  146.7595  141.3607  155.0381 H   0  0  0  0  0  0  0  0  0  0  0  0
  149.1133  142.1510  155.1859 H   0  0  0  0  0  0  0  0  0  0  0  0
  149.4461  141.5670  153.5705 H   0  0  0  0  0  0  0  0  0  0  0  0
  151.0313  144.5742  158.0603 H   0  0  0  0  0  0  0  0  0  0  0  0
  152.0308  144.7234  160.3285 H   0  0  0  0  0  0  0  0  0  0  0  0
  152.8239  140.4834  160.2844 H   0  0  0  0  0  0  0  0  0  0  0  0
  1  2  1  0  0  0  0
  1 21  1  0  0  0  0
  2  3  1  0  0  0  0
  2 22  1  0  0  0  0
  2 23  1  0  0  0  0
  3  4  1  0  0  0  0
  3 24  1  0  0  0  0
  3 25  1  0  0  0  0
  4 20  1  0  0  0  0
  4  5  1  0  0  0  0
  5  6  1  0  0  0  0
  5 13  2  0  0  0  0
  6  7  1  0  0  0  0
  6 26  1  0  0  0  0
  6 27  1  0  0  0  0
  7 12  1  0  0  0  0
  7  8  1  0  0  0  0
  8  9  1  0  0  0  0
  8 28  1  0  0  0  0
  8 29  1  0  0  0  0
  9 10  1  0  0  0  0
  9 30  1  0  0  0  0
  9 31  1  0  0  0  0
 10 11  1  0  0  0  0
 11 12  1  0  0  0  0
 11 32  1  0  0  0  0
 11 33  1  0  0  0  0
 12 34  1  0  0  0  0
 12 35  1  0  0  0  0
 13 14  1  0  0  0  0
 14 20  2  0  0  0  0
 14 15  1  0  0  0  0
 15 16  2  0  0  0  0
 15 36  1  0  0  0  0
 16 17  1  0  0  0  0
 16 37  1  0  0  0  0
 17 18  1  0  0  0  0
 17 19  2  0  0  0  0
 19 20  1  0  0  0  0
 19 38  1  0  0  0  0
M  END
> <s_m_source_file>
AV-unprocessed.smi

> <i_m_source_file_index>
2952

> <i_lp_mmshare_version>
43012

> <i_f3d_flags>
0

> <s_epik_input>
W2NIXTFbY0hdYyhDbClbY0hdYyhjMTIpbihbQ0gyXVtDSDJdW09IXSljKG4yKVtDSDJdTjNbQ0gyXVtDSDJdT1tDSDJdW0NIMl0z

> <s_epik_cmdline>
J2VwaWtfcHl0aG9uJywgJy1waCcsICc3LjAnLCAnLXRuJywgJzgnLCAnLW1hJywgJzIwMCcsICctbWV0YWxfYmluZGluZycsICctaW1hZScsICc8aW5maWxlLm1hZT4nLCAnLW9tYWUnLCAnPG91dGZpbGUubWFlPic=

> <r_epik_Ionization_Penalty>
0.0905371

> <r_epik_Ionization_Penalty_Charging>
0

> <r_epik_Ionization_Penalty_Neutral>
0.0905371

> <r_epik_State_Penalty>
0.0787939

> <r_epik_Charging_Adjusted_Penalty>
0.0787939

> <i_epik_Tot_Q>
0

> <i_epik_Tot_abs_Q>
0

> <r_epik_Metal_State_Penalty>
8.42675e-05

> <b_epik_Metal_Only>
0

> <s_lp_Force_Field>
OPLS_2005

> <r_lp_Energy>
22.7724

> <b_lp_Chiralities_Consistent>
1

> <s_lp_Variant>
AV-unprocessed.smi:2952-1

> <Gold.Version>
5.8.1

> <Gold.Id.Protein>
6NUR|6NUR_protein|mol2

> <Gold.PLP.Fitness>
45.3065

> <Gold.PLP.PLP>
-42.5678

> <Gold.PLP.part.hbond>
-1.0000

> <Gold.PLP.part.metal>
0.0000

> <Gold.PLP.part.buried>
-4.3244

> <Gold.PLP.part.nonpolar>
-37.7091

> <Gold.PLP.part.repulsive>
0.3554

> <Gold.PLP.ligand.clash>
0.0000

> <Gold.PLP.ligand.torsion>
0.1005

> <Gold.PLP.Chemscore.Hbond>
0.9760

> <Gold.PLP.Chemscore.CHOScore>
0.0000

> <Gold.PLP.Chemscore.Metal>
0.0000

> <Gold.Chemscore.Hbonds>
donor molecule, donor type, donor heavy atom, donor atom, acceptor molecule, acceptor atom, score
      P1  H  6896  6909       L1     1  0.89

> <Gold.PLP.Chemscore.Internal.Correction>
0.0117

> <Gold.Rescore>
     Score         DG    S(hbond)    S(metal)    S(lipo)     H(rot)  DE(clash)    DE(int)     intcor
     15.27     -15.53       0.66        0.00     113.58       2.13       0.08       0.17       ----

> <Gold.Chemscore.Fitness>
15.2700

> <Gold.Chemscore.DG>
-15.5290

> <Gold.Chemscore.ZeroCoef>
-5.4800

> <Gold.Chemscore.Hbond>
0.6592

> <Gold.Chemscore.Metal>
0.0000

> <Gold.Chemscore.Lipo>
113.5783

> <Gold.Chemscore.Internal_Hbond>
0.0000

> <Gold.Chemscore.DEClash>
0.0844

> <Gold.Chemscore.DEInternal>
0.1746

> <Gold.Chemscore.Rot>
2.1256

> <Gold.Chemscore.Internal.Correction>
   9.000000E+99

> <Gold.Chemscore.Hbonds>
donor molecule, donor type, donor heavy atom, donor atom, acceptor molecule, acceptor atom, score
      P1  H  6896  6909       L1     1  0.17

> <Gold.Chemscore.Hbond.Weighted>
-2.2019

> <Gold.Chemscore.Metal.Weighted>
-0.0000

> <Gold.Chemscore.Lipo.Weighted>
-13.2887

> <Gold.Chemscore.Internal_Hbond.Weighted>
0.0000

> <Gold.Chemscore.DEClash.Weighted>
0.0844

> <Gold.Chemscore.DEInternal.Weighted>
0.1746

> <Gold.Chemscore.Rot.Weighted>
5.4415

> <Gold.Chemscore.Internal.Correction.Weighted>
   9.000000E+99

> <Gold.Protein.RotatedTorsions>
[ 6907 6896 6895 6894 ] final  105.51 input  -60.11 | X-H torsion
[ 7974 7965 7964 7962 ] final  -66.29 input  175.53 | X-H torsion
[ 8008 7997 7996 7995 ] final  -52.88 input   59.86 | X-H torsion
[ 10167 10162 10161 10158 ] final -163.99 input  -65.29 | X-H torsion
[ 10718 10713 10712 10709 ] final -147.70 input   66.30 | X-H torsion
[ 10763 10752 10751 10750 ] final  -38.36 input  -60.55 | X-H torsion
[ 11005 11000 10999 10996 ] final  -33.53 input  -57.11 | X-H torsion

> <Gold.Protein.ActiveResidues>
 VAL166  LYS551  ARG553  GLY616  TRP617  ASP618  TYR619  PRO620  LYS621  CYS622 
 ASP623  PHE694  ASN695  SER759  ASP760  ASP761  ALA762  ILE779  LEU786  VAL792 
 PHE793  MET794  SER795  GLU796  ALA797  LYS798  CYS799  TRP800  GLU811  SER814 

> <Gold.Protein.RotatedAtoms>
  152.5228  133.9518  159.7675 H   0  0  0  0  0  0  0  0  0  0  0  0  # atno 6907 bound_to 6896
  150.9826  133.6221  159.2727 H   0  0  0  0  0  0  0  0  0  0  0  0  # atno 6908 bound_to 6896
  151.3393  135.0866  159.9418 H   0  0  0  0  0  0  0  0  0  0  0  0  # atno 6909 bound_to 6896
  145.7436  140.8942  143.0517 H   0  0  0  0  0  0  0  0  0  0  0  0  # atno 7974 bound_to 7965
  154.4118  140.1213  156.5063 H   0  0  0  0  0  0  0  0  0  0  0  0  # atno 8008 bound_to 7997
  155.6844  140.3496  155.4849 H   0  0  0  0  0  0  0  0  0  0  0  0  # atno 8009 bound_to 7997
  155.9523  140.1107  157.0956 H   0  0  0  0  0  0  0  0  0  0  0  0  # atno 8010 bound_to 7997
  139.6282  144.0491  152.1993 H   0  0  0  0  0  0  0  0  0  0  0  0  # atno 10167 bound_to 10162
  156.4108  130.7980  151.2198 H   0  0  0  0  0  0  0  0  0  0  0  0  # atno 10718 bound_to 10713
  153.9115  135.6792  153.4751 H   0  0  0  0  0  0  0  0  0  0  0  0  # atno 10763 bound_to 10752
  153.1076  135.4798  154.8976 H   0  0  0  0  0  0  0  0  0  0  0  0  # atno 10764 bound_to 10752
  154.7524  135.3188  154.8487 H   0  0  0  0  0  0  0  0  0  0  0  0  # atno 10765 bound_to 10752
  140.9642  133.7146  156.1418 H   0  0  0  0  0  0  0  0  0  0  0  0  # atno 11005 bound_to 11000
  144.6865  139.9495  143.7477 LP  0  0  0  0  0  0  0  0  0  0  0  0  # atno 17320 bound_to 7965
  146.0424  139.3434  143.0689 LP  0  0  0  0  0  0  0  0  0  0  0  0  # atno 17321 bound_to 7965
  140.0150  144.6196  150.7615 LP  0  0  0  0  0  0  0  0  0  0  0  0  # atno 17342 bound_to 10162
  140.7423  143.2830  151.3542 LP  0  0  0  0  0  0  0  0  0  0  0  0  # atno 17343 bound_to 10162
  157.7507  131.0258  150.3935 LP  0  0  0  0  0  0  0  0  0  0  0  0  # atno 17370 bound_to 10713
  156.4233  130.3957  149.6810 LP  0  0  0  0  0  0  0  0  0  0  0  0  # atno 17371 bound_to 10713
  140.7423  134.4136  157.5553 LP  0  0  0  0  0  0  0  0  0  0  0  0  # atno 17394 bound_to 11000
  139.8889  134.8845  156.2451 LP  0  0  0  0  0  0  0  0  0  0  0  0  # atno 17395 bound_to 11000

$$$$
