AV-unprocessed.smi:3150|AV-procd|sdf|12007|dock9
  -GOLD-   2272017413D 1   1.00000     0.00000
 Structure written by MMmdl.
 33 34  0  0  0  0  0  0  0  0  1 V2000
  151.2489  138.1545  154.7279 C   0  0  0  0  0  0  0  0  0  0  0  0
  150.6098  139.3825  155.3936 C   0  0  2  0  0  0  0  0  0  0  0  0
  150.3147  140.3241  154.3653 O   0  0  0  0  0  0  0  0  0  0  0  0
  149.3732  141.3321  154.7128 C   0  0  0  0  0  0  0  0  0  0  0  0
  147.9833  140.7359  154.6674 C   0  0  0  0  0  0  0  0  0  0  0  0
  147.2732  140.5399  153.3472 C   0  0  0  0  0  0  0  0  0  0  0  0
  146.7931  141.5967  154.3091 C   0  0  0  0  0  0  0  0  0  0  0  0
  151.5482  140.0079  156.4387 C   0  0  0  0  0  0  0  0  0  0  0  0
  152.7173  139.6281  156.5149 O   0  0  0  0  0  0  0  0  0  0  0  0
  151.0040  140.9692  157.2078 N   0  0  0  0  0  0  0  0  0  0  0  0
  151.6155  141.7330  158.2399 C   0  0  0  0  0  0  0  0  0  0  0  0
  152.8070  141.4029  158.7990 N   0  0  0  0  0  0  0  0  0  0  0  0
  153.3197  142.1815  159.7743 C   0  0  0  0  0  0  0  0  0  0  0  0
  152.6771  143.3367  160.2538 C   0  0  0  0  0  0  0  0  0  0  0  0
  151.4420  143.6917  159.6845 C   0  0  0  0  0  0  0  0  0  0  0  0
  150.9014  142.8826  158.6650 C   0  0  0  0  0  0  0  0  0  0  0  0
  149.7003  143.2228  158.1062 O   0  0  0  0  0  0  0  0  0  0  0  0
  151.5154  137.3969  155.4659 H   0  0  0  0  0  0  0  0  0  0  0  0
  152.1525  138.4197  154.1773 H   0  0  0  0  0  0  0  0  0  0  0  0
  150.5571  137.6957  154.0212 H   0  0  0  0  0  0  0  0  0  0  0  0
  149.6804  139.0658  155.8713 H   0  0  0  0  0  0  0  0  0  0  0  0
  149.5664  141.6989  155.7215 H   0  0  0  0  0  0  0  0  0  0  0  0
  149.4249  142.1823  154.0315 H   0  0  0  0  0  0  0  0  0  0  0  0
  147.8062  139.9751  155.4253 H   0  0  0  0  0  0  0  0  0  0  0  0
  147.7809  140.8746  152.4444 H   0  0  0  0  0  0  0  0  0  0  0  0
  146.6628  139.6464  153.2343 H   0  0  0  0  0  0  0  0  0  0  0  0
  145.8606  141.4093  154.8375 H   0  0  0  0  0  0  0  0  0  0  0  0
  146.9781  142.6361  154.0446 H   0  0  0  0  0  0  0  0  0  0  0  0
  150.0340  141.1870  157.0311 H   0  0  0  0  0  0  0  0  0  0  0  0
  154.2704  141.8737  160.1841 H   0  0  0  0  0  0  0  0  0  0  0  0
  153.1207  143.9338  161.0367 H   0  0  0  0  0  0  0  0  0  0  0  0
  150.9178  144.5723  160.0260 H   0  0  0  0  0  0  0  0  0  0  0  0
  149.7909  143.7186  157.3068 H   0  0  0  0  0  0  0  0  0  0  0  0
  1  2  1  0  0  0  0
  1 18  1  0  0  0  0
  1 19  1  0  0  0  0
  1 20  1  0  0  0  0
  2  3  1  0  0  0  0
  2  8  1  0  0  0  0
  2 21  1  0  0  0  0
  3  4  1  0  0  0  0
  4  5  1  0  0  0  0
  4 22  1  0  0  0  0
  4 23  1  0  0  0  0
  5  7  1  0  0  0  0
  5  6  1  0  0  0  0
  5 24  1  0  0  0  0
  6  7  1  0  0  0  0
  6 25  1  0  0  0  0
  6 26  1  0  0  0  0
  7 27  1  0  0  0  0
  7 28  1  0  0  0  0
  8  9  2  0  0  0  0
  8 10  1  0  0  0  0
 10 11  1  0  0  0  0
 10 29  1  0  0  0  0
 11 16  1  0  0  0  0
 11 12  2  0  0  0  0
 12 13  1  0  0  0  0
 13 14  2  0  0  0  0
 13 30  1  0  0  0  0
 14 15  1  0  0  0  0
 14 31  1  0  0  0  0
 15 16  2  0  0  0  0
 15 32  1  0  0  0  0
 16 17  1  0  0  0  0
 17 33  1  0  0  0  0
M  END
> <s_m_source_file>
AV-unprocessed.smi

> <i_m_source_file_index>
3150

> <i_lp_mmshare_version>
43012

> <i_f3d_flags>
0

> <s_epik_input>
W0NIMl0xW0NIMl1bQ0hdMVtDSDJdT1tDQEBIXShbQ0gzXSlDKD1PKVtOSF1jMm5bY0hdW2NIXVtjSF1jMltPSF0=

> <s_epik_cmdline>
J2VwaWtfcHl0aG9uJywgJy1waCcsICc3LjAnLCAnLXRuJywgJzgnLCAnLW1hJywgJzIwMCcsICctbWV0YWxfYmluZGluZycsICctaW1hZScsICc8aW5maWxlLm1hZT4nLCAnLW9tYWUnLCAnPG91dGZpbGUubWFlPic=

> <r_lp_tautomer_probability>
0.43658

> <r_epik_Ionization_Penalty>
0.0204299

> <r_epik_Ionization_Penalty_Charging>
0

> <r_epik_Ionization_Penalty_Neutral>
0.0204299

> <r_epik_State_Penalty>
0.419322

> <r_epik_Charging_Adjusted_Penalty>
0.419322

> <i_epik_Tot_Q>
0

> <i_epik_Tot_abs_Q>
0

> <r_epik_Metal_State_Penalty>
0.377394

> <b_epik_Metal_Only>
0

> <s_lp_Force_Field>
OPLS_2005

> <r_lp_Energy>
16.2266

> <b_lp_Chiralities_Consistent>
1

> <s_lp_Variant>
AV-unprocessed.smi:3150-1

> <Gold.Version>
5.8.1

> <Gold.Id.Protein>
6NUR|6NUR_protein|mol2

> <Gold.PLP.Fitness>
44.4987

> <Gold.PLP.PLP>
-37.0508

> <Gold.PLP.part.hbond>
-3.2382

> <Gold.PLP.part.metal>
0.0000

> <Gold.PLP.part.buried>
-3.2736

> <Gold.PLP.part.nonpolar>
-30.3504

> <Gold.PLP.part.repulsive>
0.1826

> <Gold.PLP.ligand.clash>
0.0000

> <Gold.PLP.ligand.torsion>
0.7187

> <Gold.PLP.Chemscore.Hbond>
2.7760

> <Gold.PLP.Chemscore.CHOScore>
0.0000

> <Gold.PLP.Chemscore.Metal>
0.0000

> <Gold.Chemscore.Hbonds>
donor molecule, donor type, donor heavy atom, donor atom, acceptor molecule, acceptor atom, score
      L1  H    17    33       P1  8028  0.79
      P1  H  7989  7998       L1     3  1.00
      P1  H  7997  8009       L1     9  1.00

> <Gold.PLP.Chemscore.Internal.Correction>
0.5573

> <Gold.Rescore>
     Score         DG    S(hbond)    S(metal)    S(lipo)     H(rot)  DE(clash)    DE(int)     intcor
     16.30     -18.63       2.69        0.00      84.14       2.22       0.20       2.13       ----

> <Gold.Chemscore.Fitness>
16.2953

> <Gold.Chemscore.DG>
-18.6282

> <Gold.Chemscore.ZeroCoef>
-5.4800

> <Gold.Chemscore.Hbond>
2.6902

> <Gold.Chemscore.Metal>
0.0000

> <Gold.Chemscore.Lipo>
84.1370

> <Gold.Chemscore.Internal_Hbond>
0.0000

> <Gold.Chemscore.DEClash>
0.1997

> <Gold.Chemscore.DEInternal>
2.1332

> <Gold.Chemscore.Rot>
2.2192

> <Gold.Chemscore.Internal.Correction>
   9.000000E+99

> <Gold.Chemscore.Hbonds>
donor molecule, donor type, donor heavy atom, donor atom, acceptor molecule, acceptor atom, score
      L1  H    17    33       P1  8028  0.60
      P1  H  7989  7998       L1     3  0.78
      P1  H  7997  8009       L1     9  1.00

> <Gold.Chemscore.Hbond.Weighted>
-8.9854

> <Gold.Chemscore.Metal.Weighted>
-0.0000

> <Gold.Chemscore.Lipo.Weighted>
-9.8440

> <Gold.Chemscore.Internal_Hbond.Weighted>
0.0000

> <Gold.Chemscore.DEClash.Weighted>
0.1997

> <Gold.Chemscore.DEInternal.Weighted>
2.1332

> <Gold.Chemscore.Rot.Weighted>
5.6812

> <Gold.Chemscore.Internal.Correction.Weighted>
   9.000000E+99

> <Gold.Protein.RotatedTorsions>
[ 6907 6896 6895 6894 ] final  -43.83 input  -60.11 | X-H torsion
[ 7974 7965 7964 7962 ] final  156.49 input  175.53 | X-H torsion
[ 8008 7997 7996 7995 ] final -171.18 input   59.86 | X-H torsion
[ 10167 10162 10161 10158 ] final  141.87 input  -65.29 | X-H torsion
[ 10718 10713 10712 10709 ] final -128.08 input   66.30 | X-H torsion
[ 10763 10752 10751 10750 ] final  134.23 input  -60.55 | X-H torsion
[ 11005 11000 10999 10996 ] final   16.01 input  -57.11 | X-H torsion

> <Gold.Protein.ActiveResidues>
 VAL166  LYS551  ARG553  GLY616  TRP617  ASP618  TYR619  PRO620  LYS621  CYS622 
 ASP623  PHE694  ASN695  SER759  ASP760  ASP761  ALA762  ILE779  LEU786  VAL792 
 PHE793  MET794  SER795  GLU796  ALA797  LYS798  CYS799  TRP800  GLU811  SER814 

> <Gold.Protein.RotatedAtoms>
  150.9396  134.8805  159.7603 H   0  0  0  0  0  0  0  0  0  0  0  0  # atno 6907 bound_to 6896
  152.5074  134.3962  159.9411 H   0  0  0  0  0  0  0  0  0  0  0  0  # atno 6908 bound_to 6896
  151.3983  133.3726  159.2764 H   0  0  0  0  0  0  0  0  0  0  0  0  # atno 6909 bound_to 6896
  144.7960  139.7210  143.6202 H   0  0  0  0  0  0  0  0  0  0  0  0  # atno 7974 bound_to 7965
  155.9282  140.1086  157.1153 H   0  0  0  0  0  0  0  0  0  0  0  0  # atno 8008 bound_to 7997
  154.4066  140.1243  156.4833 H   0  0  0  0  0  0  0  0  0  0  0  0  # atno 8009 bound_to 7997
  155.7113  140.3471  155.4977 H   0  0  0  0  0  0  0  0  0  0  0  0  # atno 8010 bound_to 7997
  139.5009  144.6143  151.6199 H   0  0  0  0  0  0  0  0  0  0  0  0  # atno 10167 bound_to 10162
  156.1917  130.6799  151.0432 H   0  0  0  0  0  0  0  0  0  0  0  0  # atno 10718 bound_to 10713
  153.8201  135.3117  155.3409 H   0  0  0  0  0  0  0  0  0  0  0  0  # atno 10763 bound_to 10752
  154.8016  135.4723  154.0293 H   0  0  0  0  0  0  0  0  0  0  0  0  # atno 10764 bound_to 10752
  153.1699  135.6876  153.8712 H   0  0  0  0  0  0  0  0  0  0  0  0  # atno 10765 bound_to 10752
  140.4519  134.1216  155.7703 H   0  0  0  0  0  0  0  0  0  0  0  0  # atno 11005 bound_to 11000
  146.2228  139.5667  142.9607 LP  0  0  0  0  0  0  0  0  0  0  0  0  # atno 17320 bound_to 7965
  145.5672  141.0398  143.2194 LP  0  0  0  0  0  0  0  0  0  0  0  0  # atno 17321 bound_to 7965
  140.5827  143.9918  150.6277 LP  0  0  0  0  0  0  0  0  0  0  0  0  # atno 17342 bound_to 10162
  140.3072  143.3221  152.0914 LP  0  0  0  0  0  0  0  0  0  0  0  0  # atno 17343 bound_to 10162
  157.6933  131.0802  150.7043 LP  0  0  0  0  0  0  0  0  0  0  0  0  # atno 17370 bound_to 10713
  156.7100  130.4649  149.5550 LP  0  0  0  0  0  0  0  0  0  0  0  0  # atno 17371 bound_to 10713
  141.1660  133.8701  157.1712 LP  0  0  0  0  0  0  0  0  0  0  0  0  # atno 17394 bound_to 11000
  140.0001  135.0031  157.0172 LP  0  0  0  0  0  0  0  0  0  0  0  0  # atno 17395 bound_to 11000

$$$$
