AV-unprocessed.smi:3038|AV-procd|sdf|11588|dock10
  -GOLD-   2272016563D 1   1.00000     0.00000
 Structure written by MMmdl.
 37 39  0  0  0  0  0  0  0  0  2 V2000
  150.2521  140.3737  154.8248 O   0  0  0  0  0  0  0  0  0  0  0  0
  149.5832  141.3986  154.9526 C   0  0  0  0  0  0  0  0  0  0  0  0
  148.3316  141.6064  154.0977 C   0  0  0  0  0  0  0  0  0  0  0  0
  147.4732  140.4366  154.1296 N   0  0  0  0  0  0  0  0  0  0  0  0
  147.0978  139.5971  153.1624 C   0  0  0  0  0  0  0  0  0  0  0  0
  146.2819  138.6595  153.6193 N   0  0  0  0  0  0  0  0  0  0  0  0
  146.1679  138.9689  154.9644 N   0  0  0  0  0  0  0  0  0  0  0  0
  146.8721  140.0227  155.2732 N   0  0  0  0  0  0  0  0  0  0  0  0
  149.8854  142.3748  155.8237 N   0  0  0  0  0  0  0  0  0  0  0  0
  151.0423  142.3837  156.7129 C   0  0  2  0  0  0  0  0  0  0  0  0
  150.8584  141.3739  157.8610 C   0  0  0  0  0  0  0  0  0  0  0  0
  152.0227  141.4541  158.8627 C   0  0  0  0  0  0  0  0  0  0  0  0
  152.1798  142.8320  159.3912 N   0  3  1  0  0  0  0  0  0  0  0  0
  153.2230  142.9119  160.4368 C   0  0  0  0  0  0  0  0  0  0  0  0
  153.3065  141.6799  161.3075 C   0  0  0  0  0  0  0  0  0  0  0  0
  152.6733  142.9444  161.8439 C   0  0  0  0  0  0  0  0  0  0  0  0
  152.4022  143.8162  158.3027 C   0  0  0  0  0  0  0  0  0  0  0  0
  151.2429  143.7934  157.2927 C   0  0  0  0  0  0  0  0  0  0  0  0
  147.7657  142.4649  154.4624 H   0  0  0  0  0  0  0  0  0  0  0  0
  148.6156  141.8215  153.0665 H   0  0  0  0  0  0  0  0  0  0  0  0
  147.4147  139.6760  152.1329 H   0  0  0  0  0  0  0  0  0  0  0  0
  149.2755  143.1795  155.8584 H   0  0  0  0  0  0  0  0  0  0  0  0
  151.9358  142.1183  156.1443 H   0  0  0  0  0  0  0  0  0  0  0  0
  149.9195  141.5706  158.3810 H   0  0  0  0  0  0  0  0  0  0  0  0
  150.7861  140.3606  157.4639 H   0  0  0  0  0  0  0  0  0  0  0  0
  151.8410  140.7642  159.6877 H   0  0  0  0  0  0  0  0  0  0  0  0
  152.9517  141.1380  158.3852 H   0  0  0  0  0  0  0  0  0  0  0  0
  154.1216  143.4718  160.1829 H   0  0  0  0  0  0  0  0  0  0  0  0
  152.6457  140.8437  161.0853 H   0  0  0  0  0  0  0  0  0  0  0  0
  154.2845  141.4079  161.6993 H   0  0  0  0  0  0  0  0  0  0  0  0
  153.2346  143.5053  162.5885 H   0  0  0  0  0  0  0  0  0  0  0  0
  151.5927  142.9480  161.9764 H   0  0  0  0  0  0  0  0  0  0  0  0
  152.4952  144.8166  158.7268 H   0  0  0  0  0  0  0  0  0  0  0  0
  153.3449  143.5974  157.7985 H   0  0  0  0  0  0  0  0  0  0  0  0
  151.4391  144.5047  156.4895 H   0  0  0  0  0  0  0  0  0  0  0  0
  150.3280  144.1274  157.7849 H   0  0  0  0  0  0  0  0  0  0  0  0
  151.3059  143.0773  159.8343 H   0  0  0  0  0  0  0  0  0  0  0  0
  1  2  2  0  0  0  0
  2  3  1  0  0  0  0
  2  9  1  0  0  0  0
  3  4  1  0  0  0  0
  3 19  1  0  0  0  0
  3 20  1  0  0  0  0
  4  8  1  0  0  0  0
  4  5  1  0  0  0  0
  5  6  2  0  0  0  0
  5 21  1  0  0  0  0
  6  7  1  0  0  0  0
  7  8  2  0  0  0  0
  9 10  1  0  0  0  0
  9 22  1  0  0  0  0
 10 18  1  0  0  0  0
 10 11  1  0  0  0  0
 10 23  1  0  0  0  0
 11 12  1  0  0  0  0
 11 24  1  0  0  0  0
 11 25  1  0  0  0  0
 12 13  1  0  0  0  0
 12 26  1  0  0  0  0
 12 27  1  0  0  0  0
 13 14  1  0  0  0  0
 13 17  1  0  0  0  0
 13 37  1  0  0  0  0
 14 16  1  0  0  0  0
 14 15  1  0  0  0  0
 14 28  1  0  0  0  0
 15 16  1  0  0  0  0
 15 29  1  0  0  0  0
 15 30  1  0  0  0  0
 16 31  1  0  0  0  0
 16 32  1  0  0  0  0
 17 18  1  0  0  0  0
 17 33  1  0  0  0  0
 17 34  1  0  0  0  0
 18 35  1  0  0  0  0
 18 36  1  0  0  0  0
M  CHG  1  13   1
M  END
> <s_m_source_file>
AV-unprocessed.smi

> <i_m_source_file_index>
3038

> <i_lp_mmshare_version>
43012

> <i_f3d_flags>
0

> <s_epik_input>
bjFubltjSF1uMVtDSDJdQyg9TylbTkhdW0NIXTJbQ0gyXVtDSDJdTihbQ0gyXVtDSDJdMilbQ0hdM1tDSDJdW0NIMl0z

> <s_epik_cmdline>
J2VwaWtfcHl0aG9uJywgJy1waCcsICc3LjAnLCAnLXRuJywgJzgnLCAnLW1hJywgJzIwMCcsICctbWV0YWxfYmluZGluZycsICctaW1hZScsICc8aW5maWxlLm1hZT4nLCAnLW9tYWUnLCAnPG91dGZpbGUubWFlPic=

> <r_lp_tautomer_probability>
1

> <r_epik_Ionization_Penalty>
0.284275

> <r_epik_Ionization_Penalty_Charging>
0.284273

> <r_epik_Ionization_Penalty_Neutral>
2.31262e-06

> <r_epik_State_Penalty>
0.277002

> <r_epik_Charging_Adjusted_Penalty>
0.561274

> <i_epik_Tot_Q>
1

> <i_epik_Tot_abs_Q>
1

> <r_epik_Metal_State_Penalty>
0.277002

> <b_epik_Metal_Only>
0

> <s_lp_Force_Field>
OPLS_2005

> <r_lp_Energy>
27.0237

> <b_lp_Chiralities_Consistent>
1

> <s_lp_Variant>
AV-unprocessed.smi:3038-1

> <Gold.Version>
5.8.1

> <Gold.Id.Protein>
6NUR|6NUR_protein|mol2

> <Gold.PLP.Fitness>
45.6493

> <Gold.PLP.PLP>
-37.6480

> <Gold.PLP.part.hbond>
-2.0000

> <Gold.PLP.part.metal>
0.0000

> <Gold.PLP.part.buried>
-2.6865

> <Gold.PLP.part.nonpolar>
-33.0121

> <Gold.PLP.part.repulsive>
0.6022

> <Gold.PLP.ligand.clash>
0.0000

> <Gold.PLP.ligand.torsion>
1.1301

> <Gold.PLP.Chemscore.Hbond>
2.0000

> <Gold.PLP.Chemscore.CHOScore>
1.0000

> <Gold.PLP.Chemscore.Metal>
0.0000

> <Gold.Chemscore.Hbonds>
donor molecule, donor type, donor heavy atom, donor atom, acceptor molecule, acceptor atom, score
      L1  H     9    22       P1  8028  1.00
      P1  H  7989  7998       L1     1  1.00
      L1  C     5    21       P1  7957  1.00

> <Gold.PLP.Chemscore.Internal.Correction>
1.2615

> <Gold.Rescore>
     Score         DG    S(hbond)    S(metal)    S(lipo)     H(rot)  DE(clash)    DE(int)     intcor
     14.67     -15.72       1.67        0.00      89.22       2.25       0.01       1.03       ----

> <Gold.Chemscore.Fitness>
14.6731

> <Gold.Chemscore.DG>
-15.7167

> <Gold.Chemscore.ZeroCoef>
-5.4800

> <Gold.Chemscore.Hbond>
1.6664

> <Gold.Chemscore.Metal>
0.0000

> <Gold.Chemscore.Lipo>
89.2156

> <Gold.Chemscore.Internal_Hbond>
0.0000

> <Gold.Chemscore.DEClash>
0.0144

> <Gold.Chemscore.DEInternal>
1.0292

> <Gold.Chemscore.Rot>
2.2528

> <Gold.Chemscore.Internal.Correction>
   9.000000E+99

> <Gold.Chemscore.Hbonds>
donor molecule, donor type, donor heavy atom, donor atom, acceptor molecule, acceptor atom, score
      L1  H     9    22       P1  8028  0.97
      P1  H  7989  7998       L1     1  0.37

> <Gold.Chemscore.Hbond.Weighted>
-5.5657

> <Gold.Chemscore.Metal.Weighted>
-0.0000

> <Gold.Chemscore.Lipo.Weighted>
-10.4382

> <Gold.Chemscore.Internal_Hbond.Weighted>
0.0000

> <Gold.Chemscore.DEClash.Weighted>
0.0144

> <Gold.Chemscore.DEInternal.Weighted>
1.0292

> <Gold.Chemscore.Rot.Weighted>
5.7672

> <Gold.Chemscore.Internal.Correction.Weighted>
   9.000000E+99

> <Gold.Protein.RotatedTorsions>
[ 6907 6896 6895 6894 ] final  152.24 input  -60.11 | X-H torsion
[ 7974 7965 7964 7962 ] final -122.21 input  175.53 | X-H torsion
[ 8008 7997 7996 7995 ] final   62.20 input   59.86 | X-H torsion
[ 10167 10162 10161 10158 ] final   84.31 input  -65.29 | X-H torsion
[ 10718 10713 10712 10709 ] final  168.32 input   66.30 | X-H torsion
[ 10763 10752 10751 10750 ] final  -93.09 input  -60.55 | X-H torsion
[ 11005 11000 10999 10996 ] final  117.77 input  -57.11 | X-H torsion

> <Gold.Protein.ActiveResidues>
 VAL166  LYS551  ARG553  GLY616  TRP617  ASP618  TYR619  PRO620  LYS621  CYS622 
 ASP623  PHE694  ASN695  SER759  ASP760  ASP761  ALA762  ILE779  LEU786  VAL792 
 PHE793  MET794  SER795  GLU796  ALA797  LYS798  CYS799  TRP800  GLU811  SER814 

> <Gold.Protein.RotatedAtoms>
  152.0894  133.4193  159.4536 H   0  0  0  0  0  0  0  0  0  0  0  0  # atno 6907 bound_to 6896
  150.6862  134.2889  159.4667 H   0  0  0  0  0  0  0  0  0  0  0  0  # atno 6908 bound_to 6896
  152.0739  134.9515  160.0625 H   0  0  0  0  0  0  0  0  0  0  0  0  # atno 6909 bound_to 6896
  145.0319  140.8075  143.4318 H   0  0  0  0  0  0  0  0  0  0  0  0  # atno 7974 bound_to 7965
  155.6106  140.3495  155.4621 H   0  0  0  0  0  0  0  0  0  0  0  0  # atno 8008 bound_to 7997
  156.0157  140.1243  157.0433 H   0  0  0  0  0  0  0  0  0  0  0  0  # atno 8009 bound_to 7997
  154.4297  140.1072  156.5879 H   0  0  0  0  0  0  0  0  0  0  0  0  # atno 8010 bound_to 7997
  139.9094  144.6281  150.8554 H   0  0  0  0  0  0  0  0  0  0  0  0  # atno 10167 bound_to 10162
  157.0387  131.0280  151.2720 H   0  0  0  0  0  0  0  0  0  0  0  0  # atno 10718 bound_to 10713
  154.6926  135.5207  153.8413 H   0  0  0  0  0  0  0  0  0  0  0  0  # atno 10763 bound_to 10752
  153.0643  135.6579  154.0400 H   0  0  0  0  0  0  0  0  0  0  0  0  # atno 10764 bound_to 10752
  154.0272  135.2988  155.3353 H   0  0  0  0  0  0  0  0  0  0  0  0  # atno 10765 bound_to 10752
  139.9086  134.9613  156.7401 H   0  0  0  0  0  0  0  0  0  0  0  0  # atno 11005 bound_to 11000
  145.1759  139.2378  143.5317 LP  0  0  0  0  0  0  0  0  0  0  0  0  # atno 17320 bound_to 7965
  146.3499  140.1521  142.8592 LP  0  0  0  0  0  0  0  0  0  0  0  0  # atno 17321 bound_to 7965
  140.7689  143.3377  151.2273 LP  0  0  0  0  0  0  0  0  0  0  0  0  # atno 17342 bound_to 10162
  139.6956  143.9619  152.2881 LP  0  0  0  0  0  0  0  0  0  0  0  0  # atno 17343 bound_to 10162
  157.5121  130.7945  149.7716 LP  0  0  0  0  0  0  0  0  0  0  0  0  # atno 17370 bound_to 10713
  156.0045  130.3862  150.2482 LP  0  0  0  0  0  0  0  0  0  0  0  0  # atno 17371 bound_to 10713
  140.6856  133.9435  155.7936 LP  0  0  0  0  0  0  0  0  0  0  0  0  # atno 17394 bound_to 11000
  141.0479  134.0528  157.3821 LP  0  0  0  0  0  0  0  0  0  0  0  0  # atno 17395 bound_to 11000

$$$$
