AV-unprocessed.smi:2094|AV-procd|sdf|8553|dock2
  -GOLD-   2272011273D 1   1.00000     0.00000
 Structure written by MMmdl.
 35 36  0  0  0  0  0  0  0  0  3 V2000
  150.1825  134.3782  156.3819 O   0  0  0  0  0  0  0  0  0  0  0  0
  150.3025  135.0771  155.3728 C   0  0  0  0  0  0  0  0  0  0  0  0
  149.3605  135.0396  154.4215 N   0  0  0  0  0  0  0  0  0  0  0  0
  148.1619  134.2141  154.4657 C   0  0  0  0  0  0  0  0  0  0  0  0
  146.9272  135.0406  154.0747 C   0  0  0  0  0  0  0  0  0  0  0  0
  146.5116  134.7999  152.6701 N   0  3  0  0  0  0  0  0  0  0  0  0
  145.2991  135.5767  152.3011 C   0  0  0  0  0  0  0  0  0  0  0  0
  144.9712  135.4221  150.8060 C   0  0  0  0  0  0  0  0  0  0  0  0
  144.8062  133.9442  150.4285 C   0  0  0  0  0  0  0  0  0  0  0  0
  146.0528  133.1552  150.8487 C   0  0  0  0  0  0  0  0  0  0  0  0
  146.3560  133.3568  152.3432 C   0  0  0  0  0  0  0  0  0  0  0  0
  151.3217  135.9204  155.0951 N   0  5  0  0  0  0  0  0  0  0  0  0
  151.1100  137.2467  155.0806 C   0  0  0  0  0  0  0  0  0  0  0  0
  152.0832  138.1427  155.2809 N   0  0  0  0  0  0  0  0  0  0  0  0
  151.6413  139.4655  155.2188 C   0  0  0  0  0  0  0  0  0  0  0  0
  150.3020  139.5794  154.9562 C   0  0  0  0  0  0  0  0  0  0  0  0
  149.5512  138.0192  154.7784 S   0  0  0  0  0  0  0  0  0  0  0  0
  149.4935  135.6251  153.6100 H   0  0  0  0  0  0  0  0  0  0  0  0
  148.2789  133.3708  153.7832 H   0  0  0  0  0  0  0  0  0  0  0  0
  148.0606  133.8063  155.4713 H   0  0  0  0  0  0  0  0  0  0  0  0
  146.0932  134.8389  154.7490 H   0  0  0  0  0  0  0  0  0  0  0  0
  147.1767  136.0956  154.2002 H   0  0  0  0  0  0  0  0  0  0  0  0
  144.4552  135.2466  152.9090 H   0  0  0  0  0  0  0  0  0  0  0  0
  145.4558  136.6332  152.5224 H   0  0  0  0  0  0  0  0  0  0  0  0
  144.0608  135.9718  150.5647 H   0  0  0  0  0  0  0  0  0  0  0  0
  145.7685  135.8663  150.2085 H   0  0  0  0  0  0  0  0  0  0  0  0
  143.9248  133.5325  150.9223 H   0  0  0  0  0  0  0  0  0  0  0  0
  144.6393  133.8444  149.3555 H   0  0  0  0  0  0  0  0  0  0  0  0
  145.9113  132.0950  150.6365 H   0  0  0  0  0  0  0  0  0  0  0  0
  146.9091  133.4774  150.2547 H   0  0  0  0  0  0  0  0  0  0  0  0
  147.2641  132.8096  152.5930 H   0  0  0  0  0  0  0  0  0  0  0  0
  145.5546  132.9300  152.9487 H   0  0  0  0  0  0  0  0  0  0  0  0
  152.3505  140.2649  155.3732 H   0  0  0  0  0  0  0  0  0  0  0  0
  149.7144  140.4792  154.8567 H   0  0  0  0  0  0  0  0  0  0  0  0
  147.2588  135.1546  152.0904 H   0  0  0  0  0  0  0  0  0  0  0  0
  1  2  2  0  0  0  0
  2  3  1  0  0  0  0
  2 12  1  0  0  0  0
  3  4  1  0  0  0  0
  3 18  1  0  0  0  0
  4  5  1  0  0  0  0
  4 19  1  0  0  0  0
  4 20  1  0  0  0  0
  5  6  1  0  0  0  0
  5 21  1  0  0  0  0
  5 22  1  0  0  0  0
  6 11  1  0  0  0  0
  6  7  1  0  0  0  0
  6 35  1  0  0  0  0
  7  8  1  0  0  0  0
  7 23  1  0  0  0  0
  7 24  1  0  0  0  0
  8  9  1  0  0  0  0
  8 25  1  0  0  0  0
  8 26  1  0  0  0  0
  9 10  1  0  0  0  0
  9 27  1  0  0  0  0
  9 28  1  0  0  0  0
 10 11  1  0  0  0  0
 10 29  1  0  0  0  0
 10 30  1  0  0  0  0
 11 31  1  0  0  0  0
 11 32  1  0  0  0  0
 12 13  1  0  0  0  0
 13 17  1  0  0  0  0
 13 14  2  0  0  0  0
 14 15  1  0  0  0  0
 15 16  2  0  0  0  0
 15 33  1  0  0  0  0
 16 17  1  0  0  0  0
 16 34  1  0  0  0  0
M  CHG  1   6   1
M  CHG  1  12  -1
M  END
> <s_m_source_file>
AV-unprocessed.smi

> <i_m_source_file_index>
2094

> <i_lp_mmshare_version>
43012

> <i_f3d_flags>
0

> <s_epik_input>
czFbY0hdW2NIXW5jMVtOSF1DKD1PKVtOSF1bQ0gyXVtDSDJdTjJbQ0gyXVtDSDJdW0NIMl1bQ0gyXVtDSDJdMg==

> <s_epik_cmdline>
J2VwaWtfcHl0aG9uJywgJy1waCcsICc3LjAnLCAnLXRuJywgJzgnLCAnLW1hJywgJzIwMCcsICctbWV0YWxfYmluZGluZycsICctaW1hZScsICc8aW5maWxlLm1hZT4nLCAnLW9tYWUnLCAnPG91dGZpbGUubWFlPic=

> <r_lp_tautomer_probability>
0.999

> <r_epik_Ionization_Penalty>
6.21931

> <r_epik_Ionization_Penalty_Charging>
5.38824

> <r_epik_Ionization_Penalty_Neutral>
0.831074

> <r_epik_State_Penalty>
5.38819

> <r_epik_Charging_Adjusted_Penalty>
10.7764

> <i_epik_Tot_Q>
0

> <i_epik_Tot_abs_Q>
2

> <r_epik_Metal_State_Penalty>
1.41404

> <b_epik_Metal_Only>
1

> <s_lp_Force_Field>
OPLS_2005

> <r_lp_Energy>
7.37815

> <b_lp_Chiralities_Consistent>
1

> <s_lp_Variant>
AV-unprocessed.smi:2094-2

> <Gold.Version>
5.8.1

> <Gold.Id.Protein>
6NUR|6NUR_protein|mol2

> <Gold.PLP.Fitness>
40.0940

> <Gold.PLP.PLP>
-27.3772

> <Gold.PLP.part.hbond>
-3.0000

> <Gold.PLP.part.metal>
0.0000

> <Gold.PLP.part.buried>
-2.3282

> <Gold.PLP.part.nonpolar>
-22.3662

> <Gold.PLP.part.repulsive>
0.1863

> <Gold.PLP.ligand.clash>
0.0000

> <Gold.PLP.ligand.torsion>
1.1676

> <Gold.PLP.Chemscore.Hbond>
5.0000

> <Gold.PLP.Chemscore.CHOScore>
0.0000

> <Gold.PLP.Chemscore.Metal>
0.0000

> <Gold.Chemscore.Hbonds>
donor molecule, donor type, donor heavy atom, donor atom, acceptor molecule, acceptor atom, score
      L1  H     3    18       P1  7948  1.00
      L1  H     6    35       P1  7948  2.00
      P1  H 10752 10763       L1    12  2.00

> <Gold.PLP.Chemscore.Internal.Correction>
0.0521

> <Gold.Rescore>
     Score         DG    S(hbond)    S(metal)    S(lipo)     H(rot)  DE(clash)    DE(int)     intcor
     14.24     -15.41       2.39        0.00      51.19       1.58       0.02       1.15       ----

> <Gold.Chemscore.Fitness>
14.2351

> <Gold.Chemscore.DG>
-15.4066

> <Gold.Chemscore.ZeroCoef>
-5.4800

> <Gold.Chemscore.Hbond>
2.3909

> <Gold.Chemscore.Metal>
0.0000

> <Gold.Chemscore.Lipo>
51.1869

> <Gold.Chemscore.Internal_Hbond>
0.0000

> <Gold.Chemscore.DEClash>
0.0174

> <Gold.Chemscore.DEInternal>
1.1541

> <Gold.Chemscore.Rot>
1.5812

> <Gold.Chemscore.Internal.Correction>
   9.000000E+99

> <Gold.Chemscore.Hbonds>
donor molecule, donor type, donor heavy atom, donor atom, acceptor molecule, acceptor atom, score
      L1  H     3    18       P1  7948  0.25
      L1  H     6    35       P1  7948  0.93
      P1  H 10752 10763       L1    12  0.70

> <Gold.Chemscore.Hbond.Weighted>
-7.9855

> <Gold.Chemscore.Metal.Weighted>
-0.0000

> <Gold.Chemscore.Lipo.Weighted>
-5.9889

> <Gold.Chemscore.Internal_Hbond.Weighted>
0.0000

> <Gold.Chemscore.DEClash.Weighted>
0.0174

> <Gold.Chemscore.DEInternal.Weighted>
1.1541

> <Gold.Chemscore.Rot.Weighted>
4.0478

> <Gold.Chemscore.Internal.Correction.Weighted>
   9.000000E+99

> <Gold.Protein.RotatedTorsions>
[ 6907 6896 6895 6894 ] final -161.28 input  -60.11 | X-H torsion
[ 7974 7965 7964 7962 ] final -171.78 input  175.53 | X-H torsion
[ 8008 7997 7996 7995 ] final  -96.19 input   59.86 | X-H torsion
[ 10167 10162 10161 10158 ] final  128.59 input  -65.29 | X-H torsion
[ 10718 10713 10712 10709 ] final  -17.89 input   66.30 | X-H torsion
[ 10763 10752 10751 10750 ] final   53.61 input  -60.55 | X-H torsion
[ 11005 11000 10999 10996 ] final  -78.79 input  -57.11 | X-H torsion

> <Gold.Protein.ActiveResidues>
 VAL166  LYS551  ARG553  GLY616  TRP617  ASP618  TYR619  PRO620  LYS621  CYS622 
 ASP623  PHE694  ASN695  SER759  ASP760  ASP761  ALA762  ILE779  LEU786  VAL792 
 PHE793  MET794  SER795  GLU796  ALA797  LYS798  CYS799  TRP800  GLU811  SER814 

> <Gold.Protein.RotatedAtoms>
  151.3622  133.3885  159.2690 H   0  0  0  0  0  0  0  0  0  0  0  0  # atno 6907 bound_to 6896
  150.9717  134.9089  159.7802 H   0  0  0  0  0  0  0  0  0  0  0  0  # atno 6908 bound_to 6896
  152.5186  134.3584  159.9328 H   0  0  0  0  0  0  0  0  0  0  0  0  # atno 6909 bound_to 6896
  144.7153  140.1871  143.6352 H   0  0  0  0  0  0  0  0  0  0  0  0  # atno 7974 bound_to 7965
  154.7712  140.0473  157.1053 H   0  0  0  0  0  0  0  0  0  0  0  0  # atno 8008 bound_to 7997
  154.9818  140.3102  155.4924 H   0  0  0  0  0  0  0  0  0  0  0  0  # atno 8009 bound_to 7997
  156.2921  140.2234  156.4917 H   0  0  0  0  0  0  0  0  0  0  0  0  # atno 8010 bound_to 7997
  139.5520  144.6820  151.4296 H   0  0  0  0  0  0  0  0  0  0  0  0  # atno 10167 bound_to 10162
  156.5673  130.4740  149.6379 H   0  0  0  0  0  0  0  0  0  0  0  0  # atno 10718 bound_to 10713
  152.9797  135.5773  154.4770 H   0  0  0  0  0  0  0  0  0  0  0  0  # atno 10763 bound_to 10752
  154.4324  135.2774  155.1905 H   0  0  0  0  0  0  0  0  0  0  0  0  # atno 10764 bound_to 10752
  154.3608  135.6189  153.5743 H   0  0  0  0  0  0  0  0  0  0  0  0  # atno 10765 bound_to 10752
  141.1666  133.7078  156.8024 H   0  0  0  0  0  0  0  0  0  0  0  0  # atno 11005 bound_to 11000
  145.8803  139.2319  143.1609 LP  0  0  0  0  0  0  0  0  0  0  0  0  # atno 17320 bound_to 7965
  146.0001  140.8528  143.0023 LP  0  0  0  0  0  0  0  0  0  0  0  0  # atno 17321 bound_to 7965
  140.6784  143.8137  150.7089 LP  0  0  0  0  0  0  0  0  0  0  0  0  # atno 17342 bound_to 10162
  140.1583  143.4297  152.2084 LP  0  0  0  0  0  0  0  0  0  0  0  0  # atno 17343 bound_to 10162
  156.2746  130.7036  151.1843 LP  0  0  0  0  0  0  0  0  0  0  0  0  # atno 17370 bound_to 10713
  157.7356  131.0571  150.5462 LP  0  0  0  0  0  0  0  0  0  0  0  0  # atno 17371 bound_to 10713
  140.2246  134.8731  157.3413 LP  0  0  0  0  0  0  0  0  0  0  0  0  # atno 17394 bound_to 11000
  140.1952  134.4322  155.7693 LP  0  0  0  0  0  0  0  0  0  0  0  0  # atno 17395 bound_to 11000

$$$$
