#       Name:                AV-unprocessed.smi:1350
#       Creating user name   scv26
#       Creation time:       Fri Mar 27 05:10:49 2020


#       File generated by GOLD software.
#

@<TRIPOS>MOLECULE
AV-unprocessed.smi:1350
    50    52     1
SMALL
NO_CHARGES


@<TRIPOS>ATOM
      1 ****        -2.6946   4.2976   3.1684 C.3            1 S1                 0.0000
      2 ****        -1.9217   3.7419   2.1145 O.3            1 S1                 0.0000
      3 ****        -2.5777   3.1048   1.0805 C.ar           1 S1                 0.0000
      4 ****        -3.9904   2.9876   1.0122 C.ar           1 S1                 0.0000
      5 ****        -4.6064   2.3267  -0.0673 C.ar           1 S1                 0.0000
      6 ****        -3.8230   1.7735  -1.0946 C.ar           1 S1                 0.0000
      7 ****        -2.4224   1.8826  -1.0397 C.ar           1 S1                 0.0000
      8 ****        -1.7965   2.5407   0.0400 C.ar           1 S1                 0.0000
      9 ****        -0.2795   2.6386   0.0415 C.3            1 S1                 0.0000
     10 ****         0.3202   1.3544   0.0052 O.3            1 S1                 0.0000
     11 ****         1.7367   1.4075  -0.0346 C.3            1 S1                 0.0000
     12 ****         2.2901  -0.0240  -0.0668 C.3            1 S1                 0.0000
     13 ****         3.6921   0.0299   0.1109 O.3            1 S1                 0.0000
     14 ****         1.9584  -0.7560  -1.3815 C.3            1 S1                 0.0000
     15 ****         2.4137  -2.1342  -1.3739 N.pl3          1 S1                 0.0000
     16 ****         3.5321  -2.6289  -1.9387 C.2            1 S1                 0.0000
     17 ****         3.7567  -3.9332  -1.8053 N.2            1 S1                 0.0000
     18 ****         2.6551  -4.3319  -1.0675 C.ar           1 S1                 0.0000
     19 ****         2.2866  -5.6083  -0.5851 C.ar           1 S1                 0.0000
     20 ****         1.0982  -5.7760   0.1561 C.ar           1 S1                 0.0000
     21 ****         0.2616  -4.6734   0.4259 C.ar           1 S1                 0.0000
     22 ****         0.6082  -3.3919  -0.0436 C.ar           1 S1                 0.0000
     23 ****         1.7946  -3.2293  -0.7825 C.ar           1 S1                 0.0000
     24 ****        -2.0277   4.7514   3.9013 H              1 S1                 0.0000
     25 ****        -3.2766   3.5322   3.6835 H              1 S1                 0.0000
     26 ****        -3.3633   5.0785   2.8039 H              1 S1                 0.0000
     27 ****        -4.6297   3.3986   1.7784 H              1 S1                 0.0000
     28 ****        -5.6826   2.2452  -0.1067 H              1 S1                 0.0000
     29 ****        -4.2951   1.2674  -1.9237 H              1 S1                 0.0000
     30 ****        -1.8242   1.4575  -1.8325 H              1 S1                 0.0000
     31 ****         0.0224   3.2094  -0.8379 H              1 S1                 0.0000
     32 ****         0.0841   3.1848   0.9117 H              1 S1                 0.0000
     33 ****         2.0746   1.9695  -0.9070 H              1 S1                 0.0000
     34 ****         2.1011   1.9276   0.8531 H              1 S1                 0.0000
     35 ****         1.8757  -0.5799   0.7755 H              1 S1                 0.0000
     36 ****         4.0663   0.5250  -0.6017 H              1 S1                 0.0000
     37 ****         0.8811  -0.7586  -1.5518 H              1 S1                 0.0000
     38 ****         2.4068  -0.2415  -2.2328 H              1 S1                 0.0000
     39 ****         4.2223  -1.9946  -2.4758 H              1 S1                 0.0000
     40 ****         2.9199  -6.4598  -0.7852 H              1 S1                 0.0000
     41 ****         0.8271  -6.7562   0.5199 H              1 S1                 0.0000
     42 ****        -0.6465  -4.8115   0.9942 H              1 S1                 0.0000
     43 ****        -0.0284  -2.5440   0.1614 H              1 S1                 0.0000
     44 ****        -1.2998   3.0749   2.5247 LP             1 S1                 0.0000
     45 ****        -1.3916   4.4883   1.7121 LP             1 S1                 0.0000
     46 ****        -0.0040   0.8738  -0.8096 LP             1 S1                 0.0000
     47 ****         0.0427   0.8495   0.8225 LP             1 S1                 0.0000
     48 ****         4.0678  -0.8968   0.1114 LP             1 S1                 0.0000
     49 ****         3.9049   0.4764   0.9800 LP             1 S1                 0.0000
     50 ****         4.5199  -4.4812  -2.1477 LP             1 S1                 0.0000
@<TRIPOS>BOND
    1    1    2 1     
    2    1   24 1     
    3    1   25 1     
    4    1   26 1     
    5    2    3 1     
    6    3    8 ar    
    7    3    4 ar    
    8    4    5 ar    
    9    4   27 1     
   10    5    6 ar    
   11    5   28 1     
   12    6    7 ar    
   13    6   29 1     
   14    7    8 ar    
   15    7   30 1     
   16    8    9 1     
   17    9   10 1     
   18    9   31 1     
   19    9   32 1     
   20   10   11 1     
   21   11   12 1     
   22   11   33 1     
   23   11   34 1     
   24   12   13 1     
   25   12   14 1     
   26   12   35 1     
   27   13   36 1     
   28   14   15 1     
   29   14   37 1     
   30   14   38 1     
   31   15   23 1     
   32   15   16 1     
   33   16   17 2     
   34   16   39 1     
   35   17   18 1     
   36   18   23 ar    
   37   18   19 ar    
   38   19   20 ar    
   39   19   40 1     
   40   20   21 ar    
   41   20   41 1     
   42   21   22 ar    
   43   21   42 1     
   44   22   23 ar    
   45   22   43 1     
   46    2   44 1     
   47    2   45 1     
   48   10   46 1     
   49   10   47 1     
   50   13   48 1     
   51   13   49 1     
   52   17   50 1     
@<TRIPOS>SUBSTRUCTURE
      1 S1             1
@<TRIPOS>SET
LONE_PAIRS      STATIC     ATOMS    <user>   **** ""
7 44 45 46 47 48 49 50
DONOR_HYDROGENS      STATIC     ATOMS    <user>   **** ""
1 36
ATOM$BLUE        STATIC     ATOMS    COLORGROUP SYSTEM
7 44 45 46 47 48 49 50
ATOM$RED        STATIC     ATOMS    COLORGROUP SYSTEM
1 36
