AV-unprocessed.smi:1839|AV-procd|sdf|7487|dock5
  -GOLD-   22720 9183D 1   1.00000     0.00000
 Structure written by MMmdl.
 47 48  0  0  0  0  0  0  0  0  2 V2000
  146.4205  134.8638  162.4063 C   0  0  0  0  0  0  0  0  0  0  0  0
  146.6836  135.2032  161.0077 N   0  0  0  0  0  0  0  0  0  0  0  0
  145.8259  134.4981  160.0474 C   0  0  0  0  0  0  0  0  0  0  0  0
  147.4354  136.2886  160.6965 C   0  0  0  0  0  0  0  0  0  0  0  0
  147.5937  137.2215  161.4864 O   0  0  0  0  0  0  0  0  0  0  0  0
  147.9714  136.3060  159.4529 N   0  0  0  0  0  0  0  0  0  0  0  0
  148.4828  135.0981  158.7890 C   0  0  0  0  0  0  0  0  0  0  0  0
  148.0816  135.1169  157.3039 C   0  0  0  0  0  0  0  0  0  0  0  0
  148.5732  136.4045  156.6205 C   0  0  0  0  0  0  0  0  0  0  0  0
  148.1413  137.6606  157.4093 C   0  0  2  0  0  0  0  0  0  0  0  0
  148.7279  138.9364  156.7917 C   0  0  0  0  0  0  0  0  0  0  0  0
  149.4258  138.8737  155.7791 O   0  0  0  0  0  0  0  0  0  0  0  0
  148.4442  140.0899  157.4165 N   0  0  0  0  0  0  0  0  0  0  0  0
  148.9197  141.4036  157.0005 C   0  0  0  0  0  0  0  0  0  0  0  0
  150.4524  141.4378  156.8714 C   0  0  0  0  0  0  0  0  0  0  0  0
  151.0859  142.4248  157.8317 C   0  0  0  0  0  0  0  0  0  0  0  0
  151.8577  142.0052  158.9367 C   0  0  0  0  0  0  0  0  0  0  0  0
  152.4288  142.9757  159.7863 C   0  0  0  0  0  0  0  0  0  0  0  0
  152.2168  144.3431  159.5129 C   0  0  0  0  0  0  0  0  0  0  0  0
  151.4387  144.7058  158.3945 C   0  0  0  0  0  0  0  0  0  0  0  0
  150.9090  143.7464  157.6039 N   0  3  0  0  0  0  0  0  0  0  0  0
  148.5559  137.5294  158.8917 C   0  0  0  0  0  0  0  0  0  0  0  0
  147.3050  135.0123  163.0284 H   0  0  0  0  0  0  0  0  0  0  0  0
  146.1284  133.8180  162.5098 H   0  0  0  0  0  0  0  0  0  0  0  0
  145.6151  135.4832  162.8030 H   0  0  0  0  0  0  0  0  0  0  0  0
  145.5487  135.1276  159.2005 H   0  0  0  0  0  0  0  0  0  0  0  0
  144.8933  134.1774  160.5136 H   0  0  0  0  0  0  0  0  0  0  0  0
  146.3265  133.6080  159.6668 H   0  0  0  0  0  0  0  0  0  0  0  0
  149.5699  135.0780  158.8794 H   0  0  0  0  0  0  0  0  0  0  0  0
  148.1324  134.1795  159.2604 H   0  0  0  0  0  0  0  0  0  0  0  0
  148.4913  134.2447  156.7940 H   0  0  0  0  0  0  0  0  0  0  0  0
  146.9973  135.0463  157.2137 H   0  0  0  0  0  0  0  0  0  0  0  0
  149.6611  136.3670  156.5443 H   0  0  0  0  0  0  0  0  0  0  0  0
  148.1936  136.4480  155.5990 H   0  0  0  0  0  0  0  0  0  0  0  0
  147.0522  137.7265  157.3678 H   0  0  0  0  0  0  0  0  0  0  0  0
  147.8611  140.0524  158.2402 H   0  0  0  0  0  0  0  0  0  0  0  0
  148.4496  141.6863  156.0569 H   0  0  0  0  0  0  0  0  0  0  0  0
  148.5904  142.1323  157.7419 H   0  0  0  0  0  0  0  0  0  0  0  0
  150.8660  140.4456  157.0578 H   0  0  0  0  0  0  0  0  0  0  0  0
  150.7426  141.7035  155.8540 H   0  0  0  0  0  0  0  0  0  0  0  0
  152.0133  140.9536  159.1301 H   0  0  0  0  0  0  0  0  0  0  0  0
  153.0231  142.6746  160.6367 H   0  0  0  0  0  0  0  0  0  0  0  0
  152.6456  145.1022  160.1511 H   0  0  0  0  0  0  0  0  0  0  0  0
  151.2260  145.7261  158.1105 H   0  0  0  0  0  0  0  0  0  0  0  0
  148.2214  138.4150  159.4363 H   0  0  0  0  0  0  0  0  0  0  0  0
  149.6419  137.4922  158.9960 H   0  0  0  0  0  0  0  0  0  0  0  0
  150.3496  144.0310  156.7994 H   0  0  0  0  0  0  0  0  0  0  0  0
  1  2  1  0  0  0  0
  1 23  1  0  0  0  0
  1 24  1  0  0  0  0
  1 25  1  0  0  0  0
  2  3  1  0  0  0  0
  2  4  1  0  0  0  0
  3 26  1  0  0  0  0
  3 27  1  0  0  0  0
  3 28  1  0  0  0  0
  4  5  2  0  0  0  0
  4  6  1  0  0  0  0
  6 22  1  0  0  0  0
  6  7  1  0  0  0  0
  7  8  1  0  0  0  0
  7 29  1  0  0  0  0
  7 30  1  0  0  0  0
  8  9  1  0  0  0  0
  8 31  1  0  0  0  0
  8 32  1  0  0  0  0
  9 10  1  0  0  0  0
  9 33  1  0  0  0  0
  9 34  1  0  0  0  0
 10 11  1  0  0  0  0
 10 22  1  0  0  0  0
 10 35  1  0  0  0  0
 11 12  2  0  0  0  0
 11 13  1  0  0  0  0
 13 14  1  0  0  0  0
 13 36  1  0  0  0  0
 14 15  1  0  0  0  0
 14 37  1  0  0  0  0
 14 38  1  0  0  0  0
 15 16  1  0  0  0  0
 15 39  1  0  0  0  0
 15 40  1  0  0  0  0
 16 21  1  0  0  0  0
 16 17  2  0  0  0  0
 17 18  1  0  0  0  0
 17 41  1  0  0  0  0
 18 19  2  0  0  0  0
 18 42  1  0  0  0  0
 19 20  1  0  0  0  0
 19 43  1  0  0  0  0
 20 21  2  0  0  0  0
 20 44  1  0  0  0  0
 21 47  1  0  0  0  0
 22 45  1  0  0  0  0
 22 46  1  0  0  0  0
M  CHG  1  21   1
M  END
> <s_m_source_file>
AV-unprocessed.smi

> <i_m_source_file_index>
1839

> <i_lp_mmshare_version>
43012

> <i_f3d_flags>
0

> <s_epik_input>
W0NIM11OKFtDSDNdKUMoPU8pTjFbQ0gyXVtDSDJdW0NIMl1bQ0BIXShbQ0gyXTEpQyg9TylbTkhdW0NIMl1bQ0gyXWMyW2NIXVtjSF1bY0hdW2NIXW4y

> <s_epik_cmdline>
J2VwaWtfcHl0aG9uJywgJy1waCcsICc3LjAnLCAnLXRuJywgJzgnLCAnLW1hJywgJzIwMCcsICctbWV0YWxfYmluZGluZycsICctaW1hZScsICc8aW5maWxlLm1hZT4nLCAnLW9tYWUnLCAnPG91dGZpbGUubWFlPic=

> <r_epik_Ionization_Penalty>
1.8476

> <r_epik_Ionization_Penalty_Charging>
1.84754

> <r_epik_Ionization_Penalty_Neutral>
5.83857e-05

> <r_epik_State_Penalty>
1.96477

> <r_epik_Charging_Adjusted_Penalty>
3.81231

> <i_epik_Tot_Q>
1

> <i_epik_Tot_abs_Q>
1

> <r_epik_Metal_State_Penalty>
1.99061

> <b_epik_Metal_Only>
0

> <s_lp_Force_Field>
OPLS_2005

> <r_lp_Energy>
52.6854

> <b_lp_Chiralities_Consistent>
1

> <s_lp_Variant>
AV-unprocessed.smi:1839-4

> <Gold.Version>
5.8.1

> <Gold.Id.Protein>
6NUR|6NUR_protein|mol2

> <Gold.PLP.Fitness>
46.8872

> <Gold.PLP.PLP>
-36.8424

> <Gold.PLP.part.hbond>
-2.9274

> <Gold.PLP.part.metal>
0.0000

> <Gold.PLP.part.buried>
-4.1259

> <Gold.PLP.part.nonpolar>
-29.2558

> <Gold.PLP.part.repulsive>
0.1282

> <Gold.PLP.ligand.clash>
0.0000

> <Gold.PLP.ligand.torsion>
1.1564

> <Gold.PLP.Chemscore.Hbond>
3.6720

> <Gold.PLP.Chemscore.CHOScore>
0.0000

> <Gold.PLP.Chemscore.Metal>
0.0000

> <Gold.Chemscore.Hbonds>
donor molecule, donor type, donor heavy atom, donor atom, acceptor molecule, acceptor atom, score
      L1  H    21    47       P1  8028  2.00
      P1  H  6931  6943       L1     5  0.96
      P1  H  6934  6947       L1     5  0.82

> <Gold.PLP.Chemscore.Internal.Correction>
1.3416

> <Gold.Rescore>
     Score         DG    S(hbond)    S(metal)    S(lipo)     H(rot)  DE(clash)    DE(int)     intcor
     17.27     -20.27       2.67        0.00      85.38       1.60       0.03       2.97       ----

> <Gold.Chemscore.Fitness>
17.2698

> <Gold.Chemscore.DG>
-20.2734

> <Gold.Chemscore.ZeroCoef>
-5.4800

> <Gold.Chemscore.Hbond>
2.6686

> <Gold.Chemscore.Metal>
0.0000

> <Gold.Chemscore.Lipo>
85.3761

> <Gold.Chemscore.Internal_Hbond>
0.0000

> <Gold.Chemscore.DEClash>
0.0339

> <Gold.Chemscore.DEInternal>
2.9698

> <Gold.Chemscore.Rot>
1.6049

> <Gold.Chemscore.Internal.Correction>
   9.000000E+99

> <Gold.Chemscore.Hbonds>
donor molecule, donor type, donor heavy atom, donor atom, acceptor molecule, acceptor atom, score
      L1  H    21    47       P1  8028  0.98
      P1  H  6931  6943       L1     5  0.92
      P1  H  6934  6947       L1     5  0.79

> <Gold.Chemscore.Hbond.Weighted>
-8.9131

> <Gold.Chemscore.Metal.Weighted>
-0.0000

> <Gold.Chemscore.Lipo.Weighted>
-9.9890

> <Gold.Chemscore.Internal_Hbond.Weighted>
0.0000

> <Gold.Chemscore.DEClash.Weighted>
0.0339

> <Gold.Chemscore.DEInternal.Weighted>
2.9698

> <Gold.Chemscore.Rot.Weighted>
4.1087

> <Gold.Chemscore.Internal.Correction.Weighted>
   9.000000E+99

> <Gold.Protein.RotatedTorsions>
[ 6907 6896 6895 6894 ] final  121.58 input  -60.11 | X-H torsion
[ 7974 7965 7964 7962 ] final -129.96 input  175.53 | X-H torsion
[ 8008 7997 7996 7995 ] final -103.24 input   59.86 | X-H torsion
[ 10167 10162 10161 10158 ] final   50.31 input  -65.29 | X-H torsion
[ 10718 10713 10712 10709 ] final   51.57 input   66.30 | X-H torsion
[ 10763 10752 10751 10750 ] final   99.31 input  -60.55 | X-H torsion
[ 11005 11000 10999 10996 ] final  -26.14 input  -57.11 | X-H torsion

> <Gold.Protein.ActiveResidues>
 VAL166  LYS551  ARG553  GLY616  TRP617  ASP618  TYR619  PRO620  LYS621  CYS622 
 ASP623  PHE694  ASN695  SER759  ASP760  ASP761  ALA762  ILE779  LEU786  VAL792 
 PHE793  MET794  SER795  GLU796  ALA797  LYS798  CYS799  TRP800  GLU811  SER814 

> <Gold.Protein.RotatedAtoms>
  152.4310  133.7278  159.6569 H   0  0  0  0  0  0  0  0  0  0  0  0  # atno 6907 bound_to 6896
  150.8190  133.8276  159.3153 H   0  0  0  0  0  0  0  0  0  0  0  0  # atno 6908 bound_to 6896
  151.5964  135.1052  160.0102 H   0  0  0  0  0  0  0  0  0  0  0  0  # atno 6909 bound_to 6896
  144.9521  140.7356  143.4781 H   0  0  0  0  0  0  0  0  0  0  0  0  # atno 7974 bound_to 7965
  154.8682  140.0424  157.1708 H   0  0  0  0  0  0  0  0  0  0  0  0  # atno 8008 bound_to 7997
  154.8767  140.2966  155.5428 H   0  0  0  0  0  0  0  0  0  0  0  0  # atno 8009 bound_to 7997
  156.2999  140.2419  156.3764 H   0  0  0  0  0  0  0  0  0  0  0  0  # atno 8010 bound_to 7997
  140.2738  144.3235  150.6283 H   0  0  0  0  0  0  0  0  0  0  0  0  # atno 10167 bound_to 10162
  157.4993  130.8427  149.8297 H   0  0  0  0  0  0  0  0  0  0  0  0  # atno 10718 bound_to 10713
  153.2999  135.4118  155.1243 H   0  0  0  0  0  0  0  0  0  0  0  0  # atno 10763 bound_to 10752
  154.8546  135.3539  154.5867 H   0  0  0  0  0  0  0  0  0  0  0  0  # atno 10764 bound_to 10752
  153.6291  135.7061  153.5340 H   0  0  0  0  0  0  0  0  0  0  0  0  # atno 10765 bound_to 10752
  140.9002  133.7529  156.0534 H   0  0  0  0  0  0  0  0  0  0  0  0  # atno 11005 bound_to 11000
  145.2827  139.1912  143.4782 LP  0  0  0  0  0  0  0  0  0  0  0  0  # atno 17320 bound_to 7965
  146.3325  140.2792  142.8609 LP  0  0  0  0  0  0  0  0  0  0  0  0  # atno 17321 bound_to 7965
  140.5868  143.2169  151.7327 LP  0  0  0  0  0  0  0  0  0  0  0  0  # atno 17342 bound_to 10162
  139.4981  144.3999  152.0192 LP  0  0  0  0  0  0  0  0  0  0  0  0  # atno 17343 bound_to 10162
  156.0219  130.3792  150.1936 LP  0  0  0  0  0  0  0  0  0  0  0  0  # atno 17370 bound_to 10713
  157.0126  130.9955  151.3362 LP  0  0  0  0  0  0  0  0  0  0  0  0  # atno 17371 bound_to 10713
  140.8239  134.3257  157.5372 LP  0  0  0  0  0  0  0  0  0  0  0  0  # atno 17394 bound_to 11000
  139.8741  134.9325  156.3556 LP  0  0  0  0  0  0  0  0  0  0  0  0  # atno 17395 bound_to 11000

$$$$
