AV-unprocessed.smi:1686|AV-procd|sdf|6758|dock1
  -GOLD-   22720 7513D 1   1.00000     0.00000
 Structure written by MMmdl.
 41 43  0  0  0  0  0  0  0  0  1 V2000
  154.2754  136.4622  160.3910 C   0  0  0  0  0  0  0  0  0  0  0  0
  154.1339  136.7280  158.9199 C   0  0  0  0  0  0  0  0  0  0  0  0
  154.9948  136.1718  158.0776 N   0  0  0  0  0  0  0  0  0  0  0  0
  154.6138  136.5832  156.7952 O   0  0  0  0  0  0  0  0  0  0  0  0
  153.5291  137.3782  156.9402 C   0  0  0  0  0  0  0  0  0  0  0  0
  152.7292  138.0973  155.5991 Cl  0  0  0  0  0  0  0  0  0  0  0  0
  153.1629  137.5268  158.2469 C   0  0  0  0  0  0  0  0  0  0  0  0
  152.0226  138.3215  158.8369 C   0  0  0  0  0  0  0  0  0  0  0  0
  151.8479  139.6748  158.1373 C   0  0  0  0  0  0  0  0  0  0  0  0
  152.5891  140.0177  157.2147 O   0  0  0  0  0  0  0  0  0  0  0  0
  150.8392  140.4334  158.5941 N   0  0  0  0  0  0  0  0  0  0  0  0
  150.4502  141.7505  158.0908 C   0  0  2  0  0  0  0  0  0  0  0  0
  149.8777  141.5847  156.6749 C   0  0  0  0  0  0  0  0  0  0  0  0
  151.6695  142.7039  158.1297 C   0  0  2  0  0  0  0  0  0  0  0  0
  152.4676  142.6927  159.4548 C   0  0  0  0  0  0  0  0  0  0  0  0
  152.6062  144.1891  159.7900 C   0  0  2  0  0  0  0  0  0  0  0  0
  151.2486  144.7184  160.2869 C   0  0  0  0  0  0  0  0  0  0  0  0
  150.4107  144.7618  158.9962 C   0  0  0  0  0  0  0  0  0  0  0  0
  151.3876  144.2148  157.9348 C   0  0  1  0  0  0  0  0  0  0  0  0
  152.7047  144.8227  158.4072 C   0  0  0  0  0  0  0  0  0  0  0  0
  153.4208  136.8433  160.9499 H   0  0  0  0  0  0  0  0  0  0  0  0
  155.1720  136.9372  160.7896 H   0  0  0  0  0  0  0  0  0  0  0  0
  154.3464  135.3930  160.5922 H   0  0  0  0  0  0  0  0  0  0  0  0
  151.0845  137.7710  158.7611 H   0  0  0  0  0  0  0  0  0  0  0  0
  152.1796  138.5017  159.9009 H   0  0  0  0  0  0  0  0  0  0  0  0
  150.2869  140.0642  159.3544 H   0  0  0  0  0  0  0  0  0  0  0  0
  149.6579  142.1569  158.7194 H   0  0  0  0  0  0  0  0  0  0  0  0
  149.5104  142.5326  156.2818 H   0  0  0  0  0  0  0  0  0  0  0  0
  149.0391  140.8873  156.6711 H   0  0  0  0  0  0  0  0  0  0  0  0
  150.6302  141.2054  155.9829 H   0  0  0  0  0  0  0  0  0  0  0  0
  152.3480  142.3987  157.3304 H   0  0  0  0  0  0  0  0  0  0  0  0
  151.9633  142.1512  160.2559 H   0  0  0  0  0  0  0  0  0  0  0  0
  153.4441  142.2297  159.3086 H   0  0  0  0  0  0  0  0  0  0  0  0
  153.4350  144.4124  160.4626 H   0  0  0  0  0  0  0  0  0  0  0  0
  150.8064  144.0750  161.0484 H   0  0  0  0  0  0  0  0  0  0  0  0
  151.3507  145.7177  160.7119 H   0  0  0  0  0  0  0  0  0  0  0  0
  149.4858  144.1917  159.0713 H   0  0  0  0  0  0  0  0  0  0  0  0
  150.1351  145.7909  158.7620 H   0  0  0  0  0  0  0  0  0  0  0  0
  151.1141  144.4798  156.9131 H   0  0  0  0  0  0  0  0  0  0  0  0
  152.6966  145.9140  158.4299 H   0  0  0  0  0  0  0  0  0  0  0  0
  153.5711  144.4838  157.8364 H   0  0  0  0  0  0  0  0  0  0  0  0
  1  2  1  0  0  0  0
  1 21  1  0  0  0  0
  1 22  1  0  0  0  0
  1 23  1  0  0  0  0
  2  7  1  0  0  0  0
  2  3  2  0  0  0  0
  3  4  1  0  0  0  0
  4  5  1  0  0  0  0
  5  6  1  0  0  0  0
  5  7  2  0  0  0  0
  7  8  1  0  0  0  0
  8  9  1  0  0  0  0
  8 24  1  0  0  0  0
  8 25  1  0  0  0  0
  9 10  2  0  0  0  0
  9 11  1  0  0  0  0
 11 12  1  0  0  0  0
 11 26  1  0  0  0  0
 12 13  1  0  0  0  0
 12 14  1  0  0  0  0
 12 27  1  0  0  0  0
 13 28  1  0  0  0  0
 13 29  1  0  0  0  0
 13 30  1  0  0  0  0
 14 19  1  0  0  0  0
 14 15  1  0  0  0  0
 14 31  1  0  0  0  0
 15 16  1  0  0  0  0
 15 32  1  0  0  0  0
 15 33  1  0  0  0  0
 16 20  1  0  0  0  0
 16 17  1  0  0  0  0
 16 34  1  0  0  0  0
 17 18  1  0  0  0  0
 17 35  1  0  0  0  0
 17 36  1  0  0  0  0
 18 19  1  0  0  0  0
 18 37  1  0  0  0  0
 18 38  1  0  0  0  0
 19 20  1  0  0  0  0
 19 39  1  0  0  0  0
 20 40  1  0  0  0  0
 20 41  1  0  0  0  0
M  END
> <s_m_source_file>
AV-unprocessed.smi

> <i_m_source_file_index>
1686

> <i_lp_mmshare_version>
43012

> <i_f3d_flags>
0

> <s_epik_input>
W0NIM11jMW5vYyhDbCljMVtDSDJdQyg9TylbTkhdW0NASF0oW0NIM10pW0NASF0oW0NIMl1bQ0BIXTIzKVtDQEhdKFtDSDJdMylbQ0gyXVtDSDJdMg==

> <s_epik_cmdline>
J2VwaWtfcHl0aG9uJywgJy1waCcsICc3LjAnLCAnLXRuJywgJzgnLCAnLW1hJywgJzIwMCcsICctbWV0YWxfYmluZGluZycsICctaW1hZScsICc8aW5maWxlLm1hZT4nLCAnLW9tYWUnLCAnPG91dGZpbGUubWFlPic=

> <r_lp_tautomer_probability>
1

> <r_epik_Ionization_Penalty>
2.01576e-08

> <r_epik_Ionization_Penalty_Charging>
0

> <r_epik_Ionization_Penalty_Neutral>
2.01576e-08

> <r_epik_State_Penalty>
-0

> <r_epik_Charging_Adjusted_Penalty>
0

> <i_epik_Tot_Q>
0

> <i_epik_Tot_abs_Q>
0

> <r_epik_Metal_State_Penalty>
-0

> <b_epik_Metal_Only>
0

> <s_lp_Force_Field>
OPLS_2005

> <r_lp_Energy>
47.064

> <b_lp_Chiralities_Consistent>
1

> <s_lp_Variant>
AV-unprocessed.smi:1686-1

> <Gold.Version>
5.8.1

> <Gold.Id.Protein>
6NUR|6NUR_protein|mol2

> <Gold.PLP.Fitness>
41.5566

> <Gold.PLP.PLP>
-36.4939

> <Gold.PLP.part.hbond>
-2.0000

> <Gold.PLP.part.metal>
0.0000

> <Gold.PLP.part.buried>
-5.1152

> <Gold.PLP.part.nonpolar>
-31.0349

> <Gold.PLP.part.repulsive>
0.1767

> <Gold.PLP.ligand.clash>
0.0000

> <Gold.PLP.ligand.torsion>
0.4776

> <Gold.PLP.Chemscore.Hbond>
1.9920

> <Gold.PLP.Chemscore.CHOScore>
0.0000

> <Gold.PLP.Chemscore.Metal>
0.0000

> <Gold.Chemscore.Hbonds>
donor molecule, donor type, donor heavy atom, donor atom, acceptor molecule, acceptor atom, score
      P1  H  7997  8010       L1    10  1.00
      P1  H 10752 10765       L1     4  0.94

> <Gold.PLP.Chemscore.Internal.Correction>
0.0418

> <Gold.Rescore>
     Score         DG    S(hbond)    S(metal)    S(lipo)     H(rot)  DE(clash)    DE(int)     intcor
     21.26     -22.63       1.95        0.00     122.86       1.46       0.27       1.10       ----

> <Gold.Chemscore.Fitness>
21.2616

> <Gold.Chemscore.DG>
-22.6275

> <Gold.Chemscore.ZeroCoef>
-5.4800

> <Gold.Chemscore.Hbond>
1.9528

> <Gold.Chemscore.Metal>
0.0000

> <Gold.Chemscore.Lipo>
122.8639

> <Gold.Chemscore.Internal_Hbond>
0.0000

> <Gold.Chemscore.DEClash>
0.2684

> <Gold.Chemscore.DEInternal>
1.0975

> <Gold.Chemscore.Rot>
1.4648

> <Gold.Chemscore.Internal.Correction>
   9.000000E+99

> <Gold.Chemscore.Hbonds>
donor molecule, donor type, donor heavy atom, donor atom, acceptor molecule, acceptor atom, score
      P1  H  7997  8010       L1    10  0.98
      P1  H 10752 10765       L1     4  0.49

> <Gold.Chemscore.Hbond.Weighted>
-6.5224

> <Gold.Chemscore.Metal.Weighted>
-0.0000

> <Gold.Chemscore.Lipo.Weighted>
-14.3751

> <Gold.Chemscore.Internal_Hbond.Weighted>
0.0000

> <Gold.Chemscore.DEClash.Weighted>
0.2684

> <Gold.Chemscore.DEInternal.Weighted>
1.0975

> <Gold.Chemscore.Rot.Weighted>
3.7500

> <Gold.Chemscore.Internal.Correction.Weighted>
   9.000000E+99

> <Gold.Protein.RotatedTorsions>
[ 6907 6896 6895 6894 ] final  136.87 input  -60.11 | X-H torsion
[ 7974 7965 7964 7962 ] final  164.79 input  175.53 | X-H torsion
[ 8008 7997 7996 7995 ] final   63.56 input   59.86 | X-H torsion
[ 10167 10162 10161 10158 ] final  129.16 input  -65.29 | X-H torsion
[ 10718 10713 10712 10709 ] final   44.33 input   66.30 | X-H torsion
[ 10763 10752 10751 10750 ] final  -83.89 input  -60.55 | X-H torsion
[ 11005 11000 10999 10996 ] final -137.84 input  -57.11 | X-H torsion

> <Gold.Protein.ActiveResidues>
 VAL166  LYS551  ARG553  GLY616  TRP617  ASP618  TYR619  PRO620  LYS621  CYS622 
 ASP623  PHE694  ASN695  SER759  ASP760  ASP761  ALA762  ILE779  LEU786  VAL792 
 PHE793  MET794  SER795  GLU796  ALA797  LYS798  CYS799  TRP800  GLU811  SER814 

> <Gold.Protein.RotatedAtoms>
  152.2845  133.5502  159.5518 H   0  0  0  0  0  0  0  0  0  0  0  0  # atno 6907 bound_to 6896
  150.7209  134.0516  159.3809 H   0  0  0  0  0  0  0  0  0  0  0  0  # atno 6908 bound_to 6896
  151.8425  135.0585  160.0500 H   0  0  0  0  0  0  0  0  0  0  0  0  # atno 6909 bound_to 6896
  144.7530  139.8376  143.6359 H   0  0  0  0  0  0  0  0  0  0  0  0  # atno 7974 bound_to 7965
  155.6322  140.3496  155.4687 H   0  0  0  0  0  0  0  0  0  0  0  0  # atno 8008 bound_to 7997
  155.9994  140.1210  157.0586 H   0  0  0  0  0  0  0  0  0  0  0  0  # atno 8009 bound_to 7997
  154.4244  140.1103  156.5661 H   0  0  0  0  0  0  0  0  0  0  0  0  # atno 8010 bound_to 7997
  139.5491  144.6798  151.4379 H   0  0  0  0  0  0  0  0  0  0  0  0  # atno 10167 bound_to 10162
  157.4257  130.7995  149.7556 H   0  0  0  0  0  0  0  0  0  0  0  0  # atno 10718 bound_to 10713
  154.5930  135.5540  153.7298 H   0  0  0  0  0  0  0  0  0  0  0  0  # atno 10763 bound_to 10752
  153.0124  135.6348  154.1822 H   0  0  0  0  0  0  0  0  0  0  0  0  # atno 10764 bound_to 10752
  154.1762  135.2889  155.3046 H   0  0  0  0  0  0  0  0  0  0  0  0  # atno 10765 bound_to 10752
  140.8672  134.2095  157.4672 H   0  0  0  0  0  0  0  0  0  0  0  0  # atno 11005 bound_to 11000
  146.1505  139.4587  143.0052 LP  0  0  0  0  0  0  0  0  0  0  0  0  # atno 17320 bound_to 7965
  145.6877  141.0173  143.1572 LP  0  0  0  0  0  0  0  0  0  0  0  0  # atno 17321 bound_to 7965
  140.6749  143.8213  150.7045 LP  0  0  0  0  0  0  0  0  0  0  0  0  # atno 17342 bound_to 10162
  140.1648  143.4244  152.2042 LP  0  0  0  0  0  0  0  0  0  0  0  0  # atno 17343 bound_to 10162
  155.9895  130.3951  150.3068 LP  0  0  0  0  0  0  0  0  0  0  0  0  # atno 17370 bound_to 10713
  157.1220  131.0249  151.3005 LP  0  0  0  0  0  0  0  0  0  0  0  0  # atno 17371 bound_to 10713
  139.8710  134.9757  156.4895 LP  0  0  0  0  0  0  0  0  0  0  0  0  # atno 17394 bound_to 11000
  140.8615  133.8056  155.9270 LP  0  0  0  0  0  0  0  0  0  0  0  0  # atno 17395 bound_to 11000

$$$$
