#       Name:                AV-unprocessed.smi:2607
#       Creating user name   scv26
#       Creation time:       Fri Mar 27 14:21:03 2020


#       File generated by GOLD software.
#

@<TRIPOS>MOLECULE
AV-unprocessed.smi:2607
    28    29     1
SMALL
NO_CHARGES


@<TRIPOS>ATOM
      1 ****        -2.0018  -0.1495   0.7757 C.3            1 S1                 0.0000
      2 ****        -0.4848  -0.3481   0.5915 C.3            1 S1                 0.0000
      3 ****         0.0566   0.4463  -0.6082 C.ar           1 S1                 0.0000
      4 ****         0.5818  -0.1849  -1.7647 C.ar           1 S1                 0.0000
      5 ****         1.0540   0.5202  -2.8167 N.ar           1 S1                 0.0000
      6 ****         1.0006   1.8661  -2.7176 C.ar           1 S1                 0.0000
      7 ****         0.4760   2.5040  -1.5750 C.ar           1 S1                 0.0000
      8 ****         0.0035   1.7995  -0.5239 N.ar           1 S1                 0.0000
      9 ****        -0.1794  -1.7720   0.5220 N.am           1 S1                 0.0000
     10 ****         0.6540  -2.1811   1.4873 C.2            1 S1                 0.0000
     11 ****         1.0893  -3.3209   1.6310 O.2            1 S1                 0.0000
     12 ****         0.9173  -1.1329   2.2713 N.am           1 S1                 0.0000
     13 ****         0.2919  -0.0279   1.8695 C.2            1 S1                 0.0000
     14 ****         0.3148   1.0668   2.4304 O.2            1 S1                 0.0000
     15 ****        -2.2554   0.9031   0.9075 H              1 S1                 0.0000
     16 ****        -2.3753  -0.6867   1.6489 H              1 S1                 0.0000
     17 ****        -2.5516  -0.5130  -0.0931 H              1 S1                 0.0000
     18 ****         0.6295  -1.2591  -1.8612 H              1 S1                 0.0000
     19 ****         1.3764   2.4371  -3.5536 H              1 S1                 0.0000
     20 ****         0.4352   3.5807  -1.5039 H              1 S1                 0.0000
     21 ****        -0.5392  -2.3711  -0.2066 H              1 S1                 0.0000
     22 ****         1.5076  -1.1776   3.0891 H              1 S1                 0.0000
     23 ****         1.4244   0.0679  -3.6280 LP             1 S1                 0.0000
     24 ****        -0.3702   2.2565   0.2833 LP             1 S1                 0.0000
     25 ****         0.8232  -4.0420   0.9914 LP             1 S1                 0.0000
     26 ****         1.7096  -3.5275   2.3876 LP             1 S1                 0.0000
     27 ****        -0.2029   1.8338   2.0513 LP             1 S1                 0.0000
     28 ****         0.8510   1.1897   3.2655 LP             1 S1                 0.0000
@<TRIPOS>BOND
    1    1    2 1     
    2    1   15 1     
    3    1   16 1     
    4    1   17 1     
    5    2   13 1     
    6    2    3 1     
    7    2    9 1     
    8    3    8 ar    
    9    3    4 ar    
   10    4    5 ar    
   11    4   18 1     
   12    5    6 ar    
   13    6    7 ar    
   14    6   19 1     
   15    7    8 ar    
   16    7   20 1     
   17    9   10 am    
   18    9   21 1     
   19   10   11 2     
   20   10   12 am    
   21   12   13 am    
   22   12   22 1     
   23   13   14 2     
   24    5   23 1     
   25    8   24 1     
   26   11   25 1     
   27   11   26 1     
   28   14   27 1     
   29   14   28 1     
@<TRIPOS>SUBSTRUCTURE
      1 S1             1
@<TRIPOS>SET
LONE_PAIRS      STATIC     ATOMS    <user>   **** ""
6 23 24 25 26 27 28
DONOR_HYDROGENS      STATIC     ATOMS    <user>   **** ""
2 21 22
ATOM$BLUE        STATIC     ATOMS    COLORGROUP SYSTEM
6 23 24 25 26 27 28
ATOM$RED        STATIC     ATOMS    COLORGROUP SYSTEM
2 21 22
