AV-unprocessed.smi:482|AV-procd|sdf|2684|dock3
  -GOLD-   2262023113D 1   1.00000     0.00000
 Structure written by MMmdl.
 28 29  0  0  0  0  0  0  0  0  1 V2000
  154.3234  139.9019  160.1928 C   0  0  0  0  0  0  0  0  0  0  0  0
  153.3133  140.8386  159.6654 N   0  0  0  0  0  0  0  0  0  0  0  0
  152.7013  140.5304  158.4785 C   0  0  0  0  0  0  0  0  0  0  0  0
  152.9262  139.5219  157.8083 O   0  0  0  0  0  0  0  0  0  0  0  0
  151.7160  141.5246  158.0449 C   0  0  0  0  0  0  0  0  0  0  0  0
  151.4346  142.6436  158.7548 C   0  0  0  0  0  0  0  0  0  0  0  0
  150.4622  143.4121  158.1246 N   0  0  0  0  0  0  0  0  0  0  0  0
  150.2037  142.6913  157.0323 C   0  0  0  0  0  0  0  0  0  0  0  0
  150.9104  141.5494  156.9082 N   0  0  0  0  0  0  0  0  0  0  0  0
  150.8179  140.5924  155.8190 C   0  0  0  0  0  0  0  0  0  0  0  0
  149.5179  140.7652  155.0212 C   0  0  0  0  0  0  0  0  0  0  0  0
  149.8204  141.0355  153.6701 O   0  0  0  0  0  0  0  0  0  0  0  0
  152.1254  142.8679  159.9714 N   0  0  0  0  0  0  0  0  0  0  0  0
  151.7986  144.0912  160.7101 C   0  0  0  0  0  0  0  0  0  0  0  0
  153.0600  141.9684  160.4257 C   0  0  0  0  0  0  0  0  0  0  0  0
  153.6586  142.1644  161.4869 O   0  0  0  0  0  0  0  0  0  0  0  0
  154.5156  139.0316  159.5646 H   0  0  0  0  0  0  0  0  0  0  0  0
  154.0141  139.5197  161.1670 H   0  0  0  0  0  0  0  0  0  0  0  0
  155.2823  140.4071  160.3202 H   0  0  0  0  0  0  0  0  0  0  0  0
  149.4755  143.0041  156.2982 H   0  0  0  0  0  0  0  0  0  0  0  0
  151.6798  140.7311  155.1647 H   0  0  0  0  0  0  0  0  0  0  0  0
  150.8980  139.5834  156.2244 H   0  0  0  0  0  0  0  0  0  0  0  0
  148.9055  139.8649  155.0741 H   0  0  0  0  0  0  0  0  0  0  0  0
  148.9252  141.5873  155.4232 H   0  0  0  0  0  0  0  0  0  0  0  0
  149.5355  140.3025  153.1456 H   0  0  0  0  0  0  0  0  0  0  0  0
  152.3511  144.2175  161.6417 H   0  0  0  0  0  0  0  0  0  0  0  0
  150.7370  144.1012  160.9595 H   0  0  0  0  0  0  0  0  0  0  0  0
  152.0039  144.9651  160.0908 H   0  0  0  0  0  0  0  0  0  0  0  0
  1  2  1  0  0  0  0
  1 17  1  0  0  0  0
  1 18  1  0  0  0  0
  1 19  1  0  0  0  0
  2 15  1  0  0  0  0
  2  3  1  0  0  0  0
  3  4  2  0  0  0  0
  3  5  1  0  0  0  0
  5  9  1  0  0  0  0
  5  6  2  0  0  0  0
  6  7  1  0  0  0  0
  6 13  1  0  0  0  0
  7  8  2  0  0  0  0
  8  9  1  0  0  0  0
  8 20  1  0  0  0  0
  9 10  1  0  0  0  0
 10 11  1  0  0  0  0
 10 21  1  0  0  0  0
 10 22  1  0  0  0  0
 11 12  1  0  0  0  0
 11 23  1  0  0  0  0
 11 24  1  0  0  0  0
 12 25  1  0  0  0  0
 13 14  1  0  0  0  0
 13 15  1  0  0  0  0
 14 26  1  0  0  0  0
 14 27  1  0  0  0  0
 14 28  1  0  0  0  0
 15 16  2  0  0  0  0
M  END
> <s_m_source_file>
AV-unprocessed.smi

> <i_m_source_file_index>
482

> <i_lp_mmshare_version>
43012

> <i_f3d_flags>
0

> <s_epik_input>
Tz1jMW4oW0NIM10pYyg9TyluKFtDSDNdKWMoYzEyKW5bY0hdbjJbQ0gyXVtDSDJdW09IXQ==

> <s_epik_cmdline>
J2VwaWtfcHl0aG9uJywgJy1waCcsICc3LjAnLCAnLXRuJywgJzgnLCAnLW1hJywgJzIwMCcsICctbWV0YWxfYmluZGluZycsICctaW1hZScsICc8aW5maWxlLm1hZT4nLCAnLW9tYWUnLCAnPG91dGZpbGUubWFlPic=

> <r_lp_tautomer_probability>
1

> <r_epik_Ionization_Penalty>
1.52212e-06

> <r_epik_Ionization_Penalty_Charging>
3.74189e-09

> <r_epik_Ionization_Penalty_Neutral>
1.51838e-06

> <r_epik_State_Penalty>
-0

> <r_epik_Charging_Adjusted_Penalty>
3.74189e-09

> <i_epik_Tot_Q>
0

> <i_epik_Tot_abs_Q>
0

> <r_epik_Metal_State_Penalty>
-0

> <b_epik_Metal_Only>
0

> <s_lp_Force_Field>
OPLS_2005

> <r_lp_Energy>
31.9253

> <b_lp_Chiralities_Consistent>
1

> <s_lp_Variant>
AV-unprocessed.smi:482-1

> <Gold.Version>
5.8.1

> <Gold.Id.Protein>
6NUR|6NUR_protein|mol2

> <Gold.PLP.Fitness>
42.8233

> <Gold.PLP.PLP>
-32.5328

> <Gold.PLP.part.hbond>
-3.6398

> <Gold.PLP.part.metal>
0.0000

> <Gold.PLP.part.buried>
0.6225

> <Gold.PLP.part.nonpolar>
-28.3457

> <Gold.PLP.part.repulsive>
0.1691

> <Gold.PLP.ligand.clash>
0.0000

> <Gold.PLP.ligand.torsion>
0.6263

> <Gold.PLP.Chemscore.Hbond>
2.8477

> <Gold.PLP.Chemscore.CHOScore>
1.0000

> <Gold.PLP.Chemscore.Metal>
0.0000

> <Gold.Chemscore.Hbonds>
donor molecule, donor type, donor heavy atom, donor atom, acceptor molecule, acceptor atom, score
      L1  H    12    25       P1  7957  0.59
      P1  H  7989  7998       L1    12  0.32
      P1  H  7997  8010       L1     4  0.95
      P1  H  8011  8017       L1    12  0.94
      L1  C     8    20       P1  8028  0.73

> <Gold.PLP.Chemscore.Internal.Correction>
0.0001

> <Gold.Rescore>
     Score         DG    S(hbond)    S(metal)    S(lipo)     H(rot)  DE(clash)    DE(int)     intcor
      7.60      -8.44       1.08        0.00      38.99       2.03       0.26       0.58       ----

> <Gold.Chemscore.Fitness>
7.6008

> <Gold.Chemscore.DG>
-8.4362

> <Gold.Chemscore.ZeroCoef>
-5.4800

> <Gold.Chemscore.Hbond>
1.0783

> <Gold.Chemscore.Metal>
0.0000

> <Gold.Chemscore.Lipo>
38.9858

> <Gold.Chemscore.Internal_Hbond>
0.0000

> <Gold.Chemscore.DEClash>
0.2566

> <Gold.Chemscore.DEInternal>
0.5788

> <Gold.Chemscore.Rot>
2.0338

> <Gold.Chemscore.Internal.Correction>
   9.000000E+99

> <Gold.Chemscore.Hbonds>
donor molecule, donor type, donor heavy atom, donor atom, acceptor molecule, acceptor atom, score
      L1  H    12    25       P1  7957  0.56
      P1  H  7989  7998       L1    12  0.05
      P1  H  7997  8010       L1     4  0.21
      P1  H  8011  8017       L1    12  0.23

> <Gold.Chemscore.Hbond.Weighted>
-3.6014

> <Gold.Chemscore.Metal.Weighted>
-0.0000

> <Gold.Chemscore.Lipo.Weighted>
-4.5613

> <Gold.Chemscore.Internal_Hbond.Weighted>
0.0000

> <Gold.Chemscore.DEClash.Weighted>
0.2566

> <Gold.Chemscore.DEInternal.Weighted>
0.5788

> <Gold.Chemscore.Rot.Weighted>
5.2065

> <Gold.Chemscore.Internal.Correction.Weighted>
   9.000000E+99

> <Gold.Protein.RotatedTorsions>
[ 6907 6896 6895 6894 ] final  -71.82 input  -60.11 | X-H torsion
[ 7974 7965 7964 7962 ] final -146.53 input  175.53 | X-H torsion
[ 8008 7997 7996 7995 ] final   27.04 input   59.86 | X-H torsion
[ 10167 10162 10161 10158 ] final  128.10 input  -65.29 | X-H torsion
[ 10718 10713 10712 10709 ] final -146.25 input   66.30 | X-H torsion
[ 10763 10752 10751 10750 ] final  133.39 input  -60.55 | X-H torsion
[ 11005 11000 10999 10996 ] final -114.22 input  -57.11 | X-H torsion

> <Gold.Protein.ActiveResidues>
 VAL166  LYS551  ARG553  GLY616  TRP617  ASP618  TYR619  PRO620  LYS621  CYS622 
 ASP623  PHE694  ASN695  SER759  ASP760  ASP761  ALA762  ILE779  LEU786  VAL792 
 PHE793  MET794  SER795  GLU796  ALA797  LYS798  CYS799  TRP800  GLU811  SER814 

> <Gold.Protein.RotatedAtoms>
  150.7196  134.5253  159.5673 H   0  0  0  0  0  0  0  0  0  0  0  0  # atno 6907 bound_to 6896
  152.2799  134.7838  160.0407 H   0  0  0  0  0  0  0  0  0  0  0  0  # atno 6908 bound_to 6896
  151.8488  133.3401  159.3703 H   0  0  0  0  0  0  0  0  0  0  0  0  # atno 6909 bound_to 6896
  144.8153  140.5444  143.5615 H   0  0  0  0  0  0  0  0  0  0  0  0  # atno 7974 bound_to 7965
  155.0367  140.3164  155.4739 H   0  0  0  0  0  0  0  0  0  0  0  0  # atno 8008 bound_to 7997
  156.2863  140.2170  156.5433 H   0  0  0  0  0  0  0  0  0  0  0  0  # atno 8009 bound_to 7997
  154.7324  140.0480  157.0726 H   0  0  0  0  0  0  0  0  0  0  0  0  # atno 8010 bound_to 7997
  139.5544  144.6838  151.4226 H   0  0  0  0  0  0  0  0  0  0  0  0  # atno 10167 bound_to 10162
  156.3926  130.7893  151.2097 H   0  0  0  0  0  0  0  0  0  0  0  0  # atno 10718 bound_to 10713
  153.8063  135.3135  155.3396 H   0  0  0  0  0  0  0  0  0  0  0  0  # atno 10763 bound_to 10752
  154.8069  135.4692  154.0418 H   0  0  0  0  0  0  0  0  0  0  0  0  # atno 10764 bound_to 10752
  153.1782  135.6889  153.8602 H   0  0  0  0  0  0  0  0  0  0  0  0  # atno 10765 bound_to 10752
  141.0565  133.9604  157.2744 H   0  0  0  0  0  0  0  0  0  0  0  0  # atno 11005 bound_to 11000
  145.5229  139.1476  143.3542 LP  0  0  0  0  0  0  0  0  0  0  0  0  # atno 17320 bound_to 7965
  146.2456  140.5370  142.8915 LP  0  0  0  0  0  0  0  0  0  0  0  0  # atno 17321 bound_to 7965
  140.6814  143.8073  150.7127 LP  0  0  0  0  0  0  0  0  0  0  0  0  # atno 17342 bound_to 10162
  140.1527  143.4343  152.2120 LP  0  0  0  0  0  0  0  0  0  0  0  0  # atno 17343 bound_to 10162
  157.7500  131.0311  150.4166 LP  0  0  0  0  0  0  0  0  0  0  0  0  # atno 17370 bound_to 10713
  156.4431  130.3995  149.6684 LP  0  0  0  0  0  0  0  0  0  0  0  0  # atno 17371 bound_to 10713
  139.9395  135.0193  156.8662 LP  0  0  0  0  0  0  0  0  0  0  0  0  # atno 17394 bound_to 11000
  140.5953  134.0223  155.7515 LP  0  0  0  0  0  0  0  0  0  0  0  0  # atno 17395 bound_to 11000

$$$$
