AV-unprocessed.smi:3352|AV-procd|sdf|12951|dock5
  -GOLD-   2272019383D 1   1.00000     0.00000
 Structure written by MMmdl.
 38 39  0  0  0  0  0  0  0  0  1 V2000
  152.7393  144.3409  158.4843 C   0  0  0  0  0  0  0  0  0  0  0  0
  152.7138  142.9569  159.1480 C   0  0  0  0  0  0  0  0  0  0  0  0
  154.1128  142.4786  159.5632 C   0  0  0  0  0  0  0  0  0  0  0  0
  152.0051  141.9498  158.2968 C   0  0  0  0  0  0  0  0  0  0  0  0
  151.8885  140.6618  158.6307 N   0  0  0  0  0  0  0  0  0  0  0  0
  151.1439  139.9246  157.7033 C   0  0  0  0  0  0  0  0  0  0  0  0
  150.8720  138.4675  157.9461 C   0  0  0  0  0  0  0  0  0  0  0  0
  149.4118  138.2873  158.3631 C   0  0  0  0  0  0  0  0  0  0  0  0
  148.6301  139.2364  158.3079 O   0  0  0  0  0  0  0  0  0  0  0  0
  149.0703  137.0703  158.8133 N   0  0  0  0  0  0  0  0  0  0  0  0
  147.8006  136.7323  159.4431 C   0  0  0  0  0  0  0  0  0  0  0  0
  148.0118  136.1605  160.8567 C   0  0  2  0  0  0  0  0  0  0  0  0
  146.9696  135.1296  161.2953 C   0  0  0  0  0  0  0  0  0  0  0  0
  146.9749  135.2368  162.8123 C   0  0  0  0  0  0  0  0  0  0  0  0
  147.7486  136.5283  163.0958 C   0  0  0  0  0  0  0  0  0  0  0  0
  147.8705  137.1753  161.8365 O   0  0  0  0  0  0  0  0  0  0  0  0
  150.7108  140.6770  156.6396 C   0  0  0  0  0  0  0  0  0  0  0  0
  151.1990  142.3430  156.7800 S   0  0  0  0  0  0  0  0  0  0  0  0
  151.7293  144.6895  158.2666 H   0  0  0  0  0  0  0  0  0  0  0  0
  153.2949  144.3220  157.5463 H   0  0  0  0  0  0  0  0  0  0  0  0
  153.2093  145.0794  159.1341 H   0  0  0  0  0  0  0  0  0  0  0  0
  152.1337  143.0603  160.0664 H   0  0  0  0  0  0  0  0  0  0  0  0
  154.0610  141.5246  160.0891 H   0  0  0  0  0  0  0  0  0  0  0  0
  154.5899  143.1969  160.2302 H   0  0  0  0  0  0  0  0  0  0  0  0
  154.7638  142.3483  158.6983 H   0  0  0  0  0  0  0  0  0  0  0  0
  151.0687  137.8827  157.0467 H   0  0  0  0  0  0  0  0  0  0  0  0
  151.5248  138.0704  158.7248 H   0  0  0  0  0  0  0  0  0  0  0  0
  149.7809  136.3526  158.8130 H   0  0  0  0  0  0  0  0  0  0  0  0
  147.1464  137.6049  159.4760 H   0  0  0  0  0  0  0  0  0  0  0  0
  147.3021  135.9935  158.8152 H   0  0  0  0  0  0  0  0  0  0  0  0
  149.0118  135.7314  160.9441 H   0  0  0  0  0  0  0  0  0  0  0  0
  145.9845  135.4014  160.9138 H   0  0  0  0  0  0  0  0  0  0  0  0
  147.2006  134.1242  160.9409 H   0  0  0  0  0  0  0  0  0  0  0  0
  145.9567  135.2847  163.1996 H   0  0  0  0  0  0  0  0  0  0  0  0
  147.4694  134.3814  163.2737 H   0  0  0  0  0  0  0  0  0  0  0  0
  147.2445  137.1684  163.8202 H   0  0  0  0  0  0  0  0  0  0  0  0
  148.7448  136.3013  163.4784 H   0  0  0  0  0  0  0  0  0  0  0  0
  150.1208  140.3559  155.7940 H   0  0  0  0  0  0  0  0  0  0  0  0
  1  2  1  0  0  0  0
  1 19  1  0  0  0  0
  1 20  1  0  0  0  0
  1 21  1  0  0  0  0
  2  3  1  0  0  0  0
  2  4  1  0  0  0  0
  2 22  1  0  0  0  0
  3 23  1  0  0  0  0
  3 24  1  0  0  0  0
  3 25  1  0  0  0  0
  4 18  1  0  0  0  0
  4  5  2  0  0  0  0
  5  6  1  0  0  0  0
  6  7  1  0  0  0  0
  6 17  2  0  0  0  0
  7  8  1  0  0  0  0
  7 26  1  0  0  0  0
  7 27  1  0  0  0  0
  8  9  2  0  0  0  0
  8 10  1  0  0  0  0
 10 11  1  0  0  0  0
 10 28  1  0  0  0  0
 11 12  1  0  0  0  0
 11 29  1  0  0  0  0
 11 30  1  0  0  0  0
 12 16  1  0  0  0  0
 12 13  1  0  0  0  0
 12 31  1  0  0  0  0
 13 14  1  0  0  0  0
 13 32  1  0  0  0  0
 13 33  1  0  0  0  0
 14 15  1  0  0  0  0
 14 34  1  0  0  0  0
 14 35  1  0  0  0  0
 15 16  1  0  0  0  0
 15 36  1  0  0  0  0
 15 37  1  0  0  0  0
 17 18  1  0  0  0  0
 17 38  1  0  0  0  0
M  END
> <s_m_source_file>
AV-unprocessed.smi

> <i_m_source_file_index>
3352

> <i_lp_mmshare_version>
43012

> <i_f3d_flags>
0

> <s_epik_input>
W0NIM11bQ0hdKFtDSDNdKWMxbmMoW2NIXXMxKVtDSDJdQyg9TylbTkhdW0NIMl1bQ0BASF0yW0NIMl1bQ0gyXVtDSDJdTzI=

> <s_epik_cmdline>
J2VwaWtfcHl0aG9uJywgJy1waCcsICc3LjAnLCAnLXRuJywgJzgnLCAnLW1hJywgJzIwMCcsICctbWV0YWxfYmluZGluZycsICctaW1hZScsICc8aW5maWxlLm1hZT4nLCAnLW9tYWUnLCAnPG91dGZpbGUubWFlPic=

> <r_lp_tautomer_probability>
1

> <r_epik_Ionization_Penalty>
4.66014e-05

> <r_epik_Ionization_Penalty_Charging>
0

> <r_epik_Ionization_Penalty_Neutral>
4.66014e-05

> <r_epik_State_Penalty>
-0

> <r_epik_Charging_Adjusted_Penalty>
0

> <i_epik_Tot_Q>
0

> <i_epik_Tot_abs_Q>
0

> <r_epik_Metal_State_Penalty>
-0

> <b_epik_Metal_Only>
0

> <s_lp_Force_Field>
OPLS_2005

> <r_lp_Energy>
7.75536

> <b_lp_Chiralities_Consistent>
1

> <s_lp_Variant>
AV-unprocessed.smi:3352-1

> <Gold.Version>
5.8.1

> <Gold.Id.Protein>
6NUR|6NUR_protein|mol2

> <Gold.PLP.Fitness>
44.0415

> <Gold.PLP.PLP>
-40.3888

> <Gold.PLP.part.hbond>
-2.0931

> <Gold.PLP.part.metal>
0.0000

> <Gold.PLP.part.buried>
-5.1592

> <Gold.PLP.part.nonpolar>
-32.7966

> <Gold.PLP.part.repulsive>
0.1796

> <Gold.PLP.ligand.clash>
0.0000

> <Gold.PLP.ligand.torsion>
0.7951

> <Gold.PLP.Chemscore.Hbond>
1.7200

> <Gold.PLP.Chemscore.CHOScore>
0.0000

> <Gold.PLP.Chemscore.Metal>
0.0000

> <Gold.Chemscore.Hbonds>
donor molecule, donor type, donor heavy atom, donor atom, acceptor molecule, acceptor atom, score
      P1  H  6931  6943       L1    16  1.00
      P1  H  6934  6947       L1    16  0.41

> <Gold.PLP.Chemscore.Internal.Correction>
0.0828

> <Gold.Rescore>
     Score         DG    S(hbond)    S(metal)    S(lipo)     H(rot)  DE(clash)    DE(int)     intcor
     16.45     -18.16       1.15        0.00     109.34       1.55       0.07       1.64       ----

> <Gold.Chemscore.Fitness>
16.4477

> <Gold.Chemscore.DG>
-18.1564

> <Gold.Chemscore.ZeroCoef>
-5.4800

> <Gold.Chemscore.Hbond>
1.1546

> <Gold.Chemscore.Metal>
0.0000

> <Gold.Chemscore.Lipo>
109.3388

> <Gold.Chemscore.Internal_Hbond>
0.0000

> <Gold.Chemscore.DEClash>
0.0688

> <Gold.Chemscore.DEInternal>
1.6398

> <Gold.Chemscore.Rot>
1.5518

> <Gold.Chemscore.Internal.Correction>
   9.000000E+99

> <Gold.Chemscore.Hbonds>
donor molecule, donor type, donor heavy atom, donor atom, acceptor molecule, acceptor atom, score
      P1  H  6931  6943       L1    16  0.63
      P1  H  6934  6947       L1    16  0.33

> <Gold.Chemscore.Hbond.Weighted>
-3.8564

> <Gold.Chemscore.Metal.Weighted>
-0.0000

> <Gold.Chemscore.Lipo.Weighted>
-12.7926

> <Gold.Chemscore.Internal_Hbond.Weighted>
0.0000

> <Gold.Chemscore.DEClash.Weighted>
0.0688

> <Gold.Chemscore.DEInternal.Weighted>
1.6398

> <Gold.Chemscore.Rot.Weighted>
3.9727

> <Gold.Chemscore.Internal.Correction.Weighted>
   9.000000E+99

> <Gold.Protein.RotatedTorsions>
[ 6907 6896 6895 6894 ] final  179.58 input  -60.11 | X-H torsion
[ 7974 7965 7964 7962 ] final -157.81 input  175.53 | X-H torsion
[ 8008 7997 7996 7995 ] final -120.53 input   59.86 | X-H torsion
[ 10167 10162 10161 10158 ] final -169.21 input  -65.29 | X-H torsion
[ 10718 10713 10712 10709 ] final  -67.23 input   66.30 | X-H torsion
[ 10763 10752 10751 10750 ] final  164.96 input  -60.55 | X-H torsion
[ 11005 11000 10999 10996 ] final  -98.06 input  -57.11 | X-H torsion

> <Gold.Protein.ActiveResidues>
 VAL166  LYS551  ARG553  GLY616  TRP617  ASP618  TYR619  PRO620  LYS621  CYS622 
 ASP623  PHE694  ASN695  SER759  ASP760  ASP761  ALA762  ILE779  LEU786  VAL792 
 PHE793  MET794  SER795  GLU796  ALA797  LYS798  CYS799  TRP800  GLU811  SER814 

> <Gold.Protein.RotatedAtoms>
  151.6693  133.3314  159.3192 H   0  0  0  0  0  0  0  0  0  0  0  0  # atno 6907 bound_to 6896
  150.7875  134.6876  159.6488 H   0  0  0  0  0  0  0  0  0  0  0  0  # atno 6908 bound_to 6896
  152.3948  134.6386  160.0145 H   0  0  0  0  0  0  0  0  0  0  0  0  # atno 6909 bound_to 6896
  144.7532  140.3917  143.6032 H   0  0  0  0  0  0  0  0  0  0  0  0  # atno 7974 bound_to 7965
  155.1333  140.0400  157.2780 H   0  0  0  0  0  0  0  0  0  0  0  0  # atno 8008 bound_to 7997
  154.6526  140.2573  155.7170 H   0  0  0  0  0  0  0  0  0  0  0  0  # atno 8009 bound_to 7997
  156.2584  140.2833  156.0967 H   0  0  0  0  0  0  0  0  0  0  0  0  # atno 8010 bound_to 7997
  139.5937  144.1158  152.1664 H   0  0  0  0  0  0  0  0  0  0  0  0  # atno 10167 bound_to 10162
  156.0569  130.4274  150.1825 H   0  0  0  0  0  0  0  0  0  0  0  0  # atno 10718 bound_to 10713
  154.3168  135.2756  155.2539 H   0  0  0  0  0  0  0  0  0  0  0  0  # atno 10763 bound_to 10752
  154.4910  135.5833  153.6463 H   0  0  0  0  0  0  0  0  0  0  0  0  # atno 10764 bound_to 10752
  152.9881  135.6134  154.3349 H   0  0  0  0  0  0  0  0  0  0  0  0  # atno 10765 bound_to 10752
  141.1358  133.8217  157.0789 H   0  0  0  0  0  0  0  0  0  0  0  0  # atno 11005 bound_to 11000
  145.6869  139.1630  143.2669 LP  0  0  0  0  0  0  0  0  0  0  0  0  # atno 17320 bound_to 7965
  146.1510  140.6925  142.9322 LP  0  0  0  0  0  0  0  0  0  0  0  0  # atno 17321 bound_to 7965
  140.0738  144.5757  150.7172 LP  0  0  0  0  0  0  0  0  0  0  0  0  # atno 17342 bound_to 10162
  140.7194  143.2574  151.4328 LP  0  0  0  0  0  0  0  0  0  0  0  0  # atno 17343 bound_to 10162
  156.9899  130.9890  151.3417 LP  0  0  0  0  0  0  0  0  0  0  0  0  # atno 17370 bound_to 10713
  157.5545  130.8205  149.8187 LP  0  0  0  0  0  0  0  0  0  0  0  0  # atno 17371 bound_to 10713
  140.0464  134.9828  157.1056 LP  0  0  0  0  0  0  0  0  0  0  0  0  # atno 17394 bound_to 11000
  140.4056  134.2035  155.7163 LP  0  0  0  0  0  0  0  0  0  0  0  0  # atno 17395 bound_to 11000

$$$$
