AV-unprocessed.smi:1822|AV-procd|sdf|7390|dock6
  -GOLD-   22720 9 63D 1   1.00000     0.00000
 Structure written by MMmdl.
 46 47  0  0  0  0  0  0  0  0  1 V2000
  146.4184  143.3261  153.5777 C   0  0  0  0  0  0  0  0  0  0  0  0
  147.6509  142.6616  153.9735 N   0  0  0  0  0  0  0  0  0  0  0  0
  147.8777  141.3431  153.8535 C   0  0  0  0  0  0  0  0  0  0  0  0
  147.0332  140.5815  153.3788 O   0  0  0  0  0  0  0  0  0  0  0  0
  149.1955  140.9224  154.3358 C   0  0  0  0  0  0  0  0  0  0  0  0
  150.0882  141.7986  155.0796 C   0  0  0  0  0  0  0  0  0  0  0  0
  151.2892  141.3558  155.5006 C   0  0  0  0  0  0  0  0  0  0  0  0
  151.7463  139.9895  155.2318 C   0  0  0  0  0  0  0  0  0  0  0  0
  152.8426  139.5806  155.6145 O   0  0  0  0  0  0  0  0  0  0  0  0
  150.8791  139.2000  154.5285 N   0  0  0  0  0  0  0  0  0  0  0  0
  151.2265  137.8073  154.1987 C   0  0  0  0  0  0  0  0  0  0  0  0
  150.3720  136.7944  154.9713 C   0  0  0  0  0  0  0  0  0  0  0  0
  150.3902  136.8103  156.2034 O   0  0  0  0  0  0  0  0  0  0  0  0
  149.6393  135.9491  154.2166 N   0  0  0  0  0  0  0  0  0  0  0  0
  148.8096  134.9769  154.6400 C   0  0  0  0  0  0  0  0  0  0  0  0
  148.6688  134.6091  155.8084 O   0  0  0  0  0  0  0  0  0  0  0  0
  148.1321  134.4447  153.6120 N   0  0  0  0  0  0  0  0  0  0  0  0
  147.2999  133.2469  153.6770 C   0  0  0  0  0  0  0  0  0  0  0  0
  148.1891  132.0166  153.9395 C   0  0  0  0  0  0  0  0  0  0  0  0
  147.3668  130.7178  153.9480 C   0  0  0  0  0  0  0  0  0  0  0  0
  146.5738  130.5513  152.6424 C   0  0  0  0  0  0  0  0  0  0  0  0
  145.6788  131.7723  152.3788 C   0  0  0  0  0  0  0  0  0  0  0  0
  146.4963  133.0742  152.3710 C   0  0  0  0  0  0  0  0  0  0  0  0
  149.6237  139.6683  154.0921 C   0  0  0  0  0  0  0  0  0  0  0  0
  146.4785  144.3890  153.8114 H   0  0  0  0  0  0  0  0  0  0  0  0
  145.5627  142.9083  154.1095 H   0  0  0  0  0  0  0  0  0  0  0  0
  146.2481  143.2218  152.5056 H   0  0  0  0  0  0  0  0  0  0  0  0
  148.3793  143.2389  154.3684 H   0  0  0  0  0  0  0  0  0  0  0  0
  149.8137  142.8175  155.3100 H   0  0  0  0  0  0  0  0  0  0  0  0
  151.9349  142.0246  156.0508 H   0  0  0  0  0  0  0  0  0  0  0  0
  151.1194  137.6326  153.1263 H   0  0  0  0  0  0  0  0  0  0  0  0
  152.2773  137.6066  154.4131 H   0  0  0  0  0  0  0  0  0  0  0  0
  149.7274  136.0576  153.2170 H   0  0  0  0  0  0  0  0  0  0  0  0
  148.1916  134.9045  152.7154 H   0  0  0  0  0  0  0  0  0  0  0  0
  146.6017  133.3424  154.5110 H   0  0  0  0  0  0  0  0  0  0  0  0
  148.9620  131.9481  153.1726 H   0  0  0  0  0  0  0  0  0  0  0  0
  148.7083  132.1270  154.8922 H   0  0  0  0  0  0  0  0  0  0  0  0
  148.0259  129.8616  154.0937 H   0  0  0  0  0  0  0  0  0  0  0  0
  146.6793  130.7265  154.7947 H   0  0  0  0  0  0  0  0  0  0  0  0
  147.2647  130.4175  151.8091 H   0  0  0  0  0  0  0  0  0  0  0  0
  145.9659  129.6473  152.6887 H   0  0  0  0  0  0  0  0  0  0  0  0
  145.1594  131.6540  151.4275 H   0  0  0  0  0  0  0  0  0  0  0  0
  144.9068  131.8315  153.1470 H   0  0  0  0  0  0  0  0  0  0  0  0
  145.8266  133.9227  152.2256 H   0  0  0  0  0  0  0  0  0  0  0  0
  147.1756  133.0685  151.5175 H   0  0  0  0  0  0  0  0  0  0  0  0
  149.0414  138.9385  153.5466 H   0  0  0  0  0  0  0  0  0  0  0  0
  1  2  1  0  0  0  0
  1 25  1  0  0  0  0
  1 26  1  0  0  0  0
  1 27  1  0  0  0  0
  2  3  1  0  0  0  0
  2 28  1  0  0  0  0
  3  4  2  0  0  0  0
  3  5  1  0  0  0  0
  5 24  2  0  0  0  0
  5  6  1  0  0  0  0
  6  7  2  0  0  0  0
  6 29  1  0  0  0  0
  7  8  1  0  0  0  0
  7 30  1  0  0  0  0
  8  9  2  0  0  0  0
  8 10  1  0  0  0  0
 10 11  1  0  0  0  0
 10 24  1  0  0  0  0
 11 12  1  0  0  0  0
 11 31  1  0  0  0  0
 11 32  1  0  0  0  0
 12 13  2  0  0  0  0
 12 14  1  0  0  0  0
 14 15  1  0  0  0  0
 14 33  1  0  0  0  0
 15 16  2  0  0  0  0
 15 17  1  0  0  0  0
 17 18  1  0  0  0  0
 17 34  1  0  0  0  0
 18 23  1  0  0  0  0
 18 19  1  0  0  0  0
 18 35  1  0  0  0  0
 19 20  1  0  0  0  0
 19 36  1  0  0  0  0
 19 37  1  0  0  0  0
 20 21  1  0  0  0  0
 20 38  1  0  0  0  0
 20 39  1  0  0  0  0
 21 22  1  0  0  0  0
 21 40  1  0  0  0  0
 21 41  1  0  0  0  0
 22 23  1  0  0  0  0
 22 42  1  0  0  0  0
 22 43  1  0  0  0  0
 23 44  1  0  0  0  0
 23 45  1  0  0  0  0
 24 46  1  0  0  0  0
M  END
> <s_m_source_file>
AV-unprocessed.smi

> <i_m_source_file_index>
1822

> <i_lp_mmshare_version>
43012

> <i_f3d_flags>
0

> <s_epik_input>
W0NIM11bTkhdQyg9TyljMVtjSF1bY0hdYyg9TyluKFtjSF0xKVtDSDJdQyg9TylbTkhdQyg9TylbTkhdW0NIXTJbQ0gyXVtDSDJdW0NIMl1bQ0gyXVtDSDJdMg==

> <s_epik_cmdline>
J2VwaWtfcHl0aG9uJywgJy1waCcsICc3LjAnLCAnLXRuJywgJzgnLCAnLW1hJywgJzIwMCcsICctbWV0YWxfYmluZGluZycsICctaW1hZScsICc8aW5maWxlLm1hZT4nLCAnLW9tYWUnLCAnPG91dGZpbGUubWFlPic=

> <r_lp_tautomer_probability>
1

> <r_epik_Ionization_Penalty>
3.30797e-05

> <r_epik_Ionization_Penalty_Charging>
3.7169e-08

> <r_epik_Ionization_Penalty_Neutral>
3.30425e-05

> <r_epik_State_Penalty>
-0

> <r_epik_Charging_Adjusted_Penalty>
3.7169e-08

> <i_epik_Tot_Q>
0

> <i_epik_Tot_abs_Q>
0

> <r_epik_Metal_State_Penalty>
-0

> <b_epik_Metal_Only>
0

> <s_lp_Force_Field>
OPLS_2005

> <r_lp_Energy>
24.3679

> <b_lp_Chiralities_Consistent>
1

> <s_lp_Variant>
AV-unprocessed.smi:1822-1

> <Gold.Version>
5.8.1

> <Gold.Id.Protein>
6NUR|6NUR_protein|mol2

> <Gold.PLP.Fitness>
54.4877

> <Gold.PLP.PLP>
-43.3510

> <Gold.PLP.part.hbond>
-4.1288

> <Gold.PLP.part.metal>
0.0000

> <Gold.PLP.part.buried>
-3.4634

> <Gold.PLP.part.nonpolar>
-35.2535

> <Gold.PLP.part.repulsive>
0.3926

> <Gold.PLP.ligand.clash>
0.0000

> <Gold.PLP.ligand.torsion>
0.2268

> <Gold.PLP.Chemscore.Hbond>
3.8600

> <Gold.PLP.Chemscore.CHOScore>
0.0000

> <Gold.PLP.Chemscore.Metal>
0.0000

> <Gold.Chemscore.Hbonds>
donor molecule, donor type, donor heavy atom, donor atom, acceptor molecule, acceptor atom, score
      L1  H     2    28       P1  8028  0.94
      L1  H    14    33       P1  7948  0.67
      L1  H    17    34       P1  7948  0.88
      P1  H  7997  8008       L1     9  1.00
      L1  C    24    46       P1  7957  0.17

> <Gold.PLP.Chemscore.Internal.Correction>
0.0103

> <Gold.Rescore>
     Score         DG    S(hbond)    S(metal)    S(lipo)     H(rot)  DE(clash)    DE(int)     intcor
     18.86     -20.48       3.33        0.00      68.35       1.62       0.01       1.62       ----

> <Gold.Chemscore.Fitness>
18.8594

> <Gold.Chemscore.DG>
-20.4810

> <Gold.Chemscore.ZeroCoef>
-5.4800

> <Gold.Chemscore.Hbond>
3.3350

> <Gold.Chemscore.Metal>
0.0000

> <Gold.Chemscore.Lipo>
68.3485

> <Gold.Chemscore.Internal_Hbond>
0.0000

> <Gold.Chemscore.DEClash>
0.0063

> <Gold.Chemscore.DEInternal>
1.6152

> <Gold.Chemscore.Rot>
1.6151

> <Gold.Chemscore.Internal.Correction>
   9.000000E+99

> <Gold.Chemscore.Hbonds>
donor molecule, donor type, donor heavy atom, donor atom, acceptor molecule, acceptor atom, score
      L1  H     2    28       P1  8028  0.88
      L1  H    14    33       P1  7948  0.06
      L1  H    17    34       P1  7948  0.64
      P1  H  7997  8008       L1     9  1.00

> <Gold.Chemscore.Hbond.Weighted>
-11.1388

> <Gold.Chemscore.Metal.Weighted>
-0.0000

> <Gold.Chemscore.Lipo.Weighted>
-7.9968

> <Gold.Chemscore.Internal_Hbond.Weighted>
0.0000

> <Gold.Chemscore.DEClash.Weighted>
0.0063

> <Gold.Chemscore.DEInternal.Weighted>
1.6152

> <Gold.Chemscore.Rot.Weighted>
4.1346

> <Gold.Chemscore.Internal.Correction.Weighted>
   9.000000E+99

> <Gold.Protein.RotatedTorsions>
[ 6907 6896 6895 6894 ] final -143.41 input  -60.11 | X-H torsion
[ 7974 7965 7964 7962 ] final -116.40 input  175.53 | X-H torsion
[ 8008 7997 7996 7995 ] final  -23.56 input   59.86 | X-H torsion
[ 10167 10162 10161 10158 ] final   60.38 input  -65.29 | X-H torsion
[ 10718 10713 10712 10709 ] final    8.10 input   66.30 | X-H torsion
[ 10763 10752 10751 10750 ] final   -7.57 input  -60.55 | X-H torsion
[ 11005 11000 10999 10996 ] final  -33.92 input  -57.11 | X-H torsion

> <Gold.Protein.ActiveResidues>
 VAL166  LYS551  ARG553  GLY616  TRP617  ASP618  TYR619  PRO620  LYS621  CYS622 
 ASP623  PHE694  ASN695  SER759  ASP760  ASP761  ALA762  ILE779  LEU786  VAL792 
 PHE793  MET794  SER795  GLU796  ALA797  LYS798  CYS799  TRP800  GLU811  SER814 

> <Gold.Protein.RotatedAtoms>
  151.1001  133.5250  159.2610 H   0  0  0  0  0  0  0  0  0  0  0  0  # atno 6907 bound_to 6896
  151.2084  135.0471  159.8911 H   0  0  0  0  0  0  0  0  0  0  0  0  # atno 6908 bound_to 6896
  152.5442  134.0819  159.8293 H   0  0  0  0  0  0  0  0  0  0  0  0  # atno 6909 bound_to 6896
  145.0972  140.8529  143.3947 H   0  0  0  0  0  0  0  0  0  0  0  0  # atno 7974 bound_to 7965
  154.4578  140.1977  156.0329 H   0  0  0  0  0  0  0  0  0  0  0  0  # atno 8008 bound_to 7997
  156.0781  140.3275  155.7631 H   0  0  0  0  0  0  0  0  0  0  0  0  # atno 8009 bound_to 7997
  155.5155  140.0565  157.2907 H   0  0  0  0  0  0  0  0  0  0  0  0  # atno 8010 bound_to 7997
  140.1662  144.4322  150.6684 H   0  0  0  0  0  0  0  0  0  0  0  0  # atno 10167 bound_to 10162
  156.9466  130.5881  149.5655 H   0  0  0  0  0  0  0  0  0  0  0  0  # atno 10718 bound_to 10713
  153.4281  135.7011  153.6249 H   0  0  0  0  0  0  0  0  0  0  0  0  # atno 10763 bound_to 10752
  153.4675  135.3722  155.2373 H   0  0  0  0  0  0  0  0  0  0  0  0  # atno 10764 bound_to 10752
  154.8724  135.4035  154.3661 H   0  0  0  0  0  0  0  0  0  0  0  0  # atno 10765 bound_to 10752
  140.9674  133.7129  156.1468 H   0  0  0  0  0  0  0  0  0  0  0  0  # atno 11005 bound_to 11000
  145.0997  139.2831  143.5693 LP  0  0  0  0  0  0  0  0  0  0  0  0  # atno 17320 bound_to 7965
  146.3530  140.0560  142.8632 LP  0  0  0  0  0  0  0  0  0  0  0  0  # atno 17321 bound_to 7965
  140.6611  143.2252  151.5853 LP  0  0  0  0  0  0  0  0  0  0  0  0  # atno 17342 bound_to 10162
  139.5358  144.2784  152.1249 LP  0  0  0  0  0  0  0  0  0  0  0  0  # atno 17343 bound_to 10162
  156.0381  130.5466  150.8703 LP  0  0  0  0  0  0  0  0  0  0  0  0  # atno 17370 bound_to 10713
  157.5750  131.0946  150.9360 LP  0  0  0  0  0  0  0  0  0  0  0  0  # atno 17371 bound_to 10713
  140.7378  134.4183  157.5558 LP  0  0  0  0  0  0  0  0  0  0  0  0  # atno 17394 bound_to 11000
  139.8900  134.8817  156.2394 LP  0  0  0  0  0  0  0  0  0  0  0  0  # atno 17395 bound_to 11000

$$$$
