AV-unprocessed.smi:276|AV-procd|sdf|2081|dock4
  -GOLD-   2262021353D 1   1.00000     0.00000
 Structure written by MMmdl.
 57 61  0  0  0  0  0  0  0  0  1 V2000
  152.3166  139.5113  156.5235 C   0  0  0  0  0  0  0  0  0  0  0  0
  151.6505  140.4227  155.6677 O   0  0  0  0  0  0  0  0  0  0  0  0
  150.2534  140.1840  155.5998 C   0  0  1  0  0  0  0  0  0  0  0  0
  149.5189  141.0011  154.5299 C   0  0  0  0  0  0  0  0  0  0  0  0
  148.6973  139.7409  154.1931 C   0  0  2  0  0  0  0  0  0  0  0  0
  147.4365  139.7009  154.9483 N   0  0  0  0  0  0  0  0  0  0  0  0
  146.5440  140.8422  154.7699 C   0  0  0  0  0  0  0  0  0  0  0  0
  146.7323  138.5499  154.8668 C   0  0  0  0  0  0  0  0  0  0  0  0
  146.4925  137.8936  156.0292 N   0  0  0  0  0  0  0  0  0  0  0  0
  145.8063  136.7470  156.0206 C   0  0  0  0  0  0  0  0  0  0  0  0
  145.2746  136.0994  154.9816 N   0  0  0  0  0  0  0  0  0  0  0  0
  145.5032  136.7649  153.8133 C   0  0  0  0  0  0  0  0  0  0  0  0
  146.2131  137.9895  153.6642 C   0  0  0  0  0  0  0  0  0  0  0  0
  146.2323  138.3634  152.3253 N   0  0  0  0  0  0  0  0  0  0  0  0
  145.5810  137.4097  151.7174 C   0  0  0  0  0  0  0  0  0  0  0  0
  145.1091  136.4096  152.5362 N   0  0  0  0  0  0  0  0  0  0  0  0
  144.3518  135.2370  152.1362 C   0  0  0  0  0  0  0  0  0  0  0  0
  145.1157  134.3568  151.1273 C   0  0  2  0  0  0  0  0  0  0  0  0
  144.6454  134.6342  149.8216 O   0  0  0  0  0  0  0  0  0  0  0  0
  144.9380  132.8542  151.4147 C   0  0  1  0  0  0  0  0  0  0  0  0
  145.5574  131.9304  150.3642 C   0  0  0  0  0  0  0  0  0  0  0  0
  145.7683  130.6625  151.1590 C   0  0  0  0  0  0  0  0  0  0  0  0
  146.2066  131.2149  152.5113 C   0  0  0  0  0  0  0  0  0  0  0  0
  145.5940  132.4966  152.6299 O   0  0  0  0  0  0  0  0  0  0  0  0
  149.8712  138.9252  154.8006 C   0  0  0  0  0  0  0  0  0  0  0  0
  150.9002  138.2713  153.8601 C   0  0  0  0  0  0  0  0  0  0  0  0
  151.1464  137.2205  154.9459 C   0  0  0  0  0  0  0  0  0  0  0  0
  149.7545  137.5520  155.4897 C   0  0  0  0  0  0  0  0  0  0  0  0
  153.3835  139.7333  156.5346 H   0  0  0  0  0  0  0  0  0  0  0  0
  152.1898  138.4843  156.1783 H   0  0  0  0  0  0  0  0  0  0  0  0
  151.9477  139.5845  157.5473 H   0  0  0  0  0  0  0  0  0  0  0  0
  149.7571  140.2123  156.5724 H   0  0  0  0  0  0  0  0  0  0  0  0
  148.9678  141.8562  154.9202 H   0  0  0  0  0  0  0  0  0  0  0  0
  150.1733  141.2996  153.7092 H   0  0  0  0  0  0  0  0  0  0  0  0
  148.5782  139.6051  153.1183 H   0  0  0  0  0  0  0  0  0  0  0  0
  145.5185  140.6196  155.0704 H   0  0  0  0  0  0  0  0  0  0  0  0
  146.5274  141.1571  153.7261 H   0  0  0  0  0  0  0  0  0  0  0  0
  146.8805  141.6835  155.3748 H   0  0  0  0  0  0  0  0  0  0  0  0
  145.6630  136.2815  156.9845 H   0  0  0  0  0  0  0  0  0  0  0  0
  145.4271  137.4101  150.6482 H   0  0  0  0  0  0  0  0  0  0  0  0
  144.1172  134.6669  153.0358 H   0  0  0  0  0  0  0  0  0  0  0  0
  143.3989  135.5616  151.7159 H   0  0  0  0  0  0  0  0  0  0  0  0
  146.1773  134.6053  151.1623 H   0  0  0  0  0  0  0  0  0  0  0  0
  145.3827  134.6328  149.2308 H   0  0  0  0  0  0  0  0  0  0  0  0
  143.8797  132.6111  151.5259 H   0  0  0  0  0  0  0  0  0  0  0  0
  144.9178  131.7862  149.4931 H   0  0  0  0  0  0  0  0  0  0  0  0
  146.5175  132.3211  150.0236 H   0  0  0  0  0  0  0  0  0  0  0  0
  144.8252  130.1234  151.2601 H   0  0  0  0  0  0  0  0  0  0  0  0
  146.5020  129.9907  150.7129 H   0  0  0  0  0  0  0  0  0  0  0  0
  145.9252  130.5609  153.3369 H   0  0  0  0  0  0  0  0  0  0  0  0
  147.2889  131.3464  152.5376 H   0  0  0  0  0  0  0  0  0  0  0  0
  150.4401  137.8472  152.9660 H   0  0  0  0  0  0  0  0  0  0  0  0
  151.7661  138.8839  153.6082 H   0  0  0  0  0  0  0  0  0  0  0  0
  151.2636  136.2009  154.5783 H   0  0  0  0  0  0  0  0  0  0  0  0
  151.9471  137.5008  155.6325 H   0  0  0  0  0  0  0  0  0  0  0  0
  149.6842  137.5871  156.5771 H   0  0  0  0  0  0  0  0  0  0  0  0
  148.9978  136.8979  155.0573 H   0  0  0  0  0  0  0  0  0  0  0  0
  1  2  1  0  0  0  0
  1 29  1  0  0  0  0
  1 30  1  0  0  0  0
  1 31  1  0  0  0  0
  2  3  1  0  0  0  0
  3 25  1  0  0  0  0
  3  4  1  0  0  0  0
  3 32  1  0  0  0  0
  4  5  1  0  0  0  0
  4 33  1  0  0  0  0
  4 34  1  0  0  0  0
  5  6  1  0  0  0  0
  5 25  1  0  0  0  0
  5 35  1  0  0  0  0
  6  7  1  0  0  0  0
  6  8  1  0  0  0  0
  7 36  1  0  0  0  0
  7 37  1  0  0  0  0
  7 38  1  0  0  0  0
  8 13  1  0  0  0  0
  8  9  2  0  0  0  0
  9 10  1  0  0  0  0
 10 11  2  0  0  0  0
 10 39  1  0  0  0  0
 11 12  1  0  0  0  0
 12 16  1  0  0  0  0
 12 13  2  0  0  0  0
 13 14  1  0  0  0  0
 14 15  2  0  0  0  0
 15 16  1  0  0  0  0
 15 40  1  0  0  0  0
 16 17  1  0  0  0  0
 17 18  1  0  0  0  0
 17 41  1  0  0  0  0
 17 42  1  0  0  0  0
 18 19  1  0  0  0  0
 18 20  1  0  0  0  0
 18 43  1  0  0  0  0
 19 44  1  0  0  0  0
 20 24  1  0  0  0  0
 20 21  1  0  0  0  0
 20 45  1  0  0  0  0
 21 22  1  0  0  0  0
 21 46  1  0  0  0  0
 21 47  1  0  0  0  0
 22 23  1  0  0  0  0
 22 48  1  0  0  0  0
 22 49  1  0  0  0  0
 23 24  1  0  0  0  0
 23 50  1  0  0  0  0
 23 51  1  0  0  0  0
 25 28  1  0  0  0  0
 25 26  1  0  0  0  0
 26 27  1  0  0  0  0
 26 52  1  0  0  0  0
 26 53  1  0  0  0  0
 27 28  1  0  0  0  0
 27 54  1  0  0  0  0
 27 55  1  0  0  0  0
 28 56  1  0  0  0  0
 28 57  1  0  0  0  0
M  END
> <s_m_source_file>
AV-unprocessed.smi

> <i_m_source_file_index>
276

> <i_lp_mmshare_version>
43012

> <i_f3d_flags>
0

> <s_epik_input>
W0NIMl0xW0NIMl1bQ0gyXUMxMltDQEhdKE9bQ0gzXSlbQ0gyXVtDQEhdMk4oW0NIM10pYyhuW2NIXW4zKWMoYzM0KW5bY0hdbjRbQ0gyXVtDQEhdKFtPSF0pW0NAQEhdNVtDSDJdW0NIMl1bQ0gyXU81

> <s_epik_cmdline>
J2VwaWtfcHl0aG9uJywgJy1waCcsICc3LjAnLCAnLXRuJywgJzgnLCAnLW1hJywgJzIwMCcsICctbWV0YWxfYmluZGluZycsICctaW1hZScsICc8aW5maWxlLm1hZT4nLCAnLW9tYWUnLCAnPG91dGZpbGUubWFlPic=

> <r_lp_tautomer_probability>
1

> <r_epik_Ionization_Penalty>
0.00204117

> <r_epik_Ionization_Penalty_Charging>
0

> <r_epik_Ionization_Penalty_Neutral>
0.00204117

> <r_epik_State_Penalty>
0.00127401

> <r_epik_Charging_Adjusted_Penalty>
0.00127401

> <i_epik_Tot_Q>
0

> <i_epik_Tot_abs_Q>
0

> <r_epik_Metal_State_Penalty>
-0

> <b_epik_Metal_Only>
0

> <s_lp_Force_Field>
OPLS_2005

> <r_lp_Energy>
57.2167

> <b_lp_Chiralities_Consistent>
1

> <s_lp_Variant>
AV-unprocessed.smi:276-12

> <Gold.Version>
5.8.1

> <Gold.Id.Protein>
6NUR|6NUR_protein|mol2

> <Gold.PLP.Fitness>
41.6499

> <Gold.PLP.PLP>
-36.8483

> <Gold.PLP.part.hbond>
-1.8448

> <Gold.PLP.part.metal>
0.0000

> <Gold.PLP.part.buried>
-1.1184

> <Gold.PLP.part.nonpolar>
-33.8390

> <Gold.PLP.part.repulsive>
0.5295

> <Gold.PLP.ligand.clash>
0.0000

> <Gold.PLP.ligand.torsion>
1.0701

> <Gold.PLP.Chemscore.Hbond>
1.3432

> <Gold.PLP.Chemscore.CHOScore>
0.6912

> <Gold.PLP.Chemscore.Metal>
0.0000

> <Gold.Chemscore.Hbonds>
donor molecule, donor type, donor heavy atom, donor atom, acceptor molecule, acceptor atom, score
      L1  H    19    44       P1  7921  1.00
      P1  H  7989  7998       L1     2  0.22
      L1  C    15    40       P1 10171  0.81

> <Gold.PLP.Chemscore.Internal.Correction>
0.8387

> <Gold.Rescore>
     Score         DG    S(hbond)    S(metal)    S(lipo)     H(rot)  DE(clash)    DE(int)     intcor
     10.68     -13.08       0.99        0.00      96.14       2.72       1.40       1.01       ----

> <Gold.Chemscore.Fitness>
10.6759

> <Gold.Chemscore.DG>
-13.0819

> <Gold.Chemscore.ZeroCoef>
-5.4800

> <Gold.Chemscore.Hbond>
0.9907

> <Gold.Chemscore.Metal>
0.0000

> <Gold.Chemscore.Lipo>
96.1450

> <Gold.Chemscore.Internal_Hbond>
0.0000

> <Gold.Chemscore.DEClash>
1.3971

> <Gold.Chemscore.DEInternal>
1.0090

> <Gold.Chemscore.Rot>
2.7172

> <Gold.Chemscore.Internal.Correction>
   9.000000E+99

> <Gold.Chemscore.Hbonds>
donor molecule, donor type, donor heavy atom, donor atom, acceptor molecule, acceptor atom, score
      L1  H    19    44       P1  7921  0.96
      P1  H  7989  7998       L1     2  0.01

> <Gold.Chemscore.Hbond.Weighted>
-3.3090

> <Gold.Chemscore.Metal.Weighted>
-0.0000

> <Gold.Chemscore.Lipo.Weighted>
-11.2490

> <Gold.Chemscore.Internal_Hbond.Weighted>
0.0000

> <Gold.Chemscore.DEClash.Weighted>
1.3971

> <Gold.Chemscore.DEInternal.Weighted>
1.0090

> <Gold.Chemscore.Rot.Weighted>
6.9560

> <Gold.Chemscore.Internal.Correction.Weighted>
   9.000000E+99

> <Gold.Protein.RotatedTorsions>
[ 6907 6896 6895 6894 ] final  -16.64 input  -60.11 | X-H torsion
[ 7974 7965 7964 7962 ] final -115.37 input  175.53 | X-H torsion
[ 8008 7997 7996 7995 ] final  166.77 input   59.86 | X-H torsion
[ 10167 10162 10161 10158 ] final   -8.82 input  -65.29 | X-H torsion
[ 10718 10713 10712 10709 ] final   82.45 input   66.30 | X-H torsion
[ 10763 10752 10751 10750 ] final   50.70 input  -60.55 | X-H torsion
[ 11005 11000 10999 10996 ] final   29.90 input  -57.11 | X-H torsion

> <Gold.Protein.ActiveResidues>
 VAL166  LYS551  ARG553  GLY616  TRP617  ASP618  TYR619  PRO620  LYS621  CYS622 
 ASP623  PHE694  ASN695  SER759  ASP760  ASP761  ALA762  ILE779  LEU786  VAL792 
 PHE793  MET794  SER795  GLU796  ALA797  LYS798  CYS799  TRP800  GLU811  SER814 

> <Gold.Protein.RotatedAtoms>
  151.3055  135.0780  159.9253 H   0  0  0  0  0  0  0  0  0  0  0  0  # atno 6907 bound_to 6896
  152.5288  133.9789  159.7807 H   0  0  0  0  0  0  0  0  0  0  0  0  # atno 6908 bound_to 6896
  151.0083  133.5938  159.2716 H   0  0  0  0  0  0  0  0  0  0  0  0  # atno 6909 bound_to 6896
  145.1092  140.8601  143.3880 H   0  0  0  0  0  0  0  0  0  0  0  0  # atno 7974 bound_to 7965
  156.1691  140.1634  156.8480 H   0  0  0  0  0  0  0  0  0  0  0  0  # atno 8008 bound_to 7997
  154.5238  140.0772  156.8255 H   0  0  0  0  0  0  0  0  0  0  0  0  # atno 8009 bound_to 7997
  155.3550  140.3392  155.4242 H   0  0  0  0  0  0  0  0  0  0  0  0  # atno 8010 bound_to 7997
  140.7070  143.5926  150.8878 H   0  0  0  0  0  0  0  0  0  0  0  0  # atno 10167 bound_to 10162
  157.6857  131.0048  150.2376 H   0  0  0  0  0  0  0  0  0  0  0  0  # atno 10718 bound_to 10713
  152.9784  135.5870  154.4295 H   0  0  0  0  0  0  0  0  0  0  0  0  # atno 10763 bound_to 10752
  154.3910  135.2768  155.2156 H   0  0  0  0  0  0  0  0  0  0  0  0  # atno 10764 bound_to 10752
  154.4029  135.6099  153.5962 H   0  0  0  0  0  0  0  0  0  0  0  0  # atno 10765 bound_to 10752
  140.3000  134.2767  155.7756 H   0  0  0  0  0  0  0  0  0  0  0  0  # atno 11005 bound_to 11000
  145.0867  139.2920  143.5756 LP  0  0  0  0  0  0  0  0  0  0  0  0  # atno 17320 bound_to 7965
  146.3527  140.0391  142.8644 LP  0  0  0  0  0  0  0  0  0  0  0  0  # atno 17321 bound_to 7965
  139.9652  143.6119  152.2990 LP  0  0  0  0  0  0  0  0  0  0  0  0  # atno 17342 bound_to 10162
  139.6686  144.7661  151.1826 LP  0  0  0  0  0  0  0  0  0  0  0  0  # atno 17343 bound_to 10162
  156.2997  130.3757  149.7762 LP  0  0  0  0  0  0  0  0  0  0  0  0  # atno 17370 bound_to 10713
  156.5396  130.8294  151.3264 LP  0  0  0  0  0  0  0  0  0  0  0  0  # atno 17371 bound_to 10713
  141.2130  133.7640  156.9753 LP  0  0  0  0  0  0  0  0  0  0  0  0  # atno 17394 bound_to 11000
  140.1117  134.9472  157.2075 LP  0  0  0  0  0  0  0  0  0  0  0  0  # atno 17395 bound_to 11000

$$$$
