AV-unprocessed.smi:319|AV-procd|sdf|2331|dock1
  -GOLD-   2262022233D 1   1.00000     0.00000
 Structure written by MMmdl.
 38 39  0  0  0  0  0  0  0  0  1 V2000
  146.7977  138.8379  152.2729 C   0  0  0  0  0  0  0  0  0  0  0  0
  147.0711  140.3548  153.2315 S   0  0  0  0  0  0  0  0  0  0  0  0
  148.5965  139.9741  154.0375 C   0  0  0  0  0  0  0  0  0  0  0  0
  149.2535  138.8295  153.8453 N   0  0  0  0  0  0  0  0  0  0  0  0
  150.4348  138.7459  154.5879 C   0  0  0  0  0  0  0  0  0  0  0  0
  151.2832  137.5150  154.4812 C   0  0  0  0  0  0  0  0  0  0  0  0
  150.6739  139.8563  155.3649 C   0  0  0  0  0  0  0  0  0  0  0  0
  151.8257  140.1129  156.2854 C   0  0  0  0  0  0  0  0  0  0  0  0
  151.3342  140.6351  157.6352 C   0  0  0  0  0  0  0  0  0  0  0  0
  150.4140  140.0628  158.2186 O   0  0  0  0  0  0  0  0  0  0  0  0
  151.9618  141.7171  158.1209 N   0  0  0  0  0  0  0  0  0  0  0  0
  151.6781  142.3574  159.4008 C   0  0  0  0  0  0  0  0  0  0  0  0
  151.6250  143.8913  159.2430 C   0  0  0  0  0  0  0  0  0  0  0  0
  151.4099  144.5886  160.5961 C   0  0  0  0  0  0  0  0  0  0  0  0
  152.4846  144.1760  161.6143 C   0  0  0  0  0  0  0  0  0  0  0  0
  152.5344  142.6489  161.7786 C   0  0  0  0  0  0  0  0  0  0  0  0
  152.7520  141.9494  160.4272 C   0  0  0  0  0  0  0  0  0  0  0  0
  149.4103  141.0454  155.1757 S   0  0  0  0  0  0  0  0  0  0  0  0
  145.8611  138.9152  151.7211 H   0  0  0  0  0  0  0  0  0  0  0  0
  146.7324  137.9706  152.9298 H   0  0  0  0  0  0  0  0  0  0  0  0
  147.6016  138.6823  151.5532 H   0  0  0  0  0  0  0  0  0  0  0  0
  152.3341  137.7688  154.3430 H   0  0  0  0  0  0  0  0  0  0  0  0
  150.9852  136.8921  153.6371 H   0  0  0  0  0  0  0  0  0  0  0  0
  151.2045  136.9057  155.3816 H   0  0  0  0  0  0  0  0  0  0  0  0
  152.4105  139.2034  156.4273 H   0  0  0  0  0  0  0  0  0  0  0  0
  152.5024  140.8463  155.8455 H   0  0  0  0  0  0  0  0  0  0  0  0
  152.7054  142.1181  157.5682 H   0  0  0  0  0  0  0  0  0  0  0  0
  150.7109  142.0066  159.7665 H   0  0  0  0  0  0  0  0  0  0  0  0
  152.5538  144.2492  158.7964 H   0  0  0  0  0  0  0  0  0  0  0  0
  150.8248  144.1727  158.5575 H   0  0  0  0  0  0  0  0  0  0  0  0
  151.4201  145.6707  160.4624 H   0  0  0  0  0  0  0  0  0  0  0  0
  150.4224  144.3347  160.9839 H   0  0  0  0  0  0  0  0  0  0  0  0
  153.4586  144.5408  161.2860 H   0  0  0  0  0  0  0  0  0  0  0  0
  152.2860  144.6477  162.5770 H   0  0  0  0  0  0  0  0  0  0  0  0
  153.3312  142.3753  162.4708 H   0  0  0  0  0  0  0  0  0  0  0  0
  151.6029  142.2988  162.2254 H   0  0  0  0  0  0  0  0  0  0  0  0
  152.7420  140.8679  160.5685 H   0  0  0  0  0  0  0  0  0  0  0  0
  153.7429  142.2018  160.0468 H   0  0  0  0  0  0  0  0  0  0  0  0
  1  2  1  0  0  0  0
  1 19  1  0  0  0  0
  1 20  1  0  0  0  0
  1 21  1  0  0  0  0
  2  3  1  0  0  0  0
  3 18  1  0  0  0  0
  3  4  2  0  0  0  0
  4  5  1  0  0  0  0
  5  6  1  0  0  0  0
  5  7  2  0  0  0  0
  6 22  1  0  0  0  0
  6 23  1  0  0  0  0
  6 24  1  0  0  0  0
  7  8  1  0  0  0  0
  7 18  1  0  0  0  0
  8  9  1  0  0  0  0
  8 25  1  0  0  0  0
  8 26  1  0  0  0  0
  9 10  2  0  0  0  0
  9 11  1  0  0  0  0
 11 12  1  0  0  0  0
 11 27  1  0  0  0  0
 12 17  1  0  0  0  0
 12 13  1  0  0  0  0
 12 28  1  0  0  0  0
 13 14  1  0  0  0  0
 13 29  1  0  0  0  0
 13 30  1  0  0  0  0
 14 15  1  0  0  0  0
 14 31  1  0  0  0  0
 14 32  1  0  0  0  0
 15 16  1  0  0  0  0
 15 33  1  0  0  0  0
 15 34  1  0  0  0  0
 16 17  1  0  0  0  0
 16 35  1  0  0  0  0
 16 36  1  0  0  0  0
 17 37  1  0  0  0  0
 17 38  1  0  0  0  0
M  END
> <s_m_source_file>
AV-unprocessed.smi

> <i_m_source_file_index>
319

> <i_lp_mmshare_version>
43012

> <i_f3d_flags>
0

> <s_epik_input>
W0NIM11TYzFuYyhbQ0gzXSljKHMxKVtDSDJdQyg9TylbTkhdW0NIXTJbQ0gyXVtDSDJdW0NIMl1bQ0gyXVtDSDJdMg==

> <s_epik_cmdline>
J2VwaWtfcHl0aG9uJywgJy1waCcsICc3LjAnLCAnLXRuJywgJzgnLCAnLW1hJywgJzIwMCcsICctbWV0YWxfYmluZGluZycsICctaW1hZScsICc8aW5maWxlLm1hZT4nLCAnLW9tYWUnLCAnPG91dGZpbGUubWFlPic=

> <r_lp_tautomer_probability>
1

> <r_epik_Ionization_Penalty>
2.85285e-06

> <r_epik_Ionization_Penalty_Charging>
0

> <r_epik_Ionization_Penalty_Neutral>
2.85285e-06

> <r_epik_State_Penalty>
-0

> <r_epik_Charging_Adjusted_Penalty>
0

> <i_epik_Tot_Q>
0

> <i_epik_Tot_abs_Q>
0

> <r_epik_Metal_State_Penalty>
-0

> <b_epik_Metal_Only>
0

> <s_lp_Force_Field>
OPLS_2005

> <r_lp_Energy>
6.2973

> <b_lp_Chiralities_Consistent>
1

> <s_lp_Variant>
AV-unprocessed.smi:319-1

> <Gold.Version>
5.8.1

> <Gold.Id.Protein>
6NUR|6NUR_protein|mol2

> <Gold.PLP.Fitness>
41.9651

> <Gold.PLP.PLP>
-42.9512

> <Gold.PLP.part.hbond>
0.0000

> <Gold.PLP.part.metal>
0.0000

> <Gold.PLP.part.buried>
-3.1583

> <Gold.PLP.part.nonpolar>
-40.9504

> <Gold.PLP.part.repulsive>
1.8291

> <Gold.PLP.ligand.clash>
0.0000

> <Gold.PLP.ligand.torsion>
0.4983

> <Gold.PLP.Chemscore.Hbond>
0.0000

> <Gold.PLP.Chemscore.CHOScore>
0.0000

> <Gold.PLP.Chemscore.Metal>
0.0000

> <Gold.PLP.Chemscore.Internal.Correction>
0.0104

> <Gold.Rescore>
     Score         DG    S(hbond)    S(metal)    S(lipo)     H(rot)  DE(clash)    DE(int)     intcor
     15.98     -16.75       0.00        0.00     125.40       1.33       0.38       0.39       ----

> <Gold.Chemscore.Fitness>
15.9789

> <Gold.Chemscore.DG>
-16.7496

> <Gold.Chemscore.ZeroCoef>
-5.4800

> <Gold.Chemscore.Hbond>
0.0000

> <Gold.Chemscore.Metal>
0.0000

> <Gold.Chemscore.Lipo>
125.3974

> <Gold.Chemscore.Internal_Hbond>
0.0000

> <Gold.Chemscore.DEClash>
0.3827

> <Gold.Chemscore.DEInternal>
0.3879

> <Gold.Chemscore.Rot>
1.3289

> <Gold.Chemscore.Internal.Correction>
   9.000000E+99

> <Gold.Chemscore.Hbond.Weighted>
-0.0000

> <Gold.Chemscore.Metal.Weighted>
-0.0000

> <Gold.Chemscore.Lipo.Weighted>
-14.6715

> <Gold.Chemscore.Internal_Hbond.Weighted>
0.0000

> <Gold.Chemscore.DEClash.Weighted>
0.3827

> <Gold.Chemscore.DEInternal.Weighted>
0.3879

> <Gold.Chemscore.Rot.Weighted>
3.4019

> <Gold.Chemscore.Internal.Correction.Weighted>
   9.000000E+99

> <Gold.Protein.RotatedTorsions>
[ 6907 6896 6895 6894 ] final  -10.43 input  -60.11 | X-H torsion
[ 7974 7965 7964 7962 ] final -179.72 input  175.53 | X-H torsion
[ 8008 7997 7996 7995 ] final -153.42 input   59.86 | X-H torsion
[ 10167 10162 10161 10158 ] final  173.38 input  -65.29 | X-H torsion
[ 10718 10713 10712 10709 ] final  -72.73 input   66.30 | X-H torsion
[ 10763 10752 10751 10750 ] final   28.86 input  -60.55 | X-H torsion
[ 11005 11000 10999 10996 ] final  129.74 input  -57.11 | X-H torsion

> <Gold.Protein.ActiveResidues>
 VAL166  LYS551  ARG553  GLY616  TRP617  ASP618  TYR619  PRO620  LYS621  CYS622 
 ASP623  PHE694  ASN695  SER759  ASP760  ASP761  ALA762  ILE779  LEU786  VAL792 
 PHE793  MET794  SER795  GLU796  ALA797  LYS798  CYS799  TRP800  GLU811  SER814 

> <Gold.Protein.RotatedAtoms>
  151.4021  135.0972  159.9558 H   0  0  0  0  0  0  0  0  0  0  0  0  # atno 6907 bound_to 6896
  152.5047  133.8878  159.7389 H   0  0  0  0  0  0  0  0  0  0  0  0  # atno 6908 bound_to 6896
  150.9354  133.6661  159.2830 H   0  0  0  0  0  0  0  0  0  0  0  0  # atno 6909 bound_to 6896
  144.7138  140.0675  143.6430 H   0  0  0  0  0  0  0  0  0  0  0  0  # atno 7974 bound_to 7965
  155.6705  140.0733  157.2521 H   0  0  0  0  0  0  0  0  0  0  0  0  # atno 8008 bound_to 7997
  154.4124  140.1700  156.1926 H   0  0  0  0  0  0  0  0  0  0  0  0  # atno 8009 bound_to 7997
  155.9620  140.3369  155.6502 H   0  0  0  0  0  0  0  0  0  0  0  0  # atno 8010 bound_to 7997
  139.5106  144.3267  152.0150 H   0  0  0  0  0  0  0  0  0  0  0  0  # atno 10167 bound_to 10162
  156.0308  130.4378  150.2636 H   0  0  0  0  0  0  0  0  0  0  0  0  # atno 10718 bound_to 10713
  153.0466  135.6503  154.0802 H   0  0  0  0  0  0  0  0  0  0  0  0  # atno 10763 bound_to 10752
  154.0499  135.2896  155.3343 H   0  0  0  0  0  0  0  0  0  0  0  0  # atno 10764 bound_to 10752
  154.6727  135.5350  153.8225 H   0  0  0  0  0  0  0  0  0  0  0  0  # atno 10765 bound_to 10752
  139.9632  134.9597  156.9192 H   0  0  0  0  0  0  0  0  0  0  0  0  # atno 11005 bound_to 11000
  145.9812  139.2942  143.1041 LP  0  0  0  0  0  0  0  0  0  0  0  0  # atno 17320 bound_to 7965
  145.9009  140.9243  143.0503 LP  0  0  0  0  0  0  0  0  0  0  0  0  # atno 17321 bound_to 7965
  140.2708  144.3966  150.6152 LP  0  0  0  0  0  0  0  0  0  0  0  0  # atno 17342 bound_to 10162
  140.6090  143.2168  151.6924 LP  0  0  0  0  0  0  0  0  0  0  0  0  # atno 17343 bound_to 10162
  157.0738  131.0124  151.3181 LP  0  0  0  0  0  0  0  0  0  0  0  0  # atno 17370 bound_to 10713
  157.4979  130.7862  149.7574 LP  0  0  0  0  0  0  0  0  0  0  0  0  # atno 17371 bound_to 10713
  140.5454  134.0679  155.7353 LP  0  0  0  0  0  0  0  0  0  0  0  0  # atno 17394 bound_to 11000
  141.1311  133.9301  157.2534 LP  0  0  0  0  0  0  0  0  0  0  0  0  # atno 17395 bound_to 11000

$$$$
