AV-unprocessed.smi:2781|AV-procd|sdf|10718|dock4
  -GOLD-   2272015153D 1   1.00000     0.00000
 Structure written by MMmdl.
 35 38  0  0  0  0  0  0  0  0  1 V2000
  150.0924  140.4761  156.3846 O   0  0  0  0  0  0  0  0  0  0  0  0
  149.7593  141.5686  155.9240 C   0  0  0  0  0  0  0  0  0  0  0  0
  148.9324  141.7517  154.8792 N   0  0  0  0  0  0  0  0  0  0  0  0
  148.2748  140.7665  154.0952 C   0  0  0  0  0  0  0  0  0  0  0  0
  147.2789  141.2629  153.2232 C   0  0  0  0  0  0  0  0  0  0  0  0
  146.5677  140.3669  152.4013 C   0  0  0  0  0  0  0  0  0  0  0  0
  146.8717  138.9961  152.4749 C   0  0  0  0  0  0  0  0  0  0  0  0
  146.2141  138.0970  151.7050 F   0  0  0  0  0  0  0  0  0  0  0  0
  147.8762  138.5833  153.3695 C   0  0  0  0  0  0  0  0  0  0  0  0
  148.5590  139.4413  154.1571 N   0  0  0  0  0  0  0  0  0  0  0  0
  150.1860  142.7413  156.4131 N   0  0  0  0  0  0  0  0  0  0  0  0
  151.0747  142.9061  157.5177 C   0  0  2  0  0  0  0  0  0  0  0  0
  150.5743  143.7307  158.6859 C   0  0  1  0  0  0  0  0  0  0  0  0
  151.2237  143.8661  160.0612 C   0  0  1  0  0  0  0  0  0  0  0  0
  152.3881  142.8685  160.2321 C   0  0  0  0  0  0  0  0  0  0  0  0
  153.4614  143.4433  159.2812 C   0  0  0  0  0  0  0  0  0  0  0  0
  152.7594  144.6881  158.7003 C   0  0  2  0  0  0  0  0  0  0  0  0
  151.9889  145.1785  159.9222 C   0  0  0  0  0  0  0  0  0  0  0  0
  151.6298  144.2963  157.7506 C   0  0  1  0  0  0  0  0  0  0  0  0
  148.7525  142.7083  154.6132 H   0  0  0  0  0  0  0  0  0  0  0  0
  147.0590  142.3198  153.1805 H   0  0  0  0  0  0  0  0  0  0  0  0
  145.8032  140.7258  151.7280 H   0  0  0  0  0  0  0  0  0  0  0  0
  148.1390  137.5394  153.4561 H   0  0  0  0  0  0  0  0  0  0  0  0
  149.8584  143.5866  155.9688 H   0  0  0  0  0  0  0  0  0  0  0  0
  151.7231  142.0620  157.7388 H   0  0  0  0  0  0  0  0  0  0  0  0
  149.5843  144.1765  158.6038 H   0  0  0  0  0  0  0  0  0  0  0  0
  150.4912  143.8429  160.8683 H   0  0  0  0  0  0  0  0  0  0  0  0
  152.7509  142.8718  161.2608 H   0  0  0  0  0  0  0  0  0  0  0  0
  152.1030  141.8447  159.9886 H   0  0  0  0  0  0  0  0  0  0  0  0
  154.3518  143.7301  159.8423 H   0  0  0  0  0  0  0  0  0  0  0  0
  153.7732  142.7389  158.5095 H   0  0  0  0  0  0  0  0  0  0  0  0
  153.4366  145.4193  158.2581 H   0  0  0  0  0  0  0  0  0  0  0  0
  151.3441  146.0335  159.7109 H   0  0  0  0  0  0  0  0  0  0  0  0
  152.6244  145.4109  160.7791 H   0  0  0  0  0  0  0  0  0  0  0  0
  151.2934  145.0935  157.0898 H   0  0  0  0  0  0  0  0  0  0  0  0
  1  2  2  0  0  0  0
  2  3  1  0  0  0  0
  2 11  1  0  0  0  0
  3  4  1  0  0  0  0
  3 20  1  0  0  0  0
  4 10  1  0  0  0  0
  4  5  2  0  0  0  0
  5  6  1  0  0  0  0
  5 21  1  0  0  0  0
  6  7  2  0  0  0  0
  6 22  1  0  0  0  0
  7  8  1  0  0  0  0
  7  9  1  0  0  0  0
  9 10  2  0  0  0  0
  9 23  1  0  0  0  0
 11 12  1  0  0  0  0
 11 24  1  0  0  0  0
 12 19  1  0  0  0  0
 12 13  1  0  0  0  0
 12 25  1  0  0  0  0
 13 19  1  0  0  0  0
 13 14  1  0  0  0  0
 13 26  1  0  0  0  0
 14 18  1  0  0  0  0
 14 15  1  0  0  0  0
 14 27  1  0  0  0  0
 15 16  1  0  0  0  0
 15 28  1  0  0  0  0
 15 29  1  0  0  0  0
 16 17  1  0  0  0  0
 16 30  1  0  0  0  0
 16 31  1  0  0  0  0
 17 18  1  0  0  0  0
 17 19  1  0  0  0  0
 17 32  1  0  0  0  0
 18 33  1  0  0  0  0
 18 34  1  0  0  0  0
 19 35  1  0  0  0  0
M  END
> <s_m_source_file>
AV-unprocessed.smi

> <i_m_source_file_index>
2781

> <i_lp_mmshare_version>
43012

> <i_f3d_flags>
0

> <s_epik_input>
bjFbY0hdYyhGKVtjSF1bY0hdYzFbTkhdQyg9TylbTkhdW0NASF0yW0NAQEhdM1tDQEhdKFtDSDJdNClbQ0gyXVtDSDJdW0NASF00W0NASF0yMw==

> <s_epik_cmdline>
J2VwaWtfcHl0aG9uJywgJy1waCcsICc3LjAnLCAnLXRuJywgJzgnLCAnLW1hJywgJzIwMCcsICctbWV0YWxfYmluZGluZycsICctaW1hZScsICc8aW5maWxlLm1hZT4nLCAnLW9tYWUnLCAnPG91dGZpbGUubWFlPic=

> <r_lp_tautomer_probability>
1

> <r_epik_Ionization_Penalty>
4.05776e-05

> <r_epik_Ionization_Penalty_Charging>
0

> <r_epik_Ionization_Penalty_Neutral>
4.05776e-05

> <r_epik_State_Penalty>
-0

> <r_epik_Charging_Adjusted_Penalty>
0

> <i_epik_Tot_Q>
0

> <i_epik_Tot_abs_Q>
0

> <r_epik_Metal_State_Penalty>
-0

> <b_epik_Metal_Only>
0

> <s_lp_Force_Field>
OPLS_2005

> <r_lp_Energy>
79.6255

> <b_lp_Chiralities_Consistent>
1

> <s_lp_Variant>
AV-unprocessed.smi:2781-2

> <Gold.Version>
5.8.1

> <Gold.Id.Protein>
6NUR|6NUR_protein|mol2

> <Gold.PLP.Fitness>
47.6873

> <Gold.PLP.PLP>
-41.1536

> <Gold.PLP.part.hbond>
-1.7550

> <Gold.PLP.part.metal>
0.0000

> <Gold.PLP.part.buried>
1.1690

> <Gold.PLP.part.nonpolar>
-41.9188

> <Gold.PLP.part.repulsive>
0.4505

> <Gold.PLP.ligand.clash>
0.0000

> <Gold.PLP.ligand.torsion>
0.0859

> <Gold.PLP.Chemscore.Hbond>
1.3159

> <Gold.PLP.Chemscore.CHOScore>
0.9071

> <Gold.PLP.Chemscore.Metal>
0.0000

> <Gold.Chemscore.Hbonds>
donor molecule, donor type, donor heavy atom, donor atom, acceptor molecule, acceptor atom, score
      L1  H     3    20       P1  8028  0.33
      L1  H    11    24       P1  8028  0.98
      L1  C     9    23       P1  7948  0.93

> <Gold.PLP.Chemscore.Internal.Correction>
0.0365

> <Gold.Rescore>
     Score         DG    S(hbond)    S(metal)    S(lipo)     H(rot)  DE(clash)    DE(int)     intcor
     19.80     -22.75       1.61        0.00     123.40       1.00       1.62       1.33       ----

> <Gold.Chemscore.Fitness>
19.8007

> <Gold.Chemscore.DG>
-22.7510

> <Gold.Chemscore.ZeroCoef>
-5.4800

> <Gold.Chemscore.Hbond>
1.6147

> <Gold.Chemscore.Metal>
0.0000

> <Gold.Chemscore.Lipo>
123.4007

> <Gold.Chemscore.Internal_Hbond>
0.0000

> <Gold.Chemscore.DEClash>
1.6166

> <Gold.Chemscore.DEInternal>
1.3337

> <Gold.Chemscore.Rot>
1.0000

> <Gold.Chemscore.Internal.Correction>
   9.000000E+99

> <Gold.Chemscore.Hbonds>
donor molecule, donor type, donor heavy atom, donor atom, acceptor molecule, acceptor atom, score
      L1  H     3    20       P1  8028  0.33
      L1  H    11    24       P1  8028  0.91

> <Gold.Chemscore.Hbond.Weighted>
-5.3931

> <Gold.Chemscore.Metal.Weighted>
-0.0000

> <Gold.Chemscore.Lipo.Weighted>
-14.4379

> <Gold.Chemscore.Internal_Hbond.Weighted>
0.0000

> <Gold.Chemscore.DEClash.Weighted>
1.6166

> <Gold.Chemscore.DEInternal.Weighted>
1.3337

> <Gold.Chemscore.Rot.Weighted>
2.5600

> <Gold.Chemscore.Internal.Correction.Weighted>
   9.000000E+99

> <Gold.Protein.RotatedTorsions>
[ 6907 6896 6895 6894 ] final   87.14 input  -60.11 | X-H torsion
[ 7974 7965 7964 7962 ] final  179.73 input  175.53 | X-H torsion
[ 8008 7997 7996 7995 ] final  122.27 input   59.86 | X-H torsion
[ 10167 10162 10161 10158 ] final  142.14 input  -65.29 | X-H torsion
[ 10718 10713 10712 10709 ] final  120.72 input   66.30 | X-H torsion
[ 10763 10752 10751 10750 ] final  -27.56 input  -60.55 | X-H torsion
[ 11005 11000 10999 10996 ] final -166.32 input  -57.11 | X-H torsion

> <Gold.Protein.ActiveResidues>
 VAL166  LYS551  ARG553  GLY616  TRP617  ASP618  TYR619  PRO620  LYS621  CYS622 
 ASP623  PHE694  ASN695  SER759  ASP760  ASP761  ALA762  ILE779  LEU786  VAL792 
 PHE793  MET794  SER795  GLU796  ALA797  LYS798  CYS799  TRP800  GLU811  SER814 

> <Gold.Protein.RotatedAtoms>
  152.5406  134.2322  159.8829 H   0  0  0  0  0  0  0  0  0  0  0  0  # atno 6907 bound_to 6896
  151.2293  133.4452  159.2611 H   0  0  0  0  0  0  0  0  0  0  0  0  # atno 6908 bound_to 6896
  151.0730  134.9824  159.8374 H   0  0  0  0  0  0  0  0  0  0  0  0  # atno 6909 bound_to 6896
  144.7143  140.0592  143.6433 H   0  0  0  0  0  0  0  0  0  0  0  0  # atno 7974 bound_to 7965
  156.2721  140.2789  156.1441 H   0  0  0  0  0  0  0  0  0  0  0  0  # atno 8008 bound_to 7997
  155.0922  140.0389  157.2689 H   0  0  0  0  0  0  0  0  0  0  0  0  # atno 8009 bound_to 7997
  154.6880  140.2623  155.6847 H   0  0  0  0  0  0  0  0  0  0  0  0  # atno 8010 bound_to 7997
  139.5002  144.6126  151.6237 H   0  0  0  0  0  0  0  0  0  0  0  0  # atno 10167 bound_to 10162
  157.5870  131.1069  150.8075 H   0  0  0  0  0  0  0  0  0  0  0  0  # atno 10718 bound_to 10713
  153.7341  135.6937  153.4982 H   0  0  0  0  0  0  0  0  0  0  0  0  # atno 10763 bound_to 10752
  153.2115  135.4401  155.0384 H   0  0  0  0  0  0  0  0  0  0  0  0  # atno 10764 bound_to 10752
  154.8243  135.3438  154.6869 H   0  0  0  0  0  0  0  0  0  0  0  0  # atno 10765 bound_to 10752
  140.5658  134.5287  157.5152 H   0  0  0  0  0  0  0  0  0  0  0  0  # atno 11005 bound_to 11000
  145.9878  139.2991  143.1003 LP  0  0  0  0  0  0  0  0  0  0  0  0  # atno 17320 bound_to 7965
  145.8937  140.9287  143.0539 LP  0  0  0  0  0  0  0  0  0  0  0  0  # atno 17321 bound_to 7965
  140.5805  143.9954  150.6265 LP  0  0  0  0  0  0  0  0  0  0  0  0  # atno 17342 bound_to 10162
  140.3102  143.3203  152.0887 LP  0  0  0  0  0  0  0  0  0  0  0  0  # atno 17343 bound_to 10162
  156.8507  130.5079  149.5312 LP  0  0  0  0  0  0  0  0  0  0  0  0  # atno 17370 bound_to 10713
  156.0920  130.5903  150.9749 LP  0  0  0  0  0  0  0  0  0  0  0  0  # atno 17371 bound_to 10713
  139.9385  134.7830  156.0739 LP  0  0  0  0  0  0  0  0  0  0  0  0  # atno 17394 bound_to 11000
  141.1086  133.6651  156.2924 LP  0  0  0  0  0  0  0  0  0  0  0  0  # atno 17395 bound_to 11000

$$$$
