AV-unprocessed.smi:1451|AV-procd|sdf|5899|dock10
  -GOLD-   22720 5583D 1   1.00000     0.00000
 Structure written by MMmdl.
 47 48  0  0  0  0  0  0  0  0  2 V2000
  147.2949  140.0701  152.9357 C   0  0  0  0  0  0  0  0  0  0  0  0
  148.1618  139.9365  154.1960 C   0  0  2  0  0  0  0  0  0  0  0  0
  148.4983  141.3122  154.7951 C   0  0  0  0  0  0  0  0  0  0  0  0
  149.3840  141.1484  156.0364 C   0  0  0  0  0  0  0  0  0  0  0  0
  150.6435  140.3306  155.7092 C   0  0  0  0  0  0  0  0  0  0  0  0
  150.2898  139.0065  155.1348 N   0  3  2  0  0  0  0  0  0  0  0  0
  151.4844  138.1477  154.9344 C   0  0  0  0  0  0  0  0  0  0  0  0
  151.6064  137.0465  156.0061 C   0  0  0  0  0  0  0  0  0  0  0  0
  151.4850  137.5974  157.3506 N   0  0  0  0  0  0  0  0  0  0  0  0
  152.1767  138.6489  157.8151 C   0  0  0  0  0  0  0  0  0  0  0  0
  152.9829  139.2788  157.1291 O   0  0  0  0  0  0  0  0  0  0  0  0
  151.9012  139.0495  159.2715 C   0  0  0  0  0  0  0  0  0  0  0  0
  152.4672  140.3614  159.6287 N   0  0  0  0  0  0  0  0  0  0  0  0
  151.9150  141.4941  158.9984 C   0  0  0  0  0  0  0  0  0  0  0  0
  152.3539  142.7467  159.2269 C   0  0  0  0  0  0  0  0  0  0  0  0
  151.7024  143.9532  158.5693 C   0  0  0  0  0  0  0  0  0  0  0  0
  152.2850  145.0872  158.9595 F   0  0  0  0  0  0  0  0  0  0  0  0
  151.8143  143.8629  157.2447 F   0  0  0  0  0  0  0  0  0  0  0  0
  150.4054  144.0230  158.8721 F   0  0  0  0  0  0  0  0  0  0  0  0
  153.4219  142.8896  160.1969 C   0  0  0  0  0  0  0  0  0  0  0  0
  153.9569  141.8177  160.8135 C   0  0  0  0  0  0  0  0  0  0  0  0
  153.4851  140.4592  160.5360 C   0  0  0  0  0  0  0  0  0  0  0  0
  153.9740  139.4701  161.0832 O   0  0  0  0  0  0  0  0  0  0  0  0
  149.4559  139.1476  153.9105 C   0  0  0  0  0  0  0  0  0  0  0  0
  147.8169  140.6175  152.1501 H   0  0  0  0  0  0  0  0  0  0  0  0
  146.3675  140.6018  153.1516 H   0  0  0  0  0  0  0  0  0  0  0  0
  147.0267  139.0909  152.5378 H   0  0  0  0  0  0  0  0  0  0  0  0
  147.5827  139.3786  154.9338 H   0  0  0  0  0  0  0  0  0  0  0  0
  149.0144  141.9252  154.0546 H   0  0  0  0  0  0  0  0  0  0  0  0
  147.5843  141.8451  155.0593 H   0  0  0  0  0  0  0  0  0  0  0  0
  149.6661  142.1279  156.4241 H   0  0  0  0  0  0  0  0  0  0  0  0
  148.8199  140.6529  156.8277 H   0  0  0  0  0  0  0  0  0  0  0  0
  151.2764  140.8760  155.0071 H   0  0  0  0  0  0  0  0  0  0  0  0
  151.2253  140.1949  156.6219 H   0  0  0  0  0  0  0  0  0  0  0  0
  151.4665  137.7150  153.9327 H   0  0  0  0  0  0  0  0  0  0  0  0
  152.3784  138.7710  154.9817 H   0  0  0  0  0  0  0  0  0  0  0  0
  150.8514  136.2740  155.8498 H   0  0  0  0  0  0  0  0  0  0  0  0
  152.5743  136.5507  155.9477 H   0  0  0  0  0  0  0  0  0  0  0  0
  150.8354  137.1426  157.9762 H   0  0  0  0  0  0  0  0  0  0  0  0
  150.8217  139.0381  159.4276 H   0  0  0  0  0  0  0  0  0  0  0  0
  152.2941  138.2824  159.9419 H   0  0  0  0  0  0  0  0  0  0  0  0
  151.1101  141.2799  158.3103 H   0  0  0  0  0  0  0  0  0  0  0  0
  153.8040  143.8724  160.4305 H   0  0  0  0  0  0  0  0  0  0  0  0
  154.7535  141.9615  161.5289 H   0  0  0  0  0  0  0  0  0  0  0  0
  149.1902  138.1643  153.5242 H   0  0  0  0  0  0  0  0  0  0  0  0
  150.0369  139.6444  153.1317 H   0  0  0  0  0  0  0  0  0  0  0  0
  149.7201  138.5445  155.8293 H   0  0  0  0  0  0  0  0  0  0  0  0
  1  2  1  0  0  0  0
  1 25  1  0  0  0  0
  1 26  1  0  0  0  0
  1 27  1  0  0  0  0
  2 24  1  0  0  0  0
  2  3  1  0  0  0  0
  2 28  1  0  0  0  0
  3  4  1  0  0  0  0
  3 29  1  0  0  0  0
  3 30  1  0  0  0  0
  4  5  1  0  0  0  0
  4 31  1  0  0  0  0
  4 32  1  0  0  0  0
  5  6  1  0  0  0  0
  5 33  1  0  0  0  0
  5 34  1  0  0  0  0
  6  7  1  0  0  0  0
  6 24  1  0  0  0  0
  6 47  1  0  0  0  0
  7  8  1  0  0  0  0
  7 35  1  0  0  0  0
  7 36  1  0  0  0  0
  8  9  1  0  0  0  0
  8 37  1  0  0  0  0
  8 38  1  0  0  0  0
  9 10  1  0  0  0  0
  9 39  1  0  0  0  0
 10 11  2  0  0  0  0
 10 12  1  0  0  0  0
 12 13  1  0  0  0  0
 12 40  1  0  0  0  0
 12 41  1  0  0  0  0
 13 22  1  0  0  0  0
 13 14  1  0  0  0  0
 14 15  2  0  0  0  0
 14 42  1  0  0  0  0
 15 16  1  0  0  0  0
 15 20  1  0  0  0  0
 16 17  1  0  0  0  0
 16 18  1  0  0  0  0
 16 19  1  0  0  0  0
 20 21  2  0  0  0  0
 20 43  1  0  0  0  0
 21 22  1  0  0  0  0
 21 44  1  0  0  0  0
 22 23  2  0  0  0  0
 24 45  1  0  0  0  0
 24 46  1  0  0  0  0
M  CHG  1   6   1
M  END
> <s_m_source_file>
AV-unprocessed.smi

> <i_m_source_file_index>
1451

> <i_lp_mmshare_version>
43012

> <i_f3d_flags>
0

> <s_epik_input>
W0NIM11bQ0BASF0xW0NIMl1bQ0gyXVtDSDJdTihbQ0gyXTEpW0NIMl1bQ0gyXVtOSF1DKD1PKVtDSDJdbjJbY0hdYyhDKEYpKEYpRilbY0hdW2NIXWMyPU8=

> <s_epik_cmdline>
J2VwaWtfcHl0aG9uJywgJy1waCcsICc3LjAnLCAnLXRuJywgJzgnLCAnLW1hJywgJzIwMCcsICctbWV0YWxfYmluZGluZycsICctaW1hZScsICc8aW5maWxlLm1hZT4nLCAnLW9tYWUnLCAnPG91dGZpbGUubWFlPic=

> <r_lp_tautomer_probability>
1

> <r_epik_Ionization_Penalty>
0.00192452

> <r_epik_Ionization_Penalty_Charging>
0.00192444

> <r_epik_Ionization_Penalty_Neutral>
8.16761e-08

> <r_epik_State_Penalty>
0.00131115

> <r_epik_Charging_Adjusted_Penalty>
0.00323559

> <i_epik_Tot_Q>
1

> <i_epik_Tot_abs_Q>
1

> <r_epik_Metal_State_Penalty>
-0

> <b_epik_Metal_Only>
0

> <s_lp_Force_Field>
OPLS_2005

> <r_lp_Energy>
28.0939

> <b_lp_Chiralities_Consistent>
1

> <s_lp_Variant>
AV-unprocessed.smi:1451-1

> <Gold.Version>
5.8.1

> <Gold.Id.Protein>
6NUR|6NUR_protein|mol2

> <Gold.PLP.Fitness>
52.2080

> <Gold.PLP.PLP>
-50.9562

> <Gold.PLP.part.hbond>
-1.0000

> <Gold.PLP.part.metal>
0.0000

> <Gold.PLP.part.buried>
-1.0859

> <Gold.PLP.part.nonpolar>
-48.5301

> <Gold.PLP.part.repulsive>
0.1415

> <Gold.PLP.ligand.clash>
0.0000

> <Gold.PLP.ligand.torsion>
0.9158

> <Gold.PLP.Chemscore.Hbond>
1.0000

> <Gold.PLP.Chemscore.CHOScore>
0.0000

> <Gold.PLP.Chemscore.Metal>
0.0000

> <Gold.Chemscore.Hbonds>
donor molecule, donor type, donor heavy atom, donor atom, acceptor molecule, acceptor atom, score
      P1  H  7997  8009       L1    11  1.00

> <Gold.PLP.Chemscore.Internal.Correction>
0.0833

> <Gold.Rescore>
     Score         DG    S(hbond)    S(metal)    S(lipo)     H(rot)  DE(clash)    DE(int)     intcor
     14.67     -16.13       1.00        0.00     107.93       2.08       0.26       1.20       ----

> <Gold.Chemscore.Fitness>
14.6692

> <Gold.Chemscore.DG>
-16.1318

> <Gold.Chemscore.ZeroCoef>
-5.4800

> <Gold.Chemscore.Hbond>
0.9998

> <Gold.Chemscore.Metal>
0.0000

> <Gold.Chemscore.Lipo>
107.9270

> <Gold.Chemscore.Internal_Hbond>
0.0000

> <Gold.Chemscore.DEClash>
0.2607

> <Gold.Chemscore.DEInternal>
1.2019

> <Gold.Chemscore.Rot>
2.0762

> <Gold.Chemscore.Internal.Correction>
   9.000000E+99

> <Gold.Chemscore.Hbonds>
donor molecule, donor type, donor heavy atom, donor atom, acceptor molecule, acceptor atom, score
      P1  H  7997  8009       L1    11  1.00

> <Gold.Chemscore.Hbond.Weighted>
-3.3393

> <Gold.Chemscore.Metal.Weighted>
-0.0000

> <Gold.Chemscore.Lipo.Weighted>
-12.6275

> <Gold.Chemscore.Internal_Hbond.Weighted>
0.0000

> <Gold.Chemscore.DEClash.Weighted>
0.2607

> <Gold.Chemscore.DEInternal.Weighted>
1.2019

> <Gold.Chemscore.Rot.Weighted>
5.3150

> <Gold.Chemscore.Internal.Correction.Weighted>
   9.000000E+99

> <Gold.Protein.RotatedTorsions>
[ 6907 6896 6895 6894 ] final   79.08 input  -60.11 | X-H torsion
[ 7974 7965 7964 7962 ] final -151.00 input  175.53 | X-H torsion
[ 8008 7997 7996 7995 ] final  173.30 input   59.86 | X-H torsion
[ 10167 10162 10161 10158 ] final -171.39 input  -65.29 | X-H torsion
[ 10718 10713 10712 10709 ] final   52.72 input   66.30 | X-H torsion
[ 10763 10752 10751 10750 ] final -103.20 input  -60.55 | X-H torsion
[ 11005 11000 10999 10996 ] final  164.83 input  -57.11 | X-H torsion

> <Gold.Protein.ActiveResidues>
 VAL166  LYS551  ARG553  GLY616  TRP617  ASP618  TYR619  PRO620  LYS621  CYS622 
 ASP623  PHE694  ASN695  SER759  ASP760  ASP761  ALA762  ILE779  LEU786  VAL792 
 PHE793  MET794  SER795  GLU796  ALA797  LYS798  CYS799  TRP800  GLU811  SER814 

> <Gold.Protein.RotatedAtoms>
  152.5185  134.3566  159.9269 H   0  0  0  0  0  0  0  0  0  0  0  0  # atno 6907 bound_to 6896
  151.3517  133.3916  159.2688 H   0  0  0  0  0  0  0  0  0  0  0  0  # atno 6908 bound_to 6896
  150.9721  134.9111  159.7852 H   0  0  0  0  0  0  0  0  0  0  0  0  # atno 6909 bound_to 6896
  144.7875  140.4856  143.5796 H   0  0  0  0  0  0  0  0  0  0  0  0  # atno 7974 bound_to 7965
  156.1089  140.1463  156.9366 H   0  0  0  0  0  0  0  0  0  0  0  0  # atno 8008 bound_to 7997
  154.4753  140.0896  156.7289 H   0  0  0  0  0  0  0  0  0  0  0  0  # atno 8009 bound_to 7997
  155.4631  140.3439  155.4317 H   0  0  0  0  0  0  0  0  0  0  0  0  # atno 8010 bound_to 7997
  139.5805  144.1433  152.1509 H   0  0  0  0  0  0  0  0  0  0  0  0  # atno 10167 bound_to 10162
  157.5101  130.8495  149.8424 H   0  0  0  0  0  0  0  0  0  0  0  0  # atno 10718 bound_to 10713
  154.7790  135.4832  153.9804 H   0  0  0  0  0  0  0  0  0  0  0  0  # atno 10763 bound_to 10752
  153.1467  135.6783  153.8951 H   0  0  0  0  0  0  0  0  0  0  0  0  # atno 10764 bound_to 10752
  153.8608  135.3155  155.3416 H   0  0  0  0  0  0  0  0  0  0  0  0  # atno 10765 bound_to 10752
  140.2500  134.7985  157.3492 H   0  0  0  0  0  0  0  0  0  0  0  0  # atno 11005 bound_to 11000
  145.5883  139.1494  143.3196 LP  0  0  0  0  0  0  0  0  0  0  0  0  # atno 17320 bound_to 7965
  146.2113  140.6010  142.9058 LP  0  0  0  0  0  0  0  0  0  0  0  0  # atno 17321 bound_to 7965
  140.0986  144.5559  150.7005 LP  0  0  0  0  0  0  0  0  0  0  0  0  # atno 17342 bound_to 10162
  140.7084  143.2485  151.4656 LP  0  0  0  0  0  0  0  0  0  0  0  0  # atno 17343 bound_to 10162
  156.0283  130.3772  150.1759 LP  0  0  0  0  0  0  0  0  0  0  0  0  # atno 17370 bound_to 10713
  156.9949  130.9904  151.3405 LP  0  0  0  0  0  0  0  0  0  0  0  0  # atno 17371 bound_to 10713
  140.1568  134.4779  155.7922 LP  0  0  0  0  0  0  0  0  0  0  0  0  # atno 17394 bound_to 11000
  141.2202  133.6885  156.7474 LP  0  0  0  0  0  0  0  0  0  0  0  0  # atno 17395 bound_to 11000

$$$$
