#       Name:                AV-unprocessed.smi:1666
#       Creating user name   scv26
#       Creation time:       Fri Mar 27 07:38:31 2020


#       File generated by GOLD software.
#

@<TRIPOS>MOLECULE
AV-unprocessed.smi:1666
    45    46     1
SMALL
NO_CHARGES


@<TRIPOS>ATOM
      1 ****        -5.0671  -1.1002   0.7779 C.3            1 S1                 0.0000
      2 ****        -4.8243   0.4005   0.7729 C.ar           1 S1                 0.0000
      3 ****        -5.9291   1.2783   0.7774 C.ar           1 S1                 0.0000
      4 ****        -5.7031   2.6653   0.7734 C.ar           1 S1                 0.0000
      5 ****        -4.3731   3.1190   0.7645 C.ar           1 S1                 0.0000
      6 ****        -3.3114   2.2876   0.7604 N.ar           1 S1                 0.0000
      7 ****        -3.5123   0.9457   0.7652 C.ar           1 S1                 0.0000
      8 ****        -2.4400   0.0096   0.7609 N.am           1 S1                 0.0000
      9 ****        -1.1176   0.2533   0.7671 C.2            1 S1                 0.0000
     10 ****        -0.5952   1.3685   0.7853 O.2            1 S1                 0.0000
     11 ****        -0.4127  -0.8872   0.7477 N.am           1 S1                 0.0000
     12 ****         1.0434  -0.9626   0.7473 C.3            1 S1                 0.0000
     13 ****         1.6227  -0.6595  -0.6479 C.3            1 S1                 0.0000
     14 ****         3.1030  -0.7555  -0.6792 N.4            1 S1                 1.0000
     15 ****         3.6249  -0.9728  -2.0498 C.3            1 S1                 0.0000
     16 ****         5.1565  -1.1119  -2.0290 C.3            1 S1                 0.0000
     17 ****         5.7321   0.0462  -1.4381 O.3            1 S1                 0.0000
     18 ****         5.3106   0.2205  -0.0912 C.3            1 S1                 0.0000
     19 ****         3.7838   0.4015  -0.0456 C.3            1 S1                 0.0000
     20 ****        -6.1330  -1.3299   0.7653 H              1 S1                 0.0000
     21 ****        -4.6374  -1.5533   1.6716 H              1 S1                 0.0000
     22 ****        -4.6145  -1.5642  -0.0989 H              1 S1                 0.0000
     23 ****        -6.9394   0.8962   0.7840 H              1 S1                 0.0000
     24 ****        -6.5274   3.3630   0.7771 H              1 S1                 0.0000
     25 ****        -4.1547   4.1766   0.7607 H              1 S1                 0.0000
     26 ****        -2.7164  -0.9608   0.7504 H              1 S1                 0.0000
     27 ****        -0.9178  -1.7615   0.7347 H              1 S1                 0.0000
     28 ****         1.4352  -0.2796   1.5015 H              1 S1                 0.0000
     29 ****         1.3313  -1.9670   1.0589 H              1 S1                 0.0000
     30 ****         1.2025  -1.3805  -1.3510 H              1 S1                 0.0000
     31 ****         1.3143   0.3266  -0.9987 H              1 S1                 0.0000
     32 ****         3.1819  -1.8730  -2.4776 H              1 S1                 0.0000
     33 ****         3.3343  -0.1371  -2.6885 H              1 S1                 0.0000
     34 ****         5.4601  -2.0049  -1.4801 H              1 S1                 0.0000
     35 ****         5.5384  -1.2171  -3.0446 H              1 S1                 0.0000
     36 ****         5.6203  -0.6335   0.5136 H              1 S1                 0.0000
     37 ****         5.8056   1.0995   0.3220 H              1 S1                 0.0000
     38 ****         3.5044   1.3200  -0.5644 H              1 S1                 0.0000
     39 ****         3.4668   0.5126   0.9907 H              1 S1                 0.0000
     40 ****         3.3525  -1.5767  -0.1465 H              1 S1                 0.0000
     41 ****        -2.3823   2.6575   0.7539 LP             1 S1                 0.0000
     42 ****        -1.1673   2.1885   0.7969 LP             1 S1                 0.0000
     43 ****         0.4012   1.4539   0.7885 LP             1 S1                 0.0000
     44 ****         5.4596   0.8489  -1.9684 LP             1 S1                 0.0000
     45 ****         6.7280  -0.0429  -1.4561 LP             1 S1                 0.0000
@<TRIPOS>BOND
    1    1    2 1     
    2    1   20 1     
    3    1   21 1     
    4    1   22 1     
    5    2    7 ar    
    6    2    3 ar    
    7    3    4 ar    
    8    3   23 1     
    9    4    5 ar    
   10    4   24 1     
   11    5    6 ar    
   12    5   25 1     
   13    6    7 ar    
   14    7    8 1     
   15    8    9 am    
   16    8   26 1     
   17    9   10 2     
   18    9   11 am    
   19   11   12 1     
   20   11   27 1     
   21   12   13 1     
   22   12   28 1     
   23   12   29 1     
   24   13   14 1     
   25   13   30 1     
   26   13   31 1     
   27   14   19 1     
   28   14   15 1     
   29   14   40 1     
   30   15   16 1     
   31   15   32 1     
   32   15   33 1     
   33   16   17 1     
   34   16   34 1     
   35   16   35 1     
   36   17   18 1     
   37   18   19 1     
   38   18   36 1     
   39   18   37 1     
   40   19   38 1     
   41   19   39 1     
   42    6   41 1     
   43   10   42 1     
   44   10   43 1     
   45   17   44 1     
   46   17   45 1     
@<TRIPOS>SUBSTRUCTURE
      1 S1             1
@<TRIPOS>SET
LONE_PAIRS      STATIC     ATOMS    <user>   **** ""
5 41 42 43 44 45
DONOR_HYDROGENS      STATIC     ATOMS    <user>   **** ""
3 26 27 40
ATOM$BLUE        STATIC     ATOMS    COLORGROUP SYSTEM
5 41 42 43 44 45
ATOM$RED        STATIC     ATOMS    COLORGROUP SYSTEM
3 26 27 40
