AV-unprocessed.smi:1724|AV-procd|sdf|6950|dock6
  -GOLD-   22720 8163D 1   1.00000     0.00000
 Structure written by MMmdl.
 38 39  0  0  0  0  0  0  0  0  1 V2000
  147.1256  133.8224  155.4120 O   0  0  0  0  0  0  0  0  0  0  0  0
  146.8281  135.0096  155.5387 C   0  0  0  0  0  0  0  0  0  0  0  0
  147.0407  135.7045  156.6657 N   0  0  0  0  0  0  0  0  0  0  0  0
  147.6455  135.1809  157.8876 C   0  0  0  0  0  0  0  0  0  0  0  0
  146.9474  135.7061  159.1586 C   0  0  1  0  0  0  0  0  0  0  0  0
  146.5969  134.5901  160.1612 C   0  0  0  0  0  0  0  0  0  0  0  0
  145.9942  135.1911  161.4360 C   0  0  0  0  0  0  0  0  0  0  0  0
  146.9161  136.2797  162.0048 C   0  0  0  0  0  0  0  0  0  0  0  0
  147.1499  137.2753  161.0153 O   0  0  0  0  0  0  0  0  0  0  0  0
  147.8152  136.7691  159.8627 C   0  0  0  0  0  0  0  0  0  0  0  0
  146.2627  135.7900  154.5988 N   0  0  0  0  0  0  0  0  0  0  0  0
  145.8691  135.4806  153.2848 C   0  0  0  0  0  0  0  0  0  0  0  0
  145.5856  134.2343  152.8217 C   0  0  0  0  0  0  0  0  0  0  0  0
  145.1815  133.9975  151.4445 C   0  0  0  0  0  0  0  0  0  0  0  0
  144.8720  132.6077  150.9112 C   0  0  0  0  0  0  0  0  0  0  0  0
  144.9404  131.7117  151.8955 F   0  0  0  0  0  0  0  0  0  0  0  0
  143.6379  132.5718  150.4088 F   0  0  0  0  0  0  0  0  0  0  0  0
  145.7253  132.2440  149.9535 F   0  0  0  0  0  0  0  0  0  0  0  0
  145.0955  135.0783  150.6489 C   0  0  0  0  0  0  0  0  0  0  0  0
  145.3778  136.3624  151.1182 N   0  0  0  0  0  0  0  0  0  0  0  0
  145.7588  136.6413  152.3847 C   0  0  0  0  0  0  0  0  0  0  0  0
  145.9884  137.8024  152.7216 O   0  0  0  0  0  0  0  0  0  0  0  0
  145.2880  137.1223  150.4594 H   0  0  0  0  0  0  0  0  0  0  0  0
  146.7664  136.6759  156.6794 H   0  0  0  0  0  0  0  0  0  0  0  0
  147.6597  134.0896  157.8855 H   0  0  0  0  0  0  0  0  0  0  0  0
  148.6898  135.4946  157.8906 H   0  0  0  0  0  0  0  0  0  0  0  0
  146.0175  136.1897  158.8549 H   0  0  0  0  0  0  0  0  0  0  0  0
  145.8919  133.8821  159.7251 H   0  0  0  0  0  0  0  0  0  0  0  0
  147.4946  134.0238  160.4127 H   0  0  0  0  0  0  0  0  0  0  0  0
  145.0178  135.6223  161.2118 H   0  0  0  0  0  0  0  0  0  0  0  0
  145.8288  134.4104  162.1790 H   0  0  0  0  0  0  0  0  0  0  0  0
  146.4528  136.7481  162.8733 H   0  0  0  0  0  0  0  0  0  0  0  0
  147.8631  135.8532  162.3395 H   0  0  0  0  0  0  0  0  0  0  0  0
  148.7863  136.3581  160.1442 H   0  0  0  0  0  0  0  0  0  0  0  0
  148.0087  137.6026  159.1871 H   0  0  0  0  0  0  0  0  0  0  0  0
  146.1106  136.7539  154.8584 H   0  0  0  0  0  0  0  0  0  0  0  0
  145.6432  133.3751  153.4679 H   0  0  0  0  0  0  0  0  0  0  0  0
  144.8088  135.0420  149.6082 H   0  0  0  0  0  0  0  0  0  0  0  0
  1  2  2  0  0  0  0
  2  3  1  0  0  0  0
  2 11  1  0  0  0  0
  3  4  1  0  0  0  0
  3 24  1  0  0  0  0
  4  5  1  0  0  0  0
  4 25  1  0  0  0  0
  4 26  1  0  0  0  0
  5 10  1  0  0  0  0
  5  6  1  0  0  0  0
  5 27  1  0  0  0  0
  6  7  1  0  0  0  0
  6 28  1  0  0  0  0
  6 29  1  0  0  0  0
  7  8  1  0  0  0  0
  7 30  1  0  0  0  0
  7 31  1  0  0  0  0
  8  9  1  0  0  0  0
  8 32  1  0  0  0  0
  8 33  1  0  0  0  0
  9 10  1  0  0  0  0
 10 34  1  0  0  0  0
 10 35  1  0  0  0  0
 11 12  1  0  0  0  0
 11 36  1  0  0  0  0
 12 21  1  0  0  0  0
 12 13  2  0  0  0  0
 13 14  1  0  0  0  0
 13 37  1  0  0  0  0
 14 15  1  0  0  0  0
 14 19  2  0  0  0  0
 15 16  1  0  0  0  0
 15 17  1  0  0  0  0
 15 18  1  0  0  0  0
 19 20  1  0  0  0  0
 19 38  1  0  0  0  0
 20 23  1  0  0  0  0
 20 21  1  0  0  0  0
 21 22  2  0  0  0  0
M  END
> <s_m_source_file>
AV-unprocessed.smi

> <i_m_source_file_index>
1724

> <i_lp_mmshare_version>
43012

> <i_f3d_flags>
0

> <s_epik_input>
Tz1jMVtuSF1bY0hdYyhDKEYpKEYpRilbY0hdYzFbTkhdQyg9TylbTkhdW0NIMl1bQ0BASF0yW0NIMl1bQ0gyXVtDSDJdT1tDSDJdMg==

> <s_epik_cmdline>
J2VwaWtfcHl0aG9uJywgJy1waCcsICc3LjAnLCAnLXRuJywgJzgnLCAnLW1hJywgJzIwMCcsICctbWV0YWxfYmluZGluZycsICctaW1hZScsICc8aW5maWxlLm1hZT4nLCAnLW9tYWUnLCAnPG91dGZpbGUubWFlPic=

> <r_lp_tautomer_probability>
1

> <r_epik_Ionization_Penalty>
0.00384958

> <r_epik_Ionization_Penalty_Charging>
0.00382926

> <r_epik_Ionization_Penalty_Neutral>
2.03186e-05

> <r_epik_State_Penalty>
-0

> <r_epik_Charging_Adjusted_Penalty>
0.00382926

> <i_epik_Tot_Q>
0

> <i_epik_Tot_abs_Q>
0

> <r_epik_Metal_State_Penalty>
0.371494

> <b_epik_Metal_Only>
0

> <s_lp_Force_Field>
OPLS_2005

> <r_lp_Energy>
21.778

> <b_lp_Chiralities_Consistent>
1

> <s_lp_Variant>
AV-unprocessed.smi:1724-2

> <Gold.Version>
5.8.1

> <Gold.Id.Protein>
6NUR|6NUR_protein|mol2

> <Gold.PLP.Fitness>
42.3582

> <Gold.PLP.PLP>
-32.9128

> <Gold.PLP.part.hbond>
-3.0000

> <Gold.PLP.part.metal>
0.0000

> <Gold.PLP.part.buried>
-5.8267

> <Gold.PLP.part.nonpolar>
-25.1376

> <Gold.PLP.part.repulsive>
0.3164

> <Gold.PLP.ligand.clash>
0.0000

> <Gold.PLP.ligand.torsion>
0.9530

> <Gold.PLP.Chemscore.Hbond>
2.8473

> <Gold.PLP.Chemscore.CHOScore>
0.9286

> <Gold.PLP.Chemscore.Metal>
0.0000

> <Gold.Chemscore.Hbonds>
donor molecule, donor type, donor heavy atom, donor atom, acceptor molecule, acceptor atom, score
      L1  H    20    23       P1 10171  0.61
      P1  H  6931  6943       L1     9  0.19
      P1  H  6934  6947       L1     9  1.00
      L1  C    19    38       P1  7921  1.00

> <Gold.PLP.Chemscore.Internal.Correction>
0.0239

> <Gold.Rescore>
     Score         DG    S(hbond)    S(metal)    S(lipo)     H(rot)  DE(clash)    DE(int)     intcor
     12.91     -14.14       1.72        0.00      54.04       1.33       0.01       1.22       ----

> <Gold.Chemscore.Fitness>
12.9064

> <Gold.Chemscore.DG>
-14.1419

> <Gold.Chemscore.ZeroCoef>
-5.4800

> <Gold.Chemscore.Hbond>
1.7230

> <Gold.Chemscore.Metal>
0.0000

> <Gold.Chemscore.Lipo>
54.0422

> <Gold.Chemscore.Internal_Hbond>
0.0000

> <Gold.Chemscore.DEClash>
0.0149

> <Gold.Chemscore.DEInternal>
1.2207

> <Gold.Chemscore.Rot>
1.3344

> <Gold.Chemscore.Internal.Correction>
   9.000000E+99

> <Gold.Chemscore.Hbonds>
donor molecule, donor type, donor heavy atom, donor atom, acceptor molecule, acceptor atom, score
      L1  H    20    23       P1 10171  0.61
      P1  H  6931  6943       L1     9  0.01
      P1  H  6934  6947       L1     9  0.65

> <Gold.Chemscore.Hbond.Weighted>
-5.7549

> <Gold.Chemscore.Metal.Weighted>
-0.0000

> <Gold.Chemscore.Lipo.Weighted>
-6.3229

> <Gold.Chemscore.Internal_Hbond.Weighted>
0.0000

> <Gold.Chemscore.DEClash.Weighted>
0.0149

> <Gold.Chemscore.DEInternal.Weighted>
1.2207

> <Gold.Chemscore.Rot.Weighted>
3.4160

> <Gold.Chemscore.Internal.Correction.Weighted>
   9.000000E+99

> <Gold.Protein.RotatedTorsions>
[ 6907 6896 6895 6894 ] final   92.83 input  -60.11 | X-H torsion
[ 7974 7965 7964 7962 ] final   87.80 input  175.53 | X-H torsion
[ 8008 7997 7996 7995 ] final  109.28 input   59.86 | X-H torsion
[ 10167 10162 10161 10158 ] final  -84.03 input  -65.29 | X-H torsion
[ 10718 10713 10712 10709 ] final -164.63 input   66.30 | X-H torsion
[ 10763 10752 10751 10750 ] final -178.04 input  -60.55 | X-H torsion
[ 11005 11000 10999 10996 ] final  -98.23 input  -57.11 | X-H torsion

> <Gold.Protein.ActiveResidues>
 VAL166  LYS551  ARG553  GLY616  TRP617  ASP618  TYR619  PRO620  LYS621  CYS622 
 ASP623  PHE694  ASN695  SER759  ASP760  ASP761  ALA762  ILE779  LEU786  VAL792 
 PHE793  MET794  SER795  GLU796  ALA797  LYS798  CYS799  TRP800  GLU811  SER814 

> <Gold.Protein.RotatedAtoms>
  152.5453  134.1442  159.8491 H   0  0  0  0  0  0  0  0  0  0  0  0  # atno 6907 bound_to 6896
  151.1475  133.4922  159.2603 H   0  0  0  0  0  0  0  0  0  0  0  0  # atno 6908 bound_to 6896
  151.1507  135.0236  159.8722 H   0  0  0  0  0  0  0  0  0  0  0  0  # atno 6909 bound_to 6896
  145.5542  139.2298  143.2495 H   0  0  0  0  0  0  0  0  0  0  0  0  # atno 7974 bound_to 7965
  156.1967  140.3060  155.9442 H   0  0  0  0  0  0  0  0  0  0  0  0  # atno 8008 bound_to 7997
  155.3049  140.0448  157.3048 H   0  0  0  0  0  0  0  0  0  0  0  0  # atno 8009 bound_to 7997
  154.5519  140.2294  155.8481 H   0  0  0  0  0  0  0  0  0  0  0  0  # atno 8010 bound_to 7997
  140.4170  143.2599  151.8941 H   0  0  0  0  0  0  0  0  0  0  0  0  # atno 10167 bound_to 10162
  156.6418  130.8972  151.2997 H   0  0  0  0  0  0  0  0  0  0  0  0  # atno 10718 bound_to 10713
  154.5527  135.2814  155.0994 H   0  0  0  0  0  0  0  0  0  0  0  0  # atno 10763 bound_to 10752
  154.2433  135.6353  153.5218 H   0  0  0  0  0  0  0  0  0  0  0  0  # atno 10764 bound_to 10752
  153.0007  135.5565  154.6097 H   0  0  0  0  0  0  0  0  0  0  0  0  # atno 10765 bound_to 10752
  141.1352  133.8230  157.0812 H   0  0  0  0  0  0  0  0  0  0  0  0  # atno 11005 bound_to 11000
  146.1896  140.6366  142.9152 LP  0  0  0  0  0  0  0  0  0  0  0  0  # atno 17320 bound_to 7965
  144.7514  140.5201  143.6799 LP  0  0  0  0  0  0  0  0  0  0  0  0  # atno 17321 bound_to 7965
  139.4782  144.5477  151.8433 LP  0  0  0  0  0  0  0  0  0  0  0  0  # atno 17342 bound_to 10162
  140.4575  144.1769  150.5903 LP  0  0  0  0  0  0  0  0  0  0  0  0  # atno 17343 bound_to 10162
  157.7168  130.9508  150.1287 LP  0  0  0  0  0  0  0  0  0  0  0  0  # atno 17370 bound_to 10713
  156.2153  130.3669  149.8621 LP  0  0  0  0  0  0  0  0  0  0  0  0  # atno 17371 bound_to 10713
  140.0450  134.9835  157.1032 LP  0  0  0  0  0  0  0  0  0  0  0  0  # atno 17394 bound_to 11000
  140.4076  134.2015  155.7163 LP  0  0  0  0  0  0  0  0  0  0  0  0  # atno 17395 bound_to 11000

$$$$
