AV-unprocessed.smi:2558|AV-procd|sdf|10032|dock2
  -GOLD-   2272014 73D 1   1.00000     0.00000
 Structure written by MMmdl.
 43 44  0  0  0  0  0  0  0  0  1 V2000
  151.1229  137.3108  155.7007 C   0  0  0  0  0  0  0  0  0  0  0  0
  151.1959  139.1118  155.3288 S   0  0  0  0  0  0  0  0  0  0  0  0
  152.5305  139.6070  155.7018 O   0  0  0  0  0  0  0  0  0  0  0  0
  150.7136  139.3202  153.9544 O   0  0  0  0  0  0  0  0  0  0  0  0
  150.0065  139.7723  156.4351 N   0  0  0  0  0  0  0  0  0  0  0  0
  148.6232  139.4673  156.3679 C   0  0  0  0  0  0  0  0  0  0  0  0
  147.8228  139.9642  157.1636 O   0  0  0  0  0  0  0  0  0  0  0  0
  148.2590  138.7023  155.3168 N   0  0  0  0  0  0  0  0  0  0  0  0
  147.0206  138.3067  154.9643 C   0  0  0  0  0  0  0  0  0  0  0  0
  145.9826  138.6192  155.5501 O   0  0  0  0  0  0  0  0  0  0  0  0
  147.0774  137.5341  153.8648 N   0  0  0  0  0  0  0  0  0  0  0  0
  146.0149  136.9168  153.1500 C   0  0  0  0  0  0  0  0  0  0  0  0
  144.7258  137.4732  153.2826 C   0  0  0  0  0  0  0  0  0  0  0  0
  143.6522  136.8959  152.5790 C   0  0  0  0  0  0  0  0  0  0  0  0
  143.9121  135.7821  151.7578 C   0  0  0  0  0  0  0  0  0  0  0  0
  145.1412  135.2457  151.6065 N   0  0  0  0  0  0  0  0  0  0  0  0
  146.1668  135.8040  152.2852 C   0  0  0  0  0  0  0  0  0  0  0  0
  150.4984  140.8143  157.3809 C   0  0  0  0  0  0  0  0  0  0  0  0
  150.9029  142.1195  156.6626 C   0  0  0  0  0  0  0  0  0  0  0  0
  151.3073  143.1986  157.6806 C   0  0  0  0  0  0  0  0  0  0  0  0
  152.4137  142.6943  158.6232 C   0  0  0  0  0  0  0  0  0  0  0  0
  151.9945  141.4008  159.3431 C   0  0  0  0  0  0  0  0  0  0  0  0
  151.6018  140.3057  158.3383 C   0  0  0  0  0  0  0  0  0  0  0  0
  151.8264  136.7802  155.0596 H   0  0  0  0  0  0  0  0  0  0  0  0
  150.1151  136.9404  155.5135 H   0  0  0  0  0  0  0  0  0  0  0  0
  151.3839  137.1383  156.7444 H   0  0  0  0  0  0  0  0  0  0  0  0
  149.0117  138.3743  154.7303 H   0  0  0  0  0  0  0  0  0  0  0  0
  147.9932  137.4142  153.4577 H   0  0  0  0  0  0  0  0  0  0  0  0
  144.5579  138.3302  153.9188 H   0  0  0  0  0  0  0  0  0  0  0  0
  142.6534  137.2972  152.6665 H   0  0  0  0  0  0  0  0  0  0  0  0
  143.1126  135.3130  151.2039 H   0  0  0  0  0  0  0  0  0  0  0  0
  147.1252  135.3449  152.1022 H   0  0  0  0  0  0  0  0  0  0  0  0
  149.6682  141.0806  158.0346 H   0  0  0  0  0  0  0  0  0  0  0  0
  151.7369  141.9496  155.9827 H   0  0  0  0  0  0  0  0  0  0  0  0
  150.0750  142.4818  156.0524 H   0  0  0  0  0  0  0  0  0  0  0  0
  151.6441  144.0939  157.1576 H   0  0  0  0  0  0  0  0  0  0  0  0
  150.4356  143.4934  158.2661 H   0  0  0  0  0  0  0  0  0  0  0  0
  153.3256  142.5151  158.0521 H   0  0  0  0  0  0  0  0  0  0  0  0
  152.6549  143.4645  159.3564 H   0  0  0  0  0  0  0  0  0  0  0  0
  152.8079  141.0476  159.9775 H   0  0  0  0  0  0  0  0  0  0  0  0
  151.1539  141.6083  160.0068 H   0  0  0  0  0  0  0  0  0  0  0  0
  151.2556  139.4210  158.8738 H   0  0  0  0  0  0  0  0  0  0  0  0
  152.4945  140.0074  157.7891 H   0  0  0  0  0  0  0  0  0  0  0  0
  1  2  1  0  0  0  0
  1 24  1  0  0  0  0
  1 25  1  0  0  0  0
  1 26  1  0  0  0  0
  2  3  2  0  0  0  0
  2  4  2  0  0  0  0
  2  5  1  0  0  0  0
  5  6  1  0  0  0  0
  5 18  1  0  0  0  0
  6  7  2  0  0  0  0
  6  8  1  0  0  0  0
  8  9  1  0  0  0  0
  8 27  1  0  0  0  0
  9 10  2  0  0  0  0
  9 11  1  0  0  0  0
 11 12  1  0  0  0  0
 11 28  1  0  0  0  0
 12 17  1  0  0  0  0
 12 13  2  0  0  0  0
 13 14  1  0  0  0  0
 13 29  1  0  0  0  0
 14 15  2  0  0  0  0
 14 30  1  0  0  0  0
 15 16  1  0  0  0  0
 15 31  1  0  0  0  0
 16 17  2  0  0  0  0
 17 32  1  0  0  0  0
 18 23  1  0  0  0  0
 18 19  1  0  0  0  0
 18 33  1  0  0  0  0
 19 20  1  0  0  0  0
 19 34  1  0  0  0  0
 19 35  1  0  0  0  0
 20 21  1  0  0  0  0
 20 36  1  0  0  0  0
 20 37  1  0  0  0  0
 21 22  1  0  0  0  0
 21 38  1  0  0  0  0
 21 39  1  0  0  0  0
 22 23  1  0  0  0  0
 22 40  1  0  0  0  0
 22 41  1  0  0  0  0
 23 42  1  0  0  0  0
 23 43  1  0  0  0  0
M  END
> <s_m_source_file>
AV-unprocessed.smi

> <i_m_source_file_index>
2558

> <i_lp_mmshare_version>
43012

> <i_f3d_flags>
0

> <s_epik_input>
W0NIMl0xW0NIMl1bQ0gyXVtDSDJdW0NIMl1bQ0hdMU4oUyg9TykoPU8pW0NIM10pQyg9TylbTkhdQyg9TylbTkhdYzJbY0hdW2NIXVtjSF1uW2NIXTI=

> <s_epik_cmdline>
J2VwaWtfcHl0aG9uJywgJy1waCcsICc3LjAnLCAnLXRuJywgJzgnLCAnLW1hJywgJzIwMCcsICctbWV0YWxfYmluZGluZycsICctaW1hZScsICc8aW5maWxlLm1hZT4nLCAnLW9tYWUnLCAnPG91dGZpbGUubWFlPic=

> <r_epik_Ionization_Penalty>
0.00647128

> <r_epik_Ionization_Penalty_Charging>
0

> <r_epik_Ionization_Penalty_Neutral>
0.00647128

> <r_epik_State_Penalty>
0.00476147

> <r_epik_Charging_Adjusted_Penalty>
0.00476147

> <i_epik_Tot_Q>
0

> <i_epik_Tot_abs_Q>
0

> <r_epik_Metal_State_Penalty>
0.0176635

> <b_epik_Metal_Only>
0

> <s_lp_Force_Field>
OPLS_2005

> <r_lp_Energy>
21.3267

> <b_lp_Chiralities_Consistent>
1

> <s_lp_Variant>
AV-unprocessed.smi:2558-1

> <Gold.Version>
5.8.1

> <Gold.Id.Protein>
6NUR|6NUR_protein|mol2

> <Gold.PLP.Fitness>
36.3159

> <Gold.PLP.PLP>
-26.2250

> <Gold.PLP.part.hbond>
-2.9182

> <Gold.PLP.part.metal>
0.0000

> <Gold.PLP.part.buried>
-1.2714

> <Gold.PLP.part.nonpolar>
-22.4469

> <Gold.PLP.part.repulsive>
0.6986

> <Gold.PLP.ligand.clash>
0.0000

> <Gold.PLP.ligand.torsion>
1.3099

> <Gold.PLP.Chemscore.Hbond>
2.4290

> <Gold.PLP.Chemscore.CHOScore>
1.0899

> <Gold.PLP.Chemscore.Metal>
0.0000

> <Gold.Chemscore.Hbonds>
donor molecule, donor type, donor heavy atom, donor atom, acceptor molecule, acceptor atom, score
      L1  H    11    28       P1  7948  0.45
      P1  H  7989  7998       L1     4  1.00
      P1  H  7997  8008       L1     3  1.00
      L1  C    15    31       P1 10186  0.10
      L1  C    17    32       P1  7948  0.96

> <Gold.PLP.Chemscore.Internal.Correction>
2.1540

> <Gold.Rescore>
     Score         DG    S(hbond)    S(metal)    S(lipo)     H(rot)  DE(clash)    DE(int)     intcor
     13.24     -18.64       2.17        0.00      72.39       1.00       1.43       3.97       ----

> <Gold.Chemscore.Fitness>
13.2381

> <Gold.Chemscore.DG>
-18.6352

> <Gold.Chemscore.ZeroCoef>
-5.4800

> <Gold.Chemscore.Hbond>
2.1692

> <Gold.Chemscore.Metal>
0.0000

> <Gold.Chemscore.Lipo>
72.3937

> <Gold.Chemscore.Internal_Hbond>
0.0000

> <Gold.Chemscore.DEClash>
1.4317

> <Gold.Chemscore.DEInternal>
3.9654

> <Gold.Chemscore.Rot>
1.0000

> <Gold.Chemscore.Internal.Correction>
   9.000000E+99

> <Gold.Chemscore.Hbonds>
donor molecule, donor type, donor heavy atom, donor atom, acceptor molecule, acceptor atom, score
      L1  H    11    28       P1  7948  0.44
      P1  H  7989  7998       L1     4  0.34
      P1  H  7997  8008       L1     3  0.98

> <Gold.Chemscore.Hbond.Weighted>
-7.2452

> <Gold.Chemscore.Metal.Weighted>
-0.0000

> <Gold.Chemscore.Lipo.Weighted>
-8.4701

> <Gold.Chemscore.Internal_Hbond.Weighted>
0.0000

> <Gold.Chemscore.DEClash.Weighted>
1.4317

> <Gold.Chemscore.DEInternal.Weighted>
3.9654

> <Gold.Chemscore.Rot.Weighted>
2.5600

> <Gold.Chemscore.Internal.Correction.Weighted>
   9.000000E+99

> <Gold.Protein.RotatedTorsions>
[ 6907 6896 6895 6894 ] final   68.75 input  -60.11 | X-H torsion
[ 7974 7965 7964 7962 ] final   27.32 input  175.53 | X-H torsion
[ 8008 7997 7996 7995 ] final  -25.91 input   59.86 | X-H torsion
[ 10167 10162 10161 10158 ] final -173.72 input  -65.29 | X-H torsion
[ 10718 10713 10712 10709 ] final   76.78 input   66.30 | X-H torsion
[ 10763 10752 10751 10750 ] final -161.37 input  -60.55 | X-H torsion
[ 11005 11000 10999 10996 ] final -159.07 input  -57.11 | X-H torsion

> <Gold.Protein.ActiveResidues>
 VAL166  LYS551  ARG553  GLY616  TRP617  ASP618  TYR619  PRO620  LYS621  CYS622 
 ASP623  PHE694  ASN695  SER759  ASP760  ASP761  ALA762  ILE779  LEU786  VAL792 
 PHE793  MET794  SER795  GLU796  ALA797  LYS798  CYS799  TRP800  GLU811  SER814 

> <Gold.Protein.RotatedAtoms>
  152.4641  134.5116  159.9755 H   0  0  0  0  0  0  0  0  0  0  0  0  # atno 6907 bound_to 6896
  151.5158  133.3470  159.2900 H   0  0  0  0  0  0  0  0  0  0  0  0  # atno 6908 bound_to 6896
  150.8617  134.8000  159.7150 H   0  0  0  0  0  0  0  0  0  0  0  0  # atno 6909 bound_to 6896
  146.1790  139.7207  142.8914 H   0  0  0  0  0  0  0  0  0  0  0  0  # atno 7974 bound_to 7965
  154.4451  140.1913  156.0693 H   0  0  0  0  0  0  0  0  0  0  0  0  # atno 8008 bound_to 7997
  156.0523  140.3307  155.7338 H   0  0  0  0  0  0  0  0  0  0  0  0  # atno 8009 bound_to 7997
  155.5538  140.0597  157.2835 H   0  0  0  0  0  0  0  0  0  0  0  0  # atno 8010 bound_to 7997
  139.5673  144.1725  152.1331 H   0  0  0  0  0  0  0  0  0  0  0  0  # atno 10167 bound_to 10162
  157.6686  130.9791  150.1547 H   0  0  0  0  0  0  0  0  0  0  0  0  # atno 10718 bound_to 10713
  154.7309  135.3046  154.8892 H   0  0  0  0  0  0  0  0  0  0  0  0  # atno 10763 bound_to 10752
  153.9735  135.6739  153.4752 H   0  0  0  0  0  0  0  0  0  0  0  0  # atno 10764 bound_to 10752
  153.0918  135.4956  154.8624 H   0  0  0  0  0  0  0  0  0  0  0  0  # atno 10765 bound_to 10752
  140.6466  134.4495  157.5234 H   0  0  0  0  0  0  0  0  0  0  0  0  # atno 11005 bound_to 11000
  145.4130  141.0398  143.3007 LP  0  0  0  0  0  0  0  0  0  0  0  0  # atno 17320 bound_to 7965
  144.8284  139.5671  143.6955 LP  0  0  0  0  0  0  0  0  0  0  0  0  # atno 17321 bound_to 7965
  140.1251  144.5339  150.6838 LP  0  0  0  0  0  0  0  0  0  0  0  0  # atno 17342 bound_to 10162
  140.6957  143.2402  151.5008 LP  0  0  0  0  0  0  0  0  0  0  0  0  # atno 17343 bound_to 10162
  156.2338  130.3684  149.8415 LP  0  0  0  0  0  0  0  0  0  0  0  0  # atno 17370 bound_to 10713
  156.6234  130.8636  151.3480 LP  0  0  0  0  0  0  0  0  0  0  0  0  # atno 17371 bound_to 10713
  139.9061  134.8447  156.1702 LP  0  0  0  0  0  0  0  0  0  0  0  0  # atno 17394 bound_to 11000
  141.0568  133.6861  156.1875 LP  0  0  0  0  0  0  0  0  0  0  0  0  # atno 17395 bound_to 11000

$$$$
