AV-unprocessed.smi:3044|AV-procd|sdf|11607|dock3
  -GOLD-   2272016583D 1   1.00000     0.00000
 Structure written by MMmdl.
 41 42  0  0  0  0  0  0  0  0  1 V2000
  150.0972  137.6262  159.1996 C   0  0  0  0  0  0  0  0  0  0  0  0
  150.1859  137.0091  157.8144 C   0  0  0  0  0  0  0  0  0  0  0  0
  150.0226  135.6680  157.7646 N   0  0  0  0  0  0  0  0  0  0  0  0
  150.0920  135.0606  156.5618 C   0  0  0  0  0  0  0  0  0  0  0  0
  150.3329  135.7537  155.3609 C   0  0  0  0  0  0  0  0  0  0  0  0
  150.5021  137.1500  155.4140 C   0  0  0  0  0  0  0  0  0  0  0  0
  150.4157  137.8058  156.6659 C   0  0  0  0  0  0  0  0  0  0  0  0
  150.5921  139.2082  156.8242 N   0  0  0  0  0  0  0  0  0  0  0  0
  150.8571  140.1338  155.8835 C   0  0  0  0  0  0  0  0  0  0  0  0
  151.0175  139.8889  154.6884 O   0  0  0  0  0  0  0  0  0  0  0  0
  150.9563  141.5811  156.3686 C   0  0  0  0  0  0  0  0  0  0  0  0
  151.6372  141.6180  157.6175 O   0  0  0  0  0  0  0  0  0  0  0  0
  151.3093  142.7323  158.4359 C   0  0  2  0  0  0  0  0  0  0  0  0
  151.7758  143.9963  157.6948 C   0  0  0  0  0  0  0  0  0  0  0  0
  151.5401  145.2572  158.5395 C   0  0  0  0  0  0  0  0  0  0  0  0
  152.2306  145.1440  159.9077 C   0  0  0  0  0  0  0  0  0  0  0  0
  151.7773  143.8823  160.6675 C   0  0  2  0  0  0  0  0  0  0  0  0
  152.4767  143.7679  162.0296 C   0  0  0  0  0  0  0  0  0  0  0  0
  152.0041  142.6219  159.8091 C   0  0  0  0  0  0  0  0  0  0  0  0
  149.2869  138.3546  159.2387 H   0  0  0  0  0  0  0  0  0  0  0  0
  151.0289  138.1339  159.4498 H   0  0  0  0  0  0  0  0  0  0  0  0
  149.9090  136.8720  159.9647 H   0  0  0  0  0  0  0  0  0  0  0  0
  149.9576  133.9890  156.5572 H   0  0  0  0  0  0  0  0  0  0  0  0
  150.3916  135.2257  154.4206 H   0  0  0  0  0  0  0  0  0  0  0  0
  150.7080  137.6875  154.5013 H   0  0  0  0  0  0  0  0  0  0  0  0
  150.4009  139.5690  157.7479 H   0  0  0  0  0  0  0  0  0  0  0  0
  151.4976  142.1659  155.6236 H   0  0  0  0  0  0  0  0  0  0  0  0
  149.9529  141.9980  156.4577 H   0  0  0  0  0  0  0  0  0  0  0  0
  150.2275  142.7927  158.5702 H   0  0  0  0  0  0  0  0  0  0  0  0
  152.8370  143.9125  157.4558 H   0  0  0  0  0  0  0  0  0  0  0  0
  151.2506  144.0845  156.7433 H   0  0  0  0  0  0  0  0  0  0  0  0
  151.9098  146.1348  158.0085 H   0  0  0  0  0  0  0  0  0  0  0  0
  150.4691  145.4094  158.6805 H   0  0  0  0  0  0  0  0  0  0  0  0
  153.3122  145.1217  159.7670 H   0  0  0  0  0  0  0  0  0  0  0  0
  152.0154  146.0341  160.4996 H   0  0  0  0  0  0  0  0  0  0  0  0
  150.7063  143.9710  160.8553 H   0  0  0  0  0  0  0  0  0  0  0  0
  153.5566  143.6693  161.9141 H   0  0  0  0  0  0  0  0  0  0  0  0
  152.1204  142.8981  162.5826 H   0  0  0  0  0  0  0  0  0  0  0  0
  152.2868  144.6483  162.6441 H   0  0  0  0  0  0  0  0  0  0  0  0
  151.6385  141.7483  160.3486 H   0  0  0  0  0  0  0  0  0  0  0  0
  153.0738  142.4662  159.6621 H   0  0  0  0  0  0  0  0  0  0  0  0
  1  2  1  0  0  0  0
  1 20  1  0  0  0  0
  1 21  1  0  0  0  0
  1 22  1  0  0  0  0
  2  7  1  0  0  0  0
  2  3  2  0  0  0  0
  3  4  1  0  0  0  0
  4  5  2  0  0  0  0
  4 23  1  0  0  0  0
  5  6  1  0  0  0  0
  5 24  1  0  0  0  0
  6  7  2  0  0  0  0
  6 25  1  0  0  0  0
  7  8  1  0  0  0  0
  8  9  1  0  0  0  0
  8 26  1  0  0  0  0
  9 10  2  0  0  0  0
  9 11  1  0  0  0  0
 11 12  1  0  0  0  0
 11 27  1  0  0  0  0
 11 28  1  0  0  0  0
 12 13  1  0  0  0  0
 13 19  1  0  0  0  0
 13 14  1  0  0  0  0
 13 29  1  0  0  0  0
 14 15  1  0  0  0  0
 14 30  1  0  0  0  0
 14 31  1  0  0  0  0
 15 16  1  0  0  0  0
 15 32  1  0  0  0  0
 15 33  1  0  0  0  0
 16 17  1  0  0  0  0
 16 34  1  0  0  0  0
 16 35  1  0  0  0  0
 17 18  1  0  0  0  0
 17 19  1  0  0  0  0
 17 36  1  0  0  0  0
 18 37  1  0  0  0  0
 18 38  1  0  0  0  0
 18 39  1  0  0  0  0
 19 40  1  0  0  0  0
 19 41  1  0  0  0  0
M  END
> <s_m_source_file>
AV-unprocessed.smi

> <i_m_source_file_index>
3044

> <i_lp_mmshare_version>
43012

> <i_f3d_flags>
0

> <s_epik_input>
W0NIM11jMW5bY0hdW2NIXVtjSF1jMVtOSF1DKD1PKVtDSDJdT1tDQEBIXTJbQ0gyXVtDSDJdW0NIMl1bQ0BASF0oW0NIM10pW0NIMl0y

> <s_epik_cmdline>
J2VwaWtfcHl0aG9uJywgJy1waCcsICc3LjAnLCAnLXRuJywgJzgnLCAnLW1hJywgJzIwMCcsICctbWV0YWxfYmluZGluZycsICctaW1hZScsICc8aW5maWxlLm1hZT4nLCAnLW9tYWUnLCAnPG91dGZpbGUubWFlPic=

> <r_epik_Ionization_Penalty>
0.0077122

> <r_epik_Ionization_Penalty_Charging>
0

> <r_epik_Ionization_Penalty_Neutral>
0.0077122

> <r_epik_State_Penalty>
0.00577497

> <r_epik_Charging_Adjusted_Penalty>
0.00577497

> <i_epik_Tot_Q>
0

> <i_epik_Tot_abs_Q>
0

> <r_epik_Metal_State_Penalty>
-0

> <b_epik_Metal_Only>
0

> <s_lp_Force_Field>
OPLS_2005

> <r_lp_Energy>
17.0629

> <b_lp_Chiralities_Consistent>
1

> <s_lp_Variant>
AV-unprocessed.smi:3044-3

> <Gold.Version>
5.8.1

> <Gold.Id.Protein>
6NUR|6NUR_protein|mol2

> <Gold.PLP.Fitness>
43.3574

> <Gold.PLP.PLP>
-39.5797

> <Gold.PLP.part.hbond>
-2.0000

> <Gold.PLP.part.metal>
0.0000

> <Gold.PLP.part.buried>
-5.7959

> <Gold.PLP.part.nonpolar>
-31.8324

> <Gold.PLP.part.repulsive>
0.1131

> <Gold.PLP.ligand.clash>
0.0000

> <Gold.PLP.ligand.torsion>
0.4420

> <Gold.PLP.Chemscore.Hbond>
1.5483

> <Gold.PLP.Chemscore.CHOScore>
0.0000

> <Gold.PLP.Chemscore.Metal>
0.0000

> <Gold.Chemscore.Hbonds>
donor molecule, donor type, donor heavy atom, donor atom, acceptor molecule, acceptor atom, score
      P1  H  6896  6908       L1     3  0.53
      P1  H  7989  7998       L1    10  1.00

> <Gold.PLP.Chemscore.Internal.Correction>
0.0167

> <Gold.Rescore>
     Score         DG    S(hbond)    S(metal)    S(lipo)     H(rot)  DE(clash)    DE(int)     intcor
     19.20     -20.92       1.76        0.00     110.35       1.31       0.03       1.69       ----

> <Gold.Chemscore.Fitness>
19.2012

> <Gold.Chemscore.DG>
-20.9153

> <Gold.Chemscore.ZeroCoef>
-5.4800

> <Gold.Chemscore.Hbond>
1.7570

> <Gold.Chemscore.Metal>
0.0000

> <Gold.Chemscore.Lipo>
110.3523

> <Gold.Chemscore.Internal_Hbond>
0.0000

> <Gold.Chemscore.DEClash>
0.0262

> <Gold.Chemscore.DEInternal>
1.6880

> <Gold.Chemscore.Rot>
1.3064

> <Gold.Chemscore.Internal.Correction>
   9.000000E+99

> <Gold.Chemscore.Hbonds>
donor molecule, donor type, donor heavy atom, donor atom, acceptor molecule, acceptor atom, score
      P1  H  6896  6908       L1     3  0.47
      P1  H  7989  7998       L1    10  1.00

> <Gold.Chemscore.Hbond.Weighted>
-5.8684

> <Gold.Chemscore.Metal.Weighted>
-0.0000

> <Gold.Chemscore.Lipo.Weighted>
-12.9112

> <Gold.Chemscore.Internal_Hbond.Weighted>
0.0000

> <Gold.Chemscore.DEClash.Weighted>
0.0262

> <Gold.Chemscore.DEInternal.Weighted>
1.6880

> <Gold.Chemscore.Rot.Weighted>
3.3443

> <Gold.Chemscore.Internal.Correction.Weighted>
   9.000000E+99

> <Gold.Protein.RotatedTorsions>
[ 6907 6896 6895 6894 ] final  169.87 input  -60.11 | X-H torsion
[ 7974 7965 7964 7962 ] final  139.92 input  175.53 | X-H torsion
[ 8008 7997 7996 7995 ] final -112.51 input   59.86 | X-H torsion
[ 10167 10162 10161 10158 ] final  -48.61 input  -65.29 | X-H torsion
[ 10718 10713 10712 10709 ] final  -72.43 input   66.30 | X-H torsion
[ 10763 10752 10751 10750 ] final -114.68 input  -60.55 | X-H torsion
[ 11005 11000 10999 10996 ] final  -52.17 input  -57.11 | X-H torsion

> <Gold.Protein.ActiveResidues>
 VAL166  LYS551  ARG553  GLY616  TRP617  ASP618  TYR619  PRO620  LYS621  CYS622 
 ASP623  PHE694  ASN695  SER759  ASP760  ASP761  ALA762  ILE779  LEU786  VAL792 
 PHE793  MET794  SER795  GLU796  ALA797  LYS798  CYS799  TRP800  GLU811  SER814 

> <Gold.Protein.RotatedAtoms>
  151.8250  133.3400  159.3595 H   0  0  0  0  0  0  0  0  0  0  0  0  # atno 6907 bound_to 6896
  150.7282  134.5537  159.5817 H   0  0  0  0  0  0  0  0  0  0  0  0  # atno 6908 bound_to 6896
  152.2978  134.7648  160.0415 H   0  0  0  0  0  0  0  0  0  0  0  0  # atno 6909 bound_to 6896
  144.9234  139.5138  143.5652 H   0  0  0  0  0  0  0  0  0  0  0  0  # atno 7974 bound_to 7965
  155.0064  140.0394  157.2381 H   0  0  0  0  0  0  0  0  0  0  0  0  # atno 8008 bound_to 7997
  154.7499  140.2765  155.6278 H   0  0  0  0  0  0  0  0  0  0  0  0  # atno 8009 bound_to 7997
  156.2883  140.2649  156.2249 H   0  0  0  0  0  0  0  0  0  0  0  0  # atno 8010 bound_to 7997
  140.6723  143.2733  151.4095 H   0  0  0  0  0  0  0  0  0  0  0  0  # atno 10167 bound_to 10162
  156.0321  130.4372  150.2592 H   0  0  0  0  0  0  0  0  0  0  0  0  # atno 10718 bound_to 10713
  154.8450  135.4409  154.1544 H   0  0  0  0  0  0  0  0  0  0  0  0  # atno 10763 bound_to 10752
  153.2697  135.6944  153.7500 H   0  0  0  0  0  0  0  0  0  0  0  0  # atno 10764 bound_to 10752
  153.6745  135.3413  155.3137 H   0  0  0  0  0  0  0  0  0  0  0  0  # atno 10765 bound_to 10752
  141.0910  133.6633  156.3985 H   0  0  0  0  0  0  0  0  0  0  0  0  # atno 11005 bound_to 11000
  146.3215  139.8131  142.8942 LP  0  0  0  0  0  0  0  0  0  0  0  0  # atno 17320 bound_to 7965
  145.3258  141.0255  143.3474 LP  0  0  0  0  0  0  0  0  0  0  0  0  # atno 17321 bound_to 7965
  139.5998  144.1321  152.2185 LP  0  0  0  0  0  0  0  0  0  0  0  0  # atno 17342 bound_to 10162
  140.0701  144.5786  150.7198 LP  0  0  0  0  0  0  0  0  0  0  0  0  # atno 17343 bound_to 10162
  157.0693  131.0112  151.3195 LP  0  0  0  0  0  0  0  0  0  0  0  0  # atno 17370 bound_to 10713
  157.5011  130.7880  149.7606 LP  0  0  0  0  0  0  0  0  0  0  0  0  # atno 17371 bound_to 10713
  140.5252  134.6266  157.5331 LP  0  0  0  0  0  0  0  0  0  0  0  0  # atno 17394 bound_to 11000
  139.9736  134.7252  155.9993 LP  0  0  0  0  0  0  0  0  0  0  0  0  # atno 17395 bound_to 11000

$$$$
