AV-unprocessed.smi:2541|AV-procd|sdf|9990|dock9
  -GOLD-   2272014 43D 1   1.00000     0.00000
 Structure written by MMmdl.
 38 39  0  0  0  0  0  0  0  0  1 V2000
  150.2249  140.2160  154.4152 O   0  0  0  0  0  0  0  0  0  0  0  0
  149.4841  141.1648  154.6730 C   0  0  0  0  0  0  0  0  0  0  0  0
  148.1101  141.2660  154.0084 C   0  0  0  0  0  0  0  0  0  0  0  0
  147.4807  139.9020  153.9010 C   0  0  0  0  0  0  0  0  0  0  0  0
  147.0897  139.1982  152.7277 C   0  0  0  0  0  0  0  0  0  0  0  0
  146.5746  138.0307  153.2124 C   0  0  0  0  0  0  0  0  0  0  0  0
  146.6428  138.0074  154.5672 O   0  0  0  0  0  0  0  0  0  0  0  0
  147.2249  139.2049  154.9979 N   0  0  0  0  0  0  0  0  0  0  0  0
  149.8146  142.1509  155.5219 N   0  0  0  0  0  0  0  0  0  0  0  0
  151.0935  142.2777  156.2118 C   0  0  0  0  0  0  0  0  0  0  0  0
  151.0190  141.7374  157.6563 C   0  0  1  0  0  0  0  0  0  0  0  0
  151.5318  140.4182  157.6731 O   0  0  0  0  0  0  0  0  0  0  0  0
  151.7946  142.6107  158.6739 C   0  0  0  0  0  0  0  0  0  0  0  0
  152.0963  141.8945  160.0122 C   0  0  0  0  0  0  0  0  0  0  0  0
  152.8937  142.7934  160.9712 C   0  0  0  0  0  0  0  0  0  0  0  0
  152.1727  144.1273  161.2166 C   0  0  0  0  0  0  0  0  0  0  0  0
  151.8890  144.8512  159.8921 C   0  0  0  0  0  0  0  0  0  0  0  0
  151.0861  143.9593  158.9313 C   0  0  0  0  0  0  0  0  0  0  0  0
  147.4719  141.9295  154.5929 H   0  0  0  0  0  0  0  0  0  0  0  0
  148.2199  141.7284  153.0261 H   0  0  0  0  0  0  0  0  0  0  0  0
  147.1701  139.5048  151.6955 H   0  0  0  0  0  0  0  0  0  0  0  0
  146.1420  137.1591  152.7439 H   0  0  0  0  0  0  0  0  0  0  0  0
  149.1448  142.8922  155.6699 H   0  0  0  0  0  0  0  0  0  0  0  0
  151.8555  141.7504  155.6369 H   0  0  0  0  0  0  0  0  0  0  0  0
  151.3875  143.3287  156.2162 H   0  0  0  0  0  0  0  0  0  0  0  0
  149.9755  141.6977  157.9721 H   0  0  0  0  0  0  0  0  0  0  0  0
  152.4747  140.4632  157.6299 H   0  0  0  0  0  0  0  0  0  0  0  0
  152.7551  142.8478  158.2135 H   0  0  0  0  0  0  0  0  0  0  0  0
  151.1658  141.5944  160.4956 H   0  0  0  0  0  0  0  0  0  0  0  0
  152.6606  140.9791  159.8352 H   0  0  0  0  0  0  0  0  0  0  0  0
  153.0516  142.2771  161.9183 H   0  0  0  0  0  0  0  0  0  0  0  0
  153.8836  142.9841  160.5552 H   0  0  0  0  0  0  0  0  0  0  0  0
  151.2349  143.9454  161.7433 H   0  0  0  0  0  0  0  0  0  0  0  0
  152.7754  144.7622  161.8665 H   0  0  0  0  0  0  0  0  0  0  0  0
  151.3438  145.7757  160.0835 H   0  0  0  0  0  0  0  0  0  0  0  0
  152.8309  145.1394  159.4235 H   0  0  0  0  0  0  0  0  0  0  0  0
  150.9349  144.4872  157.9891 H   0  0  0  0  0  0  0  0  0  0  0  0
  150.0939  143.7867  159.3496 H   0  0  0  0  0  0  0  0  0  0  0  0
  1  2  2  0  0  0  0
  2  3  1  0  0  0  0
  2  9  1  0  0  0  0
  3  4  1  0  0  0  0
  3 19  1  0  0  0  0
  3 20  1  0  0  0  0
  4  8  2  0  0  0  0
  4  5  1  0  0  0  0
  5  6  2  0  0  0  0
  5 21  1  0  0  0  0
  6  7  1  0  0  0  0
  6 22  1  0  0  0  0
  7  8  1  0  0  0  0
  9 10  1  0  0  0  0
  9 23  1  0  0  0  0
 10 11  1  0  0  0  0
 10 24  1  0  0  0  0
 10 25  1  0  0  0  0
 11 12  1  0  0  0  0
 11 13  1  0  0  0  0
 11 26  1  0  0  0  0
 12 27  1  0  0  0  0
 13 18  1  0  0  0  0
 13 14  1  0  0  0  0
 13 28  1  0  0  0  0
 14 15  1  0  0  0  0
 14 29  1  0  0  0  0
 14 30  1  0  0  0  0
 15 16  1  0  0  0  0
 15 31  1  0  0  0  0
 15 32  1  0  0  0  0
 16 17  1  0  0  0  0
 16 33  1  0  0  0  0
 16 34  1  0  0  0  0
 17 18  1  0  0  0  0
 17 35  1  0  0  0  0
 17 36  1  0  0  0  0
 18 37  1  0  0  0  0
 18 38  1  0  0  0  0
M  END
> <s_m_source_file>
AV-unprocessed.smi

> <i_m_source_file_index>
2541

> <i_lp_mmshare_version>
43012

> <i_f3d_flags>
0

> <s_epik_input>
bjFvW2NIXVtjSF1jMVtDSDJdQyg9TylbTkhdW0NIMl1bQ0BIXShbT0hdKVtDSF0yW0NIMl1bQ0gyXVtDSDJdW0NIMl1bQ0gyXTI=

> <s_epik_cmdline>
J2VwaWtfcHl0aG9uJywgJy1waCcsICc3LjAnLCAnLXRuJywgJzgnLCAnLW1hJywgJzIwMCcsICctbWV0YWxfYmluZGluZycsICctaW1hZScsICc8aW5maWxlLm1hZT4nLCAnLW9tYWUnLCAnPG91dGZpbGUubWFlPic=

> <r_lp_tautomer_probability>
1

> <r_epik_Ionization_Penalty>
2.3322e-07

> <r_epik_Ionization_Penalty_Charging>
0

> <r_epik_Ionization_Penalty_Neutral>
2.3322e-07

> <r_epik_State_Penalty>
-0

> <r_epik_Charging_Adjusted_Penalty>
0

> <i_epik_Tot_Q>
0

> <i_epik_Tot_abs_Q>
0

> <r_epik_Metal_State_Penalty>
-0

> <b_epik_Metal_Only>
0

> <s_lp_Force_Field>
OPLS_2005

> <r_lp_Energy>
13.2063

> <b_lp_Chiralities_Consistent>
1

> <s_lp_Variant>
AV-unprocessed.smi:2541-2

> <Gold.Version>
5.8.1

> <Gold.Id.Protein>
6NUR|6NUR_protein|mol2

> <Gold.PLP.Fitness>
40.7150

> <Gold.PLP.PLP>
-37.4869

> <Gold.PLP.part.hbond>
-2.0000

> <Gold.PLP.part.metal>
0.0000

> <Gold.PLP.part.buried>
-5.3684

> <Gold.PLP.part.nonpolar>
-30.3630

> <Gold.PLP.part.repulsive>
0.4211

> <Gold.PLP.ligand.clash>
0.0000

> <Gold.PLP.ligand.torsion>
1.2380

> <Gold.PLP.Chemscore.Hbond>
1.8880

> <Gold.PLP.Chemscore.CHOScore>
0.0000

> <Gold.PLP.Chemscore.Metal>
0.0000

> <Gold.Chemscore.Hbonds>
donor molecule, donor type, donor heavy atom, donor atom, acceptor molecule, acceptor atom, score
      L1  H     9    23       P1  8028  0.91
      P1  H  7989  7998       L1     1  1.00

> <Gold.PLP.Chemscore.Internal.Correction>
0.0400

> <Gold.Rescore>
     Score         DG    S(hbond)    S(metal)    S(lipo)     H(rot)  DE(clash)    DE(int)     intcor
     15.83     -17.25       1.63        0.00     106.79       2.42       0.17       1.25       ----

> <Gold.Chemscore.Fitness>
15.8281

> <Gold.Chemscore.DG>
-17.2462

> <Gold.Chemscore.ZeroCoef>
-5.4800

> <Gold.Chemscore.Hbond>
1.6345

> <Gold.Chemscore.Metal>
0.0000

> <Gold.Chemscore.Lipo>
106.7939

> <Gold.Chemscore.Internal_Hbond>
0.0000

> <Gold.Chemscore.DEClash>
0.1726

> <Gold.Chemscore.DEInternal>
1.2454

> <Gold.Chemscore.Rot>
2.4172

> <Gold.Chemscore.Internal.Correction>
   9.000000E+99

> <Gold.Chemscore.Hbonds>
donor molecule, donor type, donor heavy atom, donor atom, acceptor molecule, acceptor atom, score
      L1  H     9    23       P1  8028  0.88
      P1  H  7989  7998       L1     1  0.58

> <Gold.Chemscore.Hbond.Weighted>
-5.4593

> <Gold.Chemscore.Metal.Weighted>
-0.0000

> <Gold.Chemscore.Lipo.Weighted>
-12.4949

> <Gold.Chemscore.Internal_Hbond.Weighted>
0.0000

> <Gold.Chemscore.DEClash.Weighted>
0.1726

> <Gold.Chemscore.DEInternal.Weighted>
1.2454

> <Gold.Chemscore.Rot.Weighted>
6.1880

> <Gold.Chemscore.Internal.Correction.Weighted>
   9.000000E+99

> <Gold.Protein.RotatedTorsions>
[ 6907 6896 6895 6894 ] final   19.39 input  -60.11 | X-H torsion
[ 7974 7965 7964 7962 ] final   72.14 input  175.53 | X-H torsion
[ 8008 7997 7996 7995 ] final  159.35 input   59.86 | X-H torsion
[ 10167 10162 10161 10158 ] final   55.84 input  -65.29 | X-H torsion
[ 10718 10713 10712 10709 ] final   24.28 input   66.30 | X-H torsion
[ 10763 10752 10751 10750 ] final  -15.22 input  -60.55 | X-H torsion
[ 11005 11000 10999 10996 ] final   87.20 input  -57.11 | X-H torsion

> <Gold.Protein.ActiveResidues>
 VAL166  LYS551  ARG553  GLY616  TRP617  ASP618  TYR619  PRO620  LYS621  CYS622 
 ASP623  PHE694  ASN695  SER759  ASP760  ASP761  ALA762  ILE779  LEU786  VAL792 
 PHE793  MET794  SER795  GLU796  ALA797  LYS798  CYS799  TRP800  GLU811  SER814 

> <Gold.Protein.RotatedAtoms>
  151.8801  135.0457  160.0487 H   0  0  0  0  0  0  0  0  0  0  0  0  # atno 6907 bound_to 6896
  152.2520  133.5218  159.5339 H   0  0  0  0  0  0  0  0  0  0  0  0  # atno 6908 bound_to 6896
  150.7087  134.0864  159.3958 H   0  0  0  0  0  0  0  0  0  0  0  0  # atno 6909 bound_to 6896
  145.7571  139.2784  143.1398 H   0  0  0  0  0  0  0  0  0  0  0  0  # atno 7974 bound_to 7965
  156.2244  140.1833  156.7398 H   0  0  0  0  0  0  0  0  0  0  0  0  # atno 8008 bound_to 7997
  154.5918  140.0649  156.9277 H   0  0  0  0  0  0  0  0  0  0  0  0  # atno 8009 bound_to 7997
  155.2324  140.3316  155.4304 H   0  0  0  0  0  0  0  0  0  0  0  0  # atno 8010 bound_to 7997
  140.2151  144.3848  150.6473 H   0  0  0  0  0  0  0  0  0  0  0  0  # atno 10167 bound_to 10162
  157.1776  130.6788  149.6101 H   0  0  0  0  0  0  0  0  0  0  0  0  # atno 10718 bound_to 10713
  153.5401  135.7013  153.5641 H   0  0  0  0  0  0  0  0  0  0  0  0  # atno 10763 bound_to 10752
  153.3611  135.3969  155.1718 H   0  0  0  0  0  0  0  0  0  0  0  0  # atno 10764 bound_to 10752
  154.8674  135.3789  154.4904 H   0  0  0  0  0  0  0  0  0  0  0  0  # atno 10765 bound_to 10752
  139.8925  134.8406  156.2826 H   0  0  0  0  0  0  0  0  0  0  0  0  # atno 11005 bound_to 11000
  146.0300  140.8266  142.9880 LP  0  0  0  0  0  0  0  0  0  0  0  0  # atno 17320 bound_to 7965
  144.6838  140.2755  143.7299 LP  0  0  0  0  0  0  0  0  0  0  0  0  # atno 17321 bound_to 7965
  140.6295  143.2185  151.6525 LP  0  0  0  0  0  0  0  0  0  0  0  0  # atno 17342 bound_to 10162
  139.5165  144.3344  152.0797 LP  0  0  0  0  0  0  0  0  0  0  0  0  # atno 17343 bound_to 10162
  155.9729  130.4657  150.6265 LP  0  0  0  0  0  0  0  0  0  0  0  0  # atno 17370 bound_to 10713
  157.3983  131.0806  151.1331 LP  0  0  0  0  0  0  0  0  0  0  0  0  # atno 17371 bound_to 10713
  141.0028  133.7141  156.0988 LP  0  0  0  0  0  0  0  0  0  0  0  0  # atno 17394 bound_to 11000
  140.7474  134.4083  157.5546 LP  0  0  0  0  0  0  0  0  0  0  0  0  # atno 17395 bound_to 11000

$$$$
