AV-unprocessed.smi:1611|AV-procd|sdf|6474|dock5
  -GOLD-   22720 7133D 1   1.00000     0.00000
 Structure written by MMmdl.
 48 49  0  0  0  0  0  0  0  0  1 V2000
  151.4063  144.8499  157.5413 C   0  0  0  0  0  0  0  0  0  0  0  0
  151.7921  144.2586  158.8863 C   0  0  0  0  0  0  0  0  0  0  0  0
  151.8014  145.0941  160.0216 C   0  0  0  0  0  0  0  0  0  0  0  0
  152.1470  144.5781  161.2827 C   0  0  0  0  0  0  0  0  0  0  0  0
  152.4955  143.2208  161.4209 C   0  0  0  0  0  0  0  0  0  0  0  0
  152.8597  142.6760  162.7898 C   0  0  0  0  0  0  0  0  0  0  0  0
  152.5063  142.3784  160.2854 C   0  0  0  0  0  0  0  0  0  0  0  0
  152.8548  141.0602  160.4308 O   0  0  0  0  0  0  0  0  0  0  0  0
  154.2333  140.8646  160.7118 C   0  0  0  0  0  0  0  0  0  0  0  0
  154.6216  139.4293  160.3216 C   0  0  2  0  0  0  0  0  0  0  0  0
  154.7743  139.4052  158.9158 O   0  0  0  0  0  0  0  0  0  0  0  0
  153.5194  138.4134  160.6944 C   0  0  0  0  0  0  0  0  0  0  0  0
  153.9830  137.4372  161.6885 N   0  0  0  0  0  0  0  0  0  0  0  0
  154.2262  137.9796  162.9347 N   0  0  0  0  0  0  0  0  0  0  0  0
  154.6344  137.2485  163.9194 C   0  0  0  0  0  0  0  0  0  0  0  0
  154.8674  137.9490  165.2310 C   0  0  0  0  0  0  0  0  0  0  0  0
  154.8451  135.8183  163.7193 C   0  0  0  0  0  0  0  0  0  0  0  0
  155.3260  135.0076  164.9153 C   0  0  0  0  0  0  0  0  0  0  0  0
  154.6059  135.2979  162.4896 C   0  0  0  0  0  0  0  0  0  0  0  0
  154.7894  133.9127  162.1983 C   0  0  0  0  0  0  0  0  0  0  0  0
  154.9581  132.7931  161.9571 N   0  0  0  0  0  0  0  0  0  0  0  0
  154.1416  136.1205  161.3702 C   0  0  0  0  0  0  0  0  0  0  0  0
  153.9078  135.6783  160.2443 O   0  0  0  0  0  0  0  0  0  0  0  0
  152.1372  142.8899  159.0157 C   0  0  0  0  0  0  0  0  0  0  0  0
  152.1137  141.9754  157.7982 C   0  0  0  0  0  0  0  0  0  0  0  0
  151.3142  145.9350  157.5962 H   0  0  0  0  0  0  0  0  0  0  0  0
  150.4478  144.4481  157.2118 H   0  0  0  0  0  0  0  0  0  0  0  0
  152.1585  144.6185  156.7869 H   0  0  0  0  0  0  0  0  0  0  0  0
  151.5377  146.1379  159.9315 H   0  0  0  0  0  0  0  0  0  0  0  0
  152.1430  145.2298  162.1441 H   0  0  0  0  0  0  0  0  0  0  0  0
  152.4006  141.7005  162.9528 H   0  0  0  0  0  0  0  0  0  0  0  0
  152.5187  143.3418  163.5829 H   0  0  0  0  0  0  0  0  0  0  0  0
  153.9407  142.5669  162.8774 H   0  0  0  0  0  0  0  0  0  0  0  0
  154.8020  141.5778  160.1134 H   0  0  0  0  0  0  0  0  0  0  0  0
  154.4716  141.0690  161.7574 H   0  0  0  0  0  0  0  0  0  0  0  0
  155.5638  139.1656  160.8037 H   0  0  0  0  0  0  0  0  0  0  0  0
  154.3149  138.6515  158.5785 H   0  0  0  0  0  0  0  0  0  0  0  0
  152.6537  138.9370  161.1039 H   0  0  0  0  0  0  0  0  0  0  0  0
  153.1423  137.9129  159.7999 H   0  0  0  0  0  0  0  0  0  0  0  0
  155.8924  137.8024  165.5719 H   0  0  0  0  0  0  0  0  0  0  0  0
  154.1967  137.5636  165.9992 H   0  0  0  0  0  0  0  0  0  0  0  0
  154.6973  139.0241  165.1540 H   0  0  0  0  0  0  0  0  0  0  0  0
  155.4024  133.9442  164.6895 H   0  0  0  0  0  0  0  0  0  0  0  0
  154.6367  135.1127  165.7537 H   0  0  0  0  0  0  0  0  0  0  0  0
  156.3115  135.3476  165.2351 H   0  0  0  0  0  0  0  0  0  0  0  0
  152.1393  140.9210  158.0722 H   0  0  0  0  0  0  0  0  0  0  0  0
  152.9741  142.1796  157.1606 H   0  0  0  0  0  0  0  0  0  0  0  0
  151.2074  142.1289  157.2129 H   0  0  0  0  0  0  0  0  0  0  0  0
  1  2  1  0  0  0  0
  1 26  1  0  0  0  0
  1 27  1  0  0  0  0
  1 28  1  0  0  0  0
  2 24  1  0  0  0  0
  2  3  2  0  0  0  0
  3  4  1  0  0  0  0
  3 29  1  0  0  0  0
  4  5  2  0  0  0  0
  4 30  1  0  0  0  0
  5  6  1  0  0  0  0
  5  7  1  0  0  0  0
  6 31  1  0  0  0  0
  6 32  1  0  0  0  0
  6 33  1  0  0  0  0
  7  8  1  0  0  0  0
  7 24  2  0  0  0  0
  8  9  1  0  0  0  0
  9 10  1  0  0  0  0
  9 34  1  0  0  0  0
  9 35  1  0  0  0  0
 10 11  1  0  0  0  0
 10 12  1  0  0  0  0
 10 36  1  0  0  0  0
 11 37  1  0  0  0  0
 12 13  1  0  0  0  0
 12 38  1  0  0  0  0
 12 39  1  0  0  0  0
 13 22  1  0  0  0  0
 13 14  1  0  0  0  0
 14 15  2  0  0  0  0
 15 16  1  0  0  0  0
 15 17  1  0  0  0  0
 16 40  1  0  0  0  0
 16 41  1  0  0  0  0
 16 42  1  0  0  0  0
 17 18  1  0  0  0  0
 17 19  2  0  0  0  0
 18 43  1  0  0  0  0
 18 44  1  0  0  0  0
 18 45  1  0  0  0  0
 19 20  1  0  0  0  0
 19 22  1  0  0  0  0
 20 21  3  0  0  0  0
 22 23  2  0  0  0  0
 24 25  1  0  0  0  0
 25 46  1  0  0  0  0
 25 47  1  0  0  0  0
 25 48  1  0  0  0  0
M  END
> <s_m_source_file>
AV-unprocessed.smi

> <i_m_source_file_index>
1611

> <i_lp_mmshare_version>
43012

> <i_f3d_flags>
0

> <s_epik_input>
W0NIM11jMVtjSF1bY0hdYyhbQ0gzXSljKGMxW0NIM10pT1tDSDJdW0NASF0oW09IXSlbQ0gyXW4ybmMoW0NIM10pYyhbQ0gzXSljKEMjTiljMj1P

> <s_epik_cmdline>
J2VwaWtfcHl0aG9uJywgJy1waCcsICc3LjAnLCAnLXRuJywgJzgnLCAnLW1hJywgJzIwMCcsICctbWV0YWxfYmluZGluZycsICctaW1hZScsICc8aW5maWxlLm1hZT4nLCAnLW9tYWUnLCAnPG91dGZpbGUubWFlPic=

> <r_lp_tautomer_probability>
1

> <r_epik_Ionization_Penalty>
1.17331e-07

> <r_epik_Ionization_Penalty_Charging>
1.57223e-10

> <r_epik_Ionization_Penalty_Neutral>
1.17174e-07

> <r_epik_State_Penalty>
-0

> <r_epik_Charging_Adjusted_Penalty>
1.57223e-10

> <i_epik_Tot_Q>
0

> <i_epik_Tot_abs_Q>
0

> <r_epik_Metal_State_Penalty>
-0

> <b_epik_Metal_Only>
0

> <s_lp_Force_Field>
OPLS_2005

> <r_lp_Energy>
36.6232

> <b_lp_Chiralities_Consistent>
1

> <s_lp_Variant>
AV-unprocessed.smi:1611-1

> <Gold.Version>
5.8.1

> <Gold.Id.Protein>
6NUR|6NUR_protein|mol2

> <Gold.PLP.Fitness>
54.1774

> <Gold.PLP.PLP>
-50.4265

> <Gold.PLP.part.hbond>
-2.0000

> <Gold.PLP.part.metal>
0.0000

> <Gold.PLP.part.buried>
-5.8511

> <Gold.PLP.part.nonpolar>
-42.7688

> <Gold.PLP.part.repulsive>
0.0000

> <Gold.PLP.ligand.clash>
0.0000

> <Gold.PLP.ligand.torsion>
1.1770

> <Gold.PLP.Chemscore.Hbond>
2.0000

> <Gold.PLP.Chemscore.CHOScore>
0.0000

> <Gold.PLP.Chemscore.Metal>
0.0000

> <Gold.Chemscore.Hbonds>
donor molecule, donor type, donor heavy atom, donor atom, acceptor molecule, acceptor atom, score
      P1  H  6896  6909       L1    23  1.00
      P1  H  7997  8009       L1    11  0.90

> <Gold.PLP.Chemscore.Internal.Correction>
0.1049

> <Gold.Rescore>
     Score         DG    S(hbond)    S(metal)    S(lipo)     H(rot)  DE(clash)    DE(int)     intcor
     21.97     -23.25       1.90        0.00     147.20       2.27       0.15       1.13       ----

> <Gold.Chemscore.Fitness>
21.9722

> <Gold.Chemscore.DG>
-23.2459

> <Gold.Chemscore.ZeroCoef>
-5.4800

> <Gold.Chemscore.Hbond>
1.9032

> <Gold.Chemscore.Metal>
0.0000

> <Gold.Chemscore.Lipo>
147.1956

> <Gold.Chemscore.Internal_Hbond>
0.0000

> <Gold.Chemscore.DEClash>
0.1470

> <Gold.Chemscore.DEInternal>
1.1266

> <Gold.Chemscore.Rot>
2.2706

> <Gold.Chemscore.Internal.Correction>
   9.000000E+99

> <Gold.Chemscore.Hbonds>
donor molecule, donor type, donor heavy atom, donor atom, acceptor molecule, acceptor atom, score
      P1  H  6896  6909       L1    23  0.90
      P1  H  7997  8009       L1    11  0.17

> <Gold.Chemscore.Hbond.Weighted>
-6.3566

> <Gold.Chemscore.Metal.Weighted>
-0.0000

> <Gold.Chemscore.Lipo.Weighted>
-17.2219

> <Gold.Chemscore.Internal_Hbond.Weighted>
0.0000

> <Gold.Chemscore.DEClash.Weighted>
0.1470

> <Gold.Chemscore.DEInternal.Weighted>
1.1266

> <Gold.Chemscore.Rot.Weighted>
5.8127

> <Gold.Chemscore.Internal.Correction.Weighted>
   9.000000E+99

> <Gold.Protein.RotatedTorsions>
[ 6907 6896 6895 6894 ] final  163.91 input  -60.11 | X-H torsion
[ 7974 7965 7964 7962 ] final  176.39 input  175.53 | X-H torsion
[ 8008 7997 7996 7995 ] final  102.42 input   59.86 | X-H torsion
[ 10167 10162 10161 10158 ] final   93.02 input  -65.29 | X-H torsion
[ 10718 10713 10712 10709 ] final   67.87 input   66.30 | X-H torsion
[ 10763 10752 10751 10750 ] final  106.07 input  -60.55 | X-H torsion
[ 11005 11000 10999 10996 ] final   50.42 input  -57.11 | X-H torsion

> <Gold.Protein.ActiveResidues>
 VAL166  LYS551  ARG553  GLY616  TRP617  ASP618  TYR619  PRO620  LYS621  CYS622 
 ASP623  PHE694  ASN695  SER759  ASP760  ASP761  ALA762  ILE779  LEU786  VAL792 
 PHE793  MET794  SER795  GLU796  ALA797  LYS798  CYS799  TRP800  GLU811  SER814 

> <Gold.Protein.RotatedAtoms>
  151.9179  133.3578  159.3886 H   0  0  0  0  0  0  0  0  0  0  0  0  # atno 6907 bound_to 6896
  150.7043  134.4665  159.5414 H   0  0  0  0  0  0  0  0  0  0  0  0  # atno 6908 bound_to 6896
  152.2283  134.8347  160.0528 H   0  0  0  0  0  0  0  0  0  0  0  0  # atno 6909 bound_to 6896
  144.7185  140.0089  143.6440 H   0  0  0  0  0  0  0  0  0  0  0  0  # atno 7974 bound_to 7965
  156.1391  140.3181  155.8467 H   0  0  0  0  0  0  0  0  0  0  0  0  # atno 8008 bound_to 7997
  155.4189  140.0511  157.3044 H   0  0  0  0  0  0  0  0  0  0  0  0  # atno 8009 bound_to 7997
  154.4961  140.2111  155.9457 H   0  0  0  0  0  0  0  0  0  0  0  0  # atno 8010 bound_to 7997
  139.8220  144.6727  150.9507 H   0  0  0  0  0  0  0  0  0  0  0  0  # atno 10167 bound_to 10162
  157.6256  130.9344  150.0301 H   0  0  0  0  0  0  0  0  0  0  0  0  # atno 10718 bound_to 10713
  153.3879  135.3889  155.1903 H   0  0  0  0  0  0  0  0  0  0  0  0  # atno 10763 bound_to 10752
  154.8716  135.3741  154.4774 H   0  0  0  0  0  0  0  0  0  0  0  0  # atno 10764 bound_to 10752
  153.5258  135.7086  153.5769 H   0  0  0  0  0  0  0  0  0  0  0  0  # atno 10765 bound_to 10752
  140.1019  134.5070  155.8755 H   0  0  0  0  0  0  0  0  0  0  0  0  # atno 11005 bound_to 11000
  146.0275  139.3305  143.0776 LP  0  0  0  0  0  0  0  0  0  0  0  0  # atno 17320 bound_to 7965
  145.8494  140.9537  143.0758 LP  0  0  0  0  0  0  0  0  0  0  0  0  # atno 17321 bound_to 7965
  140.7812  143.4083  151.1035 LP  0  0  0  0  0  0  0  0  0  0  0  0  # atno 17342 bound_to 10162
  139.7742  143.8449  152.3126 LP  0  0  0  0  0  0  0  0  0  0  0  0  # atno 17343 bound_to 10162
  156.1426  130.3642  149.9559 LP  0  0  0  0  0  0  0  0  0  0  0  0  # atno 17370 bound_to 10713
  156.7596  130.9146  151.3641 LP  0  0  0  0  0  0  0  0  0  0  0  0  # atno 17371 bound_to 10713
  141.2108  133.6699  156.6535 LP  0  0  0  0  0  0  0  0  0  0  0  0  # atno 17394 bound_to 11000
  140.3208  134.8009  157.4251 LP  0  0  0  0  0  0  0  0  0  0  0  0  # atno 17395 bound_to 11000

$$$$
