#       Name:                AV-unprocessed.smi:1129
#       Creating user name   scv26
#       Creation time:       Fri Mar 27 03:41:31 2020


#       File generated by GOLD software.
#

@<TRIPOS>MOLECULE
AV-unprocessed.smi:1129
    49    50     1
SMALL
NO_CHARGES


@<TRIPOS>ATOM
      1 ****        -4.0093   6.7916  -0.5953 C.3            1 S1                 0.0000
      2 ****        -3.6291   5.4282  -0.5308 O.3            1 S1                 0.0000
      3 ****        -3.7851   4.8818   0.7683 C.3            1 S1                 0.0000
      4 ****        -3.3497   3.4134   0.7527 C.3            1 S1                 0.0000
      5 ****        -1.9284   3.3565   0.6772 O.3            1 S1                 0.0000
      6 ****        -1.3185   2.1191   0.6541 C.ar           1 S1                 0.0000
      7 ****         0.0860   2.0629   0.5575 C.ar           1 S1                 0.0000
      8 ****         0.7175   0.8048   0.5316 C.ar           1 S1                 0.0000
      9 ****        -0.0803  -0.3622   0.5958 C.ar           1 S1                 0.0000
     10 ****         0.4411  -1.6838   0.6001 N.am           1 S1                 0.0000
     11 ****         1.6018  -2.1247   0.0802 C.2            1 S1                 0.0000
     12 ****         2.4083  -1.4094  -0.5143 O.2            1 S1                 0.0000
     13 ****         1.8864  -3.6286   0.2619 C.3            1 S1                 0.0000
     14 ****         1.6581  -4.4319  -1.0324 C.3            1 S1                 0.0000
     15 ****         2.7246  -4.1649  -2.1117 C.3            1 S1                 0.0000
     16 ****         4.1582  -4.0974  -1.5636 C.2            1 S1                 0.0000
     17 ****         5.1058  -4.1805  -2.3414 O.2            1 S1                 0.0000
     18 ****         4.3465  -3.9052  -0.2462 N.am           1 S1                 0.0000
     19 ****         3.3120  -3.9072   0.7899 C.3            1 S1                 0.0000
     20 ****        -1.4763  -0.1977   0.7086 C.ar           1 S1                 0.0000
     21 ****        -2.0880   1.0052   0.7314 N.ar           1 S1                 0.0000
     22 ****        -3.8676   7.1634  -1.6099 H              1 S1                 0.0000
     23 ****        -3.4030   7.4023   0.0750 H              1 S1                 0.0000
     24 ****        -5.0602   6.9214  -0.3333 H              1 S1                 0.0000
     25 ****        -3.2058   5.4440   1.5026 H              1 S1                 0.0000
     26 ****        -4.8344   4.9463   1.0599 H              1 S1                 0.0000
     27 ****        -3.6837   2.9330   1.6737 H              1 S1                 0.0000
     28 ****        -3.8131   2.8908  -0.0860 H              1 S1                 0.0000
     29 ****         0.6700   2.9700   0.5081 H              1 S1                 0.0000
     30 ****         1.7941   0.7602   0.4788 H              1 S1                 0.0000
     31 ****        -0.1705  -2.3908   0.9822 H              1 S1                 0.0000
     32 ****         1.1853  -3.9971   1.0128 H              1 S1                 0.0000
     33 ****         1.6568  -5.4959  -0.7921 H              1 S1                 0.0000
     34 ****         0.6678  -4.2200  -1.4377 H              1 S1                 0.0000
     35 ****         2.6687  -4.9327  -2.8841 H              1 S1                 0.0000
     36 ****         2.5168  -3.2167  -2.6085 H              1 S1                 0.0000
     37 ****         5.3003  -3.8192   0.0746 H              1 S1                 0.0000
     38 ****         3.5873  -3.1850   1.5597 H              1 S1                 0.0000
     39 ****         3.3337  -4.8849   1.2725 H              1 S1                 0.0000
     40 ****        -2.1260  -1.0581   0.7771 H              1 S1                 0.0000
     41 ****        -2.6687   5.3501  -0.7983 LP             1 S1                 0.0000
     42 ****        -4.1961   4.9066  -1.1683 LP             1 S1                 0.0000
     43 ****        -1.5708   3.8468   1.4720 LP             1 S1                 0.0000
     44 ****        -1.6579   3.8343  -0.1586 LP             1 S1                 0.0000
     45 ****         2.2183  -0.4351  -0.6351 LP             1 S1                 0.0000
     46 ****         3.2535  -1.8027  -0.8763 LP             1 S1                 0.0000
     47 ****         4.9401  -4.2910  -3.3213 LP             1 S1                 0.0000
     48 ****         6.0427  -4.1377  -1.9944 LP             1 S1                 0.0000
     49 ****        -3.0830   1.0732   0.8035 LP             1 S1                 0.0000
@<TRIPOS>BOND
    1    1    2 1     
    2    1   22 1     
    3    1   23 1     
    4    1   24 1     
    5    2    3 1     
    6    3    4 1     
    7    3   25 1     
    8    3   26 1     
    9    4    5 1     
   10    4   27 1     
   11    4   28 1     
   12    5    6 1     
   13    6   21 ar    
   14    6    7 ar    
   15    7    8 ar    
   16    7   29 1     
   17    8    9 ar    
   18    8   30 1     
   19    9   10 1     
   20    9   20 ar    
   21   10   11 am    
   22   10   31 1     
   23   11   12 2     
   24   11   13 1     
   25   13   19 1     
   26   13   14 1     
   27   13   32 1     
   28   14   15 1     
   29   14   33 1     
   30   14   34 1     
   31   15   16 1     
   32   15   35 1     
   33   15   36 1     
   34   16   17 2     
   35   16   18 am    
   36   18   19 1     
   37   18   37 1     
   38   19   38 1     
   39   19   39 1     
   40   20   21 ar    
   41   20   40 1     
   42    2   41 1     
   43    2   42 1     
   44    5   43 1     
   45    5   44 1     
   46   12   45 1     
   47   12   46 1     
   48   17   47 1     
   49   17   48 1     
   50   21   49 1     
@<TRIPOS>SUBSTRUCTURE
      1 S1             1
@<TRIPOS>SET
LONE_PAIRS      STATIC     ATOMS    <user>   **** ""
9 41 42 43 44 45 46 47 48 49
DONOR_HYDROGENS      STATIC     ATOMS    <user>   **** ""
2 31 37
ATOM$BLUE        STATIC     ATOMS    COLORGROUP SYSTEM
9 41 42 43 44 45 46 47 48 49
ATOM$RED        STATIC     ATOMS    COLORGROUP SYSTEM
2 31 37
