AV-unprocessed.smi:3138|AV-procd|sdf|11954|dock1
  -GOLD-   2272017353D 1   1.00000     0.00000
 Structure written by MMmdl.
 38 39  0  0  0  0  0  0  0  0  2 V2000
  151.7775  140.7973  158.4042 O   0  0  0  0  0  0  0  0  0  0  0  0
  151.8153  142.0210  158.5473 C   0  0  0  0  0  0  0  0  0  0  0  0
  150.8879  142.8938  157.6878 C   0  0  0  0  0  0  0  0  0  0  0  0
  149.9677  142.0912  156.8560 N   0  3  0  0  0  0  0  0  0  0  0  0
  150.6377  141.2941  155.8097 C   0  0  0  0  0  0  0  0  0  0  0  0
  149.6427  140.3787  155.0748 C   0  0  0  0  0  0  0  0  0  0  0  0
  148.3680  141.0235  154.8069 N   0  0  0  0  0  0  0  0  0  0  0  0
  147.7181  141.1639  153.5983 C   0  0  0  0  0  0  0  0  0  0  0  0
  146.5429  141.8154  153.8413 C   0  0  0  0  0  0  0  0  0  0  0  0
  146.5556  142.0234  155.2486 C   0  0  0  0  0  0  0  0  0  0  0  0
  147.6464  141.5432  155.8239 N   0  0  0  0  0  0  0  0  0  0  0  0
  152.6476  142.6208  159.4331 N   0  0  0  0  0  0  0  0  0  0  0  0
  153.5544  141.9259  160.3578 C   0  0  0  0  0  0  0  0  0  0  0  0
  153.0247  142.0968  161.7931 C   0  0  0  0  0  0  0  0  0  0  0  0
  152.8690  143.5881  162.1470 C   0  0  0  0  0  0  0  0  0  0  0  0
  152.0772  144.3503  161.0673 C   0  0  0  0  0  0  0  0  0  0  0  0
  152.6480  144.0716  159.6645 C   0  0  0  0  0  0  0  0  0  0  0  0
  150.3009  143.5444  158.3375 H   0  0  0  0  0  0  0  0  0  0  0  0
  151.4908  143.5233  157.0316 H   0  0  0  0  0  0  0  0  0  0  0  0
  149.4622  141.4613  157.4631 H   0  0  0  0  0  0  0  0  0  0  0  0
  151.1072  141.9709  155.0950 H   0  0  0  0  0  0  0  0  0  0  0  0
  151.4389  140.7042  156.2570 H   0  0  0  0  0  0  0  0  0  0  0  0
  150.0697  140.0413  154.1295 H   0  0  0  0  0  0  0  0  0  0  0  0
  149.4513  139.4840  155.6685 H   0  0  0  0  0  0  0  0  0  0  0  0
  148.1401  140.7943  152.6752 H   0  0  0  0  0  0  0  0  0  0  0  0
  145.7854  142.0954  153.1240 H   0  0  0  0  0  0  0  0  0  0  0  0
  145.8089  142.5023  155.8650 H   0  0  0  0  0  0  0  0  0  0  0  0
  153.6862  140.8684  160.1351 H   0  0  0  0  0  0  0  0  0  0  0  0
  154.5506  142.3633  160.2757 H   0  0  0  0  0  0  0  0  0  0  0  0
  152.0608  141.5949  161.8883 H   0  0  0  0  0  0  0  0  0  0  0  0
  153.6971  141.6142  162.5028 H   0  0  0  0  0  0  0  0  0  0  0  0
  152.3853  143.6976  163.1180 H   0  0  0  0  0  0  0  0  0  0  0  0
  153.8589  144.0358  162.2443 H   0  0  0  0  0  0  0  0  0  0  0  0
  151.0299  144.0474  161.1003 H   0  0  0  0  0  0  0  0  0  0  0  0
  152.0967  145.4205  161.2759 H   0  0  0  0  0  0  0  0  0  0  0  0
  153.6691  144.4491  159.5928 H   0  0  0  0  0  0  0  0  0  0  0  0
  152.0761  144.6221  158.9162 H   0  0  0  0  0  0  0  0  0  0  0  0
  149.3046  142.7152  156.4188 H   0  0  0  0  0  0  0  0  0  0  0  0
  1  2  2  0  0  0  0
  2  3  1  0  0  0  0
  2 12  1  0  0  0  0
  3  4  1  0  0  0  0
  3 18  1  0  0  0  0
  3 19  1  0  0  0  0
  4  5  1  0  0  0  0
  4 20  1  0  0  0  0
  4 38  1  0  0  0  0
  5  6  1  0  0  0  0
  5 21  1  0  0  0  0
  5 22  1  0  0  0  0
  6  7  1  0  0  0  0
  6 23  1  0  0  0  0
  6 24  1  0  0  0  0
  7 11  1  0  0  0  0
  7  8  1  0  0  0  0
  8  9  2  0  0  0  0
  8 25  1  0  0  0  0
  9 10  1  0  0  0  0
  9 26  1  0  0  0  0
 10 11  2  0  0  0  0
 10 27  1  0  0  0  0
 12 17  1  0  0  0  0
 12 13  1  0  0  0  0
 13 14  1  0  0  0  0
 13 28  1  0  0  0  0
 13 29  1  0  0  0  0
 14 15  1  0  0  0  0
 14 30  1  0  0  0  0
 14 31  1  0  0  0  0
 15 16  1  0  0  0  0
 15 32  1  0  0  0  0
 15 33  1  0  0  0  0
 16 17  1  0  0  0  0
 16 34  1  0  0  0  0
 16 35  1  0  0  0  0
 17 36  1  0  0  0  0
 17 37  1  0  0  0  0
M  CHG  1   4   1
M  END
> <s_m_source_file>
AV-unprocessed.smi

> <i_m_source_file_index>
3138

> <i_lp_mmshare_version>
43012

> <i_f3d_flags>
0

> <s_epik_input>
W0NIMl0xW0NIMl1bQ0gyXVtDSDJdW0NIMl1OMUMoPU8pW0NIMl1bTkhdW0NIMl1bQ0gyXW4yW2NIXVtjSF1bY0hdbjI=

> <s_epik_cmdline>
J2VwaWtfcHl0aG9uJywgJy1waCcsICc3LjAnLCAnLXRuJywgJzgnLCAnLW1hJywgJzIwMCcsICctbWV0YWxfYmluZGluZycsICctaW1hZScsICc8aW5maWxlLm1hZT4nLCAnLW9tYWUnLCAnPG91dGZpbGUubWFlPic=

> <r_lp_tautomer_probability>
1

> <r_epik_Ionization_Penalty>
0.202061

> <r_epik_Ionization_Penalty_Charging>
0.202058

> <r_epik_Ionization_Penalty_Neutral>
2.33614e-06

> <r_epik_State_Penalty>
0.191938

> <r_epik_Charging_Adjusted_Penalty>
0.393996

> <i_epik_Tot_Q>
1

> <i_epik_Tot_abs_Q>
1

> <r_epik_Metal_State_Penalty>
0.192416

> <b_epik_Metal_Only>
0

> <s_lp_Force_Field>
OPLS_2005

> <r_lp_Energy>
21.8037

> <b_lp_Chiralities_Consistent>
1

> <s_lp_Variant>
AV-unprocessed.smi:3138-1

> <Gold.Version>
5.8.1

> <Gold.Id.Protein>
6NUR|6NUR_protein|mol2

> <Gold.PLP.Fitness>
52.8449

> <Gold.PLP.PLP>
-44.0987

> <Gold.PLP.part.hbond>
-1.0000

> <Gold.PLP.part.metal>
0.0000

> <Gold.PLP.part.buried>
-5.8588

> <Gold.PLP.part.nonpolar>
-37.4922

> <Gold.PLP.part.repulsive>
0.1526

> <Gold.PLP.ligand.clash>
0.0000

> <Gold.PLP.ligand.torsion>
0.1570

> <Gold.PLP.Chemscore.Hbond>
2.0000

> <Gold.PLP.Chemscore.CHOScore>
1.0000

> <Gold.PLP.Chemscore.Metal>
0.0000

> <Gold.Chemscore.Hbonds>
donor molecule, donor type, donor heavy atom, donor atom, acceptor molecule, acceptor atom, score
      L1  H     4    38       P1  8028  1.19
      L1  C     8    25       P1  7957  1.00

> <Gold.PLP.Chemscore.Internal.Correction>
0.0603

> <Gold.Rescore>
     Score         DG    S(hbond)    S(metal)    S(lipo)     H(rot)  DE(clash)    DE(int)     intcor
     12.71     -15.97       0.96        0.00     102.51       1.84       0.07       3.19       ----

> <Gold.Chemscore.Fitness>
12.7058

> <Gold.Chemscore.DG>
-15.9675

> <Gold.Chemscore.ZeroCoef>
-5.4800

> <Gold.Chemscore.Hbond>
0.9595

> <Gold.Chemscore.Metal>
0.0000

> <Gold.Chemscore.Lipo>
102.5091

> <Gold.Chemscore.Internal_Hbond>
0.0000

> <Gold.Chemscore.DEClash>
0.0745

> <Gold.Chemscore.DEInternal>
3.1872

> <Gold.Chemscore.Rot>
1.8402

> <Gold.Chemscore.Internal.Correction>
   9.000000E+99

> <Gold.Chemscore.Hbonds>
donor molecule, donor type, donor heavy atom, donor atom, acceptor molecule, acceptor atom, score
      L1  H     4    38       P1  8028  0.58

> <Gold.Chemscore.Hbond.Weighted>
-3.2049

> <Gold.Chemscore.Metal.Weighted>
-0.0000

> <Gold.Chemscore.Lipo.Weighted>
-11.9936

> <Gold.Chemscore.Internal_Hbond.Weighted>
0.0000

> <Gold.Chemscore.DEClash.Weighted>
0.0745

> <Gold.Chemscore.DEInternal.Weighted>
3.1872

> <Gold.Chemscore.Rot.Weighted>
4.7110

> <Gold.Chemscore.Internal.Correction.Weighted>
   9.000000E+99

> <Gold.Protein.RotatedTorsions>
[ 6907 6896 6895 6894 ] final  -33.83 input  -60.11 | X-H torsion
[ 7974 7965 7964 7962 ] final   30.83 input  175.53 | X-H torsion
[ 8008 7997 7996 7995 ] final   27.78 input   59.86 | X-H torsion
[ 10167 10162 10161 10158 ] final  -39.84 input  -65.29 | X-H torsion
[ 10718 10713 10712 10709 ] final  -91.68 input   66.30 | X-H torsion
[ 10763 10752 10751 10750 ] final -122.85 input  -60.55 | X-H torsion
[ 11005 11000 10999 10996 ] final  -20.82 input  -57.11 | X-H torsion

> <Gold.Protein.ActiveResidues>
 VAL166  LYS551  ARG553  GLY616  TRP617  ASP618  TYR619  PRO620  LYS621  CYS622 
 ASP623  PHE694  ASN695  SER759  ASP760  ASP761  ALA762  ILE779  LEU786  VAL792 
 PHE793  MET794  SER795  GLU796  ALA797  LYS798  CYS799  TRP800  GLU811  SER814 

> <Gold.Protein.RotatedAtoms>
  151.0604  134.9733  159.8257 H   0  0  0  0  0  0  0  0  0  0  0  0  # atno 6907 bound_to 6896
  152.5394  134.2424  159.8877 H   0  0  0  0  0  0  0  0  0  0  0  0  # atno 6908 bound_to 6896
  151.2444  133.4339  159.2642 H   0  0  0  0  0  0  0  0  0  0  0  0  # atno 6909 bound_to 6896
  146.1588  139.6737  142.9048 H   0  0  0  0  0  0  0  0  0  0  0  0  # atno 7974 bound_to 7965
  155.0483  140.3177  155.4700 H   0  0  0  0  0  0  0  0  0  0  0  0  # atno 8008 bound_to 7997
  156.2840  140.2150  156.5552 H   0  0  0  0  0  0  0  0  0  0  0  0  # atno 8009 bound_to 7997
  154.7231  140.0488  157.0646 H   0  0  0  0  0  0  0  0  0  0  0  0  # atno 8010 bound_to 7997
  140.7052  143.3189  151.2840 H   0  0  0  0  0  0  0  0  0  0  0  0  # atno 10167 bound_to 10162
  155.9995  130.4957  150.5512 H   0  0  0  0  0  0  0  0  0  0  0  0  # atno 10718 bound_to 10713
  154.8697  135.4118  154.2849 H   0  0  0  0  0  0  0  0  0  0  0  0  # atno 10763 bound_to 10752
  153.3735  135.7008  153.6625 H   0  0  0  0  0  0  0  0  0  0  0  0  # atno 10764 bound_to 10752
  153.5477  135.3635  155.2718 H   0  0  0  0  0  0  0  0  0  0  0  0  # atno 10765 bound_to 10752
  140.8502  133.7862  155.9957 H   0  0  0  0  0  0  0  0  0  0  0  0  # atno 11005 bound_to 11000
  145.4642  141.0434  143.2735 LP  0  0  0  0  0  0  0  0  0  0  0  0  # atno 17320 bound_to 7965
  144.7998  139.6162  143.7076 LP  0  0  0  0  0  0  0  0  0  0  0  0  # atno 17321 bound_to 7965
  139.6637  144.0143  152.2709 LP  0  0  0  0  0  0  0  0  0  0  0  0  # atno 17342 bound_to 10162
  139.9719  144.6488  150.7981 LP  0  0  0  0  0  0  0  0  0  0  0  0  # atno 17343 bound_to 10162
  157.3434  131.0721  151.1770 LP  0  0  0  0  0  0  0  0  0  0  0  0  # atno 17370 bound_to 10713
  157.2610  130.6659  149.5975 LP  0  0  0  0  0  0  0  0  0  0  0  0  # atno 17371 bound_to 10713
  140.8799  134.2624  157.5149 LP  0  0  0  0  0  0  0  0  0  0  0  0  # atno 17394 bound_to 11000
  139.8704  134.9609  156.4380 LP  0  0  0  0  0  0  0  0  0  0  0  0  # atno 17395 bound_to 11000

$$$$
