#       Name:                AV-unprocessed.smi:673
#       Creating user name   scv26
#       Creation time:       Fri Mar 27 00:25:54 2020


#       File generated by GOLD software.
#

@<TRIPOS>MOLECULE
AV-unprocessed.smi:673
    49    50     1
SMALL
NO_CHARGES


@<TRIPOS>ATOM
      1 ****        -2.4780  -2.3239   1.1138 C.3            1 S1                 0.0000
      2 ****        -2.7322  -1.1563   0.1470 C.3            1 S1                 0.0000
      3 ****        -3.2948  -1.6529  -1.1986 C.3            1 S1                 0.0000
      4 ****        -3.6233  -0.5597  -2.0964 N.pl3          1 S1                 0.0000
      5 ****        -4.6857   0.2460  -2.1301 C.2            1 S1                 0.0000
      6 ****        -4.6392   1.1523  -3.0967 N.2            1 S1                 0.0000
      7 ****        -3.4378   0.8251  -3.6593 C.2            1 S1                 0.0000
      8 ****        -2.7882  -0.1945  -3.0979 N.2            1 S1                 0.0000
      9 ****        -1.4975  -0.4095  -0.0776 N.am           1 S1                 0.0000
     10 ****        -0.9938   0.5438   0.7246 C.2            1 S1                 0.0000
     11 ****        -1.5182   0.8471   1.7973 O.2            1 S1                 0.0000
     12 ****         0.1514   1.1113   0.2682 N.am           1 S1                 0.0000
     13 ****         0.7765   0.8280  -1.0310 C.3            1 S1                 0.0000
     14 ****         1.7142  -0.3943  -0.9695 C.3            1 S1                 0.0000
     15 ****         2.3276  -0.7456   0.4091 C.3            1 S1                 0.0000
     16 ****         2.9957   0.3921   1.2350 C.3            1 S1                 0.0000
     17 ****         3.8543  -0.2795   2.3279 C.3            1 S1                 0.0000
     18 ****         3.9459   1.2457   0.3680 C.3            1 S1                 0.0000
     19 ****         1.9463   1.2760   1.9714 C.3            1 S1                 0.0000
     20 ****         0.9336   2.0372   1.0944 C.3            1 S1                 0.0000
     21 ****        -3.3919  -2.8910   1.2912 H              1 S1                 0.0000
     22 ****        -2.1221  -1.9685   2.0813 H              1 S1                 0.0000
     23 ****        -1.7308  -3.0123   0.7172 H              1 S1                 0.0000
     24 ****        -3.4712  -0.4916   0.5985 H              1 S1                 0.0000
     25 ****        -2.5831  -2.3178  -1.6913 H              1 S1                 0.0000
     26 ****        -4.2021  -2.2355  -1.0340 H              1 S1                 0.0000
     27 ****        -5.5059   0.1715  -1.4311 H              1 S1                 0.0000
     28 ****        -3.0292   1.3542  -4.5077 H              1 S1                 0.0000
     29 ****        -0.9978  -0.6112  -0.9318 H              1 S1                 0.0000
     30 ****         0.0288   0.6901  -1.8140 H              1 S1                 0.0000
     31 ****         1.3423   1.6952  -1.3707 H              1 S1                 0.0000
     32 ****         1.1601  -1.2688  -1.3125 H              1 S1                 0.0000
     33 ****         2.5120  -0.2579  -1.7002 H              1 S1                 0.0000
     34 ****         1.5627  -1.2219   1.0243 H              1 S1                 0.0000
     35 ****         3.0636  -1.5300   0.2276 H              1 S1                 0.0000
     36 ****         4.3396   0.4594   2.9668 H              1 S1                 0.0000
     37 ****         4.6414  -0.8989   1.8961 H              1 S1                 0.0000
     38 ****         3.2510  -0.9216   2.9710 H              1 S1                 0.0000
     39 ****         4.4700   1.9873   0.9717 H              1 S1                 0.0000
     40 ****         3.4235   1.7875  -0.4179 H              1 S1                 0.0000
     41 ****         4.7013   0.6254  -0.1152 H              1 S1                 0.0000
     42 ****         1.3879   0.6549   2.6734 H              1 S1                 0.0000
     43 ****         2.4684   2.0071   2.5900 H              1 S1                 0.0000
     44 ****         1.4497   2.7774   0.4830 H              1 S1                 0.0000
     45 ****         0.2757   2.6285   1.7334 H              1 S1                 0.0000
     46 ****        -5.2934   1.8676  -3.3425 LP             1 S1                 0.0000
     47 ****        -1.9058  -0.5903  -3.3523 LP             1 S1                 0.0000
     48 ****        -2.3486   0.3781   2.0982 LP             1 S1                 0.0000
     49 ****        -1.1135   1.5623   2.3672 LP             1 S1                 0.0000
@<TRIPOS>BOND
    1    1    2 1     
    2    1   21 1     
    3    1   22 1     
    4    1   23 1     
    5    2    3 1     
    6    2    9 1     
    7    2   24 1     
    8    3    4 1     
    9    3   25 1     
   10    3   26 1     
   11    4    8 1     
   12    4    5 1     
   13    5    6 2     
   14    5   27 1     
   15    6    7 1     
   16    7    8 2     
   17    7   28 1     
   18    9   10 am    
   19    9   29 1     
   20   10   11 2     
   21   10   12 am    
   22   12   20 1     
   23   12   13 1     
   24   13   14 1     
   25   13   30 1     
   26   13   31 1     
   27   14   15 1     
   28   14   32 1     
   29   14   33 1     
   30   15   16 1     
   31   15   34 1     
   32   15   35 1     
   33   16   17 1     
   34   16   18 1     
   35   16   19 1     
   36   17   36 1     
   37   17   37 1     
   38   17   38 1     
   39   18   39 1     
   40   18   40 1     
   41   18   41 1     
   42   19   20 1     
   43   19   42 1     
   44   19   43 1     
   45   20   44 1     
   46   20   45 1     
   47    6   46 1     
   48    8   47 1     
   49   11   48 1     
   50   11   49 1     
@<TRIPOS>SUBSTRUCTURE
      1 S1             1
@<TRIPOS>SET
LONE_PAIRS      STATIC     ATOMS    <user>   **** ""
4 46 47 48 49
DONOR_HYDROGENS      STATIC     ATOMS    <user>   **** ""
1 29
ATOM$BLUE        STATIC     ATOMS    COLORGROUP SYSTEM
4 46 47 48 49
ATOM$RED        STATIC     ATOMS    COLORGROUP SYSTEM
1 29
