#       Name:                AV-unprocessed.smi:66
#       Creating user name   scv26
#       Creation time:       Thu Mar 26 16:51:54 2020


#       File generated by GOLD software.
#

@<TRIPOS>MOLECULE
AV-unprocessed.smi:66
    37    39     1
SMALL
NO_CHARGES


@<TRIPOS>ATOM
      1 ****        -1.9501   1.8348  -2.6064 O.co2          1 S1                 0.0000
      2 ****        -1.5418   0.7029  -2.2660 C.2            1 S1                 0.0000
      3 ****        -2.1837  -0.3640  -2.3928 O.co2          1 S1                -1.0000
      4 ****        -0.1296   0.6284  -1.6617 C.3            1 S1                 0.0000
      5 ****         0.8326  -0.2015  -2.5287 C.3            1 S1                 0.0000
      6 ****         0.7990  -1.5850  -1.8816 C.3            1 S1                 0.0000
      7 ****         1.9629  -2.3373  -2.1540 O.3            1 S1                 0.0000
      8 ****         0.6352  -1.2670  -0.3947 C.3            1 S1                 0.0000
      9 ****        -0.1372  -0.0320  -0.3529 N.pl3          1 S1                 0.0000
     10 ****        -0.3838   0.6827   0.8449 C.ar           1 S1                 0.0000
     11 ****        -0.8345   1.9585   0.7244 N.ar           1 S1                 0.0000
     12 ****        -1.0781   2.6544   1.8390 C.ar           1 S1                 0.0000
     13 ****        -0.9239   2.2351   3.0968 N.ar           1 S1                 0.0000
     14 ****        -0.4779   0.9713   3.2416 C.ar           1 S1                 0.0000
     15 ****        -0.2194   0.2462   4.3178 N.pl3          1 S1                -1.0000
     16 ****         0.2050  -0.9696   3.8922 C.2            1 S1                 0.0000
     17 ****         0.2408  -1.0858   2.5497 N.2            1 S1                 0.0000
     18 ****        -0.1916   0.1483   2.1502 C.ar           1 S1                 0.0000
     19 ****         0.2663   1.6413  -1.5764 H              1 S1                 0.0000
     20 ****         0.5648  -0.2252  -3.5861 H              1 S1                 0.0000
     21 ****         1.8349   0.2229  -2.4538 H              1 S1                 0.0000
     22 ****        -0.0734  -2.1347  -2.2373 H              1 S1                 0.0000
     23 ****         2.0143  -2.4755  -3.0870 H              1 S1                 0.0000
     24 ****         0.1265  -2.0838   0.1173 H              1 S1                 0.0000
     25 ****         1.6030  -1.1002   0.0814 H              1 S1                 0.0000
     26 ****        -1.4350   3.6652   1.7078 H              1 S1                 0.0000
     27 ****         0.4738  -1.7297   4.6152 H              1 S1                 0.0000
     28 ****        -2.8565   1.9370  -3.0162 LP             1 S1                 0.0000
     29 ****        -1.3702   2.6377  -2.4687 LP             1 S1                 0.0000
     30 ****        -3.0996  -0.3518  -2.7939 LP             1 S1                 0.0000
     31 ****        -1.7806  -1.2287  -2.0930 LP             1 S1                 0.0000
     32 ****         1.9140  -3.2185  -1.6836 LP             1 S1                 0.0000
     33 ****         2.7702  -1.8369  -1.8411 LP             1 S1                 0.0000
     34 ****        -0.9804   2.3671  -0.1765 LP             1 S1                 0.0000
     35 ****        -1.1263   2.8210   3.8815 LP             1 S1                 0.0000
     36 ****        -0.3185   0.5401   5.2685 LP             1 S1                 0.0000
     37 ****         0.5127  -1.8699   1.9917 LP             1 S1                 0.0000
@<TRIPOS>BOND
    1    1    2 ar    
    2    2    3 ar    
    3    2    4 1     
    4    4    5 1     
    5    4   19 1     
    6    4    9 1     
    7    5    6 1     
    8    5   20 1     
    9    5   21 1     
   10    6    7 1     
   11    6    8 1     
   12    6   22 1     
   13    7   23 1     
   14    8   24 1     
   15    8   25 1     
   16    8    9 1     
   17    9   10 1     
   18   10   11 ar    
   19   10   18 ar    
   20   11   12 ar    
   21   12   26 1     
   22   12   13 ar    
   23   13   14 ar    
   24   14   15 1     
   25   14   18 ar    
   26   15   16 1     
   27   16   17 2     
   28   16   27 1     
   29   17   18 1     
   30    1   28 1     
   31    1   29 1     
   32    3   30 1     
   33    3   31 1     
   34    7   32 1     
   35    7   33 1     
   36   11   34 1     
   37   13   35 1     
   38   15   36 1     
   39   17   37 1     
@<TRIPOS>SUBSTRUCTURE
      1 S1             1
@<TRIPOS>SET
LONE_PAIRS      STATIC     ATOMS    <user>   **** ""
10 28 29 30 31 32 33 34 35 36 37
DONOR_HYDROGENS      STATIC     ATOMS    <user>   **** ""
1 23
ATOM$BLUE        STATIC     ATOMS    COLORGROUP SYSTEM
10 28 29 30 31 32 33 34 35 36 37
ATOM$RED        STATIC     ATOMS    COLORGROUP SYSTEM
1 23
