#       Name:                AV-unprocessed.smi:923
#       Creating user name   scv26
#       Creation time:       Fri Mar 27 02:08:22 2020


#       File generated by GOLD software.
#

@<TRIPOS>MOLECULE
AV-unprocessed.smi:923
    39    40     1
SMALL
NO_CHARGES


@<TRIPOS>ATOM
      1 ****        -7.1262   2.2299   0.9168 C.3            1 S1                 0.0000
      2 ****        -5.7755   1.6323   0.7163 C.2            1 S1                 0.0000
      3 ****        -5.5422   0.3174   0.8080 N.2            1 S1                 0.0000
      4 ****        -4.2094   0.0026   0.5825 N.2            1 S1                 0.0000
      5 ****        -3.4745   1.0936   0.3267 C.2            1 S1                 0.0000
      6 ****        -2.0799   1.0617   0.0612 N.am           1 S1                 0.0000
      7 ****        -1.2656  -0.0072   0.0089 C.2            1 S1                 0.0000
      8 ****        -1.6115  -1.1753   0.1875 O.2            1 S1                 0.0000
      9 ****        -0.0044   0.3582  -0.2657 N.am           1 S1                 0.0000
     10 ****         1.1327  -0.5498  -0.4022 C.3            1 S1                 0.0000
     11 ****         1.7147  -0.8506   0.9947 C.3            1 S1                 0.0000
     12 ****         2.9511  -1.7661   1.0076 C.3            1 S1                 0.0000
     13 ****         4.2265  -1.0518   0.5321 C.3            1 S1                 0.0000
     14 ****         4.4583  -1.0574  -0.9889 C.3            1 S1                 0.0000
     15 ****         3.2074  -0.9296  -1.8759 C.3            1 S1                 0.0000
     16 ****         2.1452   0.0701  -1.3879 C.3            1 S1                 0.0000
     17 ****        -4.3610   2.6088   0.3411 S.3            1 S1                 0.0000
     18 ****        -7.8704   1.4518   1.0900 H              1 S1                 0.0000
     19 ****        -7.4162   2.7998   0.0339 H              1 S1                 0.0000
     20 ****        -7.1132   2.8984   1.7776 H              1 S1                 0.0000
     21 ****        -1.6518   1.9598  -0.1084 H              1 S1                 0.0000
     22 ****         0.1860   1.3410  -0.3952 H              1 S1                 0.0000
     23 ****         0.7722  -1.4840  -0.8372 H              1 S1                 0.0000
     24 ****         1.9485   0.0828   1.5090 H              1 S1                 0.0000
     25 ****         0.9392  -1.3278   1.5956 H              1 S1                 0.0000
     26 ****         3.1120  -2.0848   2.0381 H              1 S1                 0.0000
     27 ****         2.7733  -2.6796   0.4389 H              1 S1                 0.0000
     28 ****         4.2221  -0.0239   0.8966 H              1 S1                 0.0000
     29 ****         5.0919  -1.5181   1.0045 H              1 S1                 0.0000
     30 ****         5.1520  -0.2512  -1.2297 H              1 S1                 0.0000
     31 ****         4.9743  -1.9772  -1.2666 H              1 S1                 0.0000
     32 ****         3.5366  -0.6348  -2.8730 H              1 S1                 0.0000
     33 ****         2.7499  -1.9109  -2.0077 H              1 S1                 0.0000
     34 ****         1.5954   0.4129  -2.2658 H              1 S1                 0.0000
     35 ****         2.6139   0.9597  -0.9651 H              1 S1                 0.0000
     36 ****        -6.2475  -0.3605   1.0153 LP             1 S1                 0.0000
     37 ****        -3.8416  -0.9270   0.6079 LP             1 S1                 0.0000
     38 ****        -2.5673  -1.3883   0.3904 LP             1 S1                 0.0000
     39 ****        -0.9367  -1.9110   0.1297 LP             1 S1                 0.0000
@<TRIPOS>BOND
    1    1    2 1     
    2    1   18 1     
    3    1   19 1     
    4    1   20 1     
    5    2   17 1     
    6    2    3 2     
    7    3    4 1     
    8    4    5 2     
    9    5    6 1     
   10    5   17 1     
   11    6    7 am    
   12    6   21 1     
   13    7    8 2     
   14    7    9 am    
   15    9   10 1     
   16    9   22 1     
   17   10   16 1     
   18   10   11 1     
   19   10   23 1     
   20   11   12 1     
   21   11   24 1     
   22   11   25 1     
   23   12   13 1     
   24   12   26 1     
   25   12   27 1     
   26   13   14 1     
   27   13   28 1     
   28   13   29 1     
   29   14   15 1     
   30   14   30 1     
   31   14   31 1     
   32   15   16 1     
   33   15   32 1     
   34   15   33 1     
   35   16   34 1     
   36   16   35 1     
   37    3   36 1     
   38    4   37 1     
   39    8   38 1     
   40    8   39 1     
@<TRIPOS>SUBSTRUCTURE
      1 S1             1
@<TRIPOS>SET
LONE_PAIRS      STATIC     ATOMS    <user>   **** ""
4 36 37 38 39
DONOR_HYDROGENS      STATIC     ATOMS    <user>   **** ""
2 21 22
ATOM$BLUE        STATIC     ATOMS    COLORGROUP SYSTEM
4 36 37 38 39
ATOM$RED        STATIC     ATOMS    COLORGROUP SYSTEM
2 21 22
