AV-unprocessed.smi:893|AV-procd|sdf|4067|dock9
  -GOLD-   22720 1553D 1   1.00000     0.00000
 Structure written by MMmdl.
 27 28  0  0  0  0  0  0  0  0  1 V2000
  146.9259  134.3094  154.1179 C   0  0  0  0  0  0  0  0  0  0  0  0
  145.8818  135.4366  154.1533 C   0  0  0  0  0  0  0  0  0  0  0  0
  145.3973  135.8908  152.7557 C   0  0  2  0  0  0  0  0  0  0  0  0
  144.8135  134.7527  151.9389 C   0  0  0  0  0  0  0  0  0  0  0  0
  143.8080  133.8134  152.3162 C   0  0  0  0  0  0  0  0  0  0  0  0
  143.5239  132.9438  151.3611 N   0  0  0  0  0  0  0  0  0  0  0  0
  144.3328  133.2913  150.3408 N   0  0  0  0  0  0  0  0  0  0  0  0
  144.2899  132.5360  149.1071 C   0  0  0  0  0  0  0  0  0  0  0  0
  145.1182  134.3775  150.6584 C   0  0  0  0  0  0  0  0  0  0  0  0
  146.4452  136.6089  152.0429 N   0  0  0  0  0  0  0  0  0  0  0  0
  146.1039  137.8692  151.7421 C   0  0  0  0  0  0  0  0  0  0  0  0
  146.7970  138.6795  151.1320 O   0  0  0  0  0  0  0  0  0  0  0  0
  144.8796  138.0897  152.2299 N   0  0  0  0  0  0  0  0  0  0  0  0
  144.3807  137.0232  152.8528 C   0  0  0  0  0  0  0  0  0  0  0  0
  143.2899  136.9451  153.4164 O   0  0  0  0  0  0  0  0  0  0  0  0
  147.2303  134.0350  155.1279 H   0  0  0  0  0  0  0  0  0  0  0  0
  147.8214  134.6130  153.5756 H   0  0  0  0  0  0  0  0  0  0  0  0
  146.5310  133.4132  153.6391 H   0  0  0  0  0  0  0  0  0  0  0  0
  145.0295  135.1056  154.7484 H   0  0  0  0  0  0  0  0  0  0  0  0
  146.3069  136.2857  154.6913 H   0  0  0  0  0  0  0  0  0  0  0  0
  143.2771  133.7383  153.2538 H   0  0  0  0  0  0  0  0  0  0  0  0
  145.0357  132.9168  148.4086 H   0  0  0  0  0  0  0  0  0  0  0  0
  143.3019  132.6243  148.6544 H   0  0  0  0  0  0  0  0  0  0  0  0
  144.4991  131.4851  149.3099 H   0  0  0  0  0  0  0  0  0  0  0  0
  145.8265  134.7918  149.9559 H   0  0  0  0  0  0  0  0  0  0  0  0
  147.3263  136.1835  151.7934 H   0  0  0  0  0  0  0  0  0  0  0  0
  144.3928  138.9702  152.1467 H   0  0  0  0  0  0  0  0  0  0  0  0
  1  2  1  0  0  0  0
  1 16  1  0  0  0  0
  1 17  1  0  0  0  0
  1 18  1  0  0  0  0
  2  3  1  0  0  0  0
  2 19  1  0  0  0  0
  2 20  1  0  0  0  0
  3 14  1  0  0  0  0
  3  4  1  0  0  0  0
  3 10  1  0  0  0  0
  4  9  2  0  0  0  0
  4  5  1  0  0  0  0
  5  6  2  0  0  0  0
  5 21  1  0  0  0  0
  6  7  1  0  0  0  0
  7  8  1  0  0  0  0
  7  9  1  0  0  0  0
  8 22  1  0  0  0  0
  8 23  1  0  0  0  0
  8 24  1  0  0  0  0
  9 25  1  0  0  0  0
 10 11  1  0  0  0  0
 10 26  1  0  0  0  0
 11 12  2  0  0  0  0
 11 13  1  0  0  0  0
 13 14  1  0  0  0  0
 13 27  1  0  0  0  0
 14 15  2  0  0  0  0
M  END
> <s_m_source_file>
AV-unprocessed.smi

> <i_m_source_file_index>
893

> <i_lp_mmshare_version>
43012

> <i_f3d_flags>
0

> <s_epik_input>
Tz1DMVtOSF1DKD1PKVtOSF1bQ0BAXTEoW0NIMl1bQ0gzXSljMltjSF1ubihbQ0gzXSlbY0hdMg==

> <s_epik_cmdline>
J2VwaWtfcHl0aG9uJywgJy1waCcsICc3LjAnLCAnLXRuJywgJzgnLCAnLW1hJywgJzIwMCcsICctbWV0YWxfYmluZGluZycsICctaW1hZScsICc8aW5maWxlLm1hZT4nLCAnLW9tYWUnLCAnPG91dGZpbGUubWFlPic=

> <r_lp_tautomer_probability>
1

> <r_epik_Ionization_Penalty>
0.0236181

> <r_epik_Ionization_Penalty_Charging>
0

> <r_epik_Ionization_Penalty_Neutral>
0.0236181

> <r_epik_State_Penalty>
0.0189572

> <r_epik_Charging_Adjusted_Penalty>
0.0189572

> <i_epik_Tot_Q>
0

> <i_epik_Tot_abs_Q>
0

> <r_epik_Metal_State_Penalty>
0.411796

> <b_epik_Metal_Only>
0

> <s_lp_Force_Field>
OPLS_2005

> <r_lp_Energy>
15.567

> <b_lp_Chiralities_Consistent>
1

> <s_lp_Variant>
AV-unprocessed.smi:893-2

> <Gold.Version>
5.8.1

> <Gold.Id.Protein>
6NUR|6NUR_protein|mol2

> <Gold.PLP.Fitness>
37.2526

> <Gold.PLP.PLP>
-23.0050

> <Gold.PLP.part.hbond>
-3.9823

> <Gold.PLP.part.metal>
0.0000

> <Gold.PLP.part.buried>
-3.7027

> <Gold.PLP.part.nonpolar>
-17.4570

> <Gold.PLP.part.repulsive>
1.1611

> <Gold.PLP.ligand.clash>
0.0000

> <Gold.PLP.ligand.torsion>
0.2776

> <Gold.PLP.Chemscore.Hbond>
2.9840

> <Gold.PLP.Chemscore.CHOScore>
1.8930

> <Gold.PLP.Chemscore.Metal>
0.0000

> <Gold.Chemscore.Hbonds>
donor molecule, donor type, donor heavy atom, donor atom, acceptor molecule, acceptor atom, score
      L1  H    10    26       P1  7948  0.99
      L1  H    13    27       P1 10175  1.00
      P1  H  7954  7966       L1    12  0.99
      L1  C     5    21       P1 10957  0.91
      L1  C     9    25       P1  7921  1.00

> <Gold.PLP.Chemscore.Internal.Correction>
0.1718

> <Gold.Rescore>
     Score         DG    S(hbond)    S(metal)    S(lipo)     H(rot)  DE(clash)    DE(int)     intcor
     15.26     -15.57       2.85        0.00      33.39       1.30       0.23       0.09       ----

> <Gold.Chemscore.Fitness>
15.2590

> <Gold.Chemscore.DG>
-15.5748

> <Gold.Chemscore.ZeroCoef>
-5.4800

> <Gold.Chemscore.Hbond>
2.8458

> <Gold.Chemscore.Metal>
0.0000

> <Gold.Chemscore.Lipo>
33.3872

> <Gold.Chemscore.Internal_Hbond>
0.0000

> <Gold.Chemscore.DEClash>
0.2299

> <Gold.Chemscore.DEInternal>
0.0859

> <Gold.Chemscore.Rot>
1.2955

> <Gold.Chemscore.Internal.Correction>
   9.000000E+99

> <Gold.Chemscore.Hbonds>
donor molecule, donor type, donor heavy atom, donor atom, acceptor molecule, acceptor atom, score
      L1  H    10    26       P1  7948  0.93
      L1  H    13    27       P1 10175  1.00
      P1  H  7954  7966       L1    12  0.83

> <Gold.Chemscore.Hbond.Weighted>
-9.5049

> <Gold.Chemscore.Metal.Weighted>
-0.0000

> <Gold.Chemscore.Lipo.Weighted>
-3.9063

> <Gold.Chemscore.Internal_Hbond.Weighted>
0.0000

> <Gold.Chemscore.DEClash.Weighted>
0.2299

> <Gold.Chemscore.DEInternal.Weighted>
0.0859

> <Gold.Chemscore.Rot.Weighted>
3.3164

> <Gold.Chemscore.Internal.Correction.Weighted>
   9.000000E+99

> <Gold.Protein.RotatedTorsions>
[ 6907 6896 6895 6894 ] final -171.31 input  -60.11 | X-H torsion
[ 7974 7965 7964 7962 ] final  157.32 input  175.53 | X-H torsion
[ 8008 7997 7996 7995 ] final  -32.29 input   59.86 | X-H torsion
[ 10167 10162 10161 10158 ] final   98.23 input  -65.29 | X-H torsion
[ 10718 10713 10712 10709 ] final  101.48 input   66.30 | X-H torsion
[ 10763 10752 10751 10750 ] final  -77.42 input  -60.55 | X-H torsion
[ 11005 11000 10999 10996 ] final   58.91 input  -57.11 | X-H torsion

> <Gold.Protein.ActiveResidues>
 VAL166  LYS551  ARG553  GLY616  TRP617  ASP618  TYR619  PRO620  LYS621  CYS622 
 ASP623  PHE694  ASN695  SER759  ASP760  ASP761  ALA762  ILE779  LEU786  VAL792 
 PHE793  MET794  SER795  GLU796  ALA797  LYS798  CYS799  TRP800  GLU811  SER814 

> <Gold.Protein.RotatedAtoms>
  151.5218  133.3465  159.2902 H   0  0  0  0  0  0  0  0  0  0  0  0  # atno 6907 bound_to 6896
  150.8648  134.8011  159.7121 H   0  0  0  0  0  0  0  0  0  0  0  0  # atno 6908 bound_to 6896
  152.4656  134.5093  159.9800 H   0  0  0  0  0  0  0  0  0  0  0  0  # atno 6909 bound_to 6896
  144.7910  139.7324  143.6221 H   0  0  0  0  0  0  0  0  0  0  0  0  # atno 7974 bound_to 7965
  154.4185  140.1741  156.1704 H   0  0  0  0  0  0  0  0  0  0  0  0  # atno 8008 bound_to 7997
  155.9765  140.3381  155.6599 H   0  0  0  0  0  0  0  0  0  0  0  0  # atno 8009 bound_to 7997
  155.6557  140.0695  157.2562 H   0  0  0  0  0  0  0  0  0  0  0  0  # atno 8010 bound_to 7997
  139.7728  144.6916  151.0132 H   0  0  0  0  0  0  0  0  0  0  0  0  # atno 10167 bound_to 10162
  157.6828  131.0727  150.5258 H   0  0  0  0  0  0  0  0  0  0  0  0  # atno 10718 bound_to 10713
  154.5128  135.5764  153.6618 H   0  0  0  0  0  0  0  0  0  0  0  0  # atno 10763 bound_to 10752
  152.9900  135.6163  154.2857 H   0  0  0  0  0  0  0  0  0  0  0  0  # atno 10764 bound_to 10752
  154.2773  135.2852  155.2692 H   0  0  0  0  0  0  0  0  0  0  0  0  # atno 10765 bound_to 10752
  140.0343  134.5966  155.9465 H   0  0  0  0  0  0  0  0  0  0  0  0  # atno 11005 bound_to 11000
  146.2162  139.5554  142.9648 LP  0  0  0  0  0  0  0  0  0  0  0  0  # atno 17320 bound_to 7965
  145.5794  141.0384  143.2130 LP  0  0  0  0  0  0  0  0  0  0  0  0  # atno 17321 bound_to 7965
  140.7815  143.4569  151.0332 LP  0  0  0  0  0  0  0  0  0  0  0  0  # atno 17342 bound_to 10162
  139.8252  143.7765  152.3178 LP  0  0  0  0  0  0  0  0  0  0  0  0  # atno 17343 bound_to 10162
  156.5570  130.4246  149.6081 LP  0  0  0  0  0  0  0  0  0  0  0  0  # atno 17370 bound_to 10713
  156.2854  130.7094  151.1929 LP  0  0  0  0  0  0  0  0  0  0  0  0  # atno 17371 bound_to 10713
  141.1848  133.6553  156.5173 LP  0  0  0  0  0  0  0  0  0  0  0  0  # atno 17394 bound_to 11000
  140.4174  134.7218  157.4870 LP  0  0  0  0  0  0  0  0  0  0  0  0  # atno 17395 bound_to 11000

$$$$
