AV-unprocessed.smi:1786|AV-procd|sdf|7204|dock7
  -GOLD-   22720 8443D 1   1.00000     0.00000
 Structure written by MMmdl.
 44 45  0  0  0  0  0  0  0  0  2 V2000
  143.7783  136.1247  152.0692 C   0  0  0  0  0  0  0  0  0  0  0  0
  145.2091  135.9946  151.5024 C   0  0  2  0  0  0  0  0  0  0  0  0
  145.4353  134.6486  150.7818 C   0  0  0  0  0  0  0  0  0  0  0  0
  145.5460  133.4765  151.7683 C   0  0  0  0  0  0  0  0  0  0  0  0
  146.6294  133.7689  152.8134 C   0  0  0  0  0  0  0  0  0  0  0  0
  146.3785  135.1146  153.5133 C   0  0  0  0  0  0  0  0  0  0  0  0
  146.2754  136.2221  152.5236 N   0  3  2  0  0  0  0  0  0  0  0  0
  146.2291  137.5697  153.1460 C   0  0  0  0  0  0  0  0  0  0  0  0
  146.5093  138.6901  152.1274 C   0  0  0  0  0  0  0  0  0  0  0  0
  147.5821  139.5654  152.5821 N   0  0  0  0  0  0  0  0  0  0  0  0
  147.5176  140.3706  153.6567 C   0  0  0  0  0  0  0  0  0  0  0  0
  146.5164  140.4443  154.3683 O   0  0  0  0  0  0  0  0  0  0  0  0
  148.7418  141.2373  154.0003 C   0  0  0  0  0  0  0  0  0  0  0  0
  149.1878  141.1615  155.4032 N   0  0  0  0  0  0  0  0  0  0  0  0
  148.2997  141.6508  156.3818 C   0  0  0  0  0  0  0  0  0  0  0  0
  148.6023  141.6306  157.6894 C   0  0  0  0  0  0  0  0  0  0  0  0
  149.8788  141.0851  158.0858 C   0  0  0  0  0  0  0  0  0  0  0  0
  150.7375  140.6178  157.1578 C   0  0  0  0  0  0  0  0  0  0  0  0
  150.4140  140.6453  155.7266 C   0  0  0  0  0  0  0  0  0  0  0  0
  151.1992  140.2379  154.8704 O   0  0  0  0  0  0  0  0  0  0  0  0
  143.0390  135.9742  151.2821 H   0  0  0  0  0  0  0  0  0  0  0  0
  143.5966  137.1144  152.4878 H   0  0  0  0  0  0  0  0  0  0  0  0
  143.5713  135.3931  152.8496 H   0  0  0  0  0  0  0  0  0  0  0  0
  145.3221  136.7736  150.7471 H   0  0  0  0  0  0  0  0  0  0  0  0
  144.6339  134.4618  150.0661 H   0  0  0  0  0  0  0  0  0  0  0  0
  146.3544  134.7063  150.1969 H   0  0  0  0  0  0  0  0  0  0  0  0
  144.5887  133.3086  152.2627 H   0  0  0  0  0  0  0  0  0  0  0  0
  145.7811  132.5565  151.2323 H   0  0  0  0  0  0  0  0  0  0  0  0
  146.6627  132.9657  153.5501 H   0  0  0  0  0  0  0  0  0  0  0  0
  147.6074  133.7857  152.3307 H   0  0  0  0  0  0  0  0  0  0  0  0
  145.4727  135.0650  154.1183 H   0  0  0  0  0  0  0  0  0  0  0  0
  147.1977  135.3044  154.2060 H   0  0  0  0  0  0  0  0  0  0  0  0
  145.2380  137.7413  153.5686 H   0  0  0  0  0  0  0  0  0  0  0  0
  146.9319  137.6120  153.9796 H   0  0  0  0  0  0  0  0  0  0  0  0
  146.7654  138.2875  151.1468 H   0  0  0  0  0  0  0  0  0  0  0  0
  145.6146  139.2973  151.9880 H   0  0  0  0  0  0  0  0  0  0  0  0
  148.4390  139.5565  152.0473 H   0  0  0  0  0  0  0  0  0  0  0  0
  149.5565  140.9445  153.3365 H   0  0  0  0  0  0  0  0  0  0  0  0
  148.5198  142.2705  153.7273 H   0  0  0  0  0  0  0  0  0  0  0  0
  147.3682  142.0449  156.0016 H   0  0  0  0  0  0  0  0  0  0  0  0
  147.9099  142.0128  158.4251 H   0  0  0  0  0  0  0  0  0  0  0  0
  150.1460  141.0502  159.1318 H   0  0  0  0  0  0  0  0  0  0  0  0
  151.6876  140.2123  157.4734 H   0  0  0  0  0  0  0  0  0  0  0  0
  147.1394  136.2014  152.0008 H   0  0  0  0  0  0  0  0  0  0  0  0
  1  2  1  0  0  0  0
  1 21  1  0  0  0  0
  1 22  1  0  0  0  0
  1 23  1  0  0  0  0
  2  7  1  0  0  0  0
  2  3  1  0  0  0  0
  2 24  1  0  0  0  0
  3  4  1  0  0  0  0
  3 25  1  0  0  0  0
  3 26  1  0  0  0  0
  4  5  1  0  0  0  0
  4 27  1  0  0  0  0
  4 28  1  0  0  0  0
  5  6  1  0  0  0  0
  5 29  1  0  0  0  0
  5 30  1  0  0  0  0
  6  7  1  0  0  0  0
  6 31  1  0  0  0  0
  6 32  1  0  0  0  0
  7  8  1  0  0  0  0
  7 44  1  0  0  0  0
  8  9  1  0  0  0  0
  8 33  1  0  0  0  0
  8 34  1  0  0  0  0
  9 10  1  0  0  0  0
  9 35  1  0  0  0  0
  9 36  1  0  0  0  0
 10 11  1  0  0  0  0
 10 37  1  0  0  0  0
 11 12  2  0  0  0  0
 11 13  1  0  0  0  0
 13 14  1  0  0  0  0
 13 38  1  0  0  0  0
 13 39  1  0  0  0  0
 14 19  1  0  0  0  0
 14 15  1  0  0  0  0
 15 16  2  0  0  0  0
 15 40  1  0  0  0  0
 16 17  1  0  0  0  0
 16 41  1  0  0  0  0
 17 18  2  0  0  0  0
 17 42  1  0  0  0  0
 18 19  1  0  0  0  0
 18 43  1  0  0  0  0
 19 20  2  0  0  0  0
M  CHG  1   7   1
M  END
> <s_m_source_file>
AV-unprocessed.smi

> <i_m_source_file_index>
1786

> <i_lp_mmshare_version>
43012

> <i_f3d_flags>
0

> <s_epik_input>
W0NIM11bQ0BASF0xW0NIMl1bQ0gyXVtDSDJdW0NIMl1OMVtDSDJdW0NIMl1bTkhdQyg9TylbQ0gyXW4yW2NIXVtjSF1bY0hdW2NIXWMyPU8=

> <s_epik_cmdline>
J2VwaWtfcHl0aG9uJywgJy1waCcsICc3LjAnLCAnLXRuJywgJzgnLCAnLW1hJywgJzIwMCcsICctbWV0YWxfYmluZGluZycsICctaW1hZScsICc8aW5maWxlLm1hZT4nLCAnLW9tYWUnLCAnPG91dGZpbGUubWFlPic=

> <r_lp_tautomer_probability>
1

> <r_epik_Ionization_Penalty>
0.00237247

> <r_epik_Ionization_Penalty_Charging>
0.00237238

> <r_epik_Ionization_Penalty_Neutral>
8.2065e-08

> <r_epik_State_Penalty>
0.00163922

> <r_epik_Charging_Adjusted_Penalty>
0.0040116

> <i_epik_Tot_Q>
1

> <i_epik_Tot_abs_Q>
1

> <r_epik_Metal_State_Penalty>
-0

> <b_epik_Metal_Only>
0

> <s_lp_Force_Field>
OPLS_2005

> <r_lp_Energy>
28.5406

> <b_lp_Chiralities_Consistent>
1

> <s_lp_Variant>
AV-unprocessed.smi:1786-3

> <Gold.Version>
5.8.1

> <Gold.Id.Protein>
6NUR|6NUR_protein|mol2

> <Gold.PLP.Fitness>
45.0974

> <Gold.PLP.PLP>
-34.1493

> <Gold.PLP.part.hbond>
-2.9448

> <Gold.PLP.part.metal>
0.0000

> <Gold.PLP.part.buried>
-4.1492

> <Gold.PLP.part.nonpolar>
-27.6319

> <Gold.PLP.part.repulsive>
0.2634

> <Gold.PLP.ligand.clash>
0.0000

> <Gold.PLP.ligand.torsion>
0.5628

> <Gold.PLP.Chemscore.Hbond>
4.0000

> <Gold.PLP.Chemscore.CHOScore>
0.0000

> <Gold.PLP.Chemscore.Metal>
0.0000

> <Gold.Chemscore.Hbonds>
donor molecule, donor type, donor heavy atom, donor atom, acceptor molecule, acceptor atom, score
      L1  H     7    44       P1  7948  2.00
      L1  H    10    37       P1  7957  0.99
      P1  H  7989  7998       L1    20  1.00

> <Gold.PLP.Chemscore.Internal.Correction>
0.0737

> <Gold.Rescore>
     Score         DG    S(hbond)    S(metal)    S(lipo)     H(rot)  DE(clash)    DE(int)     intcor
     16.20     -17.99       2.90        0.00      64.73       1.86       0.14       1.66       ----

> <Gold.Chemscore.Fitness>
16.1994

> <Gold.Chemscore.DG>
-17.9931

> <Gold.Chemscore.ZeroCoef>
-5.4800

> <Gold.Chemscore.Hbond>
2.9034

> <Gold.Chemscore.Metal>
0.0000

> <Gold.Chemscore.Lipo>
64.7333

> <Gold.Chemscore.Internal_Hbond>
0.0000

> <Gold.Chemscore.DEClash>
0.1364

> <Gold.Chemscore.DEInternal>
1.6573

> <Gold.Chemscore.Rot>
1.8586

> <Gold.Chemscore.Internal.Correction>
   9.000000E+99

> <Gold.Chemscore.Hbonds>
donor molecule, donor type, donor heavy atom, donor atom, acceptor molecule, acceptor atom, score
      L1  H     7    44       P1  7948  0.98
      L1  H    10    37       P1  7957  0.92
      P1  H  7989  7998       L1    20  0.96

> <Gold.Chemscore.Hbond.Weighted>
-9.6975

> <Gold.Chemscore.Metal.Weighted>
-0.0000

> <Gold.Chemscore.Lipo.Weighted>
-7.5738

> <Gold.Chemscore.Internal_Hbond.Weighted>
0.0000

> <Gold.Chemscore.DEClash.Weighted>
0.1364

> <Gold.Chemscore.DEInternal.Weighted>
1.6573

> <Gold.Chemscore.Rot.Weighted>
4.7581

> <Gold.Chemscore.Internal.Correction.Weighted>
   9.000000E+99

> <Gold.Protein.RotatedTorsions>
[ 6907 6896 6895 6894 ] final   56.70 input  -60.11 | X-H torsion
[ 7974 7965 7964 7962 ] final  169.34 input  175.53 | X-H torsion
[ 8008 7997 7996 7995 ] final   46.15 input   59.86 | X-H torsion
[ 10167 10162 10161 10158 ] final -114.55 input  -65.29 | X-H torsion
[ 10718 10713 10712 10709 ] final -115.19 input   66.30 | X-H torsion
[ 10763 10752 10751 10750 ] final   64.63 input  -60.55 | X-H torsion
[ 11005 11000 10999 10996 ] final   77.46 input  -57.11 | X-H torsion

> <Gold.Protein.ActiveResidues>
 VAL166  LYS551  ARG553  GLY616  TRP617  ASP618  TYR619  PRO620  LYS621  CYS622 
 ASP623  PHE694  ASN695  SER759  ASP760  ASP761  ALA762  ILE779  LEU786  VAL792 
 PHE793  MET794  SER795  GLU796  ALA797  LYS798  CYS799  TRP800  GLU811  SER814 

> <Gold.Protein.RotatedAtoms>
  152.3661  134.6802  160.0191 H   0  0  0  0  0  0  0  0  0  0  0  0  # atno 6907 bound_to 6896
  151.7110  133.3307  159.3299 H   0  0  0  0  0  0  0  0  0  0  0  0  # atno 6908 bound_to 6896
  150.7639  134.6467  159.6310 H   0  0  0  0  0  0  0  0  0  0  0  0  # atno 6909 bound_to 6896
  144.7358  139.9040  143.6411 H   0  0  0  0  0  0  0  0  0  0  0  0  # atno 7974 bound_to 7965
  155.3477  140.3411  155.4239 H   0  0  0  0  0  0  0  0  0  0  0  0  # atno 8008 bound_to 7997
  156.1780  140.1654  156.8362 H   0  0  0  0  0  0  0  0  0  0  0  0  # atno 8009 bound_to 7997
  154.5303  140.0747  156.8315 H   0  0  0  0  0  0  0  0  0  0  0  0  # atno 8010 bound_to 7997
  140.0998  143.4623  152.1819 H   0  0  0  0  0  0  0  0  0  0  0  0  # atno 10167 bound_to 10162
  156.0879  130.6068  150.8874 H   0  0  0  0  0  0  0  0  0  0  0  0  # atno 10718 bound_to 10713
  153.0063  135.5386  154.6540 H   0  0  0  0  0  0  0  0  0  0  0  0  # atno 10763 bound_to 10752
  154.5765  135.2846  155.0778 H   0  0  0  0  0  0  0  0  0  0  0  0  # atno 10764 bound_to 10752
  154.1923  135.6498  153.5116 H   0  0  0  0  0  0  0  0  0  0  0  0  # atno 10765 bound_to 10752
  139.9254  134.7684  156.1524 H   0  0  0  0  0  0  0  0  0  0  0  0  # atno 11005 bound_to 11000
  146.1050  139.4049  143.0323 LP  0  0  0  0  0  0  0  0  0  0  0  0  # atno 17320 bound_to 7965
  145.7524  140.9967  143.1243 LP  0  0  0  0  0  0  0  0  0  0  0  0  # atno 17321 bound_to 7965
  139.5678  144.7445  151.3975 LP  0  0  0  0  0  0  0  0  0  0  0  0  # atno 17342 bound_to 10162
  140.6984  143.7692  150.7363 LP  0  0  0  0  0  0  0  0  0  0  0  0  # atno 17343 bound_to 10162
  157.6020  131.0941  150.8944 LP  0  0  0  0  0  0  0  0  0  0  0  0  # atno 17370 bound_to 10713
  156.9100  130.5277  149.5280 LP  0  0  0  0  0  0  0  0  0  0  0  0  # atno 17371 bound_to 10713
  141.0807  133.6755  156.2330 LP  0  0  0  0  0  0  0  0  0  0  0  0  # atno 17394 bound_to 11000
  140.6352  134.5222  157.5564 LP  0  0  0  0  0  0  0  0  0  0  0  0  # atno 17395 bound_to 11000

$$$$
