AV-unprocessed.smi:113|AV-procd|sdf|1096|dock7
  -GOLD-   2262018203D 1   1.00000     0.00000
 Structure written by MMmdl.
 52 55  0  0  0  0  0  0  0  0  1 V2000
  152.7270  139.0145  159.8778 C   0  0  0  0  0  0  0  0  0  0  0  0
  152.3386  140.3768  159.3422 C   0  0  0  0  0  0  0  0  0  0  0  0
  151.7858  140.5118  158.0564 C   0  0  0  0  0  0  0  0  0  0  0  0
  151.4377  141.8006  157.5912 C   0  0  0  0  0  0  0  0  0  0  0  0
  150.8310  142.0026  156.1984 C   0  0  0  0  0  0  0  0  0  0  0  0
  150.3955  140.8060  155.4922 N   0  0  0  0  0  0  0  0  0  0  0  0
  151.3776  139.8404  155.1613 C   0  0  0  0  0  0  0  0  0  0  0  0
  152.5625  139.9947  155.4650 O   0  0  0  0  0  0  0  0  0  0  0  0
  150.8760  138.6595  154.4544 C   0  0  0  0  0  0  0  0  0  0  0  0
  151.8791  137.5999  154.0266 C   0  0  0  0  0  0  0  0  0  0  0  0
  149.5508  138.5403  154.2010 C   0  0  0  0  0  0  0  0  0  0  0  0
  148.6061  139.4804  154.5762 N   0  0  0  0  0  0  0  0  0  0  0  0
  147.1388  139.2742  154.2769 C   0  0  1  0  0  0  0  0  0  0  0  0
  146.9044  139.1500  152.7704 C   0  0  0  0  0  0  0  0  0  0  0  0
  145.8298  138.0845  152.7184 C   0  0  1  0  0  0  0  0  0  0  0  0
  145.8472  137.4139  151.4749 O   0  0  0  0  0  0  0  0  0  0  0  0
  146.2304  137.1775  153.8858 C   0  0  2  0  0  0  0  0  0  0  0  0
  145.0860  136.3384  154.4749 C   0  0  0  0  0  0  0  0  0  0  0  0
  144.6116  135.4106  153.5226 O   0  0  0  0  0  0  0  0  0  0  0  0
  146.7101  138.0854  154.8758 O   0  0  0  0  0  0  0  0  0  0  0  0
  149.0148  140.6630  155.2259 C   0  0  0  0  0  0  0  0  0  0  0  0
  148.1962  141.5262  155.5515 O   0  0  0  0  0  0  0  0  0  0  0  0
  151.6671  142.9047  158.4560 C   0  0  0  0  0  0  0  0  0  0  0  0
  151.3437  144.2277  158.0685 C   0  0  0  0  0  0  0  0  0  0  0  0
  151.5812  145.3070  158.9381 C   0  0  0  0  0  0  0  0  0  0  0  0
  152.1444  145.0757  160.2038 C   0  0  0  0  0  0  0  0  0  0  0  0
  152.4675  143.7644  160.5968 C   0  0  0  0  0  0  0  0  0  0  0  0
  152.2369  142.6657  159.7414 C   0  0  0  0  0  0  0  0  0  0  0  0
  152.5610  141.4230  160.1615 N   0  0  0  0  0  0  0  0  0  0  0  0
  152.2080  138.2201  159.3402 H   0  0  0  0  0  0  0  0  0  0  0  0
  152.4743  138.9261  160.9351 H   0  0  0  0  0  0  0  0  0  0  0  0
  153.8002  138.8591  159.7661 H   0  0  0  0  0  0  0  0  0  0  0  0
  151.6380  139.6315  157.4490 H   0  0  0  0  0  0  0  0  0  0  0  0
  149.9758  142.6779  156.2553 H   0  0  0  0  0  0  0  0  0  0  0  0
  151.5393  142.5205  155.5502 H   0  0  0  0  0  0  0  0  0  0  0  0
  151.4035  136.7896  153.4734 H   0  0  0  0  0  0  0  0  0  0  0  0
  152.3697  137.1664  154.8988 H   0  0  0  0  0  0  0  0  0  0  0  0
  152.6450  138.0359  153.3840 H   0  0  0  0  0  0  0  0  0  0  0  0
  149.2185  137.6598  153.6723 H   0  0  0  0  0  0  0  0  0  0  0  0
  146.5859  140.0931  154.7389 H   0  0  0  0  0  0  0  0  0  0  0  0
  146.6062  140.1042  152.3351 H   0  0  0  0  0  0  0  0  0  0  0  0
  147.8189  138.8050  152.2840 H   0  0  0  0  0  0  0  0  0  0  0  0
  144.8503  138.5326  152.8929 H   0  0  0  0  0  0  0  0  0  0  0  0
  145.4427  137.9703  150.8267 H   0  0  0  0  0  0  0  0  0  0  0  0
  147.0631  136.5342  153.5961 H   0  0  0  0  0  0  0  0  0  0  0  0
  145.4406  135.7810  155.3422 H   0  0  0  0  0  0  0  0  0  0  0  0
  144.2662  136.9729  154.8129 H   0  0  0  0  0  0  0  0  0  0  0  0
  145.2376  135.3585  152.8161 H   0  0  0  0  0  0  0  0  0  0  0  0
  150.9099  144.4403  157.1034 H   0  0  0  0  0  0  0  0  0  0  0  0
  151.3307  146.3124  158.6329 H   0  0  0  0  0  0  0  0  0  0  0  0
  152.3286  145.9027  160.8737 H   0  0  0  0  0  0  0  0  0  0  0  0
  152.8997  143.5993  161.5730 H   0  0  0  0  0  0  0  0  0  0  0  0
  1  2  1  0  0  0  0
  1 30  1  0  0  0  0
  1 31  1  0  0  0  0
  1 32  1  0  0  0  0
  2 29  1  0  0  0  0
  2  3  2  0  0  0  0
  3  4  1  0  0  0  0
  3 33  1  0  0  0  0
  4  5  1  0  0  0  0
  4 23  2  0  0  0  0
  5  6  1  0  0  0  0
  5 34  1  0  0  0  0
  5 35  1  0  0  0  0
  6 21  1  0  0  0  0
  6  7  1  0  0  0  0
  7  8  2  0  0  0  0
  7  9  1  0  0  0  0
  9 10  1  0  0  0  0
  9 11  2  0  0  0  0
 10 36  1  0  0  0  0
 10 37  1  0  0  0  0
 10 38  1  0  0  0  0
 11 12  1  0  0  0  0
 11 39  1  0  0  0  0
 12 13  1  0  0  0  0
 12 21  1  0  0  0  0
 13 20  1  0  0  0  0
 13 14  1  0  0  0  0
 13 40  1  0  0  0  0
 14 15  1  0  0  0  0
 14 41  1  0  0  0  0
 14 42  1  0  0  0  0
 15 16  1  0  0  0  0
 15 17  1  0  0  0  0
 15 43  1  0  0  0  0
 16 44  1  0  0  0  0
 17 18  1  0  0  0  0
 17 20  1  0  0  0  0
 17 45  1  0  0  0  0
 18 19  1  0  0  0  0
 18 46  1  0  0  0  0
 18 47  1  0  0  0  0
 19 48  1  0  0  0  0
 21 22  2  0  0  0  0
 23 28  1  0  0  0  0
 23 24  1  0  0  0  0
 24 25  2  0  0  0  0
 24 49  1  0  0  0  0
 25 26  1  0  0  0  0
 25 50  1  0  0  0  0
 26 27  2  0  0  0  0
 26 51  1  0  0  0  0
 27 28  1  0  0  0  0
 27 52  1  0  0  0  0
 28 29  2  0  0  0  0
M  END
> <s_m_source_file>
AV-unprocessed.smi

> <i_m_source_file_index>
113

> <i_lp_mmshare_version>
43012

> <i_f3d_flags>
0

> <s_epik_input>
W2NIXTFbY0hdW2NIXVtjSF1jKGMxMiluYyhbQ0gzXSlbY0hdYzJbQ0gyXW4zYyg9TyljKFtDSDNdKVtjSF1uKGMzPU8pW0NAQEhdNFtDSDJdW0NAQEhdKFtPSF0pW0NASF0oTzQpW0NIMl1bT0hd

> <s_epik_cmdline>
J2VwaWtfcHl0aG9uJywgJy1waCcsICc3LjAnLCAnLXRuJywgJzgnLCAnLW1hJywgJzIwMCcsICctbWV0YWxfYmluZGluZycsICctaW1hZScsICc8aW5maWxlLm1hZT4nLCAnLW9tYWUnLCAnPG91dGZpbGUubWFlPic=

> <r_lp_tautomer_probability>
1

> <r_epik_Ionization_Penalty>
0.214728

> <r_epik_Ionization_Penalty_Charging>
3.04883e-08

> <r_epik_Ionization_Penalty_Neutral>
0.214728

> <r_epik_State_Penalty>
0.204913

> <r_epik_Charging_Adjusted_Penalty>
0.204913

> <i_epik_Tot_Q>
0

> <i_epik_Tot_abs_Q>
0

> <r_epik_Metal_State_Penalty>
0.000244761

> <b_epik_Metal_Only>
0

> <s_epik_Chemistry_Notes>
This compound contains an acetal/aminal-like group ( X-CH(R)-Y where X, Y are N, S, or O) that may be acid/base labile, releasing an aldehyde.

> <s_lp_Force_Field>
OPLS_2005

> <r_lp_Energy>
37.2315

> <b_lp_Chiralities_Consistent>
1

> <s_lp_Variant>
AV-unprocessed.smi:113-6

> <Gold.Version>
5.8.1

> <Gold.Id.Protein>
6NUR|6NUR_protein|mol2

> <Gold.PLP.Fitness>
60.8237

> <Gold.PLP.PLP>
-52.1123

> <Gold.PLP.part.hbond>
-3.4343

> <Gold.PLP.part.metal>
0.0000

> <Gold.PLP.part.buried>
-0.5354

> <Gold.PLP.part.nonpolar>
-48.4023

> <Gold.PLP.part.repulsive>
0.1768

> <Gold.PLP.ligand.clash>
0.0077

> <Gold.PLP.ligand.torsion>
0.1493

> <Gold.PLP.Chemscore.Hbond>
2.0000

> <Gold.PLP.Chemscore.CHOScore>
1.0000

> <Gold.PLP.Chemscore.Metal>
0.0000

> <Gold.Chemscore.Hbonds>
donor molecule, donor type, donor heavy atom, donor atom, acceptor molecule, acceptor atom, score
      L1  H    16    44       P1 10171  1.00
      P1  H  7997  8008       L1     8  1.00
      L1  C    11    39       P1  7948  1.00

> <Gold.PLP.Chemscore.Internal.Correction>
0.0177

> <Gold.Rescore>
     Score         DG    S(hbond)    S(metal)    S(lipo)     H(rot)  DE(clash)    DE(int)     intcor
     17.87     -20.36       1.87        0.00     138.18       2.95       1.22       1.27       ----

> <Gold.Chemscore.Fitness>
17.8678

> <Gold.Chemscore.DG>
-20.3596

> <Gold.Chemscore.ZeroCoef>
-5.4800

> <Gold.Chemscore.Hbond>
1.8731

> <Gold.Chemscore.Metal>
0.0000

> <Gold.Chemscore.Lipo>
138.1820

> <Gold.Chemscore.Internal_Hbond>
0.0000

> <Gold.Chemscore.DEClash>
1.2214

> <Gold.Chemscore.DEInternal>
1.2705

> <Gold.Chemscore.Rot>
2.9469

> <Gold.Chemscore.Internal.Correction>
   9.000000E+99

> <Gold.Chemscore.Hbonds>
donor molecule, donor type, donor heavy atom, donor atom, acceptor molecule, acceptor atom, score
      L1  H    16    44       P1 10171  0.95
      P1  H  7997  8008       L1     8  0.93

> <Gold.Chemscore.Hbond.Weighted>
-6.2563

> <Gold.Chemscore.Metal.Weighted>
-0.0000

> <Gold.Chemscore.Lipo.Weighted>
-16.1673

> <Gold.Chemscore.Internal_Hbond.Weighted>
0.0000

> <Gold.Chemscore.DEClash.Weighted>
1.2214

> <Gold.Chemscore.DEInternal.Weighted>
1.2705

> <Gold.Chemscore.Rot.Weighted>
7.5439

> <Gold.Chemscore.Internal.Correction.Weighted>
   9.000000E+99

> <Gold.Protein.RotatedTorsions>
[ 6907 6896 6895 6894 ] final   74.38 input  -60.11 | X-H torsion
[ 7974 7965 7964 7962 ] final   12.79 input  175.53 | X-H torsion
[ 8008 7997 7996 7995 ] final   -8.90 input   59.86 | X-H torsion
[ 10167 10162 10161 10158 ] final  -36.08 input  -65.29 | X-H torsion
[ 10718 10713 10712 10709 ] final -112.33 input   66.30 | X-H torsion
[ 10763 10752 10751 10750 ] final  179.97 input  -60.55 | X-H torsion
[ 11005 11000 10999 10996 ] final  163.97 input  -57.11 | X-H torsion

> <Gold.Protein.ActiveResidues>
 VAL166  LYS551  ARG553  GLY616  TRP617  ASP618  TYR619  PRO620  LYS621  CYS622 
 ASP623  PHE694  ASN695  SER759  ASP760  ASP761  ALA762  ILE779  LEU786  VAL792 
 PHE793  MET794  SER795  GLU796  ALA797  LYS798  CYS799  TRP800  GLU811  SER814 

> <Gold.Protein.RotatedAtoms>
  152.4972  134.4281  159.9502 H   0  0  0  0  0  0  0  0  0  0  0  0  # atno 6907 bound_to 6896
  151.4257  133.3679  159.2770 H   0  0  0  0  0  0  0  0  0  0  0  0  # atno 6908 bound_to 6896
  150.9190  134.8631  159.7536 H   0  0  0  0  0  0  0  0  0  0  0  0  # atno 6909 bound_to 6896
  146.2344  139.9285  142.8500 H   0  0  0  0  0  0  0  0  0  0  0  0  # atno 7974 bound_to 7965
  154.5697  140.2369  155.8210 H   0  0  0  0  0  0  0  0  0  0  0  0  # atno 8008 bound_to 7997
  156.2097  140.3029  155.9663 H   0  0  0  0  0  0  0  0  0  0  0  0  # atno 8009 bound_to 7997
  155.2735  140.0419  157.2999 H   0  0  0  0  0  0  0  0  0  0  0  0  # atno 8010 bound_to 7997
  140.7151  143.3433  151.2310 H   0  0  0  0  0  0  0  0  0  0  0  0  # atno 10167 bound_to 10162
  156.0699  130.5914  150.8494 H   0  0  0  0  0  0  0  0  0  0  0  0  # atno 10718 bound_to 10713
  154.5275  135.2797  155.1209 H   0  0  0  0  0  0  0  0  0  0  0  0  # atno 10763 bound_to 10752
  154.2742  135.6298  153.5326 H   0  0  0  0  0  0  0  0  0  0  0  0  # atno 10764 bound_to 10752
  152.9949  135.5636  154.5780 H   0  0  0  0  0  0  0  0  0  0  0  0  # atno 10765 bound_to 10752
  140.2412  134.8049  157.3412 H   0  0  0  0  0  0  0  0  0  0  0  0  # atno 11005 bound_to 11000
  145.2067  140.9878  143.4124 LP  0  0  0  0  0  0  0  0  0  0  0  0  # atno 17320 bound_to 7965
  144.9726  139.3864  143.6301 LP  0  0  0  0  0  0  0  0  0  0  0  0  # atno 17321 bound_to 7965
  139.6946  143.9634  152.2876 LP  0  0  0  0  0  0  0  0  0  0  0  0  # atno 17342 bound_to 10162
  139.9307  144.6743  150.8366 LP  0  0  0  0  0  0  0  0  0  0  0  0  # atno 17343 bound_to 10162
  157.5764  131.0946  150.9339 LP  0  0  0  0  0  0  0  0  0  0  0  0  # atno 17370 bound_to 10713
  156.9544  130.5432  149.5283 LP  0  0  0  0  0  0  0  0  0  0  0  0  # atno 17371 bound_to 10713
  140.1651  134.4679  155.7868 LP  0  0  0  0  0  0  0  0  0  0  0  0  # atno 17394 bound_to 11000
  141.2210  133.6918  156.7612 LP  0  0  0  0  0  0  0  0  0  0  0  0  # atno 17395 bound_to 11000

$$$$
