#       Name:                AV-unprocessed.smi:690
#       Creating user name   scv26
#       Creation time:       Fri Mar 27 00:34:18 2020


#       File generated by GOLD software.
#

@<TRIPOS>MOLECULE
AV-unprocessed.smi:690
    52    54     1
SMALL
NO_CHARGES


@<TRIPOS>ATOM
      1 ****        -4.6634   1.7412   0.3314 C.3            1 S1                 0.0000
      2 ****        -3.1571   1.5901   0.5526 C.3            1 S1                 0.0000
      3 ****        -2.7617   0.2907   0.1471 O.3            1 S1                 0.0000
      4 ****        -1.3737   0.0574   0.3273 C.3            1 S1                 0.0000
      5 ****        -0.9575  -0.2483   1.7697 C.3            1 S1                 0.0000
      6 ****        -0.0169  -1.3151   1.1976 C.3            1 S1                 0.0000
      7 ****         1.3048  -0.7530   0.9245 N.am           1 S1                 0.0000
      8 ****         2.4339  -1.4629   0.7688 C.2            1 S1                 0.0000
      9 ****         2.4692  -2.6882   0.8724 O.2            1 S1                 0.0000
     10 ****         3.7266  -0.7031   0.4242 C.3            1 S1                 0.0000
     11 ****         3.5596   0.7516   0.2523 N.am           1 S1                 0.0000
     12 ****         3.2615   1.2075  -1.0474 C.2            1 S1                 0.0000
     13 ****         3.0724   2.5084  -1.3181 C.2            1 S1                 0.0000
     14 ****         3.1842   3.4540  -0.2329 C.2            1 S1                 0.0000
     15 ****         3.4646   3.0285   1.0150 C.2            1 S1                 0.0000
     16 ****         3.6647   1.6063   1.3166 C.2            1 S1                 0.0000
     17 ****         3.9030   1.2075   2.4565 O.2            1 S1                 0.0000
     18 ****        -0.9251  -1.3734  -0.0589 C.3            1 S1                 0.0000
     19 ****        -0.3025  -1.5596  -1.4412 C.3            1 S1                 0.0000
     20 ****        -1.4396  -1.9395  -2.3913 C.3            1 S1                 0.0000
     21 ****        -2.5192  -2.5740  -1.5090 C.3            1 S1                 0.0000
     22 ****        -2.0031  -2.4603  -0.0708 C.3            1 S1                 0.0000
     23 ****        -5.0031   2.7339   0.6273 H              1 S1                 0.0000
     24 ****        -5.2198   1.0085   0.9166 H              1 S1                 0.0000
     25 ****        -4.9208   1.5980  -0.7182 H              1 S1                 0.0000
     26 ****        -2.6184   2.3429  -0.0250 H              1 S1                 0.0000
     27 ****        -2.9195   1.7484   1.6055 H              1 S1                 0.0000
     28 ****        -0.7484   0.8236  -0.1370 H              1 S1                 0.0000
     29 ****        -0.4699   0.5772   2.2895 H              1 S1                 0.0000
     30 ****        -1.7666  -0.6748   2.3649 H              1 S1                 0.0000
     31 ****        -0.0054  -2.2341   1.7860 H              1 S1                 0.0000
     32 ****         1.3598   0.2500   0.8241 H              1 S1                 0.0000
     33 ****         4.4698  -0.9189   1.1936 H              1 S1                 0.0000
     34 ****         4.1377  -1.1354  -0.4892 H              1 S1                 0.0000
     35 ****         3.1890   0.4349  -1.7994 H              1 S1                 0.0000
     36 ****         2.8396   2.8386  -2.3199 H              1 S1                 0.0000
     37 ****         3.0422   4.5077  -0.4226 H              1 S1                 0.0000
     38 ****         3.5437   3.7509   1.8142 H              1 S1                 0.0000
     39 ****         0.2242  -0.6701  -1.7887 H              1 S1                 0.0000
     40 ****         0.4280  -2.3693  -1.4138 H              1 S1                 0.0000
     41 ****        -1.8376  -1.0448  -2.8715 H              1 S1                 0.0000
     42 ****        -1.0995  -2.6128  -3.1786 H              1 S1                 0.0000
     43 ****        -3.4583  -2.0311  -1.6216 H              1 S1                 0.0000
     44 ****        -2.7071  -3.6136  -1.7796 H              1 S1                 0.0000
     45 ****        -1.5669  -3.4145   0.2277 H              1 S1                 0.0000
     46 ****        -2.8159  -2.2610   0.6283 H              1 S1                 0.0000
     47 ****        -2.9817   0.1775  -0.8218 LP             1 S1                 0.0000
     48 ****        -3.2712  -0.3808   0.6852 LP             1 S1                 0.0000
     49 ****         1.6337  -3.1966   1.0808 LP             1 S1                 0.0000
     50 ****         3.3334  -3.1758   0.7482 LP             1 S1                 0.0000
     51 ****         4.0267   0.2302   2.6287 LP             1 S1                 0.0000
     52 ****         3.9728   1.8608   3.2104 LP             1 S1                 0.0000
@<TRIPOS>BOND
    1    1    2 1     
    2    1   23 1     
    3    1   24 1     
    4    1   25 1     
    5    2    3 1     
    6    2   26 1     
    7    2   27 1     
    8    3    4 1     
    9    4   18 1     
   10    4    5 1     
   11    4   28 1     
   12    5    6 1     
   13    5   29 1     
   14    5   30 1     
   15    6    7 1     
   16    6   18 1     
   17    6   31 1     
   18    7    8 am    
   19    7   32 1     
   20    8    9 2     
   21    8   10 1     
   22   10   11 1     
   23   10   33 1     
   24   10   34 1     
   25   11   16 am    
   26   11   12 1     
   27   12   13 2     
   28   12   35 1     
   29   13   14 1     
   30   13   36 1     
   31   14   15 2     
   32   14   37 1     
   33   15   16 1     
   34   15   38 1     
   35   16   17 2     
   36   18   22 1     
   37   18   19 1     
   38   19   20 1     
   39   19   39 1     
   40   19   40 1     
   41   20   21 1     
   42   20   41 1     
   43   20   42 1     
   44   21   22 1     
   45   21   43 1     
   46   21   44 1     
   47   22   45 1     
   48   22   46 1     
   49    3   47 1     
   50    3   48 1     
   51    9   49 1     
   52    9   50 1     
   53   17   51 1     
   54   17   52 1     
@<TRIPOS>SUBSTRUCTURE
      1 S1             1
@<TRIPOS>SET
LONE_PAIRS      STATIC     ATOMS    <user>   **** ""
6 47 48 49 50 51 52
DONOR_HYDROGENS      STATIC     ATOMS    <user>   **** ""
1 32
ATOM$BLUE        STATIC     ATOMS    COLORGROUP SYSTEM
6 47 48 49 50 51 52
ATOM$RED        STATIC     ATOMS    COLORGROUP SYSTEM
1 32
