#       Name:                AV-unprocessed.smi:109
#       Creating user name   scv26
#       Creation time:       Thu Mar 26 18:09:23 2020


#       File generated by GOLD software.
#

@<TRIPOS>MOLECULE
AV-unprocessed.smi:109
    71    74     1
SMALL
NO_CHARGES


@<TRIPOS>ATOM
      1 ****        -1.3580   3.3422   3.2900 O.3            1 S1                 0.0000
      2 ****        -1.0487   2.7930   2.0273 C.3            1 S1                 0.0000
      3 ****        -2.3422   2.5410   1.2326 C.3            1 S1                 0.0000
      4 ****        -2.1099   2.0395  -0.2142 C.3            1 S1                 0.0000
      5 ****        -1.3818   0.7688  -0.1779 N.pl3          1 S1                 0.0000
      6 ****        -0.0459   0.7012  -0.3732 C.ar           1 S1                 0.0000
      7 ****         0.6548   1.7562  -0.8648 N.ar           1 S1                 0.0000
      8 ****         1.9764   1.6607  -1.0393 C.ar           1 S1                 0.0000
      9 ****         2.7784   0.6231  -0.7890 N.ar           1 S1                 0.0000
     10 ****         2.0774  -0.4387  -0.2959 C.ar           1 S1                 0.0000
     11 ****         0.6755  -0.4797  -0.0620 C.ar           1 S1                 0.0000
     12 ****         0.3209  -1.7202   0.4514 N.2            1 S1                 0.0000
     13 ****         1.4533  -2.3676   0.5227 C.2            1 S1                 0.0000
     14 ****         2.5616  -1.6682   0.0938 N.pl3          1 S1                 0.0000
     15 ****         3.9978  -2.0967   0.0526 C.3            1 S1                 0.0000
     16 ****         4.0140  -3.4774  -0.1522 O.3            1 S1                 0.0000
     17 ****         4.5724  -4.1528   0.9720 C.3            1 S1                 0.0000
     18 ****         3.8035  -5.4594   1.2285 C.3            1 S1                 0.0000
     19 ****         4.4952  -6.2711   2.1529 O.3            1 S1                 0.0000
     20 ****         4.5279  -3.1387   2.1212 C.3            1 S1                 0.0000
     21 ****         5.5962  -3.3502   3.0225 O.3            1 S1                 0.0000
     22 ****         4.7092  -1.8188   1.3909 C.3            1 S1                 0.0000
     23 ****         4.1555  -0.7492   2.1371 O.3            1 S1                 0.0000
     24 ****        -3.4203   1.8604  -1.0332 C.3            1 S1                 0.0000
     25 ****        -3.1078   1.4217  -2.4870 C.3            1 S1                 0.0000
     26 ****        -4.3768   1.2371  -3.3337 C.3            1 S1                 0.0000
     27 ****        -5.2209   2.5168  -3.3513 C.3            1 S1                 0.0000
     28 ****        -5.5661   2.9531  -1.9227 C.3            1 S1                 0.0000
     29 ****        -4.3004   3.1352  -1.0688 C.3            1 S1                 0.0000
     30 ****         4.4251  -1.5619  -0.7965 H              1 S1                 0.0000
     31 ****         5.6088  -4.3725   0.7074 H              1 S1                 0.0000
     32 ****         3.5665  -3.1756   2.6362 H              1 S1                 0.0000
     33 ****         5.7624  -1.6302   1.1765 H              1 S1                 0.0000
     34 ****        -1.8927   2.7243   3.7648 H              1 S1                 0.0000
     35 ****        -0.3971   3.4836   1.4916 H              1 S1                 0.0000
     36 ****        -0.4914   1.8689   2.1808 H              1 S1                 0.0000
     37 ****        -2.9742   1.8332   1.7712 H              1 S1                 0.0000
     38 ****        -2.8850   3.4846   1.2114 H              1 S1                 0.0000
     39 ****        -1.5283   2.8030  -0.7299 H              1 S1                 0.0000
     40 ****        -1.9197  -0.0247   0.1400 H              1 S1                 0.0000
     41 ****         2.4597   2.5424  -1.4340 H              1 S1                 0.0000
     42 ****         1.5066  -3.3781   0.8976 H              1 S1                 0.0000
     43 ****         2.7970  -5.2632   1.5972 H              1 S1                 0.0000
     44 ****         3.7019  -6.0203   0.2992 H              1 S1                 0.0000
     45 ****         4.0049  -7.0693   2.2784 H              1 S1                 0.0000
     46 ****         5.5678  -2.6731   3.6812 H              1 S1                 0.0000
     47 ****         4.1854   0.0327   1.6068 H              1 S1                 0.0000
     48 ****        -4.0068   1.0698  -0.5620 H              1 S1                 0.0000
     49 ****        -2.4626   2.1628  -2.9610 H              1 S1                 0.0000
     50 ****        -2.5507   0.4847  -2.4964 H              1 S1                 0.0000
     51 ****        -4.1054   0.9582  -4.3522 H              1 S1                 0.0000
     52 ****        -4.9675   0.4122  -2.9333 H              1 S1                 0.0000
     53 ****        -4.6731   3.3130  -3.8571 H              1 S1                 0.0000
     54 ****        -6.1345   2.3552  -3.9242 H              1 S1                 0.0000
     55 ****        -6.1340   3.8837  -1.9466 H              1 S1                 0.0000
     56 ****        -6.2147   2.2082  -1.4598 H              1 S1                 0.0000
     57 ****        -4.6224   3.4118  -0.0662 H              1 S1                 0.0000
     58 ****        -3.7187   3.9742  -1.4530 H              1 S1                 0.0000
     59 ****        -1.8589   4.1995   3.1710 LP             1 S1                 0.0000
     60 ****        -0.5141   3.5170   3.7973 LP             1 S1                 0.0000
     61 ****         0.1809   2.6057  -1.0965 LP             1 S1                 0.0000
     62 ****         3.7665   0.6240  -0.9431 LP             1 S1                 0.0000
     63 ****        -0.5902  -2.0431   0.7073 LP             1 S1                 0.0000
     64 ****         4.5632  -3.6816  -0.9625 LP             1 S1                 0.0000
     65 ****         3.0776  -3.7981  -0.2946 LP             1 S1                 0.0000
     66 ****         4.5835  -5.7891   3.0247 LP             1 S1                 0.0000
     67 ****         5.4048  -6.4866   1.7977 LP             1 S1                 0.0000
     68 ****         6.4663  -3.3077   2.5314 LP             1 S1                 0.0000
     69 ****         5.5011  -4.2468   3.4551 LP             1 S1                 0.0000
     70 ****         4.6865  -0.6105   2.9731 LP             1 S1                 0.0000
     71 ****         3.2073  -0.9593   2.3755 LP             1 S1                 0.0000
@<TRIPOS>BOND
    1    1    2 1     
    2    1   34 1     
    3    2    3 1     
    4    2   35 1     
    5    2   36 1     
    6    3    4 1     
    7    3   37 1     
    8    3   38 1     
    9    4    5 1     
   10    4   24 1     
   11    4   39 1     
   12    5    6 1     
   13    5   40 1     
   14    6   11 ar    
   15    6    7 ar    
   16    7    8 ar    
   17    8    9 ar    
   18    8   41 1     
   19    9   10 ar    
   20   10   14 1     
   21   10   11 ar    
   22   11   12 1     
   23   12   13 2     
   24   13   14 1     
   25   13   42 1     
   26   14   15 1     
   27   15   30 1     
   28   15   22 1     
   29   15   16 1     
   30   16   17 1     
   31   17   31 1     
   32   17   18 1     
   33   17   20 1     
   34   18   19 1     
   35   18   43 1     
   36   18   44 1     
   37   19   45 1     
   38   20   32 1     
   39   20   21 1     
   40   20   22 1     
   41   21   46 1     
   42   22   33 1     
   43   22   23 1     
   44   23   47 1     
   45   24   29 1     
   46   24   25 1     
   47   24   48 1     
   48   25   26 1     
   49   25   49 1     
   50   25   50 1     
   51   26   27 1     
   52   26   51 1     
   53   26   52 1     
   54   27   28 1     
   55   27   53 1     
   56   27   54 1     
   57   28   29 1     
   58   28   55 1     
   59   28   56 1     
   60   29   57 1     
   61   29   58 1     
   62    1   59 1     
   63    1   60 1     
   64    7   61 1     
   65    9   62 1     
   66   12   63 1     
   67   16   64 1     
   68   16   65 1     
   69   19   66 1     
   70   19   67 1     
   71   21   68 1     
   72   21   69 1     
   73   23   70 1     
   74   23   71 1     
@<TRIPOS>SUBSTRUCTURE
      1 S1             1
@<TRIPOS>SET
LONE_PAIRS      STATIC     ATOMS    <user>   **** ""
13 59 60 61 62 63 64 65 66 67 68 69 70 71
DONOR_HYDROGENS      STATIC     ATOMS    <user>   **** ""
5 34 40 45 46 47
ATOM$BLUE        STATIC     ATOMS    COLORGROUP SYSTEM
13 59 60 61 62 63 64 65 66 67 68 69 70 71
ATOM$RED        STATIC     ATOMS    COLORGROUP SYSTEM
5 34 40 45 46 47
