AV-unprocessed.smi:2215|AV-procd|sdf|8963|dock2
  -GOLD-   2272012183D 1   1.00000     0.00000
 Structure written by MMmdl.
 40 41  0  0  0  0  0  0  0  0  1 V2000
  150.2274  141.9832  155.0723 C   0  0  0  0  0  0  0  0  0  0  0  0
  149.1746  141.2022  154.3144 C   0  0  0  0  0  0  0  0  0  0  0  0
  149.2850  139.8092  154.1455 C   0  0  0  0  0  0  0  0  0  0  0  0
  148.2745  139.1292  153.4392 C   0  0  0  0  0  0  0  0  0  0  0  0
  147.1782  139.8549  152.9210 C   0  0  0  0  0  0  0  0  0  0  0  0
  146.2101  139.0734  152.2360 N   0  0  0  0  0  0  0  0  0  0  0  0
  145.8030  137.8222  152.5138 C   0  0  0  0  0  0  0  0  0  0  0  0
  146.1832  137.1434  153.4682 O   0  0  0  0  0  0  0  0  0  0  0  0
  144.9117  137.3911  151.6098 N   0  0  0  0  0  0  0  0  0  0  0  0
  144.2760  136.0771  151.6200 C   0  0  0  0  0  0  0  0  0  0  0  0
  145.2405  134.9421  151.1986 C   0  0  1  0  0  0  0  0  0  0  0  0
  146.1369  134.4985  152.3789 C   0  0  0  0  0  0  0  0  0  0  0  0
  147.0745  133.3433  151.9960 C   0  0  0  0  0  0  0  0  0  0  0  0
  146.2834  132.1461  151.4532 C   0  0  0  0  0  0  0  0  0  0  0  0
  145.4174  132.5661  150.2584 C   0  0  0  0  0  0  0  0  0  0  0  0
  144.4718  133.7244  150.6271 C   0  0  2  0  0  0  0  0  0  0  0  0
  143.7685  134.0914  149.4569 O   0  0  0  0  0  0  0  0  0  0  0  0
  147.0815  141.1976  153.0881 N   0  0  0  0  0  0  0  0  0  0  0  0
  148.0508  141.8489  153.7646 C   0  0  0  0  0  0  0  0  0  0  0  0
  151.1826  141.4571  155.0682 H   0  0  0  0  0  0  0  0  0  0  0  0
  149.9168  142.1246  156.1075 H   0  0  0  0  0  0  0  0  0  0  0  0
  150.3789  142.9641  154.6208 H   0  0  0  0  0  0  0  0  0  0  0  0
  150.1269  139.2673  154.5509 H   0  0  0  0  0  0  0  0  0  0  0  0
  148.3431  138.0599  153.3023 H   0  0  0  0  0  0  0  0  0  0  0  0
  145.7943  139.5104  151.4269 H   0  0  0  0  0  0  0  0  0  0  0  0
  144.6546  138.0147  150.8588 H   0  0  0  0  0  0  0  0  0  0  0  0
  143.9044  135.8925  152.6283 H   0  0  0  0  0  0  0  0  0  0  0  0
  143.3973  136.1017  150.9738 H   0  0  0  0  0  0  0  0  0  0  0  0
  145.8935  135.3232  150.4113 H   0  0  0  0  0  0  0  0  0  0  0  0
  146.7386  135.3346  152.7361 H   0  0  0  0  0  0  0  0  0  0  0  0
  145.5111  134.1905  153.2175 H   0  0  0  0  0  0  0  0  0  0  0  0
  147.7877  133.6838  151.2440 H   0  0  0  0  0  0  0  0  0  0  0  0
  147.6610  133.0383  152.8631 H   0  0  0  0  0  0  0  0  0  0  0  0
  146.9671  131.3501  151.1566 H   0  0  0  0  0  0  0  0  0  0  0  0
  145.6503  131.7348  152.2406 H   0  0  0  0  0  0  0  0  0  0  0  0
  146.0659  132.8657  149.4335 H   0  0  0  0  0  0  0  0  0  0  0  0
  144.8417  131.7105  149.9034 H   0  0  0  0  0  0  0  0  0  0  0  0
  143.7464  133.3743  151.3626 H   0  0  0  0  0  0  0  0  0  0  0  0
  142.8422  133.9997  149.6207 H   0  0  0  0  0  0  0  0  0  0  0  0
  147.9224  142.9160  153.8718 H   0  0  0  0  0  0  0  0  0  0  0  0
  1  2  1  0  0  0  0
  1 20  1  0  0  0  0
  1 21  1  0  0  0  0
  1 22  1  0  0  0  0
  2 19  1  0  0  0  0
  2  3  2  0  0  0  0
  3  4  1  0  0  0  0
  3 23  1  0  0  0  0
  4  5  2  0  0  0  0
  4 24  1  0  0  0  0
  5  6  1  0  0  0  0
  5 18  1  0  0  0  0
  6  7  1  0  0  0  0
  6 25  1  0  0  0  0
  7  8  2  0  0  0  0
  7  9  1  0  0  0  0
  9 10  1  0  0  0  0
  9 26  1  0  0  0  0
 10 11  1  0  0  0  0
 10 27  1  0  0  0  0
 10 28  1  0  0  0  0
 11 16  1  0  0  0  0
 11 12  1  0  0  0  0
 11 29  1  0  0  0  0
 12 13  1  0  0  0  0
 12 30  1  0  0  0  0
 12 31  1  0  0  0  0
 13 14  1  0  0  0  0
 13 32  1  0  0  0  0
 13 33  1  0  0  0  0
 14 15  1  0  0  0  0
 14 34  1  0  0  0  0
 14 35  1  0  0  0  0
 15 16  1  0  0  0  0
 15 36  1  0  0  0  0
 15 37  1  0  0  0  0
 16 17  1  0  0  0  0
 16 38  1  0  0  0  0
 17 39  1  0  0  0  0
 18 19  2  0  0  0  0
 19 40  1  0  0  0  0
M  END
> <s_m_source_file>
AV-unprocessed.smi

> <i_m_source_file_index>
2215

> <i_lp_mmshare_version>
43012

> <i_f3d_flags>
0

> <s_epik_input>
W0NIM11jMVtjSF1bY0hdYyhuW2NIXTEpW05IXUMoPU8pW05IXVtDSDJdW0NAQEhdMltDSDJdW0NIMl1bQ0gyXVtDSDJdW0NASF0yW09IXQ==

> <s_epik_cmdline>
J2VwaWtfcHl0aG9uJywgJy1waCcsICc3LjAnLCAnLXRuJywgJzgnLCAnLW1hJywgJzIwMCcsICctbWV0YWxfYmluZGluZycsICctaW1hZScsICc8aW5maWxlLm1hZT4nLCAnLW9tYWUnLCAnPG91dGZpbGUubWFlPic=

> <r_lp_tautomer_probability>
1

> <r_epik_Ionization_Penalty>
6.08491e-05

> <r_epik_Ionization_Penalty_Charging>
0

> <r_epik_Ionization_Penalty_Neutral>
6.08491e-05

> <r_epik_State_Penalty>
-0

> <r_epik_Charging_Adjusted_Penalty>
0

> <i_epik_Tot_Q>
0

> <i_epik_Tot_abs_Q>
0

> <r_epik_Metal_State_Penalty>
-0

> <b_epik_Metal_Only>
0

> <s_lp_Force_Field>
OPLS_2005

> <r_lp_Energy>
14.1492

> <b_lp_Chiralities_Consistent>
1

> <s_lp_Variant>
AV-unprocessed.smi:2215-4

> <Gold.Version>
5.8.1

> <Gold.Id.Protein>
6NUR|6NUR_protein|mol2

> <Gold.PLP.Fitness>
45.1208

> <Gold.PLP.PLP>
-37.2630

> <Gold.PLP.part.hbond>
-3.8286

> <Gold.PLP.part.metal>
0.0000

> <Gold.PLP.part.buried>
-4.7282

> <Gold.PLP.part.nonpolar>
-29.1529

> <Gold.PLP.part.repulsive>
0.3825

> <Gold.PLP.ligand.clash>
0.0000

> <Gold.PLP.ligand.torsion>
0.5730

> <Gold.PLP.Chemscore.Hbond>
2.0000

> <Gold.PLP.Chemscore.CHOScore>
1.0000

> <Gold.PLP.Chemscore.Metal>
0.0000

> <Gold.Chemscore.Hbonds>
donor molecule, donor type, donor heavy atom, donor atom, acceptor molecule, acceptor atom, score
      L1  H     9    26       P1 10171  0.75
      L1  H    17    39       P1 10186  1.00
      L1  C    19    40       P1  8028  0.65

> <Gold.PLP.Chemscore.Internal.Correction>
0.0038

> <Gold.Rescore>
     Score         DG    S(hbond)    S(metal)    S(lipo)     H(rot)  DE(clash)    DE(int)     intcor
     13.76     -17.03       1.98        0.00      80.19       1.73       0.13       3.14       ----

> <Gold.Chemscore.Fitness>
13.7616

> <Gold.Chemscore.DG>
-17.0319

> <Gold.Chemscore.ZeroCoef>
-5.4800

> <Gold.Chemscore.Hbond>
1.9785

> <Gold.Chemscore.Metal>
0.0000

> <Gold.Chemscore.Lipo>
80.1927

> <Gold.Chemscore.Internal_Hbond>
0.0000

> <Gold.Chemscore.DEClash>
0.1339

> <Gold.Chemscore.DEInternal>
3.1364

> <Gold.Chemscore.Rot>
1.7339

> <Gold.Chemscore.Internal.Correction>
   9.000000E+99

> <Gold.Chemscore.Hbonds>
donor molecule, donor type, donor heavy atom, donor atom, acceptor molecule, acceptor atom, score
      L1  H     9    26       P1 10171  0.74
      L1  H    17    39       P1 10186  0.99

> <Gold.Chemscore.Hbond.Weighted>
-6.6080

> <Gold.Chemscore.Metal.Weighted>
-0.0000

> <Gold.Chemscore.Lipo.Weighted>
-9.3825

> <Gold.Chemscore.Internal_Hbond.Weighted>
0.0000

> <Gold.Chemscore.DEClash.Weighted>
0.1339

> <Gold.Chemscore.DEInternal.Weighted>
3.1364

> <Gold.Chemscore.Rot.Weighted>
4.4387

> <Gold.Chemscore.Internal.Correction.Weighted>
   9.000000E+99

> <Gold.Protein.RotatedTorsions>
[ 6907 6896 6895 6894 ] final   41.95 input  -60.11 | X-H torsion
[ 7974 7965 7964 7962 ] final   -8.81 input  175.53 | X-H torsion
[ 8008 7997 7996 7995 ] final  134.92 input   59.86 | X-H torsion
[ 10167 10162 10161 10158 ] final -160.90 input  -65.29 | X-H torsion
[ 10718 10713 10712 10709 ] final  -50.09 input   66.30 | X-H torsion
[ 10763 10752 10751 10750 ] final   89.51 input  -60.55 | X-H torsion
[ 11005 11000 10999 10996 ] final -131.48 input  -57.11 | X-H torsion

> <Gold.Protein.ActiveResidues>
 VAL166  LYS551  ARG553  GLY616  TRP617  ASP618  TYR619  PRO620  LYS621  CYS622 
 ASP623  PHE694  ASN695  SER759  ASP760  ASP761  ALA762  ILE779  LEU786  VAL792 
 PHE793  MET794  SER795  GLU796  ALA797  LYS798  CYS799  TRP800  GLU811  SER814 

> <Gold.Protein.RotatedAtoms>
  152.2018  134.8581  160.0506 H   0  0  0  0  0  0  0  0  0  0  0  0  # atno 6907 bound_to 6896
  151.9432  133.3639  159.3981 H   0  0  0  0  0  0  0  0  0  0  0  0  # atno 6908 bound_to 6896
  150.6956  134.4342  159.5306 H   0  0  0  0  0  0  0  0  0  0  0  0  # atno 6909 bound_to 6896
  146.2270  140.2523  142.8348 H   0  0  0  0  0  0  0  0  0  0  0  0  # atno 7974 bound_to 7965
  156.3001  140.2484  156.3496 H   0  0  0  0  0  0  0  0  0  0  0  0  # atno 8008 bound_to 7997
  154.8978  140.0407  157.1895 H   0  0  0  0  0  0  0  0  0  0  0  0  # atno 8009 bound_to 7997
  154.8531  140.2909  155.5590 H   0  0  0  0  0  0  0  0  0  0  0  0  # atno 8010 bound_to 7997
  139.6504  144.0094  152.2158 H   0  0  0  0  0  0  0  0  0  0  0  0  # atno 10167 bound_to 10162
  156.1833  130.4151  149.9476 H   0  0  0  0  0  0  0  0  0  0  0  0  # atno 10718 bound_to 10713
  153.1879  135.4467  155.0112 H   0  0  0  0  0  0  0  0  0  0  0  0  # atno 10763 bound_to 10752
  154.8072  135.3279  154.7403 H   0  0  0  0  0  0  0  0  0  0  0  0  # atno 10764 bound_to 10752
  153.7860  135.6974  153.4935 H   0  0  0  0  0  0  0  0  0  0  0  0  # atno 10765 bound_to 10752
  140.9254  134.1389  157.4279 H   0  0  0  0  0  0  0  0  0  0  0  0  # atno 11005 bound_to 11000
  144.9402  140.8070  143.5635 LP  0  0  0  0  0  0  0  0  0  0  0  0  # atno 17320 bound_to 7965
  145.2474  139.2046  143.4960 LP  0  0  0  0  0  0  0  0  0  0  0  0  # atno 17321 bound_to 7965
  139.9806  144.6431  150.7904 LP  0  0  0  0  0  0  0  0  0  0  0  0  # atno 17342 bound_to 10162
  140.7535  143.3010  151.3082 LP  0  0  0  0  0  0  0  0  0  0  0  0  # atno 17343 bound_to 10162
  156.7239  130.9017  151.3620 LP  0  0  0  0  0  0  0  0  0  0  0  0  # atno 17370 bound_to 10713
  157.6882  130.9207  150.0443 LP  0  0  0  0  0  0  0  0  0  0  0  0  # atno 17371 bound_to 10713
  139.8784  134.9986  156.5911 LP  0  0  0  0  0  0  0  0  0  0  0  0  # atno 17394 bound_to 11000
  140.7932  133.8565  155.8664 LP  0  0  0  0  0  0  0  0  0  0  0  0  # atno 17395 bound_to 11000

$$$$
