#       Name:                AV-unprocessed.smi:296
#       Creating user name   scv26
#       Creation time:       Thu Mar 26 22:14:34 2020


#       File generated by GOLD software.
#

@<TRIPOS>MOLECULE
AV-unprocessed.smi:296
    41    42     1
SMALL
NO_CHARGES


@<TRIPOS>ATOM
      1 ****        -3.8031   6.3719   1.3465 N.1            1 S1                 0.0000
      2 ****        -3.4198   5.5199   0.6634 C.1            1 S1                 0.0000
      3 ****        -2.9384   4.4502  -0.1942 C.2            1 S1                 0.0000
      4 ****        -2.6388   4.6693  -1.5075 N.2            1 S1                 0.0000
      5 ****        -2.2578   3.4418  -1.8392 C.2            1 S1                 0.0000
      6 ****        -2.3180   2.5634  -0.8326 N.pl3          1 S1                 0.0000
      7 ****        -1.9830   1.1518  -0.7921 C.3            1 S1                 0.0000
      8 ****        -0.4738   0.9467  -0.6599 C.2            1 S1                 0.0000
      9 ****         0.1762   0.5411  -1.6227 O.2            1 S1                 0.0000
     10 ****         0.0637   1.2241   0.5388 N.am           1 S1                 0.0000
     11 ****         1.4713   1.0781   0.8984 C.3            1 S1                 0.0000
     12 ****         1.7219  -0.2013   1.7183 C.3            1 S1                 0.0000
     13 ****         1.4493  -1.4841   0.9480 C.2            1 S1                 0.0000
     14 ****         0.3964  -2.2751   1.2325 C.2            1 S1                 0.0000
     15 ****         0.0541  -3.5439   0.4726 C.3            1 S1                 0.0000
     16 ****         0.8083  -3.6440  -0.8637 C.3            1 S1                 0.0000
     17 ****         2.2819  -3.2550  -0.6957 C.3            1 S1                 0.0000
     18 ****         2.4269  -1.8136  -0.1752 C.3            1 S1                 0.0000
     19 ****        -2.7686   3.2134   0.2685 N.2            1 S1                 0.0000
     20 ****        -1.9256   3.1774  -2.8326 H              1 S1                 0.0000
     21 ****        -2.4993   0.6760   0.0432 H              1 S1                 0.0000
     22 ****        -2.3461   0.6798  -1.7062 H              1 S1                 0.0000
     23 ****        -0.5558   1.5565   1.2640 H              1 S1                 0.0000
     24 ****         2.1129   1.1063   0.0166 H              1 S1                 0.0000
     25 ****         1.7478   1.9464   1.4967 H              1 S1                 0.0000
     26 ****         2.7561  -0.2203   2.0637 H              1 S1                 0.0000
     27 ****         1.1055  -0.1788   2.6183 H              1 S1                 0.0000
     28 ****        -0.2657  -2.0166   2.0458 H              1 S1                 0.0000
     29 ****         0.2972  -4.3951   1.1093 H              1 S1                 0.0000
     30 ****        -1.0210  -3.5768   0.2946 H              1 S1                 0.0000
     31 ****         0.7240  -4.6543  -1.2652 H              1 S1                 0.0000
     32 ****         0.3452  -2.9797  -1.5949 H              1 S1                 0.0000
     33 ****         2.7551  -3.9441   0.0051 H              1 S1                 0.0000
     34 ****         2.8133  -3.3639  -1.6415 H              1 S1                 0.0000
     35 ****         2.2602  -1.1115  -0.9918 H              1 S1                 0.0000
     36 ****         3.4485  -1.6547   0.1714 H              1 S1                 0.0000
     37 ****        -4.1343   7.1080   1.9367 LP             1 S1                 0.0000
     38 ****        -2.6908   5.5041  -2.0555 LP             1 S1                 0.0000
     39 ****        -0.2828   0.3463  -2.4895 LP             1 S1                 0.0000
     40 ****         1.1634   0.4062  -1.5384 LP             1 S1                 0.0000
     41 ****        -2.9311   2.8568   1.1885 LP             1 S1                 0.0000
@<TRIPOS>BOND
    1    1    2 3     
    2    2    3 1     
    3    3   19 2     
    4    3    4 1     
    5    4    5 2     
    6    5    6 1     
    7    5   20 1     
    8    6    7 1     
    9    6   19 1     
   10    7    8 1     
   11    7   21 1     
   12    7   22 1     
   13    8    9 2     
   14    8   10 am    
   15   10   11 1     
   16   10   23 1     
   17   11   12 1     
   18   11   24 1     
   19   11   25 1     
   20   12   13 1     
   21   12   26 1     
   22   12   27 1     
   23   13   18 1     
   24   13   14 2     
   25   14   15 1     
   26   14   28 1     
   27   15   16 1     
   28   15   29 1     
   29   15   30 1     
   30   16   17 1     
   31   16   31 1     
   32   16   32 1     
   33   17   18 1     
   34   17   33 1     
   35   17   34 1     
   36   18   35 1     
   37   18   36 1     
   38    1   37 1     
   39    4   38 1     
   40    9   39 1     
   41    9   40 1     
   42   19   41 1     
@<TRIPOS>SUBSTRUCTURE
      1 S1             1
@<TRIPOS>SET
LONE_PAIRS      STATIC     ATOMS    <user>   **** ""
5 37 38 39 40 41
DONOR_HYDROGENS      STATIC     ATOMS    <user>   **** ""
1 23
ATOM$BLUE        STATIC     ATOMS    COLORGROUP SYSTEM
5 37 38 39 40 41
ATOM$RED        STATIC     ATOMS    COLORGROUP SYSTEM
1 23
