AV-unprocessed.smi:1153|AV-procd|sdf|4899|dock4
  -GOLD-   22720 3473D 1   1.00000     0.00000
 Structure written by MMmdl.
 26 27  0  0  0  0  0  0  0  0  1 V2000
  153.2376  139.2212  157.1258 O   0  0  0  0  0  0  0  0  0  0  0  0
  152.5064  139.7792  157.9453 C   0  0  0  0  0  0  0  0  0  0  0  0
  152.9462  139.9455  159.4047 C   0  0  0  0  0  0  0  0  0  0  0  0
  152.8876  141.3290  159.8482 N   0  0  0  0  0  0  0  0  0  0  0  0
  153.3018  141.8636  161.0496 C   0  0  0  0  0  0  0  0  0  0  0  0
  153.0428  143.2033  161.0087 C   0  0  0  0  0  0  0  0  0  0  0  0
  152.4572  143.4044  159.7248 C   0  0  0  0  0  0  0  0  0  0  0  0
  151.9634  144.6892  159.1135 C   0  0  0  0  0  0  0  0  0  0  0  0
  150.6664  144.5858  158.8238 F   0  0  0  0  0  0  0  0  0  0  0  0
  152.1328  145.7015  159.9640 F   0  0  0  0  0  0  0  0  0  0  0  0
  152.6395  144.9511  157.9949 F   0  0  0  0  0  0  0  0  0  0  0  0
  152.3650  142.2738  159.0373 N   0  0  0  0  0  0  0  0  0  0  0  0
  151.3004  140.2789  157.6371 N   0  0  0  0  0  0  0  0  0  0  0  0
  150.6904  140.2388  156.3475 C   0  0  0  0  0  0  0  0  0  0  0  0
  150.3931  141.5588  155.6695 C   0  0  0  0  0  0  0  0  0  0  0  0
  149.2659  140.7360  156.2290 C   0  0  0  0  0  0  0  0  0  0  0  0
  152.3104  139.3302  160.0429 H   0  0  0  0  0  0  0  0  0  0  0  0
  153.9697  139.5900  159.5312 H   0  0  0  0  0  0  0  0  0  0  0  0
  153.7443  141.2532  161.8231 H   0  0  0  0  0  0  0  0  0  0  0  0
  153.2419  143.9322  161.7803 H   0  0  0  0  0  0  0  0  0  0  0  0
  150.7728  140.7240  158.3739 H   0  0  0  0  0  0  0  0  0  0  0  0
  150.9643  139.4152  155.6896 H   0  0  0  0  0  0  0  0  0  0  0  0
  150.6569  142.4736  156.1969 H   0  0  0  0  0  0  0  0  0  0  0  0
  150.4957  141.6001  154.5869 H   0  0  0  0  0  0  0  0  0  0  0  0
  148.6151  140.2278  155.5202 H   0  0  0  0  0  0  0  0  0  0  0  0
  148.7768  141.1017  157.1300 H   0  0  0  0  0  0  0  0  0  0  0  0
  1  2  2  0  0  0  0
  2  3  1  0  0  0  0
  2 13  1  0  0  0  0
  3  4  1  0  0  0  0
  3 17  1  0  0  0  0
  3 18  1  0  0  0  0
  4 12  1  0  0  0  0
  4  5  1  0  0  0  0
  5  6  2  0  0  0  0
  5 19  1  0  0  0  0
  6  7  1  0  0  0  0
  6 20  1  0  0  0  0
  7  8  1  0  0  0  0
  7 12  2  0  0  0  0
  8  9  1  0  0  0  0
  8 10  1  0  0  0  0
  8 11  1  0  0  0  0
 13 14  1  0  0  0  0
 13 21  1  0  0  0  0
 14 16  1  0  0  0  0
 14 15  1  0  0  0  0
 14 22  1  0  0  0  0
 15 16  1  0  0  0  0
 15 23  1  0  0  0  0
 15 24  1  0  0  0  0
 16 25  1  0  0  0  0
 16 26  1  0  0  0  0
M  END
> <s_m_source_file>
AV-unprocessed.smi

> <i_m_source_file_index>
1153

> <i_lp_mmshare_version>
43012

> <i_f3d_flags>
0

> <s_epik_input>
W0NIMl0xW0NIMl1bQ0hdMVtOSF1DKD1PKVtDSDJdbjJbY0hdW2NIXWMobjIpQyhGKShGKUY=

> <s_epik_cmdline>
J2VwaWtfcHl0aG9uJywgJy1waCcsICc3LjAnLCAnLXRuJywgJzgnLCAnLW1hJywgJzIwMCcsICctbWV0YWxfYmluZGluZycsICctaW1hZScsICc8aW5maWxlLm1hZT4nLCAnLW9tYWUnLCAnPG91dGZpbGUubWFlPic=

> <r_lp_tautomer_probability>
1

> <r_epik_Ionization_Penalty>
7.21317e-08

> <r_epik_Ionization_Penalty_Charging>
0

> <r_epik_Ionization_Penalty_Neutral>
7.21317e-08

> <r_epik_State_Penalty>
-0

> <r_epik_Charging_Adjusted_Penalty>
0

> <i_epik_Tot_Q>
0

> <i_epik_Tot_abs_Q>
0

> <r_epik_Metal_State_Penalty>
-0

> <b_epik_Metal_Only>
0

> <s_lp_Force_Field>
OPLS_2005

> <r_lp_Energy>
18.4383

> <b_lp_Chiralities_Consistent>
1

> <s_lp_Variant>
AV-unprocessed.smi:1153-1

> <Gold.Version>
5.8.1

> <Gold.Id.Protein>
6NUR|6NUR_protein|mol2

> <Gold.PLP.Fitness>
43.6963

> <Gold.PLP.PLP>
-40.8268

> <Gold.PLP.part.hbond>
-0.9662

> <Gold.PLP.part.metal>
0.0000

> <Gold.PLP.part.buried>
-5.4012

> <Gold.PLP.part.nonpolar>
-33.9995

> <Gold.PLP.part.repulsive>
0.0600

> <Gold.PLP.ligand.clash>
0.0000

> <Gold.PLP.ligand.torsion>
0.0870

> <Gold.PLP.Chemscore.Hbond>
1.0000

> <Gold.PLP.Chemscore.CHOScore>
0.0000

> <Gold.PLP.Chemscore.Metal>
0.0000

> <Gold.Chemscore.Hbonds>
donor molecule, donor type, donor heavy atom, donor atom, acceptor molecule, acceptor atom, score
      P1  H  7997  8010       L1     1  0.98

> <Gold.PLP.Chemscore.Internal.Correction>
0.0435

> <Gold.Rescore>
     Score         DG    S(hbond)    S(metal)    S(lipo)     H(rot)  DE(clash)    DE(int)     intcor
     12.35     -12.75       0.98        0.00      69.98       1.64       0.00       0.40       ----

> <Gold.Chemscore.Fitness>
12.3512

> <Gold.Chemscore.DG>
-12.7544

> <Gold.Chemscore.ZeroCoef>
-5.4800

> <Gold.Chemscore.Hbond>
0.9815

> <Gold.Chemscore.Metal>
0.0000

> <Gold.Chemscore.Lipo>
69.9789

> <Gold.Chemscore.Internal_Hbond>
0.0000

> <Gold.Chemscore.DEClash>
0.0024

> <Gold.Chemscore.DEInternal>
0.4008

> <Gold.Chemscore.Rot>
1.6372

> <Gold.Chemscore.Internal.Correction>
   9.000000E+99

> <Gold.Chemscore.Hbonds>
donor molecule, donor type, donor heavy atom, donor atom, acceptor molecule, acceptor atom, score
      P1  H  7997  8010       L1     1  0.71

> <Gold.Chemscore.Hbond.Weighted>
-3.2782

> <Gold.Chemscore.Metal.Weighted>
-0.0000

> <Gold.Chemscore.Lipo.Weighted>
-8.1875

> <Gold.Chemscore.Internal_Hbond.Weighted>
0.0000

> <Gold.Chemscore.DEClash.Weighted>
0.0024

> <Gold.Chemscore.DEInternal.Weighted>
0.4008

> <Gold.Chemscore.Rot.Weighted>
4.1913

> <Gold.Chemscore.Internal.Correction.Weighted>
   9.000000E+99

> <Gold.Protein.RotatedTorsions>
[ 6907 6896 6895 6894 ] final  -91.39 input  -60.11 | X-H torsion
[ 7974 7965 7964 7962 ] final -131.55 input  175.53 | X-H torsion
[ 8008 7997 7996 7995 ] final   43.19 input   59.86 | X-H torsion
[ 10167 10162 10161 10158 ] final -120.51 input  -65.29 | X-H torsion
[ 10718 10713 10712 10709 ] final  150.29 input   66.30 | X-H torsion
[ 10763 10752 10751 10750 ] final -121.41 input  -60.55 | X-H torsion
[ 11005 11000 10999 10996 ] final  -91.79 input  -57.11 | X-H torsion

> <Gold.Protein.ActiveResidues>
 VAL166  LYS551  ARG553  GLY616  TRP617  ASP618  TYR619  PRO620  LYS621  CYS622 
 ASP623  PHE694  ASN695  SER759  ASP760  ASP761  ALA762  ILE779  LEU786  VAL792 
 PHE793  MET794  SER795  GLU796  ALA797  LYS798  CYS799  TRP800  GLU811  SER814 

> <Gold.Protein.RotatedAtoms>
  150.6892  134.2284  159.4424 H   0  0  0  0  0  0  0  0  0  0  0  0  # atno 6907 bound_to 6896
  152.0236  134.9806  160.0580 H   0  0  0  0  0  0  0  0  0  0  0  0  # atno 6908 bound_to 6896
  152.1373  133.4408  159.4787 H   0  0  0  0  0  0  0  0  0  0  0  0  # atno 6909 bound_to 6896
  144.9369  140.7193  143.4871 H   0  0  0  0  0  0  0  0  0  0  0  0  # atno 7974 bound_to 7965
  155.2987  140.3383  155.4249 H   0  0  0  0  0  0  0  0  0  0  0  0  # atno 8008 bound_to 7997
  156.2012  140.1733  156.7935 H   0  0  0  0  0  0  0  0  0  0  0  0  # atno 8009 bound_to 7997
  154.5561  140.0696  156.8730 H   0  0  0  0  0  0  0  0  0  0  0  0  # atno 8010 bound_to 7997
  140.0350  143.5210  152.2158 H   0  0  0  0  0  0  0  0  0  0  0  0  # atno 10167 bound_to 10162
  157.2853  131.0843  151.1502 H   0  0  0  0  0  0  0  0  0  0  0  0  # atno 10718 bound_to 10713
  154.8667  135.4169  154.2615 H   0  0  0  0  0  0  0  0  0  0  0  0  # atno 10763 bound_to 10752
  153.3542  135.7000  153.6769 H   0  0  0  0  0  0  0  0  0  0  0  0  # atno 10764 bound_to 10752
  153.5696  135.3594  155.2805 H   0  0  0  0  0  0  0  0  0  0  0  0  # atno 10765 bound_to 10752
  141.1537  133.7778  156.9929 H   0  0  0  0  0  0  0  0  0  0  0  0  # atno 11005 bound_to 11000
  145.3053  139.1836  143.4668 LP  0  0  0  0  0  0  0  0  0  0  0  0  # atno 17320 bound_to 7965
  146.3270  140.3050  142.8623 LP  0  0  0  0  0  0  0  0  0  0  0  0  # atno 17321 bound_to 7965
  139.6051  144.7594  151.3081 LP  0  0  0  0  0  0  0  0  0  0  0  0  # atno 17342 bound_to 10162
  140.7285  143.6933  150.7904 LP  0  0  0  0  0  0  0  0  0  0  0  0  # atno 17343 bound_to 10162
  157.2919  130.6800  149.6119 LP  0  0  0  0  0  0  0  0  0  0  0  0  # atno 17370 bound_to 10713
  155.9665  130.4418  150.5355 LP  0  0  0  0  0  0  0  0  0  0  0  0  # atno 17371 bound_to 10713
  140.0991  134.9546  157.1895 LP  0  0  0  0  0  0  0  0  0  0  0  0  # atno 17394 bound_to 11000
  140.3342  134.2775  155.7222 LP  0  0  0  0  0  0  0  0  0  0  0  0  # atno 17395 bound_to 11000

$$$$
