AV-unprocessed.smi:2721|AV-procd|sdf|10503|dock4
  -GOLD-   2272014543D 1   1.00000     0.00000
 Structure written by MMmdl.
 29 30  0  0  0  0  0  0  0  0  2 V2000
  148.7944  141.0156  154.2126 C   0  0  0  0  0  0  0  0  0  0  0  0
  149.9252  141.0010  155.1157 N   0  0  0  0  0  0  0  0  0  0  0  0
  150.2020  141.8538  156.1622 C   0  0  0  0  0  0  0  0  0  0  0  0
  151.3781  141.4437  156.7261 C   0  0  0  0  0  0  0  0  0  0  0  0
  152.1319  142.0452  157.8834 C   0  0  2  0  0  0  0  0  0  0  0  0
  152.1917  141.1119  158.9606 O   0  0  0  0  0  0  0  0  0  0  0  0
  152.9698  141.5524  160.0683 C   0  0  0  0  0  0  0  0  0  0  0  0
  152.3376  142.8125  160.6753 C   0  0  0  0  0  0  0  0  0  0  0  0
  152.2028  143.9020  159.6077 C   0  0  0  0  0  0  0  0  0  0  0  0
  151.4597  143.3484  158.3823 C   0  0  1  0  0  0  0  0  0  0  0  0
  151.3991  144.3691  157.3186 N   0  3  0  0  0  0  0  0  0  0  0  0
  151.7450  140.3157  155.9376 C   0  0  0  0  0  0  0  0  0  0  0  0
  150.8757  140.0544  154.9762 N   0  0  0  0  0  0  0  0  0  0  0  0
  153.1554  142.2666  157.5746 H   0  0  0  0  0  0  0  0  0  0  0  0
  150.4321  143.1243  158.6731 H   0  0  0  0  0  0  0  0  0  0  0  0
  148.2376  141.9462  154.3260 H   0  0  0  0  0  0  0  0  0  0  0  0
  148.1346  140.1769  154.4366 H   0  0  0  0  0  0  0  0  0  0  0  0
  149.1401  140.9344  153.1815 H   0  0  0  0  0  0  0  0  0  0  0  0
  149.5476  142.6749  156.4169 H   0  0  0  0  0  0  0  0  0  0  0  0
  153.0056  140.7560  160.8117 H   0  0  0  0  0  0  0  0  0  0  0  0
  153.9977  141.7416  159.7549 H   0  0  0  0  0  0  0  0  0  0  0  0
  151.3543  142.5688  161.0799 H   0  0  0  0  0  0  0  0  0  0  0  0
  152.9392  143.1730  161.5101 H   0  0  0  0  0  0  0  0  0  0  0  0
  151.6769  144.7646  160.0187 H   0  0  0  0  0  0  0  0  0  0  0  0
  153.1958  144.2485  159.3172 H   0  0  0  0  0  0  0  0  0  0  0  0
  152.1708  144.2401  156.6799 H   0  0  0  0  0  0  0  0  0  0  0  0
  151.4535  145.2897  157.7304 H   0  0  0  0  0  0  0  0  0  0  0  0
  152.6166  139.6853  156.0329 H   0  0  0  0  0  0  0  0  0  0  0  0
  150.5277  144.2780  156.8157 H   0  0  0  0  0  0  0  0  0  0  0  0
  1  2  1  0  0  0  0
  1 16  1  0  0  0  0
  1 17  1  0  0  0  0
  1 18  1  0  0  0  0
  2 13  1  0  0  0  0
  2  3  1  0  0  0  0
  3  4  2  0  0  0  0
  3 19  1  0  0  0  0
  4  5  1  0  0  0  0
  4 12  1  0  0  0  0
  5 14  1  0  0  0  0
  5 10  1  0  0  0  0
  5  6  1  0  0  0  0
  6  7  1  0  0  0  0
  7  8  1  0  0  0  0
  7 20  1  0  0  0  0
  7 21  1  0  0  0  0
  8  9  1  0  0  0  0
  8 22  1  0  0  0  0
  8 23  1  0  0  0  0
  9 10  1  0  0  0  0
  9 24  1  0  0  0  0
  9 25  1  0  0  0  0
 10 15  1  0  0  0  0
 10 11  1  0  0  0  0
 11 26  1  0  0  0  0
 11 27  1  0  0  0  0
 11 29  1  0  0  0  0
 12 13  2  0  0  0  0
 12 28  1  0  0  0  0
M  CHG  1  11   1
M  END
> <s_m_source_file>
AV-unprocessed.smi

> <i_m_source_file_index>
2721

> <i_lp_mmshare_version>
43012

> <i_f3d_flags>
0

> <s_epik_input>
W0NIM11uMVtjSF1jKFtjSF1uMSlbQ0BIXTJPW0NIMl1bQ0gyXVtDSDJdW0NAQEhdMltOSDJd

> <s_epik_cmdline>
J2VwaWtfcHl0aG9uJywgJy1waCcsICc3LjAnLCAnLXRuJywgJzgnLCAnLW1hJywgJzIwMCcsICctbWV0YWxfYmluZGluZycsICctaW1hZScsICc8aW5maWxlLm1hZT4nLCAnLW9tYWUnLCAnPG91dGZpbGUubWFlPic=

> <r_lp_tautomer_probability>
1

> <r_epik_Ionization_Penalty>
0.0061467

> <r_epik_Ionization_Penalty_Charging>
0.00611941

> <r_epik_Ionization_Penalty_Neutral>
2.72888e-05

> <r_epik_State_Penalty>
0.00451057

> <r_epik_Charging_Adjusted_Penalty>
0.01063

> <i_epik_Tot_Q>
1

> <i_epik_Tot_abs_Q>
1

> <r_epik_Metal_State_Penalty>
-0

> <b_epik_Metal_Only>
0

> <s_lp_Force_Field>
OPLS_2005

> <r_lp_Energy>
11.0235

> <b_lp_Chiralities_Consistent>
1

> <s_lp_Variant>
AV-unprocessed.smi:2721-4

> <Gold.Version>
5.8.1

> <Gold.Id.Protein>
6NUR|6NUR_protein|mol2

> <Gold.PLP.Fitness>
41.7422

> <Gold.PLP.PLP>
-29.8168

> <Gold.PLP.part.hbond>
-2.0000

> <Gold.PLP.part.metal>
0.0000

> <Gold.PLP.part.buried>
-3.3242

> <Gold.PLP.part.nonpolar>
-23.9046

> <Gold.PLP.part.repulsive>
0.0914

> <Gold.PLP.ligand.clash>
0.0000

> <Gold.PLP.ligand.torsion>
0.0391

> <Gold.PLP.Chemscore.Hbond>
3.0000

> <Gold.PLP.Chemscore.CHOScore>
1.0000

> <Gold.PLP.Chemscore.Metal>
0.0000

> <Gold.Chemscore.Hbonds>
donor molecule, donor type, donor heavy atom, donor atom, acceptor molecule, acceptor atom, score
      L1  H    11    29       P1  8028  2.00
      P1  H  7989  7998       L1    13  0.70
      L1  C     3    19       P1  8028  1.00

> <Gold.PLP.Chemscore.Internal.Correction>
0.0037

> <Gold.Rescore>
     Score         DG    S(hbond)    S(metal)    S(lipo)     H(rot)  DE(clash)    DE(int)     intcor
     15.52     -16.44       1.19        0.00      81.67       1.00       0.54       0.38       ----

> <Gold.Chemscore.Fitness>
15.5167

> <Gold.Chemscore.DG>
-16.4431

> <Gold.Chemscore.ZeroCoef>
-5.4800

> <Gold.Chemscore.Hbond>
1.1878

> <Gold.Chemscore.Metal>
0.0000

> <Gold.Chemscore.Lipo>
81.6747

> <Gold.Chemscore.Internal_Hbond>
0.0000

> <Gold.Chemscore.DEClash>
0.5427

> <Gold.Chemscore.DEInternal>
0.3837

> <Gold.Chemscore.Rot>
1.0000

> <Gold.Chemscore.Internal.Correction>
   9.000000E+99

> <Gold.Chemscore.Hbonds>
donor molecule, donor type, donor heavy atom, donor atom, acceptor molecule, acceptor atom, score
      L1  H    11    29       P1  8028  0.91
      P1  H  7989  7998       L1    13  0.03

> <Gold.Chemscore.Hbond.Weighted>
-3.9672

> <Gold.Chemscore.Metal.Weighted>
-0.0000

> <Gold.Chemscore.Lipo.Weighted>
-9.5559

> <Gold.Chemscore.Internal_Hbond.Weighted>
0.0000

> <Gold.Chemscore.DEClash.Weighted>
0.5427

> <Gold.Chemscore.DEInternal.Weighted>
0.3837

> <Gold.Chemscore.Rot.Weighted>
2.5600

> <Gold.Chemscore.Internal.Correction.Weighted>
   9.000000E+99

> <Gold.Protein.RotatedTorsions>
[ 6907 6896 6895 6894 ] final -154.72 input  -60.11 | X-H torsion
[ 7974 7965 7964 7962 ] final  113.39 input  175.53 | X-H torsion
[ 8008 7997 7996 7995 ] final  -18.94 input   59.86 | X-H torsion
[ 10167 10162 10161 10158 ] final   66.32 input  -65.29 | X-H torsion
[ 10718 10713 10712 10709 ] final -138.86 input   66.30 | X-H torsion
[ 10763 10752 10751 10750 ] final  146.61 input  -60.55 | X-H torsion
[ 11005 11000 10999 10996 ] final  176.14 input  -57.11 | X-H torsion

> <Gold.Protein.ActiveResidues>
 VAL166  LYS551  ARG553  GLY616  TRP617  ASP618  TYR619  PRO620  LYS621  CYS622 
 ASP623  PHE694  ASN695  SER759  ASP760  ASP761  ALA762  ILE779  LEU786  VAL792 
 PHE793  MET794  SER795  GLU796  ALA797  LYS798  CYS799  TRP800  GLU811  SER814 

> <Gold.Protein.RotatedAtoms>
  151.2618  133.4298  159.2616 H   0  0  0  0  0  0  0  0  0  0  0  0  # atno 6907 bound_to 6896
  151.0524  134.9682  159.8228 H   0  0  0  0  0  0  0  0  0  0  0  0  # atno 6908 bound_to 6896
  152.5385  134.2571  159.8974 H   0  0  0  0  0  0  0  0  0  0  0  0  # atno 6909 bound_to 6896
  145.2175  139.2877  143.4236 H   0  0  0  0  0  0  0  0  0  0  0  0  # atno 7974 bound_to 7965
  154.4871  140.2102  155.9631 H   0  0  0  0  0  0  0  0  0  0  0  0  # atno 8008 bound_to 7997
  156.1251  140.3206  155.8235 H   0  0  0  0  0  0  0  0  0  0  0  0  # atno 8009 bound_to 7997
  155.4397  140.0509  157.3002 H   0  0  0  0  0  0  0  0  0  0  0  0  # atno 8010 bound_to 7997
  140.1017  144.4898  150.7033 H   0  0  0  0  0  0  0  0  0  0  0  0  # atno 10167 bound_to 10162
  156.3041  130.7445  151.1505 H   0  0  0  0  0  0  0  0  0  0  0  0  # atno 10718 bound_to 10713
  154.0246  135.2903  155.3376 H   0  0  0  0  0  0  0  0  0  0  0  0  # atno 10763 bound_to 10752
  154.7025  135.5182  153.8550 H   0  0  0  0  0  0  0  0  0  0  0  0  # atno 10764 bound_to 10752
  153.0666  135.6633  154.0465 H   0  0  0  0  0  0  0  0  0  0  0  0  # atno 10765 bound_to 10752
  140.3698  134.7040  157.4385 H   0  0  0  0  0  0  0  0  0  0  0  0  # atno 11005 bound_to 11000
  146.3383  140.2470  142.8597 LP  0  0  0  0  0  0  0  0  0  0  0  0  # atno 17320 bound_to 7965
  144.9797  140.8447  143.5405 LP  0  0  0  0  0  0  0  0  0  0  0  0  # atno 17321 bound_to 7965
  140.6974  143.2413  151.4961 LP  0  0  0  0  0  0  0  0  0  0  0  0  # atno 17342 bound_to 10162
  139.5668  144.2024  152.1776 LP  0  0  0  0  0  0  0  0  0  0  0  0  # atno 17343 bound_to 10162
  157.7375  131.0551  150.5350 LP  0  0  0  0  0  0  0  0  0  0  0  0  # atno 17370 bound_to 10713
  156.5481  130.4225  149.6121 LP  0  0  0  0  0  0  0  0  0  0  0  0  # atno 17371 bound_to 10713
  140.0561  134.6062  155.8804 LP  0  0  0  0  0  0  0  0  0  0  0  0  # atno 17394 bound_to 11000
  141.1958  133.6589  156.5661 LP  0  0  0  0  0  0  0  0  0  0  0  0  # atno 17395 bound_to 11000

$$$$
