AV-unprocessed.smi:2883|AV-procd|sdf|11080|dock3
  -GOLD-   2272015553D 1   1.00000     0.00000
 Structure written by MMmdl.
 39 41  0  0  0  0  0  0  0  0  1 V2000
  152.0479  145.0097  160.4022 C   0  0  0  0  0  0  0  0  0  0  0  0
  151.8826  144.1152  159.1511 C   0  0  0  0  0  0  0  0  0  0  0  0
  150.3803  144.1646  158.7846 C   0  0  0  0  0  0  0  0  0  0  0  0
  152.7167  144.6922  157.9927 C   0  0  0  0  0  0  0  0  0  0  0  0
  152.3319  142.6721  159.4362 C   0  0  0  0  0  0  0  0  0  0  0  0
  153.1015  142.4694  160.5140 N   0  0  0  0  0  0  0  0  0  0  0  0
  153.6038  141.2300  160.6974 C   0  0  0  0  0  0  0  0  0  0  0  0
  153.3633  140.1888  159.7802 C   0  0  0  0  0  0  0  0  0  0  0  0
  152.5757  140.5116  158.6577 C   0  0  0  0  0  0  0  0  0  0  0  0
  152.3064  139.5263  157.6980 N   0  0  0  0  0  0  0  0  0  0  0  0
  152.0413  139.8879  156.3085 C   0  0  1  0  0  0  0  0  0  0  0  0
  152.7532  138.9776  155.3048 C   0  0  0  0  0  0  0  0  0  0  0  0
  151.5902  138.5237  154.4111 C   0  0  1  0  0  0  0  0  0  0  0  0
  150.7121  137.4820  155.1157 C   0  0  0  0  0  0  0  0  0  0  0  0
  149.9827  138.3393  156.1483 C   0  0  0  0  0  0  0  0  0  0  0  0
  150.5689  139.7351  155.8754 C   0  0  2  0  0  0  0  0  0  0  0  0
  150.7421  139.6587  154.4704 O   0  0  0  0  0  0  0  0  0  0  0  0
  152.0825  141.7599  158.4879 N   0  0  0  0  0  0  0  0  0  0  0  0
  151.6872  146.0219  160.2162 H   0  0  0  0  0  0  0  0  0  0  0  0
  153.0915  145.0995  160.7061 H   0  0  0  0  0  0  0  0  0  0  0  0
  151.4889  144.6138  161.2509 H   0  0  0  0  0  0  0  0  0  0  0  0
  149.7640  143.7350  159.5753 H   0  0  0  0  0  0  0  0  0  0  0  0
  150.1650  143.6185  157.8653 H   0  0  0  0  0  0  0  0  0  0  0  0
  150.0432  145.1897  158.6269 H   0  0  0  0  0  0  0  0  0  0  0  0
  152.4240  145.7172  157.7632 H   0  0  0  0  0  0  0  0  0  0  0  0
  152.5924  144.1029  157.0835 H   0  0  0  0  0  0  0  0  0  0  0  0
  153.7798  144.7001  158.2362 H   0  0  0  0  0  0  0  0  0  0  0  0
  154.2072  141.0693  161.5784 H   0  0  0  0  0  0  0  0  0  0  0  0
  153.7689  139.1991  159.9312 H   0  0  0  0  0  0  0  0  0  0  0  0
  152.0780  138.5914  158.0029 H   0  0  0  0  0  0  0  0  0  0  0  0
  152.3664  140.9148  156.1352 H   0  0  0  0  0  0  0  0  0  0  0  0
  153.4851  139.5478  154.7319 H   0  0  0  0  0  0  0  0  0  0  0  0
  153.2683  138.1324  155.7638 H   0  0  0  0  0  0  0  0  0  0  0  0
  151.8916  138.2382  153.4029 H   0  0  0  0  0  0  0  0  0  0  0  0
  150.0020  137.0361  154.4186 H   0  0  0  0  0  0  0  0  0  0  0  0
  151.2981  136.6809  155.5673 H   0  0  0  0  0  0  0  0  0  0  0  0
  148.9095  138.3318  155.9552 H   0  0  0  0  0  0  0  0  0  0  0  0
  150.1407  138.0010  157.1725 H   0  0  0  0  0  0  0  0  0  0  0  0
  149.9244  140.5535  156.1974 H   0  0  0  0  0  0  0  0  0  0  0  0
  1  2  1  0  0  0  0
  1 19  1  0  0  0  0
  1 20  1  0  0  0  0
  1 21  1  0  0  0  0
  2  3  1  0  0  0  0
  2  4  1  0  0  0  0
  2  5  1  0  0  0  0
  3 22  1  0  0  0  0
  3 23  1  0  0  0  0
  3 24  1  0  0  0  0
  4 25  1  0  0  0  0
  4 26  1  0  0  0  0
  4 27  1  0  0  0  0
  5 18  1  0  0  0  0
  5  6  2  0  0  0  0
  6  7  1  0  0  0  0
  7  8  2  0  0  0  0
  7 28  1  0  0  0  0
  8  9  1  0  0  0  0
  8 29  1  0  0  0  0
  9 10  1  0  0  0  0
  9 18  2  0  0  0  0
 10 11  1  0  0  0  0
 10 30  1  0  0  0  0
 11 16  1  0  0  0  0
 11 12  1  0  0  0  0
 11 31  1  0  0  0  0
 12 13  1  0  0  0  0
 12 32  1  0  0  0  0
 12 33  1  0  0  0  0
 13 17  1  0  0  0  0
 13 14  1  0  0  0  0
 13 34  1  0  0  0  0
 14 15  1  0  0  0  0
 14 35  1  0  0  0  0
 14 36  1  0  0  0  0
 15 16  1  0  0  0  0
 15 37  1  0  0  0  0
 15 38  1  0  0  0  0
 16 17  1  0  0  0  0
 16 39  1  0  0  0  0
M  END
> <s_m_source_file>
AV-unprocessed.smi

> <i_m_source_file_index>
2883

> <i_lp_mmshare_version>
43012

> <i_f3d_flags>
0

> <s_epik_input>
W0NIM11DKFtDSDNdKShbQ0gzXSljMW5bY0hdW2NIXWMobjEpW05IXVtDQEhdKFtDSDJdW0NAQEhdMjMpW0NAQEhdKE8zKVtDSDJdW0NIMl0y

> <s_epik_cmdline>
J2VwaWtfcHl0aG9uJywgJy1waCcsICc3LjAnLCAnLXRuJywgJzgnLCAnLW1hJywgJzIwMCcsICctbWV0YWxfYmluZGluZycsICctaW1hZScsICc8aW5maWxlLm1hZT4nLCAnLW9tYWUnLCAnPG91dGZpbGUubWFlPic=

> <r_lp_tautomer_probability>
1

> <r_epik_Ionization_Penalty>
0.453006

> <r_epik_Ionization_Penalty_Charging>
0

> <r_epik_Ionization_Penalty_Neutral>
0.453006

> <r_epik_State_Penalty>
0.455155

> <r_epik_Charging_Adjusted_Penalty>
0.455155

> <i_epik_Tot_Q>
0

> <i_epik_Tot_abs_Q>
0

> <r_epik_Metal_State_Penalty>
0.255592

> <b_epik_Metal_Only>
0

> <s_lp_Force_Field>
OPLS_2005

> <r_lp_Energy>
33.5757

> <b_lp_Chiralities_Consistent>
1

> <s_lp_Variant>
AV-unprocessed.smi:2883-6

> <Gold.Version>
5.8.1

> <Gold.Id.Protein>
6NUR|6NUR_protein|mol2

> <Gold.PLP.Fitness>
42.2387

> <Gold.PLP.PLP>
-40.5470

> <Gold.PLP.part.hbond>
-1.0000

> <Gold.PLP.part.metal>
0.0000

> <Gold.PLP.part.buried>
-5.5612

> <Gold.PLP.part.nonpolar>
-34.0939

> <Gold.PLP.part.repulsive>
0.2046

> <Gold.PLP.ligand.clash>
0.0000

> <Gold.PLP.ligand.torsion>
0.7288

> <Gold.PLP.Chemscore.Hbond>
1.0000

> <Gold.PLP.Chemscore.CHOScore>
0.0000

> <Gold.PLP.Chemscore.Metal>
0.0000

> <Gold.Chemscore.Hbonds>
donor molecule, donor type, donor heavy atom, donor atom, acceptor molecule, acceptor atom, score
      P1  H  7989  7998       L1    17  1.00

> <Gold.PLP.Chemscore.Internal.Correction>
0.1493

> <Gold.Rescore>
     Score         DG    S(hbond)    S(metal)    S(lipo)     H(rot)  DE(clash)    DE(int)     intcor
     17.15     -18.07       0.96        0.00     105.20       1.15       0.14       0.78       ----

> <Gold.Chemscore.Fitness>
17.1460

> <Gold.Chemscore.DG>
-18.0669

> <Gold.Chemscore.ZeroCoef>
-5.4800

> <Gold.Chemscore.Hbond>
0.9635

> <Gold.Chemscore.Metal>
0.0000

> <Gold.Chemscore.Lipo>
105.1969

> <Gold.Chemscore.Internal_Hbond>
0.0000

> <Gold.Chemscore.DEClash>
0.1416

> <Gold.Chemscore.DEInternal>
0.7792

> <Gold.Chemscore.Rot>
1.1482

> <Gold.Chemscore.Internal.Correction>
   9.000000E+99

> <Gold.Chemscore.Hbonds>
donor molecule, donor type, donor heavy atom, donor atom, acceptor molecule, acceptor atom, score
      P1  H  7989  7998       L1    17  0.40

> <Gold.Chemscore.Hbond.Weighted>
-3.2181

> <Gold.Chemscore.Metal.Weighted>
-0.0000

> <Gold.Chemscore.Lipo.Weighted>
-12.3080

> <Gold.Chemscore.Internal_Hbond.Weighted>
0.0000

> <Gold.Chemscore.DEClash.Weighted>
0.1416

> <Gold.Chemscore.DEInternal.Weighted>
0.7792

> <Gold.Chemscore.Rot.Weighted>
2.9393

> <Gold.Chemscore.Internal.Correction.Weighted>
   9.000000E+99

> <Gold.Protein.RotatedTorsions>
[ 6907 6896 6895 6894 ] final   82.18 input  -60.11 | X-H torsion
[ 7974 7965 7964 7962 ] final -161.05 input  175.53 | X-H torsion
[ 8008 7997 7996 7995 ] final  172.65 input   59.86 | X-H torsion
[ 10167 10162 10161 10158 ] final -101.90 input  -65.29 | X-H torsion
[ 10718 10713 10712 10709 ] final  103.41 input   66.30 | X-H torsion
[ 10763 10752 10751 10750 ] final -178.32 input  -60.55 | X-H torsion
[ 11005 11000 10999 10996 ] final  174.17 input  -57.11 | X-H torsion

> <Gold.Protein.ActiveResidues>
 VAL166  LYS551  ARG553  GLY616  TRP617  ASP618  TYR619  PRO620  LYS621  CYS622 
 ASP623  PHE694  ASN695  SER759  ASP760  ASP761  ALA762  ILE779  LEU786  VAL792 
 PHE793  MET794  SER795  GLU796  ALA797  LYS798  CYS799  TRP800  GLU811  SER814 

> <Gold.Protein.RotatedAtoms>
  152.5291  134.3090  159.9106 H   0  0  0  0  0  0  0  0  0  0  0  0  # atno 6907 bound_to 6896
  151.3040  133.4103  159.2649 H   0  0  0  0  0  0  0  0  0  0  0  0  # atno 6908 bound_to 6896
  151.0095  134.9402  159.8056 H   0  0  0  0  0  0  0  0  0  0  0  0  # atno 6909 bound_to 6896
  144.7405  140.3453  143.6126 H   0  0  0  0  0  0  0  0  0  0  0  0  # atno 7974 bound_to 7965
  156.1153  140.1480  156.9281 H   0  0  0  0  0  0  0  0  0  0  0  0  # atno 8008 bound_to 7997
  154.4796  140.0883  156.7389 H   0  0  0  0  0  0  0  0  0  0  0  0  # atno 8009 bound_to 7997
  155.4524  140.3435  155.4304 H   0  0  0  0  0  0  0  0  0  0  0  0  # atno 8010 bound_to 7997
  140.2364  143.3570  152.0841 H   0  0  0  0  0  0  0  0  0  0  0  0  # atno 10167 bound_to 10162
  157.6773  131.0778  150.5551 H   0  0  0  0  0  0  0  0  0  0  0  0  # atno 10718 bound_to 10713
  154.5492  135.2811  155.1024 H   0  0  0  0  0  0  0  0  0  0  0  0  # atno 10763 bound_to 10752
  154.2477  135.6345  153.5233 H   0  0  0  0  0  0  0  0  0  0  0  0  # atno 10764 bound_to 10752
  152.9998  135.5575  154.6053 H   0  0  0  0  0  0  0  0  0  0  0  0  # atno 10765 bound_to 10752
  140.3484  134.7216  157.4251 H   0  0  0  0  0  0  0  0  0  0  0  0  # atno 11005 bound_to 11000
  145.7332  139.1742  143.2418 LP  0  0  0  0  0  0  0  0  0  0  0  0  # atno 17320 bound_to 7965
  146.1190  140.7332  142.9466 LP  0  0  0  0  0  0  0  0  0  0  0  0  # atno 17321 bound_to 7965
  139.5092  144.6863  151.5878 LP  0  0  0  0  0  0  0  0  0  0  0  0  # atno 17342 bound_to 10162
  140.6146  143.9372  150.6479 LP  0  0  0  0  0  0  0  0  0  0  0  0  # atno 17343 bound_to 10162
  156.5855  130.4315  149.5959 LP  0  0  0  0  0  0  0  0  0  0  0  0  # atno 17370 bound_to 10713
  156.2626  130.6971  151.1744 LP  0  0  0  0  0  0  0  0  0  0  0  0  # atno 17371 bound_to 10713
  140.0723  134.5845  155.8628 LP  0  0  0  0  0  0  0  0  0  0  0  0  # atno 17394 bound_to 11000
  141.2019  133.6621  156.5977 LP  0  0  0  0  0  0  0  0  0  0  0  0  # atno 17395 bound_to 11000

$$$$
