AV-unprocessed.smi:1261|AV-procd|sdf|5305|dock2
  -GOLD-   22720 4423D 1   1.00000     0.00000
 Structure written by MMmdl.
 50 51  0  0  0  0  0  0  0  0  2 V2000
  146.6316  129.4370  151.7195 C   0  0  0  0  0  0  0  0  0  0  0  0
  145.9114  130.4693  152.6053 C   0  0  2  0  0  0  0  0  0  0  0  0
  145.2840  131.6209  151.7975 C   0  0  0  0  0  0  0  0  0  0  0  0
  146.3517  132.6029  151.2816 C   0  0  1  0  0  0  0  0  0  0  0  0
  145.7126  133.7816  150.5338 C   0  0  0  0  0  0  0  0  0  0  0  0
  147.2388  133.0871  152.4449 C   0  0  0  0  0  0  0  0  0  0  0  0
  147.8583  131.9439  153.1635 N   0  3  1  0  0  0  0  0  0  0  0  0
  148.8523  132.3814  154.1760 C   0  0  0  0  0  0  0  0  0  0  0  0
  149.6444  133.6167  153.7157 C   0  0  0  0  0  0  0  0  0  0  0  0
  149.5921  134.7624  154.7392 C   0  0  0  0  0  0  0  0  0  0  0  0
  150.1307  135.9960  154.1804 N   0  0  0  0  0  0  0  0  0  0  0  0
  151.1418  136.7091  154.7061 C   0  0  0  0  0  0  0  0  0  0  0  0
  151.7091  136.3868  155.7494 O   0  0  0  0  0  0  0  0  0  0  0  0
  151.6106  137.9696  153.9582 C   0  0  0  0  0  0  0  0  0  0  0  0
  151.4196  139.2335  154.6886 N   0  0  0  0  0  0  0  0  0  0  0  0
  150.4854  140.0832  154.1156 N   0  0  0  0  0  0  0  0  0  0  0  0
  150.2295  141.2236  154.6624 C   0  0  0  0  0  0  0  0  0  0  0  0
  149.3003  142.0356  154.0598 O   0  0  0  0  0  0  0  0  0  0  0  0
  150.9003  141.6395  155.8748 C   0  0  0  0  0  0  0  0  0  0  0  0
  151.8098  140.8055  156.4252 C   0  0  0  0  0  0  0  0  0  0  0  0
  152.1278  139.5074  155.8276 C   0  0  0  0  0  0  0  0  0  0  0  0
  152.9632  138.7354  156.2974 O   0  0  0  0  0  0  0  0  0  0  0  0
  146.8270  131.0238  153.7143 C   0  0  0  0  0  0  0  0  0  0  0  0
  149.1747  142.7596  154.6536 H   0  0  0  0  0  0  0  0  0  0  0  0
  147.4951  129.8653  151.2108 H   0  0  0  0  0  0  0  0  0  0  0  0
  145.9611  129.0391  150.9571 H   0  0  0  0  0  0  0  0  0  0  0  0
  146.9863  128.5943  152.3134 H   0  0  0  0  0  0  0  0  0  0  0  0
  145.0953  129.9353  153.0938 H   0  0  0  0  0  0  0  0  0  0  0  0
  144.6982  131.2245  150.9671 H   0  0  0  0  0  0  0  0  0  0  0  0
  144.5808  132.1586  152.4352 H   0  0  0  0  0  0  0  0  0  0  0  0
  146.9872  132.0770  150.5684 H   0  0  0  0  0  0  0  0  0  0  0  0
  145.0561  134.3580  151.1862 H   0  0  0  0  0  0  0  0  0  0  0  0
  145.1190  133.4341  149.6877 H   0  0  0  0  0  0  0  0  0  0  0  0
  146.4729  134.4594  150.1444 H   0  0  0  0  0  0  0  0  0  0  0  0
  148.0212  133.7359  152.0488 H   0  0  0  0  0  0  0  0  0  0  0  0
  146.6562  133.6854  153.1475 H   0  0  0  0  0  0  0  0  0  0  0  0
  148.3350  132.6424  155.1002 H   0  0  0  0  0  0  0  0  0  0  0  0
  149.5225  131.5559  154.4210 H   0  0  0  0  0  0  0  0  0  0  0  0
  150.6856  133.3504  153.5355 H   0  0  0  0  0  0  0  0  0  0  0  0
  149.2476  133.9671  152.7618 H   0  0  0  0  0  0  0  0  0  0  0  0
  148.5604  134.9497  155.0386 H   0  0  0  0  0  0  0  0  0  0  0  0
  150.1356  134.4928  155.6465 H   0  0  0  0  0  0  0  0  0  0  0  0
  149.7143  136.3309  153.3232 H   0  0  0  0  0  0  0  0  0  0  0  0
  152.6667  137.8384  153.7159 H   0  0  0  0  0  0  0  0  0  0  0  0
  151.1001  138.0139  152.9944 H   0  0  0  0  0  0  0  0  0  0  0  0
  150.6731  142.5956  156.3233 H   0  0  0  0  0  0  0  0  0  0  0  0
  152.3175  141.1030  157.3310 H   0  0  0  0  0  0  0  0  0  0  0  0
  146.2285  131.5618  154.4513 H   0  0  0  0  0  0  0  0  0  0  0  0
  147.2920  130.1930  154.2440 H   0  0  0  0  0  0  0  0  0  0  0  0
  148.3741  131.4245  152.4677 H   0  0  0  0  0  0  0  0  0  0  0  0
  1  2  1  0  0  0  0
  1 25  1  0  0  0  0
  1 26  1  0  0  0  0
  1 27  1  0  0  0  0
  2 23  1  0  0  0  0
  2  3  1  0  0  0  0
  2 28  1  0  0  0  0
  3  4  1  0  0  0  0
  3 29  1  0  0  0  0
  3 30  1  0  0  0  0
  4  5  1  0  0  0  0
  4  6  1  0  0  0  0
  4 31  1  0  0  0  0
  5 32  1  0  0  0  0
  5 33  1  0  0  0  0
  5 34  1  0  0  0  0
  6  7  1  0  0  0  0
  6 35  1  0  0  0  0
  6 36  1  0  0  0  0
  7  8  1  0  0  0  0
  7 23  1  0  0  0  0
  7 50  1  0  0  0  0
  8  9  1  0  0  0  0
  8 37  1  0  0  0  0
  8 38  1  0  0  0  0
  9 10  1  0  0  0  0
  9 39  1  0  0  0  0
  9 40  1  0  0  0  0
 10 11  1  0  0  0  0
 10 41  1  0  0  0  0
 10 42  1  0  0  0  0
 11 12  1  0  0  0  0
 11 43  1  0  0  0  0
 12 13  2  0  0  0  0
 12 14  1  0  0  0  0
 14 44  1  0  0  0  0
 14 45  1  0  0  0  0
 14 15  1  0  0  0  0
 15 16  1  0  0  0  0
 15 21  1  0  0  0  0
 16 17  2  0  0  0  0
 17 18  1  0  0  0  0
 17 19  1  0  0  0  0
 18 24  1  0  0  0  0
 19 46  1  0  0  0  0
 19 20  2  0  0  0  0
 20 47  1  0  0  0  0
 20 21  1  0  0  0  0
 21 22  2  0  0  0  0
 23 48  1  0  0  0  0
 23 49  1  0  0  0  0
M  CHG  1   7   1
M  END
> <s_m_source_file>
AV-unprocessed.smi

> <i_m_source_file_index>
1261

> <i_lp_mmshare_version>
43012

> <i_f3d_flags>
0

> <s_epik_input>
W0NIM11bQ0BASF0xW0NIMl1bQ0BASF0oW0NIM10pW0NIMl1OKFtDSDJdMSlbQ0gyXVtDSDJdW0NIMl1bTkhdQyg9TylbQ0gyXW4yW25IXWMoPU8pW2NIXVtjSF1jMj1P

> <s_epik_cmdline>
J2VwaWtfcHl0aG9uJywgJy1waCcsICc3LjAnLCAnLXRuJywgJzgnLCAnLW1hJywgJzIwMCcsICctbWV0YWxfYmluZGluZycsICctaW1hZScsICc8aW5maWxlLm1hZT4nLCAnLW9tYWUnLCAnPG91dGZpbGUubWFlPic=

> <r_lp_tautomer_probability>
0.9996

> <r_epik_Ionization_Penalty>
2.1425

> <r_epik_Ionization_Penalty_Charging>
0.000312112

> <r_epik_Ionization_Penalty_Neutral>
2.14218

> <r_epik_State_Penalty>
1.71978

> <r_epik_Charging_Adjusted_Penalty>
1.72009

> <i_epik_Tot_Q>
1

> <i_epik_Tot_abs_Q>
1

> <r_epik_Metal_State_Penalty>
1.71978

> <b_epik_Metal_Only>
0

> <s_lp_Force_Field>
OPLS_2005

> <r_lp_Energy>
29.6525

> <b_lp_Chiralities_Consistent>
1

> <s_lp_Variant>
AV-unprocessed.smi:1261-5

> <Gold.Version>
5.8.1

> <Gold.Id.Protein>
6NUR|6NUR_protein|mol2

> <Gold.PLP.Fitness>
58.2412

> <Gold.PLP.PLP>
-45.9477

> <Gold.PLP.part.hbond>
-7.1843

> <Gold.PLP.part.metal>
0.0000

> <Gold.PLP.part.buried>
-0.5071

> <Gold.PLP.part.nonpolar>
-35.9187

> <Gold.PLP.part.repulsive>
0.2055

> <Gold.PLP.ligand.clash>
0.0000

> <Gold.PLP.ligand.torsion>
0.6616

> <Gold.PLP.Chemscore.Hbond>
4.4944

> <Gold.PLP.Chemscore.CHOScore>
0.0000

> <Gold.PLP.Chemscore.Metal>
0.0000

> <Gold.Chemscore.Hbonds>
donor molecule, donor type, donor heavy atom, donor atom, acceptor molecule, acceptor atom, score
      L1  H     7    50       P1 10747  0.26
      L1  H    11    43       P1  7948  0.95
      L1  H    18    24       P1  8028  0.57
      P1  H  7989  7998       L1    16  0.04
      P1  H  7997  8008       L1    22  0.80
      P1  H  8011  8017       L1    18  0.38
      P1  H 10752 10765       L1    13  1.00

> <Gold.PLP.Chemscore.Internal.Correction>
0.1334

> <Gold.Rescore>
     Score         DG    S(hbond)    S(metal)    S(lipo)     H(rot)  DE(clash)    DE(int)     intcor
     16.51     -20.27       3.57        0.00      93.12       3.14       2.70       1.05       ----

> <Gold.Chemscore.Fitness>
16.5124

> <Gold.Chemscore.DG>
-20.2711

> <Gold.Chemscore.ZeroCoef>
-5.4800

> <Gold.Chemscore.Hbond>
3.5693

> <Gold.Chemscore.Metal>
0.0000

> <Gold.Chemscore.Lipo>
93.1247

> <Gold.Chemscore.Internal_Hbond>
0.0000

> <Gold.Chemscore.DEClash>
2.7039

> <Gold.Chemscore.DEInternal>
1.0548

> <Gold.Chemscore.Rot>
3.1352

> <Gold.Chemscore.Internal.Correction>
   9.000000E+99

> <Gold.Chemscore.Hbonds>
donor molecule, donor type, donor heavy atom, donor atom, acceptor molecule, acceptor atom, score
      L1  H     7    50       P1 10747  0.26
      L1  H    11    43       P1  7948  0.21
      L1  H    18    24       P1  8028  0.56
      P1  H  7997  8008       L1    22  0.12
      P1  H  8011  8017       L1    18  0.28
      P1  H 10752 10765       L1    13  0.29

> <Gold.Chemscore.Hbond.Weighted>
-11.9216

> <Gold.Chemscore.Metal.Weighted>
-0.0000

> <Gold.Chemscore.Lipo.Weighted>
-10.8956

> <Gold.Chemscore.Internal_Hbond.Weighted>
0.0000

> <Gold.Chemscore.DEClash.Weighted>
2.7039

> <Gold.Chemscore.DEInternal.Weighted>
1.0548

> <Gold.Chemscore.Rot.Weighted>
8.0260

> <Gold.Chemscore.Internal.Correction.Weighted>
   9.000000E+99

> <Gold.Protein.RotatedTorsions>
[ 6907 6896 6895 6894 ] final -152.10 input  -60.11 | X-H torsion
[ 7974 7965 7964 7962 ] final   -8.32 input  175.53 | X-H torsion
[ 8008 7997 7996 7995 ] final  -55.37 input   59.86 | X-H torsion
[ 10167 10162 10161 10158 ] final -132.86 input  -65.29 | X-H torsion
[ 10718 10713 10712 10709 ] final  -97.55 input   66.30 | X-H torsion
[ 10763 10752 10751 10750 ] final -146.27 input  -60.55 | X-H torsion
[ 11005 11000 10999 10996 ] final  -11.27 input  -57.11 | X-H torsion

> <Gold.Protein.ActiveResidues>
 VAL166  LYS551  ARG553  GLY616  TRP617  ASP618  TYR619  PRO620  LYS621  CYS622 
 ASP623  PHE694  ASN695  SER759  ASP760  ASP761  ALA762  ILE779  LEU786  VAL792 
 PHE793  MET794  SER795  GLU796  ALA797  LYS798  CYS799  TRP800  GLU811  SER814 

> <Gold.Protein.RotatedAtoms>
  151.2228  133.4493  159.2600 H   0  0  0  0  0  0  0  0  0  0  0  0  # atno 6907 bound_to 6896
  151.0869  134.9892  159.8394 H   0  0  0  0  0  0  0  0  0  0  0  0  # atno 6908 bound_to 6896
  152.5430  134.2164  159.8823 H   0  0  0  0  0  0  0  0  0  0  0  0  # atno 6909 bound_to 6896
  146.2283  140.2450  142.8345 H   0  0  0  0  0  0  0  0  0  0  0  0  # atno 7974 bound_to 7965
  154.4193  140.1154  156.5466 H   0  0  0  0  0  0  0  0  0  0  0  0  # atno 8008 bound_to 7997
  155.6453  140.3496  155.4710 H   0  0  0  0  0  0  0  0  0  0  0  0  # atno 8009 bound_to 7997
  155.9837  140.1165  157.0693 H   0  0  0  0  0  0  0  0  0  0  0  0  # atno 8010 bound_to 7997
  139.9042  143.6570  152.2589 H   0  0  0  0  0  0  0  0  0  0  0  0  # atno 10167 bound_to 10162
  156.0086  130.5199  150.6391 H   0  0  0  0  0  0  0  0  0  0  0  0  # atno 10718 bound_to 10713
  154.8344  135.3391  154.6635 H   0  0  0  0  0  0  0  0  0  0  0  0  # atno 10763 bound_to 10752
  153.7251  135.6955  153.5007 H   0  0  0  0  0  0  0  0  0  0  0  0  # atno 10764 bound_to 10752
  153.2353  135.4403  155.0592 H   0  0  0  0  0  0  0  0  0  0  0  0  # atno 10765 bound_to 10752
  140.7535  133.8573  155.9065 H   0  0  0  0  0  0  0  0  0  0  0  0  # atno 11005 bound_to 11000
  144.9455  140.8124  143.5604 LP  0  0  0  0  0  0  0  0  0  0  0  0  # atno 17320 bound_to 7965
  145.2406  139.2074  143.4995 LP  0  0  0  0  0  0  0  0  0  0  0  0  # atno 17321 bound_to 7965
  139.6998  144.7636  151.1293 LP  0  0  0  0  0  0  0  0  0  0  0  0  # atno 17342 bound_to 10162
  140.7700  143.5473  150.9244 LP  0  0  0  0  0  0  0  0  0  0  0  0  # atno 17343 bound_to 10162
  157.4175  131.0832  151.1163 LP  0  0  0  0  0  0  0  0  0  0  0  0  # atno 17370 bound_to 10713
  157.1775  130.6295  149.5661 LP  0  0  0  0  0  0  0  0  0  0  0  0  # atno 17371 bound_to 10713
  140.9729  134.1508  157.4561 LP  0  0  0  0  0  0  0  0  0  0  0  0  # atno 17394 bound_to 11000
  139.8783  134.9984  156.5901 LP  0  0  0  0  0  0  0  0  0  0  0  0  # atno 17395 bound_to 11000

$$$$
