AV-unprocessed.smi:102|AV-procd|sdf|947|dock6
  -GOLD-   2262017473D 1   1.00000     0.00000
 Structure written by MMmdl.
 44 45  0  0  0  0  0  0  0  0  1 V2000
  155.3122  136.2754  160.3059 C   0  0  0  0  0  0  0  0  0  0  0  0
  153.8944  136.7095  159.9596 C   0  0  0  0  0  0  0  0  0  0  0  0
  153.0954  135.9358  159.4320 O   0  0  0  0  0  0  0  0  0  0  0  0
  153.6541  137.9854  160.2912 O   0  0  0  0  0  0  0  0  0  0  0  0
  152.3688  138.5419  160.0613 C   0  0  0  0  0  0  0  0  0  0  0  0
  151.9499  138.3430  158.5977 C   0  0  2  0  0  0  0  0  0  0  0  0
  152.6343  139.2591  157.7463 O   0  0  0  0  0  0  0  0  0  0  0  0
  151.7290  140.0334  157.0159 C   0  0  2  0  0  0  0  0  0  0  0  0
  151.6080  141.3852  157.7071 N   0  0  0  0  0  0  0  0  0  0  0  0
  152.2600  141.7226  158.8915 C   0  0  0  0  0  0  0  0  0  0  0  0
  152.1736  142.9482  159.4607 C   0  0  0  0  0  0  0  0  0  0  0  0
  152.8366  143.1967  160.6028 F   0  0  0  0  0  0  0  0  0  0  0  0
  151.3808  144.0050  158.8429 C   0  0  0  0  0  0  0  0  0  0  0  0
  151.2445  145.1447  159.2830 O   0  0  0  0  0  0  0  0  0  0  0  0
  150.7556  143.6315  157.6517 N   0  0  0  0  0  0  0  0  0  0  0  0
  150.8373  142.3740  157.0528 C   0  0  0  0  0  0  0  0  0  0  0  0
  150.2492  142.1642  155.9925 O   0  0  0  0  0  0  0  0  0  0  0  0
  150.4265  139.2173  156.9684 C   0  0  1  0  0  0  0  0  0  0  0  0
  150.5025  138.2772  155.8997 O   0  0  0  0  0  0  0  0  0  0  0  0
  150.7122  138.6947  154.6392 C   0  0  0  0  0  0  0  0  0  0  0  0
  151.4715  137.6705  153.8067 C   0  0  0  0  0  0  0  0  0  0  0  0
  150.3597  139.7747  154.1654 O   0  0  0  0  0  0  0  0  0  0  0  0
  150.4515  138.5089  158.3216 C   0  0  1  0  0  0  0  0  0  0  0  0
  149.7650  137.2624  158.3056 O   0  0  0  0  0  0  0  0  0  0  0  0
  148.9725  136.9168  159.3353 C   0  0  0  0  0  0  0  0  0  0  0  0
  148.1340  135.6812  159.0365 C   0  0  0  0  0  0  0  0  0  0  0  0
  148.8897  137.5046  160.4139 O   0  0  0  0  0  0  0  0  0  0  0  0
  150.2009  144.3321  157.1819 H   0  0  0  0  0  0  0  0  0  0  0  0
  155.5624  136.5676  161.3259 H   0  0  0  0  0  0  0  0  0  0  0  0
  156.0254  136.7412  159.6260 H   0  0  0  0  0  0  0  0  0  0  0  0
  155.4122  135.1932  160.2226 H   0  0  0  0  0  0  0  0  0  0  0  0
  151.6391  138.0727  160.7225 H   0  0  0  0  0  0  0  0  0  0  0  0
  152.3868  139.6066  160.2984 H   0  0  0  0  0  0  0  0  0  0  0  0
  152.2639  137.3489  158.2770 H   0  0  0  0  0  0  0  0  0  0  0  0
  152.1128  140.2710  156.0215 H   0  0  0  0  0  0  0  0  0  0  0  0
  152.8746  141.0091  159.4145 H   0  0  0  0  0  0  0  0  0  0  0  0
  149.5479  139.8487  156.8384 H   0  0  0  0  0  0  0  0  0  0  0  0
  151.1220  136.6619  154.0281 H   0  0  0  0  0  0  0  0  0  0  0  0
  152.5380  137.7245  154.0244 H   0  0  0  0  0  0  0  0  0  0  0  0
  151.3257  137.8596  152.7430 H   0  0  0  0  0  0  0  0  0  0  0  0
  150.0232  139.1572  159.0855 H   0  0  0  0  0  0  0  0  0  0  0  0
  148.6951  134.9745  158.4246 H   0  0  0  0  0  0  0  0  0  0  0  0
  147.2280  135.9624  158.4997 H   0  0  0  0  0  0  0  0  0  0  0  0
  147.8470  135.1823  159.9623 H   0  0  0  0  0  0  0  0  0  0  0  0
  1  2  1  0  0  0  0
  1 29  1  0  0  0  0
  1 30  1  0  0  0  0
  1 31  1  0  0  0  0
  2  3  2  0  0  0  0
  2  4  1  0  0  0  0
  4  5  1  0  0  0  0
  5  6  1  0  0  0  0
  5 32  1  0  0  0  0
  5 33  1  0  0  0  0
  6 23  1  0  0  0  0
  6  7  1  0  0  0  0
  6 34  1  0  0  0  0
  7  8  1  0  0  0  0
  8  9  1  0  0  0  0
  8 18  1  0  0  0  0
  8 35  1  0  0  0  0
  9 16  1  0  0  0  0
  9 10  1  0  0  0  0
 10 11  2  0  0  0  0
 10 36  1  0  0  0  0
 11 12  1  0  0  0  0
 11 13  1  0  0  0  0
 13 14  2  0  0  0  0
 13 15  1  0  0  0  0
 15 28  1  0  0  0  0
 15 16  1  0  0  0  0
 16 17  2  0  0  0  0
 18 19  1  0  0  0  0
 18 23  1  0  0  0  0
 18 37  1  0  0  0  0
 19 20  1  0  0  0  0
 20 21  1  0  0  0  0
 20 22  2  0  0  0  0
 21 38  1  0  0  0  0
 21 39  1  0  0  0  0
 21 40  1  0  0  0  0
 23 24  1  0  0  0  0
 23 41  1  0  0  0  0
 24 25  1  0  0  0  0
 25 26  1  0  0  0  0
 25 27  2  0  0  0  0
 26 42  1  0  0  0  0
 26 43  1  0  0  0  0
 26 44  1  0  0  0  0
M  END
> <s_m_source_file>
AV-unprocessed.smi

> <i_m_source_file_index>
102

> <i_lp_mmshare_version>
43012

> <i_f3d_flags>
0

> <s_epik_input>
W0NIM11DKD1PKU9bQ0gyXVtDQEBIXTFPW0NASF0oW0NAQEhdKE9DKD1PKVtDSDNdKVtDQEhdMU9DKD1PKVtDSDNdKW4yW2NIXWMoRiljKD1PKVtuSF1jMj1P

> <s_epik_cmdline>
J2VwaWtfcHl0aG9uJywgJy1waCcsICc3LjAnLCAnLXRuJywgJzgnLCAnLW1hJywgJzIwMCcsICctbWV0YWxfYmluZGluZycsICctaW1hZScsICc8aW5maWxlLm1hZT4nLCAnLW9tYWUnLCAnPG91dGZpbGUubWFlPic=

> <r_lp_tautomer_probability>
0.999537

> <r_epik_Ionization_Penalty>
0.058267

> <r_epik_Ionization_Penalty_Charging>
0.058267

> <r_epik_Ionization_Penalty_Neutral>
6.57791e-16

> <r_epik_State_Penalty>
0.0503774

> <r_epik_Charging_Adjusted_Penalty>
0.108644

> <i_epik_Tot_Q>
0

> <i_epik_Tot_abs_Q>
0

> <r_epik_Metal_State_Penalty>
2.6644

> <b_epik_Metal_Only>
0

> <s_epik_Chemistry_Notes>
This compound has an ester and may undergo hydrolysis at high or low pH. This compound contains an acetal/aminal-like group ( X-CH(R)-Y where X, Y are N, S, or O) that may be acid/base labile, releasing an aldehyde.

> <s_lp_Force_Field>
OPLS_2005

> <r_lp_Energy>
12.8292

> <b_lp_Chiralities_Consistent>
1

> <s_lp_Variant>
AV-unprocessed.smi:102-3

> <Gold.Version>
5.8.1

> <Gold.Id.Protein>
6NUR|6NUR_protein|mol2

> <Gold.PLP.Fitness>
45.9248

> <Gold.PLP.PLP>
-35.0842

> <Gold.PLP.part.hbond>
-5.2384

> <Gold.PLP.part.metal>
0.0000

> <Gold.PLP.part.buried>
-5.3637

> <Gold.PLP.part.nonpolar>
-26.9360

> <Gold.PLP.part.repulsive>
1.8839

> <Gold.PLP.ligand.clash>
0.0000

> <Gold.PLP.ligand.torsion>
1.3448

> <Gold.PLP.Chemscore.Hbond>
4.4400

> <Gold.PLP.Chemscore.CHOScore>
0.0000

> <Gold.PLP.Chemscore.Metal>
0.0000

> <Gold.Chemscore.Hbonds>
donor molecule, donor type, donor heavy atom, donor atom, acceptor molecule, acceptor atom, score
      L1  H    15    28       P1  8028  0.96
      P1  H  6896  6907       L1     3  0.84
      P1  H  6931  6943       L1    27  0.46
      P1  H  6934  6947       L1    27  0.08
      P1  H  7989  7998       L1    22  1.00
      P1  H  7997  8010       L1     7  0.51

> <Gold.PLP.Chemscore.Internal.Correction>
0.2101

> <Gold.Rescore>
     Score         DG    S(hbond)    S(metal)    S(lipo)     H(rot)  DE(clash)    DE(int)     intcor
      8.15     -13.56       3.74        0.00      50.89       4.05       1.52       3.89       ----

> <Gold.Chemscore.Fitness>
8.1529

> <Gold.Chemscore.DG>
-13.5623

> <Gold.Chemscore.ZeroCoef>
-5.4800

> <Gold.Chemscore.Hbond>
3.7429

> <Gold.Chemscore.Metal>
0.0000

> <Gold.Chemscore.Lipo>
50.8912

> <Gold.Chemscore.Internal_Hbond>
0.0000

> <Gold.Chemscore.DEClash>
1.5194

> <Gold.Chemscore.DEInternal>
3.8900

> <Gold.Chemscore.Rot>
4.0520

> <Gold.Chemscore.Internal.Correction>
   9.000000E+99

> <Gold.Chemscore.Hbonds>
donor molecule, donor type, donor heavy atom, donor atom, acceptor molecule, acceptor atom, score
      L1  H    15    28       P1  8028  0.65
      P1  H  6896  6907       L1     3  0.78
      P1  H  6931  6943       L1    27  0.46
      P1  H  6934  6947       L1    27  0.09
      P1  H  7989  7998       L1    22  0.96
      P1  H  7997  8010       L1     7  0.09

> <Gold.Chemscore.Hbond.Weighted>
-12.5012

> <Gold.Chemscore.Metal.Weighted>
-0.0000

> <Gold.Chemscore.Lipo.Weighted>
-5.9543

> <Gold.Chemscore.Internal_Hbond.Weighted>
0.0000

> <Gold.Chemscore.DEClash.Weighted>
1.5194

> <Gold.Chemscore.DEInternal.Weighted>
3.8900

> <Gold.Chemscore.Rot.Weighted>
10.3732

> <Gold.Chemscore.Internal.Correction.Weighted>
   9.000000E+99

> <Gold.Protein.RotatedTorsions>
[ 6907 6896 6895 6894 ] final   47.57 input  -60.11 | X-H torsion
[ 7974 7965 7964 7962 ] final -145.54 input  175.53 | X-H torsion
[ 8008 7997 7996 7995 ] final   48.56 input   59.86 | X-H torsion
[ 10167 10162 10161 10158 ] final   85.98 input  -65.29 | X-H torsion
[ 10718 10713 10712 10709 ] final    1.89 input   66.30 | X-H torsion
[ 10763 10752 10751 10750 ] final -113.09 input  -60.55 | X-H torsion
[ 11005 11000 10999 10996 ] final   70.73 input  -57.11 | X-H torsion

> <Gold.Protein.ActiveResidues>
 VAL166  LYS551  ARG553  GLY616  TRP617  ASP618  TYR619  PRO620  LYS621  CYS622 
 ASP623  PHE694  ASN695  SER759  ASP760  ASP761  ALA762  ILE779  LEU786  VAL792 
 PHE793  MET794  SER795  GLU796  ALA797  LYS798  CYS799  TRP800  GLU811  SER814 

> <Gold.Protein.RotatedAtoms>
  152.2696  134.7947  160.0416 H   0  0  0  0  0  0  0  0  0  0  0  0  # atno 6907 bound_to 6896
  151.8565  133.3444  159.3698 H   0  0  0  0  0  0  0  0  0  0  0  0  # atno 6908 bound_to 6896
  150.7147  134.5176  159.5682 H   0  0  0  0  0  0  0  0  0  0  0  0  # atno 6909 bound_to 6896
  144.8220  140.5570  143.5572 H   0  0  0  0  0  0  0  0  0  0  0  0  # atno 7974 bound_to 7965
  155.3877  140.3432  155.4250 H   0  0  0  0  0  0  0  0  0  0  0  0  # atno 8008 bound_to 7997
  156.1575  140.1590  156.8701 H   0  0  0  0  0  0  0  0  0  0  0  0  # atno 8009 bound_to 7997
  154.5108  140.0790  156.7968 H   0  0  0  0  0  0  0  0  0  0  0  0  # atno 8010 bound_to 7997
  139.8922  144.6379  150.8726 H   0  0  0  0  0  0  0  0  0  0  0  0  # atno 10167 bound_to 10162
  156.8549  130.5566  149.5667 H   0  0  0  0  0  0  0  0  0  0  0  0  # atno 10718 bound_to 10713
  154.8380  135.4467  154.1294 H   0  0  0  0  0  0  0  0  0  0  0  0  # atno 10763 bound_to 10752
  153.2509  135.6926  153.7687 H   0  0  0  0  0  0  0  0  0  0  0  0  # atno 10764 bound_to 10752
  153.6999  135.3373  155.3198 H   0  0  0  0  0  0  0  0  0  0  0  0  # atno 10765 bound_to 10752
  139.9581  134.7108  156.0706 H   0  0  0  0  0  0  0  0  0  0  0  0  # atno 11005 bound_to 11000
  145.5084  139.1480  143.3618 LP  0  0  0  0  0  0  0  0  0  0  0  0  # atno 17320 bound_to 7965
  146.2525  140.5224  142.8887 LP  0  0  0  0  0  0  0  0  0  0  0  0  # atno 17321 bound_to 7965
  140.7724  143.3501  151.2031 LP  0  0  0  0  0  0  0  0  0  0  0  0  # atno 17342 bound_to 10162
  139.7099  143.9393  152.2943 LP  0  0  0  0  0  0  0  0  0  0  0  0  # atno 17343 bound_to 10162
  156.0808  130.5819  150.9559 LP  0  0  0  0  0  0  0  0  0  0  0  0  # atno 17370 bound_to 10713
  157.6283  131.0923  150.8491 LP  0  0  0  0  0  0  0  0  0  0  0  0  # atno 17371 bound_to 10713
  141.1256  133.6600  156.3327 LP  0  0  0  0  0  0  0  0  0  0  0  0  # atno 17394 bound_to 11000
  140.5561  134.5979  157.5421 LP  0  0  0  0  0  0  0  0  0  0  0  0  # atno 17395 bound_to 11000

$$$$
