AV-unprocessed.smi:3188|AV-procd|sdf|12185|dock6
  -GOLD-   2272018 23D 1   1.00000     0.00000
 Structure written by MMmdl.
 40 41  0  0  0  0  0  0  0  0  2 V2000
  151.0185  144.6543  158.6401 C   0  0  0  0  0  0  0  0  0  0  0  0
  151.8381  143.4322  159.0234 C   0  0  0  0  0  0  0  0  0  0  0  0
  152.8621  143.5630  159.8882 C   0  0  0  0  0  0  0  0  0  0  0  0
  153.6988  142.4135  160.4000 C   0  0  0  0  0  0  0  0  0  0  0  0
  152.9617  141.0825  160.2363 C   0  0  0  0  0  0  0  0  0  0  0  0
  152.4105  140.9180  158.8108 C   0  0  1  0  0  0  0  0  0  0  0  0
  151.7664  139.5251  158.6700 C   0  0  0  0  0  0  0  0  0  0  0  0
  151.4373  142.0714  158.4144 C   0  0  2  0  0  0  0  0  0  0  0  0
  151.2780  142.1245  156.8715 C   0  0  0  0  0  0  0  0  0  0  0  0
  149.8713  142.2665  156.4465 N   0  3  0  0  0  0  0  0  0  0  0  0
  149.3964  141.2033  155.5386 C   0  0  0  0  0  0  0  0  0  0  0  0
  149.5021  139.8172  156.1939 C   0  0  0  0  0  0  0  0  0  0  0  0
  150.4392  138.9593  155.4911 N   0  0  0  0  0  0  0  0  0  0  0  0
  150.5149  138.6951  154.1394 C   0  0  0  0  0  0  0  0  0  0  0  0
  151.5513  137.8104  154.0470 C   0  0  0  0  0  0  0  0  0  0  0  0
  152.0534  137.5756  155.3257 N   0  0  0  0  0  0  0  0  0  0  0  0
  151.3814  138.2756  156.1838 N   0  0  0  0  0  0  0  0  0  0  0  0
  149.9537  144.4578  158.7673 H   0  0  0  0  0  0  0  0  0  0  0  0
  151.2061  144.9425  157.6059 H   0  0  0  0  0  0  0  0  0  0  0  0
  151.2699  145.5127  159.2642 H   0  0  0  0  0  0  0  0  0  0  0  0
  153.1211  144.5387  160.2738 H   0  0  0  0  0  0  0  0  0  0  0  0
  154.6462  142.4030  159.8604 H   0  0  0  0  0  0  0  0  0  0  0  0
  153.9303  142.5796  161.4524 H   0  0  0  0  0  0  0  0  0  0  0  0
  153.6382  140.2631  160.4824 H   0  0  0  0  0  0  0  0  0  0  0  0
  152.1405  141.0302  160.9531 H   0  0  0  0  0  0  0  0  0  0  0  0
  153.2682  140.9541  158.1370 H   0  0  0  0  0  0  0  0  0  0  0  0
  150.8885  139.4293  159.3097 H   0  0  0  0  0  0  0  0  0  0  0  0
  152.4677  138.7413  158.9581 H   0  0  0  0  0  0  0  0  0  0  0  0
  151.4569  139.3095  157.6487 H   0  0  0  0  0  0  0  0  0  0  0  0
  150.4647  141.8358  158.8497 H   0  0  0  0  0  0  0  0  0  0  0  0
  151.8681  142.9511  156.4729 H   0  0  0  0  0  0  0  0  0  0  0  0
  151.6601  141.2202  156.4009 H   0  0  0  0  0  0  0  0  0  0  0  0
  149.2806  142.2886  157.2656 H   0  0  0  0  0  0  0  0  0  0  0  0
  148.3606  141.3979  155.2563 H   0  0  0  0  0  0  0  0  0  0  0  0
  149.9879  141.2293  154.6228 H   0  0  0  0  0  0  0  0  0  0  0  0
  149.8430  139.9184  157.2249 H   0  0  0  0  0  0  0  0  0  0  0  0
  148.5251  139.3323  156.2334 H   0  0  0  0  0  0  0  0  0  0  0  0
  149.8582  139.1327  153.4018 H   0  0  0  0  0  0  0  0  0  0  0  0
  151.9716  137.3263  153.1776 H   0  0  0  0  0  0  0  0  0  0  0  0
  149.7836  143.1498  155.9637 H   0  0  0  0  0  0  0  0  0  0  0  0
  1  2  1  0  0  0  0
  1 18  1  0  0  0  0
  1 19  1  0  0  0  0
  1 20  1  0  0  0  0
  2  8  1  0  0  0  0
  2  3  2  0  0  0  0
  3  4  1  0  0  0  0
  3 21  1  0  0  0  0
  4  5  1  0  0  0  0
  4 22  1  0  0  0  0
  4 23  1  0  0  0  0
  5  6  1  0  0  0  0
  5 24  1  0  0  0  0
  5 25  1  0  0  0  0
  6  7  1  0  0  0  0
  6  8  1  0  0  0  0
  6 26  1  0  0  0  0
  7 27  1  0  0  0  0
  7 28  1  0  0  0  0
  7 29  1  0  0  0  0
  8  9  1  0  0  0  0
  8 30  1  0  0  0  0
  9 10  1  0  0  0  0
  9 31  1  0  0  0  0
  9 32  1  0  0  0  0
 10 11  1  0  0  0  0
 10 33  1  0  0  0  0
 10 40  1  0  0  0  0
 11 12  1  0  0  0  0
 11 34  1  0  0  0  0
 11 35  1  0  0  0  0
 12 13  1  0  0  0  0
 12 36  1  0  0  0  0
 12 37  1  0  0  0  0
 13 17  1  0  0  0  0
 13 14  1  0  0  0  0
 14 15  2  0  0  0  0
 14 38  1  0  0  0  0
 15 16  1  0  0  0  0
 15 39  1  0  0  0  0
 16 17  2  0  0  0  0
M  CHG  1  10   1
M  END
> <s_m_source_file>
AV-unprocessed.smi

> <i_m_source_file_index>
3188

> <i_lp_mmshare_version>
43012

> <i_f3d_flags>
0

> <s_epik_input>
W0NIM11DMT1bQ0hdW0NIMl1bQ0gyXVtDQEBIXShbQ0gzXSlbQ0BIXTFbQ0gyXVtOSF1bQ0gyXVtDSDJdbjJbY0hdW2NIXW5uMg==

> <s_epik_cmdline>
J2VwaWtfcHl0aG9uJywgJy1waCcsICc3LjAnLCAnLXRuJywgJzgnLCAnLW1hJywgJzIwMCcsICctbWV0YWxfYmluZGluZycsICctaW1hZScsICc8aW5maWxlLm1hZT4nLCAnLW9tYWUnLCAnPG91dGZpbGUubWFlPic=

> <r_lp_tautomer_probability>
1

> <r_epik_Ionization_Penalty>
0.007268

> <r_epik_Ionization_Penalty_Charging>
0.00726786

> <r_epik_Ionization_Penalty_Neutral>
1.34882e-07

> <r_epik_State_Penalty>
0.00542069

> <r_epik_Charging_Adjusted_Penalty>
0.0126886

> <i_epik_Tot_Q>
1

> <i_epik_Tot_abs_Q>
1

> <r_epik_Metal_State_Penalty>
-0

> <b_epik_Metal_Only>
0

> <s_lp_Force_Field>
OPLS_2005

> <r_lp_Energy>
14.3192

> <b_lp_Chiralities_Consistent>
1

> <s_lp_Variant>
AV-unprocessed.smi:3188-3

> <Gold.Version>
5.8.1

> <Gold.Id.Protein>
6NUR|6NUR_protein|mol2

> <Gold.PLP.Fitness>
44.7422

> <Gold.PLP.PLP>
-34.8088

> <Gold.PLP.part.hbond>
-1.8347

> <Gold.PLP.part.metal>
0.0000

> <Gold.PLP.part.buried>
-4.9947

> <Gold.PLP.part.nonpolar>
-28.1165

> <Gold.PLP.part.repulsive>
0.1094

> <Gold.PLP.ligand.clash>
0.0000

> <Gold.PLP.ligand.torsion>
1.4510

> <Gold.PLP.Chemscore.Hbond>
2.2542

> <Gold.PLP.Chemscore.CHOScore>
2.0000

> <Gold.PLP.Chemscore.Metal>
0.0000

> <Gold.Chemscore.Hbonds>
donor molecule, donor type, donor heavy atom, donor atom, acceptor molecule, acceptor atom, score
      L1  H    10    40       P1  8028  2.00
      P1  H 10752 10765       L1    16  0.21
      L1  C    14    38       P1  7957  1.00
      L1  C    15    39       P1  7949  1.00

> <Gold.PLP.Chemscore.Internal.Correction>
0.0728

> <Gold.Rescore>
     Score         DG    S(hbond)    S(metal)    S(lipo)     H(rot)  DE(clash)    DE(int)     intcor
     15.22     -18.12       1.21        0.00     112.57       1.78       0.22       2.68       ----

> <Gold.Chemscore.Fitness>
15.2152

> <Gold.Chemscore.DG>
-18.1178

> <Gold.Chemscore.ZeroCoef>
-5.4800

> <Gold.Chemscore.Hbond>
1.2056

> <Gold.Chemscore.Metal>
0.0000

> <Gold.Chemscore.Lipo>
112.5656

> <Gold.Chemscore.Internal_Hbond>
0.0000

> <Gold.Chemscore.DEClash>
0.2215

> <Gold.Chemscore.DEInternal>
2.6812

> <Gold.Chemscore.Rot>
1.7809

> <Gold.Chemscore.Internal.Correction>
   9.000000E+99

> <Gold.Chemscore.Hbonds>
donor molecule, donor type, donor heavy atom, donor atom, acceptor molecule, acceptor atom, score
      L1  H    10    40       P1  8028  0.95
      P1  H 10752 10765       L1    16  0.03

> <Gold.Chemscore.Hbond.Weighted>
-4.0266

> <Gold.Chemscore.Metal.Weighted>
-0.0000

> <Gold.Chemscore.Lipo.Weighted>
-13.1702

> <Gold.Chemscore.Internal_Hbond.Weighted>
0.0000

> <Gold.Chemscore.DEClash.Weighted>
0.2215

> <Gold.Chemscore.DEInternal.Weighted>
2.6812

> <Gold.Chemscore.Rot.Weighted>
4.5590

> <Gold.Chemscore.Internal.Correction.Weighted>
   9.000000E+99

> <Gold.Protein.RotatedTorsions>
[ 6907 6896 6895 6894 ] final   72.26 input  -60.11 | X-H torsion
[ 7974 7965 7964 7962 ] final  162.17 input  175.53 | X-H torsion
[ 8008 7997 7996 7995 ] final  167.09 input   59.86 | X-H torsion
[ 10167 10162 10161 10158 ] final  126.26 input  -65.29 | X-H torsion
[ 10718 10713 10712 10709 ] final   -3.06 input   66.30 | X-H torsion
[ 10763 10752 10751 10750 ] final -163.44 input  -60.55 | X-H torsion
[ 11005 11000 10999 10996 ] final  -64.10 input  -57.11 | X-H torsion

> <Gold.Protein.ActiveResidues>
 VAL166  LYS551  ARG553  GLY616  TRP617  ASP618  TYR619  PRO620  LYS621  CYS622 
 ASP623  PHE694  ASN695  SER759  ASP760  ASP761  ALA762  ILE779  LEU786  VAL792 
 PHE793  MET794  SER795  GLU796  ALA797  LYS798  CYS799  TRP800  GLU811  SER814 

> <Gold.Protein.RotatedAtoms>
  152.4858  134.4597  159.9601 H   0  0  0  0  0  0  0  0  0  0  0  0  # atno 6907 bound_to 6896
  151.4594  133.3590  159.2815 H   0  0  0  0  0  0  0  0  0  0  0  0  # atno 6908 bound_to 6896
  150.8967  134.8400  159.7392 H   0  0  0  0  0  0  0  0  0  0  0  0  # atno 6909 bound_to 6896
  144.7650  139.8002  143.6318 H   0  0  0  0  0  0  0  0  0  0  0  0  # atno 7974 bound_to 7965
  156.1663  140.1626  156.8525 H   0  0  0  0  0  0  0  0  0  0  0  0  # atno 8008 bound_to 7997
  154.5211  140.0778  156.8208 H   0  0  0  0  0  0  0  0  0  0  0  0  # atno 8009 bound_to 7997
  155.3605  140.3395  155.4243 H   0  0  0  0  0  0  0  0  0  0  0  0  # atno 8010 bound_to 7997
  139.5641  144.6900  151.3960 H   0  0  0  0  0  0  0  0  0  0  0  0  # atno 10167 bound_to 10162
  156.7816  130.5332  149.5750 H   0  0  0  0  0  0  0  0  0  0  0  0  # atno 10718 bound_to 10713
  154.7122  135.3008  154.9179 H   0  0  0  0  0  0  0  0  0  0  0  0  # atno 10763 bound_to 10752
  154.0077  135.6699  153.4767 H   0  0  0  0  0  0  0  0  0  0  0  0  # atno 10764 bound_to 10752
  153.0764  135.5032  154.8327 H   0  0  0  0  0  0  0  0  0  0  0  0  # atno 10765 bound_to 10752
  141.1414  133.6661  156.5782 H   0  0  0  0  0  0  0  0  0  0  0  0  # atno 11005 bound_to 11000
  146.1748  139.4914  142.9904 LP  0  0  0  0  0  0  0  0  0  0  0  0  # atno 17320 bound_to 7965
  145.6500  141.0265  143.1765 LP  0  0  0  0  0  0  0  0  0  0  0  0  # atno 17321 bound_to 7965
  140.6923  143.7832  150.7274 LP  0  0  0  0  0  0  0  0  0  0  0  0  # atno 17342 bound_to 10162
  140.1318  143.4519  152.2249 LP  0  0  0  0  0  0  0  0  0  0  0  0  # atno 17343 bound_to 10162
  156.1214  130.6113  151.0200 LP  0  0  0  0  0  0  0  0  0  0  0  0  # atno 17370 bound_to 10713
  157.6644  131.0874  150.7764 LP  0  0  0  0  0  0  0  0  0  0  0  0  # atno 17371 bound_to 10713
  140.3859  134.7483  157.4691 LP  0  0  0  0  0  0  0  0  0  0  0  0  # atno 17394 bound_to 11000
  140.0603  134.6006  155.8757 LP  0  0  0  0  0  0  0  0  0  0  0  0  # atno 17395 bound_to 11000

$$$$
