#       Name:                AV-unprocessed.smi:332
#       Creating user name   scv26
#       Creation time:       Thu Mar 26 22:27:14 2020


#       File generated by GOLD software.
#

@<TRIPOS>MOLECULE
AV-unprocessed.smi:332
    46    48     1
SMALL
NO_CHARGES


@<TRIPOS>ATOM
      1 ****        -1.7849  -1.6667   2.5122 C.3            1 S1                 0.0000
      2 ****        -1.2849  -0.8304   1.3228 C.3            1 S1                 0.0000
      3 ****         0.1764  -0.8094   1.3559 N.am           1 S1                 0.0000
      4 ****         0.9468   0.2839   1.4682 C.2            1 S1                 0.0000
      5 ****         0.4968   1.4225   1.6035 O.2            1 S1                 0.0000
      6 ****         2.4621   0.0436   1.4284 C.3            1 S1                 0.0000
      7 ****         3.2072   1.1749   0.8519 N.am           1 S1                 0.0000
      8 ****         3.8438   2.0519   1.7527 C.2            1 S1                 0.0000
      9 ****         4.5453   3.1159   1.3313 C.2            1 S1                 0.0000
     10 ****         4.6388   3.3526  -0.0898 C.2            1 S1                 0.0000
     11 ****         4.0308   2.5221  -0.9601 C.2            1 S1                 0.0000
     12 ****         3.2617   1.3584  -0.5039 C.2            1 S1                 0.0000
     13 ****         2.7009   0.5955  -1.2916 O.2            1 S1                 0.0000
     14 ****        -1.7768  -1.3845  -0.0377 C.3            1 S1                 0.0000
     15 ****        -3.3132  -1.3125  -0.2155 C.3            1 S1                 0.0000
     16 ****        -3.4828  -0.5638  -1.5491 C.3            1 S1                 0.0000
     17 ****        -3.0164  -1.4628  -2.7083 C.3            1 S1                 0.0000
     18 ****        -1.4861  -1.4655  -2.5380 C.3            1 S1                 0.0000
     19 ****        -1.2825  -0.5980  -1.2811 C.3            1 S1                 0.0000
     20 ****        -2.3616   0.4632  -1.4681 C.3            1 S1                 0.0000
     21 ****        -2.8732  -1.6726   2.5699 H              1 S1                 0.0000
     22 ****        -1.4140  -1.2646   3.4556 H              1 S1                 0.0000
     23 ****        -1.4508  -2.7022   2.4383 H              1 S1                 0.0000
     24 ****        -1.6749   0.1810   1.4460 H              1 S1                 0.0000
     25 ****         0.6404  -1.7007   1.2553 H              1 S1                 0.0000
     26 ****         2.7989  -0.1653   2.4447 H              1 S1                 0.0000
     27 ****         2.6771  -0.8654   0.8629 H              1 S1                 0.0000
     28 ****         3.7195   1.8097   2.7982 H              1 S1                 0.0000
     29 ****         5.0233   3.7797   2.0368 H              1 S1                 0.0000
     30 ****         5.1977   4.2008  -0.4567 H              1 S1                 0.0000
     31 ****         4.1101   2.7164  -2.0197 H              1 S1                 0.0000
     32 ****        -1.4464  -2.4217  -0.1162 H              1 S1                 0.0000
     33 ****        -3.7753  -2.3002  -0.2320 H              1 S1                 0.0000
     34 ****        -3.7838  -0.7422   0.5864 H              1 S1                 0.0000
     35 ****        -4.4802  -0.1476  -1.6922 H              1 S1                 0.0000
     36 ****        -3.4436  -2.4646  -2.6507 H              1 S1                 0.0000
     37 ****        -3.2945  -1.0335  -3.6716 H              1 S1                 0.0000
     38 ****        -1.0789  -2.4706  -2.4239 H              1 S1                 0.0000
     39 ****        -1.0047  -1.0095  -3.4042 H              1 S1                 0.0000
     40 ****        -0.2683  -0.2067  -1.2042 H              1 S1                 0.0000
     41 ****        -2.2424   1.0458  -2.3832 H              1 S1                 0.0000
     42 ****        -2.4557   1.1450  -0.6214 H              1 S1                 0.0000
     43 ****        -0.4920   1.5689   1.6345 LP             1 S1                 0.0000
     44 ****         1.1202   2.2004   1.6823 LP             1 S1                 0.0000
     45 ****         2.1847  -0.1885  -0.9467 LP             1 S1                 0.0000
     46 ****         2.7617   0.7600  -2.2761 LP             1 S1                 0.0000
@<TRIPOS>BOND
    1    1    2 1     
    2    1   21 1     
    3    1   22 1     
    4    1   23 1     
    5    2    3 1     
    6    2   14 1     
    7    2   24 1     
    8    3    4 am    
    9    3   25 1     
   10    4    5 2     
   11    4    6 1     
   12    6    7 1     
   13    6   26 1     
   14    6   27 1     
   15    7   12 am    
   16    7    8 1     
   17    8    9 2     
   18    8   28 1     
   19    9   10 1     
   20    9   29 1     
   21   10   11 2     
   22   10   30 1     
   23   11   12 1     
   24   11   31 1     
   25   12   13 2     
   26   14   19 1     
   27   14   15 1     
   28   14   32 1     
   29   15   16 1     
   30   15   33 1     
   31   15   34 1     
   32   16   20 1     
   33   16   17 1     
   34   16   35 1     
   35   17   18 1     
   36   17   36 1     
   37   17   37 1     
   38   18   19 1     
   39   18   38 1     
   40   18   39 1     
   41   19   20 1     
   42   19   40 1     
   43   20   41 1     
   44   20   42 1     
   45    5   43 1     
   46    5   44 1     
   47   13   45 1     
   48   13   46 1     
@<TRIPOS>SUBSTRUCTURE
      1 S1             1
@<TRIPOS>SET
LONE_PAIRS      STATIC     ATOMS    <user>   **** ""
4 43 44 45 46
DONOR_HYDROGENS      STATIC     ATOMS    <user>   **** ""
1 25
ATOM$BLUE        STATIC     ATOMS    COLORGROUP SYSTEM
4 43 44 45 46
ATOM$RED        STATIC     ATOMS    COLORGROUP SYSTEM
1 25
