AV-unprocessed.smi:3194|AV-procd|sdf|12209|dock3
  -GOLD-   2272018 43D 1   1.00000     0.00000
 Structure written by MMmdl.
 28 28  0  0  0  0  0  0  0  0  1 V2000
  150.5474  139.1816  153.9011 C   0  0  0  0  0  0  0  0  0  0  0  0
  150.2240  140.4548  154.6977 C   0  0  1  0  0  0  0  0  0  0  0  0
  148.7677  140.9180  154.4962 C   0  0  0  0  0  0  0  0  0  0  0  0
  148.6789  142.3242  154.5894 O   0  0  0  0  0  0  0  0  0  0  0  0
  150.4878  140.2092  156.1126 N   0  0  0  0  0  0  0  0  0  0  0  0
  151.6368  139.7379  156.6261 C   0  0  0  0  0  0  0  0  0  0  0  0
  152.6210  139.4708  155.9357 O   0  0  0  0  0  0  0  0  0  0  0  0
  151.6804  139.5280  158.1473 C   0  0  0  0  0  0  0  0  0  0  0  0
  150.7246  138.6608  158.4890 F   0  0  0  0  0  0  0  0  0  0  0  0
  152.8561  138.9914  158.4849 F   0  0  0  0  0  0  0  0  0  0  0  0
  151.4774  140.8561  158.8715 C   0  0  0  0  0  0  0  0  0  0  0  0
  151.7641  140.9850  160.2497 C   0  0  0  0  0  0  0  0  0  0  0  0
  151.5463  142.2295  160.8716 C   0  0  0  0  0  0  0  0  0  0  0  0
  151.0501  143.2969  160.0997 C   0  0  0  0  0  0  0  0  0  0  0  0
  150.7910  143.0706  158.7338 C   0  0  0  0  0  0  0  0  0  0  0  0
  150.9959  141.8815  158.1281 N   0  0  0  0  0  0  0  0  0  0  0  0
  150.8967  141.2442  154.3565 H   0  0  0  0  0  0  0  0  0  0  0  0
  150.4064  139.3379  152.8314 H   0  0  0  0  0  0  0  0  0  0  0  0
  149.9090  138.3506  154.2028 H   0  0  0  0  0  0  0  0  0  0  0  0
  151.5836  138.8776  154.0527 H   0  0  0  0  0  0  0  0  0  0  0  0
  148.3805  140.5886  153.5314 H   0  0  0  0  0  0  0  0  0  0  0  0
  148.1185  140.4961  155.2642 H   0  0  0  0  0  0  0  0  0  0  0  0
  148.5336  142.5567  155.4938 H   0  0  0  0  0  0  0  0  0  0  0  0
  149.7307  140.3972  156.7542 H   0  0  0  0  0  0  0  0  0  0  0  0
  152.1379  140.1496  160.8231 H   0  0  0  0  0  0  0  0  0  0  0  0
  151.7548  142.3618  161.9230 H   0  0  0  0  0  0  0  0  0  0  0  0
  150.8711  144.2652  160.5434 H   0  0  0  0  0  0  0  0  0  0  0  0
  150.4082  143.8655  158.1110 H   0  0  0  0  0  0  0  0  0  0  0  0
  1  2  1  0  0  0  0
  1 18  1  0  0  0  0
  1 19  1  0  0  0  0
  1 20  1  0  0  0  0
  2 17  1  0  0  0  0
  2  3  1  0  0  0  0
  2  5  1  0  0  0  0
  3  4  1  0  0  0  0
  3 21  1  0  0  0  0
  3 22  1  0  0  0  0
  4 23  1  0  0  0  0
  5  6  1  0  0  0  0
  5 24  1  0  0  0  0
  6  7  2  0  0  0  0
  6  8  1  0  0  0  0
  8  9  1  0  0  0  0
  8 10  1  0  0  0  0
  8 11  1  0  0  0  0
 11 16  1  0  0  0  0
 11 12  2  0  0  0  0
 12 13  1  0  0  0  0
 12 25  1  0  0  0  0
 13 14  2  0  0  0  0
 13 26  1  0  0  0  0
 14 15  1  0  0  0  0
 14 27  1  0  0  0  0
 15 16  2  0  0  0  0
 15 28  1  0  0  0  0
M  END
> <s_m_source_file>
AV-unprocessed.smi

> <i_m_source_file_index>
3194

> <i_lp_mmshare_version>
43012

> <i_f3d_flags>
0

> <s_epik_input>
W09IXVtDSDJdW0NASF0oW0NIM10pW05IXUMoPU8pQyhGKShGKWMxW2NIXVtjSF1bY0hdW2NIXW4x

> <s_epik_cmdline>
J2VwaWtfcHl0aG9uJywgJy1waCcsICc3LjAnLCAnLXRuJywgJzgnLCAnLW1hJywgJzIwMCcsICctbWV0YWxfYmluZGluZycsICctaW1hZScsICc8aW5maWxlLm1hZT4nLCAnLW9tYWUnLCAnPG91dGZpbGUubWFlPic=

> <r_lp_tautomer_probability>
1

> <r_epik_Ionization_Penalty>
3.67967e-05

> <r_epik_Ionization_Penalty_Charging>
0

> <r_epik_Ionization_Penalty_Neutral>
3.67967e-05

> <r_epik_State_Penalty>
-0

> <r_epik_Charging_Adjusted_Penalty>
0

> <i_epik_Tot_Q>
0

> <i_epik_Tot_abs_Q>
0

> <r_epik_Metal_State_Penalty>
0.0311521

> <b_epik_Metal_Only>
0

> <s_lp_Force_Field>
OPLS_2005

> <r_lp_Energy>
9.58736

> <b_lp_Chiralities_Consistent>
1

> <s_lp_Variant>
AV-unprocessed.smi:3194-1

> <Gold.Version>
5.8.1

> <Gold.Id.Protein>
6NUR|6NUR_protein|mol2

> <Gold.PLP.Fitness>
42.9840

> <Gold.PLP.PLP>
-35.2718

> <Gold.PLP.part.hbond>
-3.0000

> <Gold.PLP.part.metal>
0.0000

> <Gold.PLP.part.buried>
0.7073

> <Gold.PLP.part.nonpolar>
-31.8950

> <Gold.PLP.part.repulsive>
0.1542

> <Gold.PLP.ligand.clash>
0.0000

> <Gold.PLP.ligand.torsion>
0.9619

> <Gold.PLP.Chemscore.Hbond>
2.2000

> <Gold.PLP.Chemscore.CHOScore>
1.0000

> <Gold.PLP.Chemscore.Metal>
0.0000

> <Gold.Chemscore.Hbonds>
donor molecule, donor type, donor heavy atom, donor atom, acceptor molecule, acceptor atom, score
      L1  H     4    23       P1  8028  0.08
      P1  H  7997  8010       L1     7  1.00

> <Gold.PLP.Chemscore.Internal.Correction>
0.0360

> <Gold.Rescore>
     Score         DG    S(hbond)    S(metal)    S(lipo)     H(rot)  DE(clash)    DE(int)     intcor
     11.93     -16.06       1.89        0.00      91.04       2.50       0.15       3.98       ----

> <Gold.Chemscore.Fitness>
11.9300

> <Gold.Chemscore.DG>
-16.0589

> <Gold.Chemscore.ZeroCoef>
-5.4800

> <Gold.Chemscore.Hbond>
1.8921

> <Gold.Chemscore.Metal>
0.0000

> <Gold.Chemscore.Lipo>
91.0386

> <Gold.Chemscore.Internal_Hbond>
0.0000

> <Gold.Chemscore.DEClash>
0.1482

> <Gold.Chemscore.DEInternal>
3.9807

> <Gold.Chemscore.Rot>
2.4970

> <Gold.Chemscore.Internal.Correction>
   9.000000E+99

> <Gold.Chemscore.Hbonds>
donor molecule, donor type, donor heavy atom, donor atom, acceptor molecule, acceptor atom, score
      L1  H     4    23       P1  8028  0.08
      P1  H  7997  8010       L1     7  1.00

> <Gold.Chemscore.Hbond.Weighted>
-6.3195

> <Gold.Chemscore.Metal.Weighted>
-0.0000

> <Gold.Chemscore.Lipo.Weighted>
-10.6515

> <Gold.Chemscore.Internal_Hbond.Weighted>
0.0000

> <Gold.Chemscore.DEClash.Weighted>
0.1482

> <Gold.Chemscore.DEInternal.Weighted>
3.9807

> <Gold.Chemscore.Rot.Weighted>
6.3922

> <Gold.Chemscore.Internal.Correction.Weighted>
   9.000000E+99

> <Gold.Protein.RotatedTorsions>
[ 6907 6896 6895 6894 ] final  111.66 input  -60.11 | X-H torsion
[ 7974 7965 7964 7962 ] final  105.66 input  175.53 | X-H torsion
[ 8008 7997 7996 7995 ] final   83.05 input   59.86 | X-H torsion
[ 10167 10162 10161 10158 ] final  -35.74 input  -65.29 | X-H torsion
[ 10718 10713 10712 10709 ] final -152.50 input   66.30 | X-H torsion
[ 10763 10752 10751 10750 ] final -165.09 input  -60.55 | X-H torsion
[ 11005 11000 10999 10996 ] final    1.34 input  -57.11 | X-H torsion

> <Gold.Protein.ActiveResidues>
 VAL166  LYS551  ARG553  GLY616  TRP617  ASP618  TYR619  PRO620  LYS621  CYS622 
 ASP623  PHE694  ASN695  SER759  ASP760  ASP761  ALA762  ILE779  LEU786  VAL792 
 PHE793  MET794  SER795  GLU796  ALA797  LYS798  CYS799  TRP800  GLU811  SER814 

> <Gold.Protein.RotatedAtoms>
  152.4957  133.8625  159.7257 H   0  0  0  0  0  0  0  0  0  0  0  0  # atno 6907 bound_to 6896
  150.9133  133.6961  159.2856 H   0  0  0  0  0  0  0  0  0  0  0  0  # atno 6908 bound_to 6896
  151.4363  135.1019  159.9709 H   0  0  0  0  0  0  0  0  0  0  0  0  # atno 6909 bound_to 6896
  145.3168  139.2524  143.3733 H   0  0  0  0  0  0  0  0  0  0  0  0  # atno 7974 bound_to 7965
  155.9188  140.3422  155.6156 H   0  0  0  0  0  0  0  0  0  0  0  0  # atno 8008 bound_to 7997
  155.7298  140.0794  157.2312 H   0  0  0  0  0  0  0  0  0  0  0  0  # atno 8009 bound_to 7997
  154.4066  140.1590  156.2483 H   0  0  0  0  0  0  0  0  0  0  0  0  # atno 8010 bound_to 7997
  140.7158  143.3457  151.2262 H   0  0  0  0  0  0  0  0  0  0  0  0  # atno 10167 bound_to 10162
  156.4734  130.8269  151.2498 H   0  0  0  0  0  0  0  0  0  0  0  0  # atno 10718 bound_to 10713
  154.6966  135.2980  154.9403 H   0  0  0  0  0  0  0  0  0  0  0  0  # atno 10763 bound_to 10752
  154.0349  135.6665  153.4788 H   0  0  0  0  0  0  0  0  0  0  0  0  # atno 10764 bound_to 10752
  153.0650  135.5093  154.8086 H   0  0  0  0  0  0  0  0  0  0  0  0  # atno 10765 bound_to 10752
  140.6166  133.9700  155.8203 H   0  0  0  0  0  0  0  0  0  0  0  0  # atno 11005 bound_to 11000
  146.3097  140.3716  142.8675 LP  0  0  0  0  0  0  0  0  0  0  0  0  # atno 17320 bound_to 7965
  144.8971  140.7597  143.5890 LP  0  0  0  0  0  0  0  0  0  0  0  0  # atno 17321 bound_to 7965
  139.6975  143.9588  152.2890 LP  0  0  0  0  0  0  0  0  0  0  0  0  # atno 17342 bound_to 10162
  139.9270  144.6765  150.8402 LP  0  0  0  0  0  0  0  0  0  0  0  0  # atno 17343 bound_to 10162
  157.7489  131.0069  150.3168 LP  0  0  0  0  0  0  0  0  0  0  0  0  # atno 17370 bound_to 10713
  156.3595  130.3844  149.7263 LP  0  0  0  0  0  0  0  0  0  0  0  0  # atno 17371 bound_to 10713
  141.0771  134.0118  157.3441 LP  0  0  0  0  0  0  0  0  0  0  0  0  # atno 17394 bound_to 11000
  139.9170  135.0197  156.7921 LP  0  0  0  0  0  0  0  0  0  0  0  0  # atno 17395 bound_to 11000

$$$$
