AV-unprocessed.smi:2905|AV-procd|sdf|11161|dock7
  -GOLD-   2272016 43D 1   1.00000     0.00000
 Structure written by MMmdl.
 39 40  0  0  0  0  0  0  0  0  1 V2000
  151.8103  131.3505  158.2076 C   0  0  0  0  0  0  0  0  0  0  0  0
  151.1586  130.5412  157.0596 C   0  0  0  0  0  0  0  0  0  0  0  0
  152.2928  129.8108  156.3118 C   0  0  0  0  0  0  0  0  0  0  0  0
  150.1963  129.5241  157.7065 C   0  0  0  0  0  0  0  0  0  0  0  0
  150.3847  131.4431  156.0810 C   0  0  0  0  0  0  0  0  0  0  0  0
  150.3253  132.7561  156.3390 N   0  0  0  0  0  0  0  0  0  0  0  0
  149.6433  133.5363  155.4734 C   0  0  0  0  0  0  0  0  0  0  0  0
  149.0110  132.9967  154.3279 C   0  0  0  0  0  0  0  0  0  0  0  0
  148.2526  133.7389  153.3839 N   0  0  0  0  0  0  0  0  0  0  0  0
  147.1705  133.3505  152.6817 C   0  0  0  0  0  0  0  0  0  0  0  0
  146.6030  132.2684  152.8127 O   0  0  0  0  0  0  0  0  0  0  0  0
  146.7132  134.2764  151.8196 N   0  0  0  0  0  0  0  0  0  0  0  0
  145.5673  134.1785  150.9135 C   0  0  0  0  0  0  0  0  0  0  0  0
  144.2079  134.1635  151.6588 C   0  0  0  0  0  0  0  0  0  0  0  0
  143.4482  133.0510  150.9891 C   0  0  0  0  0  0  0  0  0  0  0  0
  144.2035  132.3624  150.1358 C   0  0  0  0  0  0  0  0  0  0  0  0
  145.6143  132.8813  150.0704 C   0  0  0  0  0  0  0  0  0  0  0  0
  149.1297  131.6025  154.1614 C   0  0  0  0  0  0  0  0  0  0  0  0
  149.8165  130.8336  155.0326 N   0  0  0  0  0  0  0  0  0  0  0  0
  152.3531  130.6992  158.8936 H   0  0  0  0  0  0  0  0  0  0  0  0
  151.0649  131.8862  158.7970 H   0  0  0  0  0  0  0  0  0  0  0  0
  152.5243  132.0835  157.8294 H   0  0  0  0  0  0  0  0  0  0  0  0
  152.9824  130.5195  155.8519 H   0  0  0  0  0  0  0  0  0  0  0  0
  151.9059  129.1686  155.5198 H   0  0  0  0  0  0  0  0  0  0  0  0
  152.8711  129.1777  156.9857 H   0  0  0  0  0  0  0  0  0  0  0  0
  150.7137  128.8878  158.4254 H   0  0  0  0  0  0  0  0  0  0  0  0
  149.7436  128.8672  156.9633 H   0  0  0  0  0  0  0  0  0  0  0  0
  149.3865  130.0283  158.2352 H   0  0  0  0  0  0  0  0  0  0  0  0
  149.5978  134.5832  155.7293 H   0  0  0  0  0  0  0  0  0  0  0  0
  148.5548  134.6909  153.2373 H   0  0  0  0  0  0  0  0  0  0  0  0
  147.1955  135.1636  151.8180 H   0  0  0  0  0  0  0  0  0  0  0  0
  145.5769  135.0194  150.2174 H   0  0  0  0  0  0  0  0  0  0  0  0
  144.3157  133.9351  152.7201 H   0  0  0  0  0  0  0  0  0  0  0  0
  143.6806  135.1125  151.5590 H   0  0  0  0  0  0  0  0  0  0  0  0
  142.4121  132.8433  151.2119 H   0  0  0  0  0  0  0  0  0  0  0  0
  143.8752  131.5101  149.5595 H   0  0  0  0  0  0  0  0  0  0  0  0
  145.9104  133.0782  149.0396 H   0  0  0  0  0  0  0  0  0  0  0  0
  146.2894  132.1340  150.4894 H   0  0  0  0  0  0  0  0  0  0  0  0
  148.6720  131.0975  153.3234 H   0  0  0  0  0  0  0  0  0  0  0  0
  1  2  1  0  0  0  0
  1 20  1  0  0  0  0
  1 21  1  0  0  0  0
  1 22  1  0  0  0  0
  2  3  1  0  0  0  0
  2  4  1  0  0  0  0
  2  5  1  0  0  0  0
  3 23  1  0  0  0  0
  3 24  1  0  0  0  0
  3 25  1  0  0  0  0
  4 26  1  0  0  0  0
  4 27  1  0  0  0  0
  4 28  1  0  0  0  0
  5 19  1  0  0  0  0
  5  6  2  0  0  0  0
  6  7  1  0  0  0  0
  7  8  2  0  0  0  0
  7 29  1  0  0  0  0
  8  9  1  0  0  0  0
  8 18  1  0  0  0  0
  9 10  1  0  0  0  0
  9 30  1  0  0  0  0
 10 11  2  0  0  0  0
 10 12  1  0  0  0  0
 12 13  1  0  0  0  0
 12 31  1  0  0  0  0
 13 17  1  0  0  0  0
 13 14  1  0  0  0  0
 13 32  1  0  0  0  0
 14 15  1  0  0  0  0
 14 33  1  0  0  0  0
 14 34  1  0  0  0  0
 15 16  2  0  0  0  0
 15 35  1  0  0  0  0
 16 17  1  0  0  0  0
 16 36  1  0  0  0  0
 17 37  1  0  0  0  0
 17 38  1  0  0  0  0
 18 19  2  0  0  0  0
 18 39  1  0  0  0  0
M  END
> <s_m_source_file>
AV-unprocessed.smi

> <i_m_source_file_index>
2905

> <i_lp_mmshare_version>
43012

> <i_f3d_flags>
0

> <s_epik_input>
W0NIM11DKFtDSDNdKShbQ0gzXSljMW5bY0hdYyhbY0hdbjEpW05IXUMoPU8pW05IXVtDSF0yW0NIMl1bQ0hdPVtDSF1bQ0gyXTI=

> <s_epik_cmdline>
J2VwaWtfcHl0aG9uJywgJy1waCcsICc3LjAnLCAnLXRuJywgJzgnLCAnLW1hJywgJzIwMCcsICctbWV0YWxfYmluZGluZycsICctaW1hZScsICc8aW5maWxlLm1hZT4nLCAnLW9tYWUnLCAnPG91dGZpbGUubWFlPic=

> <r_lp_tautomer_probability>
1

> <r_epik_Ionization_Penalty>
2.65275e-05

> <r_epik_Ionization_Penalty_Charging>
0

> <r_epik_Ionization_Penalty_Neutral>
2.65275e-05

> <r_epik_State_Penalty>
-0

> <r_epik_Charging_Adjusted_Penalty>
0

> <i_epik_Tot_Q>
0

> <i_epik_Tot_abs_Q>
0

> <r_epik_Metal_State_Penalty>
-0

> <b_epik_Metal_Only>
0

> <s_lp_Force_Field>
OPLS_2005

> <r_lp_Energy>
27.7511

> <b_lp_Chiralities_Consistent>
1

> <s_lp_Variant>
AV-unprocessed.smi:2905-1

> <Gold.Version>
5.8.1

> <Gold.Id.Protein>
6NUR|6NUR_protein|mol2

> <Gold.PLP.Fitness>
39.1531

> <Gold.PLP.PLP>
-31.1938

> <Gold.PLP.part.hbond>
-2.0000

> <Gold.PLP.part.metal>
0.0000

> <Gold.PLP.part.buried>
-3.3262

> <Gold.PLP.part.nonpolar>
-24.8205

> <Gold.PLP.part.repulsive>
0.2312

> <Gold.PLP.ligand.clash>
0.0000

> <Gold.PLP.ligand.torsion>
0.3136

> <Gold.PLP.Chemscore.Hbond>
1.8603

> <Gold.PLP.Chemscore.CHOScore>
1.0000

> <Gold.PLP.Chemscore.Metal>
0.0000

> <Gold.Chemscore.Hbonds>
donor molecule, donor type, donor heavy atom, donor atom, acceptor molecule, acceptor atom, score
      L1  H     9    30       P1  7948  0.84
      L1  H    12    31       P1  7948  0.98

> <Gold.PLP.Chemscore.Internal.Correction>
0.0057

> <Gold.Rescore>
     Score         DG    S(hbond)    S(metal)    S(lipo)     H(rot)  DE(clash)    DE(int)     intcor
     11.07     -13.86       0.97        0.00      69.58       1.17       0.01       2.79       ----

> <Gold.Chemscore.Fitness>
11.0706

> <Gold.Chemscore.DG>
-13.8640

> <Gold.Chemscore.ZeroCoef>
-5.4800

> <Gold.Chemscore.Hbond>
0.9694

> <Gold.Chemscore.Metal>
0.0000

> <Gold.Chemscore.Lipo>
69.5806

> <Gold.Chemscore.Internal_Hbond>
0.0000

> <Gold.Chemscore.DEClash>
0.0060

> <Gold.Chemscore.DEInternal>
2.7874

> <Gold.Chemscore.Rot>
1.1699

> <Gold.Chemscore.Internal.Correction>
   9.000000E+99

> <Gold.Chemscore.Hbonds>
donor molecule, donor type, donor heavy atom, donor atom, acceptor molecule, acceptor atom, score
      L1  H     9    30       P1  7948  0.35
      L1  H    12    31       P1  7948  0.85

> <Gold.Chemscore.Hbond.Weighted>
-3.2379

> <Gold.Chemscore.Metal.Weighted>
-0.0000

> <Gold.Chemscore.Lipo.Weighted>
-8.1409

> <Gold.Chemscore.Internal_Hbond.Weighted>
0.0000

> <Gold.Chemscore.DEClash.Weighted>
0.0060

> <Gold.Chemscore.DEInternal.Weighted>
2.7874

> <Gold.Chemscore.Rot.Weighted>
2.9949

> <Gold.Chemscore.Internal.Correction.Weighted>
   9.000000E+99

> <Gold.Protein.RotatedTorsions>
[ 6907 6896 6895 6894 ] final  -51.59 input  -60.11 | X-H torsion
[ 7974 7965 7964 7962 ] final  137.70 input  175.53 | X-H torsion
[ 8008 7997 7996 7995 ] final   28.35 input   59.86 | X-H torsion
[ 10167 10162 10161 10158 ] final  -77.78 input  -65.29 | X-H torsion
[ 10718 10713 10712 10709 ] final   38.36 input   66.30 | X-H torsion
[ 10763 10752 10751 10750 ] final   51.12 input  -60.55 | X-H torsion
[ 11005 11000 10999 10996 ] final   54.66 input  -57.11 | X-H torsion

> <Gold.Protein.ActiveResidues>
 VAL166  LYS551  ARG553  GLY616  TRP617  ASP618  TYR619  PRO620  LYS621  CYS622 
 ASP623  PHE694  ASN695  SER759  ASP760  ASP761  ALA762  ILE779  LEU786  VAL792 
 PHE793  MET794  SER795  GLU796  ALA797  LYS798  CYS799  TRP800  GLU811  SER814 

> <Gold.Protein.RotatedAtoms>
  150.8597  134.7946  159.7073 H   0  0  0  0  0  0  0  0  0  0  0  0  # atno 6907 bound_to 6896
  152.4638  134.5120  159.9766 H   0  0  0  0  0  0  0  0  0  0  0  0  # atno 6908 bound_to 6896
  151.5226  133.3425  159.2939 H   0  0  0  0  0  0  0  0  0  0  0  0  # atno 6909 bound_to 6896
  144.9443  139.4894  143.5557 H   0  0  0  0  0  0  0  0  0  0  0  0  # atno 7974 bound_to 7965
  155.0573  140.3186  155.4672 H   0  0  0  0  0  0  0  0  0  0  0  0  # atno 8008 bound_to 7997
  156.2821  140.2135  156.5643 H   0  0  0  0  0  0  0  0  0  0  0  0  # atno 8009 bound_to 7997
  154.7161  140.0493  157.0584 H   0  0  0  0  0  0  0  0  0  0  0  0  # atno 8010 bound_to 7997
  140.4740  143.2419  151.8161 H   0  0  0  0  0  0  0  0  0  0  0  0  # atno 10167 bound_to 10162
  157.3579  130.7633  149.7026 H   0  0  0  0  0  0  0  0  0  0  0  0  # atno 10718 bound_to 10713
  152.9785  135.5856  154.4363 H   0  0  0  0  0  0  0  0  0  0  0  0  # atno 10763 bound_to 10752
  154.3970  135.2768  155.2122 H   0  0  0  0  0  0  0  0  0  0  0  0  # atno 10764 bound_to 10752
  154.3969  135.6112  153.5929 H   0  0  0  0  0  0  0  0  0  0  0  0  # atno 10765 bound_to 10752
  140.0668  134.5524  155.9090 H   0  0  0  0  0  0  0  0  0  0  0  0  # atno 11005 bound_to 11000
  146.3297  139.8484  142.8877 LP  0  0  0  0  0  0  0  0  0  0  0  0  # atno 17320 bound_to 7965
  145.2943  141.0176  143.3645 LP  0  0  0  0  0  0  0  0  0  0  0  0  # atno 17321 bound_to 7965
  139.4823  144.4856  151.9251 LP  0  0  0  0  0  0  0  0  0  0  0  0  # atno 17342 bound_to 10162
  140.3941  144.2577  150.5897 LP  0  0  0  0  0  0  0  0  0  0  0  0  # atno 17343 bound_to 10162
  155.9732  130.4122  150.4020 LP  0  0  0  0  0  0  0  0  0  0  0  0  # atno 17370 bound_to 10713
  157.2093  131.0456  151.2608 LP  0  0  0  0  0  0  0  0  0  0  0  0  # atno 17371 bound_to 10713
  141.1996  133.6608  156.5853 LP  0  0  0  0  0  0  0  0  0  0  0  0  # atno 17394 bound_to 11000
  140.3686  134.7625  157.4583 LP  0  0  0  0  0  0  0  0  0  0  0  0  # atno 17395 bound_to 11000

$$$$
