AV-unprocessed.smi:177|AV-procd|sdf|1444|dock3
  -GOLD-   2262019233D 1   1.00000     0.00000
 Structure written by MMmdl.
 61 65  0  0  0  0  0  0  0  0  1 V2000
  151.4678  145.4564  159.9094 C   0  0  0  0  0  0  0  0  0  0  0  0
  150.7636  144.3177  159.4369 O   0  0  0  0  0  0  0  0  0  0  0  0
  151.5787  143.3368  158.8072 C   0  0  1  0  0  0  0  0  0  0  0  0
  152.6350  142.8924  159.8339 C   0  0  0  0  0  0  0  0  0  0  0  0
  153.5204  141.7659  159.2799 C   0  0  0  0  0  0  0  0  0  0  0  0
  152.6646  140.5737  158.8277 C   0  0  2  0  0  0  0  0  0  0  0  0
  153.5152  139.5650  158.2919 O   0  0  0  0  0  0  0  0  0  0  0  0
  152.7875  138.3975  157.9260 C   0  0  0  0  0  0  0  0  0  0  0  0
  151.7621  138.7579  156.8404 C   0  0  0  0  0  0  0  0  0  0  0  0
  150.8854  139.8292  157.3058 N   0  0  0  0  0  0  0  0  0  0  0  0
  149.8785  140.0996  156.4438 C   0  0  0  0  0  0  0  0  0  0  0  0
  150.1528  140.5540  155.1925 N   0  0  0  0  0  0  0  0  0  0  0  0
  149.1523  140.8628  154.3619 C   0  0  0  0  0  0  0  0  0  0  0  0
  147.8365  140.8036  154.5802 N   0  0  0  0  0  0  0  0  0  0  0  0
  147.5621  140.3527  155.8384 C   0  0  0  0  0  0  0  0  0  0  0  0
  148.5164  139.9731  156.8220 C   0  0  0  0  0  0  0  0  0  0  0  0
  147.8723  139.5605  157.9805 N   0  0  0  0  0  0  0  0  0  0  0  0
  146.6046  139.6907  157.6980 C   0  0  0  0  0  0  0  0  0  0  0  0
  146.3276  140.1843  156.4418 N   0  0  0  0  0  0  0  0  0  0  0  0
  145.0115  140.4387  155.8728 C   0  0  0  0  0  0  0  0  0  0  0  0
  144.2522  141.6729  156.4529 C   0  0  0  0  0  0  0  0  0  0  0  0
  142.7415  141.4879  156.1314 C   0  0  0  0  0  0  0  0  0  0  0  0
  142.4373  141.7771  154.7813 O   0  0  0  0  0  0  0  0  0  0  0  0
  144.4896  141.8182  157.9794 C   0  0  0  0  0  0  0  0  0  0  0  0
  143.9167  143.1292  158.5473 C   0  0  0  0  0  0  0  0  0  0  0  0
  144.4844  144.2403  157.8645 O   0  0  0  0  0  0  0  0  0  0  0  0
  144.1887  144.2499  156.4733 C   0  0  0  0  0  0  0  0  0  0  0  0
  144.7617  142.9865  155.8033 C   0  0  0  0  0  0  0  0  0  0  0  0
  151.6333  141.0065  157.7591 C   0  0  1  0  0  0  0  0  0  0  0  0
  150.7377  142.1335  158.3302 C   0  0  0  0  0  0  0  0  0  0  0  0
  150.7767  146.1147  160.4355 H   0  0  0  0  0  0  0  0  0  0  0  0
  151.9108  146.0302  159.0957 H   0  0  0  0  0  0  0  0  0  0  0  0
  152.2551  145.1739  160.6093 H   0  0  0  0  0  0  0  0  0  0  0  0
  152.0966  143.7818  157.9554 H   0  0  0  0  0  0  0  0  0  0  0  0
  153.2547  143.7424  160.1212 H   0  0  0  0  0  0  0  0  0  0  0  0
  152.1404  142.5495  160.7437 H   0  0  0  0  0  0  0  0  0  0  0  0
  154.1093  142.1390  158.4409 H   0  0  0  0  0  0  0  0  0  0  0  0
  154.2319  141.4460  160.0416 H   0  0  0  0  0  0  0  0  0  0  0  0
  152.1455  140.1691  159.6992 H   0  0  0  0  0  0  0  0  0  0  0  0
  153.4841  137.6475  157.5512 H   0  0  0  0  0  0  0  0  0  0  0  0
  152.2962  137.9680  158.8008 H   0  0  0  0  0  0  0  0  0  0  0  0
  152.2871  139.0724  155.9373 H   0  0  0  0  0  0  0  0  0  0  0  0
  151.1698  137.8794  156.5808 H   0  0  0  0  0  0  0  0  0  0  0  0
  149.4485  141.2159  153.3853 H   0  0  0  0  0  0  0  0  0  0  0  0
  145.8301  139.4413  158.4087 H   0  0  0  0  0  0  0  0  0  0  0  0
  145.1335  140.5542  154.7949 H   0  0  0  0  0  0  0  0  0  0  0  0
  144.4201  139.5325  156.0083 H   0  0  0  0  0  0  0  0  0  0  0  0
  142.3983  140.4746  156.3306 H   0  0  0  0  0  0  0  0  0  0  0  0
  142.1380  142.1405  156.7633 H   0  0  0  0  0  0  0  0  0  0  0  0
  142.8775  141.1463  154.2321 H   0  0  0  0  0  0  0  0  0  0  0  0
  144.0784  140.9652  158.5198 H   0  0  0  0  0  0  0  0  0  0  0  0
  145.5574  141.8206  158.1930 H   0  0  0  0  0  0  0  0  0  0  0  0
  142.8288  143.1573  158.4813 H   0  0  0  0  0  0  0  0  0  0  0  0
  144.1650  143.2114  159.6055 H   0  0  0  0  0  0  0  0  0  0  0  0
  143.1143  144.3438  156.3151 H   0  0  0  0  0  0  0  0  0  0  0  0
  144.6422  145.1374  156.0316 H   0  0  0  0  0  0  0  0  0  0  0  0
  145.8460  143.0526  155.8869 H   0  0  0  0  0  0  0  0  0  0  0  0
  144.5391  142.9951  154.7357 H   0  0  0  0  0  0  0  0  0  0  0  0
  152.1751  141.4048  156.8993 H   0  0  0  0  0  0  0  0  0  0  0  0
  150.1421  141.7482  159.1591 H   0  0  0  0  0  0  0  0  0  0  0  0
  150.0328  142.4694  157.5706 H   0  0  0  0  0  0  0  0  0  0  0  0
  1  2  1  0  0  0  0
  1 31  1  0  0  0  0
  1 32  1  0  0  0  0
  1 33  1  0  0  0  0
  2  3  1  0  0  0  0
  3 30  1  0  0  0  0
  3  4  1  0  0  0  0
  3 34  1  0  0  0  0
  4  5  1  0  0  0  0
  4 35  1  0  0  0  0
  4 36  1  0  0  0  0
  5  6  1  0  0  0  0
  5 37  1  0  0  0  0
  5 38  1  0  0  0  0
  6 29  1  0  0  0  0
  6  7  1  0  0  0  0
  6 39  1  0  0  0  0
  7  8  1  0  0  0  0
  8  9  1  0  0  0  0
  8 40  1  0  0  0  0
  8 41  1  0  0  0  0
  9 10  1  0  0  0  0
  9 42  1  0  0  0  0
  9 43  1  0  0  0  0
 10 11  1  0  0  0  0
 10 29  1  0  0  0  0
 11 16  1  0  0  0  0
 11 12  2  0  0  0  0
 12 13  1  0  0  0  0
 13 14  2  0  0  0  0
 13 44  1  0  0  0  0
 14 15  1  0  0  0  0
 15 19  1  0  0  0  0
 15 16  2  0  0  0  0
 16 17  1  0  0  0  0
 17 18  2  0  0  0  0
 18 19  1  0  0  0  0
 18 45  1  0  0  0  0
 19 20  1  0  0  0  0
 20 21  1  0  0  0  0
 20 46  1  0  0  0  0
 20 47  1  0  0  0  0
 21 28  1  0  0  0  0
 21 22  1  0  0  0  0
 21 24  1  0  0  0  0
 22 23  1  0  0  0  0
 22 48  1  0  0  0  0
 22 49  1  0  0  0  0
 23 50  1  0  0  0  0
 24 25  1  0  0  0  0
 24 51  1  0  0  0  0
 24 52  1  0  0  0  0
 25 26  1  0  0  0  0
 25 53  1  0  0  0  0
 25 54  1  0  0  0  0
 26 27  1  0  0  0  0
 27 28  1  0  0  0  0
 27 55  1  0  0  0  0
 27 56  1  0  0  0  0
 28 57  1  0  0  0  0
 28 58  1  0  0  0  0
 29 30  1  0  0  0  0
 29 59  1  0  0  0  0
 30 60  1  0  0  0  0
 30 61  1  0  0  0  0
M  END
> <s_m_source_file>
AV-unprocessed.smi

> <i_m_source_file_index>
177

> <i_lp_mmshare_version>
43012

> <i_f3d_flags>
0

> <s_epik_input>
W0NIM11PW0NASF0oW0NIMl1bQ0gyXTEpW0NIMl1bQ0BIXShbQ0BASF0xMilOKFtDSDJdW0NIMl1PMiljKG5bY0hdbjMpYyhjMzQpbltjSF1uNFtDSDJdQzUoW0NIMl1bT0hdKVtDSDJdW0NIMl1PW0NIMl1bQ0gyXTU=

> <s_epik_cmdline>
J2VwaWtfcHl0aG9uJywgJy1waCcsICc3LjAnLCAnLXRuJywgJzgnLCAnLW1hJywgJzIwMCcsICctbWV0YWxfYmluZGluZycsICctaW1hZScsICc8aW5maWxlLm1hZT4nLCAnLW9tYWUnLCAnPG91dGZpbGUubWFlPic=

> <r_lp_tautomer_probability>
1

> <r_epik_Ionization_Penalty>
0.0065899

> <r_epik_Ionization_Penalty_Charging>
0

> <r_epik_Ionization_Penalty_Neutral>
0.0065899

> <r_epik_State_Penalty>
0.00470042

> <r_epik_Charging_Adjusted_Penalty>
0.00470042

> <i_epik_Tot_Q>
0

> <i_epik_Tot_abs_Q>
0

> <r_epik_Metal_State_Penalty>
-0

> <b_epik_Metal_Only>
0

> <s_lp_Force_Field>
OPLS_2005

> <r_lp_Energy>
44.4032

> <b_lp_Chiralities_Consistent>
1

> <s_lp_Variant>
AV-unprocessed.smi:177-8

> <Gold.Version>
5.8.1

> <Gold.Id.Protein>
6NUR|6NUR_protein|mol2

> <Gold.PLP.Fitness>
43.0371

> <Gold.PLP.PLP>
-34.8894

> <Gold.PLP.part.hbond>
-4.3180

> <Gold.PLP.part.metal>
0.0000

> <Gold.PLP.part.buried>
-6.2232

> <Gold.PLP.part.nonpolar>
-25.3325

> <Gold.PLP.part.repulsive>
0.3665

> <Gold.PLP.ligand.clash>
0.0000

> <Gold.PLP.ligand.torsion>
0.7291

> <Gold.PLP.Chemscore.Hbond>
2.1764

> <Gold.PLP.Chemscore.CHOScore>
0.9806

> <Gold.PLP.Chemscore.Metal>
0.0000

> <Gold.Chemscore.Hbonds>
donor molecule, donor type, donor heavy atom, donor atom, acceptor molecule, acceptor atom, score
      L1  H    23    50       P1 10175  1.00
      P1  H  7989  7998       L1    12  0.17
      P1  H  7997  8010       L1     7  1.00
      L1  C    13    44       P1  7957  1.00

> <Gold.PLP.Chemscore.Internal.Correction>
0.1348

> <Gold.Rescore>
     Score         DG    S(hbond)    S(metal)    S(lipo)     H(rot)  DE(clash)    DE(int)     intcor
     12.45     -13.09       1.41        0.00      81.34       2.58       0.04       0.61       ----

> <Gold.Chemscore.Fitness>
12.4455

> <Gold.Chemscore.DG>
-13.0925

> <Gold.Chemscore.ZeroCoef>
-5.4800

> <Gold.Chemscore.Hbond>
1.4078

> <Gold.Chemscore.Metal>
0.0000

> <Gold.Chemscore.Lipo>
81.3403

> <Gold.Chemscore.Internal_Hbond>
0.0000

> <Gold.Chemscore.DEClash>
0.0402

> <Gold.Chemscore.DEInternal>
0.6068

> <Gold.Chemscore.Rot>
2.5806

> <Gold.Chemscore.Internal.Correction>
   9.000000E+99

> <Gold.Chemscore.Hbonds>
donor molecule, donor type, donor heavy atom, donor atom, acceptor molecule, acceptor atom, score
      L1  H    23    50       P1 10175  0.24
      P1  H  7989  7998       L1    12  0.01
      P1  H  7997  8010       L1     7  0.85

> <Gold.Chemscore.Hbond.Weighted>
-4.7019

> <Gold.Chemscore.Metal.Weighted>
-0.0000

> <Gold.Chemscore.Lipo.Weighted>
-9.5168

> <Gold.Chemscore.Internal_Hbond.Weighted>
0.0000

> <Gold.Chemscore.DEClash.Weighted>
0.0402

> <Gold.Chemscore.DEInternal.Weighted>
0.6068

> <Gold.Chemscore.Rot.Weighted>
6.6062

> <Gold.Chemscore.Internal.Correction.Weighted>
   9.000000E+99

> <Gold.Protein.RotatedTorsions>
[ 6907 6896 6895 6894 ] final  100.91 input  -60.11 | X-H torsion
[ 7974 7965 7964 7962 ] final -104.62 input  175.53 | X-H torsion
[ 8008 7997 7996 7995 ] final   22.62 input   59.86 | X-H torsion
[ 10167 10162 10161 10158 ] final -151.08 input  -65.29 | X-H torsion
[ 10718 10713 10712 10709 ] final  -10.02 input   66.30 | X-H torsion
[ 10763 10752 10751 10750 ] final  -33.55 input  -60.55 | X-H torsion
[ 11005 11000 10999 10996 ] final   -0.18 input  -57.11 | X-H torsion

> <Gold.Protein.ActiveResidues>
 VAL166  LYS551  ARG553  GLY616  TRP617  ASP618  TYR619  PRO620  LYS621  CYS622 
 ASP623  PHE694  ASN695  SER759  ASP760  ASP761  ALA762  ILE779  LEU786  VAL792 
 PHE793  MET794  SER795  GLU796  ALA797  LYS798  CYS799  TRP800  GLU811  SER814 

> <Gold.Protein.RotatedAtoms>
  152.5361  134.0205  159.7979 H   0  0  0  0  0  0  0  0  0  0  0  0  # atno 6907 bound_to 6896
  151.0392  133.5713  159.2660 H   0  0  0  0  0  0  0  0  0  0  0  0  # atno 6908 bound_to 6896
  151.2689  135.0685  159.9180 H   0  0  0  0  0  0  0  0  0  0  0  0  # atno 6909 bound_to 6896
  145.2408  140.9204  143.3151 H   0  0  0  0  0  0  0  0  0  0  0  0  # atno 7974 bound_to 7965
  154.9685  140.3087  155.4999 H   0  0  0  0  0  0  0  0  0  0  0  0  # atno 8008 bound_to 7997
  156.2969  140.2288  156.4714 H   0  0  0  0  0  0  0  0  0  0  0  0  # atno 8009 bound_to 7997
  154.7899  140.0440  157.1181 H   0  0  0  0  0  0  0  0  0  0  0  0  # atno 8010 bound_to 7997
  139.7298  143.8825  152.2531 H   0  0  0  0  0  0  0  0  0  0  0  0  # atno 10167 bound_to 10162
  156.6796  130.5033  149.5975 H   0  0  0  0  0  0  0  0  0  0  0  0  # atno 10718 bound_to 10713
  153.8321  135.6865  153.4813 H   0  0  0  0  0  0  0  0  0  0  0  0  # atno 10763 bound_to 10752
  153.1504  135.4620  154.9627 H   0  0  0  0  0  0  0  0  0  0  0  0  # atno 10764 bound_to 10752
  154.7882  135.3292  154.7783 H   0  0  0  0  0  0  0  0  0  0  0  0  # atno 10765 bound_to 10752
  140.6334  133.9554  155.8286 H   0  0  0  0  0  0  0  0  0  0  0  0  # atno 11005 bound_to 11000
  144.9591  139.3999  143.6365 LP  0  0  0  0  0  0  0  0  0  0  0  0  # atno 17320 bound_to 7965
  146.3329  139.8635  142.8852 LP  0  0  0  0  0  0  0  0  0  0  0  0  # atno 17321 bound_to 7965
  139.8745  144.7050  150.8948 LP  0  0  0  0  0  0  0  0  0  0  0  0  # atno 17342 bound_to 10162
  140.7769  143.3711  151.1648 LP  0  0  0  0  0  0  0  0  0  0  0  0  # atno 17343 bound_to 10162
  156.1877  130.6540  151.1025 LP  0  0  0  0  0  0  0  0  0  0  0  0  # atno 17370 bound_to 10713
  157.7048  131.0761  150.6702 LP  0  0  0  0  0  0  0  0  0  0  0  0  # atno 17371 bound_to 10713
  141.0659  134.0277  157.3594 LP  0  0  0  0  0  0  0  0  0  0  0  0  # atno 17394 bound_to 11000
  139.9107  135.0189  156.7680 LP  0  0  0  0  0  0  0  0  0  0  0  0  # atno 17395 bound_to 11000

$$$$
