AV-unprocessed.smi:1564|AV-procd|sdf|6296|dock8
  -GOLD-   22720 6493D 1   1.00000     0.00000
 Structure written by MMmdl.
 43 44  0  0  0  0  0  0  0  0  2 V2000
  154.5148  140.6499  161.8390 C   0  0  0  0  0  0  0  0  0  0  0  0
  154.2075  141.9493  161.3457 O   0  0  0  0  0  0  0  0  0  0  0  0
  153.2530  142.0646  160.3561 C   0  0  0  0  0  0  0  0  0  0  0  0
  152.9481  143.3468  159.8586 C   0  0  0  0  0  0  0  0  0  0  0  0
  151.9715  143.4687  158.8524 C   0  0  0  0  0  0  0  0  0  0  0  0
  151.3233  142.3111  158.3760 C   0  0  0  0  0  0  0  0  0  0  0  0
  150.3508  142.4704  157.3510 N   0  0  0  0  0  0  0  0  0  0  0  0
  149.5895  141.5345  156.7580 C   0  0  0  0  0  0  0  0  0  0  0  0
  149.5986  140.3323  157.0200 O   0  0  0  0  0  0  0  0  0  0  0  0
  148.7853  142.0785  155.8341 N   0  0  0  0  0  0  0  0  0  0  0  0
  147.8365  141.3317  155.0150 C   0  0  1  0  0  0  0  0  0  0  0  0
  147.2354  142.1085  153.8503 C   0  0  0  0  0  0  0  0  0  0  0  0
  146.7133  140.9731  152.9706 C   0  0  0  0  0  0  0  0  0  0  0  0
  147.6966  139.8677  153.0959 N   0  3  2  0  0  0  0  0  0  0  0  0
  147.1429  138.4889  152.9700 C   0  0  0  0  0  0  0  0  0  0  0  0
  146.5682  138.2493  151.5601 C   0  0  0  0  0  0  0  0  0  0  0  0
  146.0408  138.2157  154.0136 C   0  0  0  0  0  0  0  0  0  0  0  0
  148.4906  140.1316  154.3245 C   0  0  0  0  0  0  0  0  0  0  0  0
  151.7107  141.0662  158.9306 C   0  0  0  0  0  0  0  0  0  0  0  0
  152.6463  140.9428  159.8957 N   0  0  0  0  0  0  0  0  0  0  0  0
  155.2815  140.7289  162.6095 H   0  0  0  0  0  0  0  0  0  0  0  0
  154.9041  140.0043  161.0505 H   0  0  0  0  0  0  0  0  0  0  0  0
  153.6403  140.1779  162.2894 H   0  0  0  0  0  0  0  0  0  0  0  0
  153.4531  144.2205  160.2433 H   0  0  0  0  0  0  0  0  0  0  0  0
  151.7225  144.4426  158.4561 H   0  0  0  0  0  0  0  0  0  0  0  0
  150.1800  143.4241  157.0673 H   0  0  0  0  0  0  0  0  0  0  0  0
  148.8384  143.0756  155.6840 H   0  0  0  0  0  0  0  0  0  0  0  0
  147.0271  140.9665  155.6511 H   0  0  0  0  0  0  0  0  0  0  0  0
  146.4502  142.8008  154.1562 H   0  0  0  0  0  0  0  0  0  0  0  0
  148.0062  142.6738  153.3239 H   0  0  0  0  0  0  0  0  0  0  0  0
  145.7441  140.6525  153.3569 H   0  0  0  0  0  0  0  0  0  0  0  0
  146.5793  141.2780  151.9324 H   0  0  0  0  0  0  0  0  0  0  0  0
  147.9552  137.7804  153.1399 H   0  0  0  0  0  0  0  0  0  0  0  0
  146.1545  137.2441  151.4746 H   0  0  0  0  0  0  0  0  0  0  0  0
  147.3205  138.3457  150.7783 H   0  0  0  0  0  0  0  0  0  0  0  0
  145.7663  138.9536  151.3367 H   0  0  0  0  0  0  0  0  0  0  0  0
  145.6040  137.2267  153.8700 H   0  0  0  0  0  0  0  0  0  0  0  0
  145.2334  138.9450  153.9376 H   0  0  0  0  0  0  0  0  0  0  0  0
  146.4211  138.2422  155.0345 H   0  0  0  0  0  0  0  0  0  0  0  0
  149.5130  140.3610  154.0206 H   0  0  0  0  0  0  0  0  0  0  0  0
  148.5298  139.2811  155.0054 H   0  0  0  0  0  0  0  0  0  0  0  0
  151.2888  140.1313  158.5977 H   0  0  0  0  0  0  0  0  0  0  0  0
  148.3398  139.9845  152.3258 H   0  0  0  0  0  0  0  0  0  0  0  0
  1  2  1  0  0  0  0
  1 21  1  0  0  0  0
  1 22  1  0  0  0  0
  1 23  1  0  0  0  0
  2  3  1  0  0  0  0
  3 20  1  0  0  0  0
  3  4  2  0  0  0  0
  4  5  1  0  0  0  0
  4 24  1  0  0  0  0
  5  6  2  0  0  0  0
  5 25  1  0  0  0  0
  6  7  1  0  0  0  0
  6 19  1  0  0  0  0
  7  8  1  0  0  0  0
  7 26  1  0  0  0  0
  8  9  2  0  0  0  0
  8 10  1  0  0  0  0
 10 11  1  0  0  0  0
 10 27  1  0  0  0  0
 11 18  1  0  0  0  0
 11 12  1  0  0  0  0
 11 28  1  0  0  0  0
 12 13  1  0  0  0  0
 12 29  1  0  0  0  0
 12 30  1  0  0  0  0
 13 14  1  0  0  0  0
 13 31  1  0  0  0  0
 13 32  1  0  0  0  0
 14 15  1  0  0  0  0
 14 18  1  0  0  0  0
 14 43  1  0  0  0  0
 15 16  1  0  0  0  0
 15 17  1  0  0  0  0
 15 33  1  0  0  0  0
 16 34  1  0  0  0  0
 16 35  1  0  0  0  0
 16 36  1  0  0  0  0
 17 37  1  0  0  0  0
 17 38  1  0  0  0  0
 17 39  1  0  0  0  0
 18 40  1  0  0  0  0
 18 41  1  0  0  0  0
 19 20  2  0  0  0  0
 19 42  1  0  0  0  0
M  CHG  1  14   1
M  END
> <s_m_source_file>
AV-unprocessed.smi

> <i_m_source_file_index>
1564

> <i_lp_mmshare_version>
43012

> <i_f3d_flags>
0

> <s_epik_input>
W0NIM11PYzFbY0hdW2NIXWMoW2NIXW4xKVtOSF1DKD1PKVtOSF1bQ0BASF0yW0NIMl1bQ0gyXU4oW0NIMl0yKVtDSF0oW0NIM10pW0NIM10=

> <s_epik_cmdline>
J2VwaWtfcHl0aG9uJywgJy1waCcsICc3LjAnLCAnLXRuJywgJzgnLCAnLW1hJywgJzIwMCcsICctbWV0YWxfYmluZGluZycsICctaW1hZScsICc8aW5maWxlLm1hZT4nLCAnLW9tYWUnLCAnPG91dGZpbGUubWFlPic=

> <r_lp_tautomer_probability>
1

> <r_epik_Ionization_Penalty>
0.000679474

> <r_epik_Ionization_Penalty_Charging>
0.000606352

> <r_epik_Ionization_Penalty_Neutral>
7.31222e-05

> <r_epik_State_Penalty>
0.000382168

> <r_epik_Charging_Adjusted_Penalty>
0.00098852

> <i_epik_Tot_Q>
1

> <i_epik_Tot_abs_Q>
1

> <r_epik_Metal_State_Penalty>
-0

> <b_epik_Metal_Only>
0

> <s_lp_Force_Field>
OPLS_2005

> <r_lp_Energy>
33.6805

> <b_lp_Chiralities_Consistent>
1

> <s_lp_Variant>
AV-unprocessed.smi:1564-4

> <Gold.Version>
5.8.1

> <Gold.Id.Protein>
6NUR|6NUR_protein|mol2

> <Gold.PLP.Fitness>
44.0947

> <Gold.PLP.PLP>
-37.2316

> <Gold.PLP.part.hbond>
-3.7596

> <Gold.PLP.part.metal>
0.0000

> <Gold.PLP.part.buried>
-1.7788

> <Gold.PLP.part.nonpolar>
-32.6064

> <Gold.PLP.part.repulsive>
0.2251

> <Gold.PLP.ligand.clash>
0.0000

> <Gold.PLP.ligand.torsion>
0.1512

> <Gold.PLP.Chemscore.Hbond>
2.3786

> <Gold.PLP.Chemscore.CHOScore>
0.0000

> <Gold.PLP.Chemscore.Metal>
0.0000

> <Gold.Chemscore.Hbonds>
donor molecule, donor type, donor heavy atom, donor atom, acceptor molecule, acceptor atom, score
      L1  H     7    26       P1  8028  0.29
      L1  H    10    27       P1  8028  1.00
      L1  H    14    43       P1  7957  1.00

> <Gold.PLP.Chemscore.Internal.Correction>
0.0298

> <Gold.Rescore>
     Score         DG    S(hbond)    S(metal)    S(lipo)     H(rot)  DE(clash)    DE(int)     intcor
     16.84     -20.82       2.37        0.00      95.00       1.44       1.24       2.75       ----

> <Gold.Chemscore.Fitness>
16.8372

> <Gold.Chemscore.DG>
-20.8201

> <Gold.Chemscore.ZeroCoef>
-5.4800

> <Gold.Chemscore.Hbond>
2.3721

> <Gold.Chemscore.Metal>
0.0000

> <Gold.Chemscore.Lipo>
95.0023

> <Gold.Chemscore.Internal_Hbond>
0.0000

> <Gold.Chemscore.DEClash>
1.2353

> <Gold.Chemscore.DEInternal>
2.7476

> <Gold.Chemscore.Rot>
1.4445

> <Gold.Chemscore.Internal.Correction>
   9.000000E+99

> <Gold.Chemscore.Hbonds>
donor molecule, donor type, donor heavy atom, donor atom, acceptor molecule, acceptor atom, score
      L1  H     7    26       P1  8028  0.29
      L1  H    10    27       P1  8028  1.00
      L1  H    14    43       P1  7957  1.00

> <Gold.Chemscore.Hbond.Weighted>
-7.9227

> <Gold.Chemscore.Metal.Weighted>
-0.0000

> <Gold.Chemscore.Lipo.Weighted>
-11.1153

> <Gold.Chemscore.Internal_Hbond.Weighted>
0.0000

> <Gold.Chemscore.DEClash.Weighted>
1.2353

> <Gold.Chemscore.DEInternal.Weighted>
2.7476

> <Gold.Chemscore.Rot.Weighted>
3.6979

> <Gold.Chemscore.Internal.Correction.Weighted>
   9.000000E+99

> <Gold.Protein.RotatedTorsions>
[ 6907 6896 6895 6894 ] final  -43.64 input  -60.11 | X-H torsion
[ 7974 7965 7964 7962 ] final   18.68 input  175.53 | X-H torsion
[ 8008 7997 7996 7995 ] final  133.72 input   59.86 | X-H torsion
[ 10167 10162 10161 10158 ] final  -47.25 input  -65.29 | X-H torsion
[ 10718 10713 10712 10709 ] final    3.84 input   66.30 | X-H torsion
[ 10763 10752 10751 10750 ] final  -64.22 input  -60.55 | X-H torsion
[ 11005 11000 10999 10996 ] final  -76.62 input  -57.11 | X-H torsion

> <Gold.Protein.ActiveResidues>
 VAL166  LYS551  ARG553  GLY616  TRP617  ASP618  TYR619  PRO620  LYS621  CYS622 
 ASP623  PHE694  ASN695  SER759  ASP760  ASP761  ALA762  ILE779  LEU786  VAL792 
 PHE793  MET794  SER795  GLU796  ALA797  LYS798  CYS799  TRP800  GLU811  SER814 

> <Gold.Protein.RotatedAtoms>
  150.9417  134.8825  159.7615 H   0  0  0  0  0  0  0  0  0  0  0  0  # atno 6907 bound_to 6896
  152.5083  134.3933  159.9401 H   0  0  0  0  0  0  0  0  0  0  0  0  # atno 6908 bound_to 6896
  151.3953  133.3735  159.2760 H   0  0  0  0  0  0  0  0  0  0  0  0  # atno 6909 bound_to 6896
  146.2176  139.8422  142.8639 H   0  0  0  0  0  0  0  0  0  0  0  0  # atno 7974 bound_to 7965
  156.2994  140.2514  156.3299 H   0  0  0  0  0  0  0  0  0  0  0  0  # atno 8008 bound_to 7997
  154.9155  140.0402  157.1989 H   0  0  0  0  0  0  0  0  0  0  0  0  # atno 8009 bound_to 7997
  154.8363  140.2883  155.5693 H   0  0  0  0  0  0  0  0  0  0  0  0  # atno 8010 bound_to 7997
  140.6783  143.2793  151.3899 H   0  0  0  0  0  0  0  0  0  0  0  0  # atno 10167 bound_to 10162
  156.8837  130.5663  149.5652 H   0  0  0  0  0  0  0  0  0  0  0  0  # atno 10718 bound_to 10713
  154.3269  135.6184  153.5533 H   0  0  0  0  0  0  0  0  0  0  0  0  # atno 10763 bound_to 10752
  152.9815  135.5737  154.5006 H   0  0  0  0  0  0  0  0  0  0  0  0  # atno 10764 bound_to 10752
  154.4685  135.2858  155.1637 H   0  0  0  0  0  0  0  0  0  0  0  0  # atno 10765 bound_to 10752
  141.1655  133.6990  156.7696 H   0  0  0  0  0  0  0  0  0  0  0  0  # atno 11005 bound_to 11000
  145.2887  141.0160  143.3675 LP  0  0  0  0  0  0  0  0  0  0  0  0  # atno 17320 bound_to 7965
  144.9094  139.4548  143.6594 LP  0  0  0  0  0  0  0  0  0  0  0  0  # atno 17321 bound_to 7965
  139.6089  144.1140  152.2278 LP  0  0  0  0  0  0  0  0  0  0  0  0  # atno 17342 bound_to 10162
  140.0547  144.5904  150.7309 LP  0  0  0  0  0  0  0  0  0  0  0  0  # atno 17343 bound_to 10162
  156.0664  130.5706  150.9296 LP  0  0  0  0  0  0  0  0  0  0  0  0  # atno 17370 bound_to 10713
  157.6125  131.0935  150.8770 LP  0  0  0  0  0  0  0  0  0  0  0  0  # atno 17371 bound_to 10713
  140.2473  134.8567  157.3633 LP  0  0  0  0  0  0  0  0  0  0  0  0  # atno 17394 bound_to 11000
  140.1736  134.4577  155.7815 LP  0  0  0  0  0  0  0  0  0  0  0  0  # atno 17395 bound_to 11000

$$$$
