AV-unprocessed.smi:1674|AV-procd|sdf|6714|dock9
  -GOLD-   22720 7463D 1   1.00000     0.00000
 Structure written by MMmdl.
 47 48  0  0  0  0  0  0  0  0  1 V2000
  147.1748  138.3025  154.9555 C   0  0  0  0  0  0  0  0  0  0  0  0
  148.5914  137.8857  155.2441 C   0  0  0  0  0  0  0  0  0  0  0  0
  148.7529  136.7440  155.8273 N   0  0  0  0  0  0  0  0  0  0  0  0
  150.0120  136.2588  156.1229 N   0  0  0  0  0  0  0  0  0  0  0  0
  150.0154  134.9182  156.7259 C   0  0  0  0  0  0  0  0  0  0  0  0
  150.3985  133.8086  155.7186 C   0  0  1  0  0  0  0  0  0  0  0  0
  150.9887  132.7410  156.4316 O   0  0  0  0  0  0  0  0  0  0  0  0
  149.2210  133.3515  154.8663 C   0  0  0  0  0  0  0  0  0  0  0  0
  147.9502  133.9381  155.0462 C   0  0  0  0  0  0  0  0  0  0  0  0
  146.8500  133.4967  154.2868 C   0  0  0  0  0  0  0  0  0  0  0  0
  147.0113  132.4663  153.3374 C   0  0  0  0  0  0  0  0  0  0  0  0
  145.8264  131.9883  152.5156 C   0  0  0  0  0  0  0  0  0  0  0  0
  145.9687  132.2748  151.0065 C   0  0  0  0  0  0  0  0  0  0  0  0
  146.3030  133.7483  150.7177 C   0  0  0  0  0  0  0  0  0  0  0  0
  144.7051  131.8432  150.2476 C   0  0  0  0  0  0  0  0  0  0  0  0
  148.2801  131.8784  153.1562 C   0  0  0  0  0  0  0  0  0  0  0  0
  149.3797  132.3182  153.9175 C   0  0  0  0  0  0  0  0  0  0  0  0
  151.1778  136.9166  155.8653 C   0  0  0  0  0  0  0  0  0  0  0  0
  152.2801  136.4466  156.1507 O   0  0  0  0  0  0  0  0  0  0  0  0
  150.9875  138.2133  155.2115 C   0  0  0  0  0  0  0  0  0  0  0  0
  152.1844  138.9331  154.9163 C   0  0  0  0  0  0  0  0  0  0  0  0
  153.1594  139.5030  154.6621 N   0  0  0  0  0  0  0  0  0  0  0  0
  149.7572  138.6939  154.9022 C   0  0  0  0  0  0  0  0  0  0  0  0
  149.5050  140.0302  154.2177 C   0  0  0  0  0  0  0  0  0  0  0  0
  146.9371  139.2396  155.4588 H   0  0  0  0  0  0  0  0  0  0  0  0
  146.4540  137.5558  155.2926 H   0  0  0  0  0  0  0  0  0  0  0  0
  147.0245  138.4441  153.8851 H   0  0  0  0  0  0  0  0  0  0  0  0
  150.6863  134.8951  157.5865 H   0  0  0  0  0  0  0  0  0  0  0  0
  149.0234  134.7067  157.1311 H   0  0  0  0  0  0  0  0  0  0  0  0
  151.1700  134.1931  155.0505 H   0  0  0  0  0  0  0  0  0  0  0  0
  150.7401  131.9302  156.0144 H   0  0  0  0  0  0  0  0  0  0  0  0
  147.8118  134.7224  155.7760 H   0  0  0  0  0  0  0  0  0  0  0  0
  145.8823  133.9531  154.4349 H   0  0  0  0  0  0  0  0  0  0  0  0
  145.7184  130.9151  152.6782 H   0  0  0  0  0  0  0  0  0  0  0  0
  144.9114  132.4434  152.8977 H   0  0  0  0  0  0  0  0  0  0  0  0
  146.7916  131.6688  150.6253 H   0  0  0  0  0  0  0  0  0  0  0  0
  145.5294  134.4125  151.1046 H   0  0  0  0  0  0  0  0  0  0  0  0
  146.3897  133.9277  149.6457 H   0  0  0  0  0  0  0  0  0  0  0  0
  147.2506  134.0407  151.1704 H   0  0  0  0  0  0  0  0  0  0  0  0
  143.8319  132.4056  150.5797 H   0  0  0  0  0  0  0  0  0  0  0  0
  144.4966  130.7838  150.4005 H   0  0  0  0  0  0  0  0  0  0  0  0
  144.8159  132.0031  149.1747 H   0  0  0  0  0  0  0  0  0  0  0  0
  148.4127  131.0865  152.4333 H   0  0  0  0  0  0  0  0  0  0  0  0
  150.3446  131.8535  153.7767 H   0  0  0  0  0  0  0  0  0  0  0  0
  150.4289  140.5677  154.0069 H   0  0  0  0  0  0  0  0  0  0  0  0
  148.8892  140.6727  154.8476 H   0  0  0  0  0  0  0  0  0  0  0  0
  148.9889  139.8818  153.2685 H   0  0  0  0  0  0  0  0  0  0  0  0
  1  2  1  0  0  0  0
  1 25  1  0  0  0  0
  1 26  1  0  0  0  0
  1 27  1  0  0  0  0
  2 23  1  0  0  0  0
  2  3  2  0  0  0  0
  3  4  1  0  0  0  0
  4  5  1  0  0  0  0
  4 18  1  0  0  0  0
  5  6  1  0  0  0  0
  5 28  1  0  0  0  0
  5 29  1  0  0  0  0
  6  7  1  0  0  0  0
  6  8  1  0  0  0  0
  6 30  1  0  0  0  0
  7 31  1  0  0  0  0
  8 17  1  0  0  0  0
  8  9  2  0  0  0  0
  9 10  1  0  0  0  0
  9 32  1  0  0  0  0
 10 11  2  0  0  0  0
 10 33  1  0  0  0  0
 11 12  1  0  0  0  0
 11 16  1  0  0  0  0
 12 13  1  0  0  0  0
 12 34  1  0  0  0  0
 12 35  1  0  0  0  0
 13 14  1  0  0  0  0
 13 15  1  0  0  0  0
 13 36  1  0  0  0  0
 14 37  1  0  0  0  0
 14 38  1  0  0  0  0
 14 39  1  0  0  0  0
 15 40  1  0  0  0  0
 15 41  1  0  0  0  0
 15 42  1  0  0  0  0
 16 17  2  0  0  0  0
 16 43  1  0  0  0  0
 17 44  1  0  0  0  0
 18 19  2  0  0  0  0
 18 20  1  0  0  0  0
 20 21  1  0  0  0  0
 20 23  2  0  0  0  0
 21 22  3  0  0  0  0
 23 24  1  0  0  0  0
 24 45  1  0  0  0  0
 24 46  1  0  0  0  0
 24 47  1  0  0  0  0
M  END
> <s_m_source_file>
AV-unprocessed.smi

> <i_m_source_file_index>
1674

> <i_lp_mmshare_version>
43012

> <i_f3d_flags>
0

> <s_epik_input>
TiNDYyhjMVtDSDNdKWMoPU8pbihuYzFbQ0gzXSlbQ0gyXVtDQEhdKFtPSF0pYzJbY0hdW2NIXWMoW2NIXVtjSF0yKVtDSDJdW0NIXShbQ0gzXSlbQ0gzXQ==

> <s_epik_cmdline>
J2VwaWtfcHl0aG9uJywgJy1waCcsICc3LjAnLCAnLXRuJywgJzgnLCAnLW1hJywgJzIwMCcsICctbWV0YWxfYmluZGluZycsICctaW1hZScsICc8aW5maWxlLm1hZT4nLCAnLW9tYWUnLCAnPG91dGZpbGUubWFlPic=

> <r_lp_tautomer_probability>
1

> <r_epik_Ionization_Penalty>
4.60566e-08

> <r_epik_Ionization_Penalty_Charging>
1.40848e-10

> <r_epik_Ionization_Penalty_Neutral>
4.59158e-08

> <r_epik_State_Penalty>
-0

> <r_epik_Charging_Adjusted_Penalty>
1.40848e-10

> <i_epik_Tot_Q>
0

> <i_epik_Tot_abs_Q>
0

> <r_epik_Metal_State_Penalty>
-0

> <b_epik_Metal_Only>
0

> <s_lp_Force_Field>
OPLS_2005

> <r_lp_Energy>
26.1271

> <b_lp_Chiralities_Consistent>
1

> <s_lp_Variant>
AV-unprocessed.smi:1674-2

> <Gold.Version>
5.8.1

> <Gold.Id.Protein>
6NUR|6NUR_protein|mol2

> <Gold.PLP.Fitness>
42.8071

> <Gold.PLP.PLP>
-37.8158

> <Gold.PLP.part.hbond>
-3.0000

> <Gold.PLP.part.metal>
0.0000

> <Gold.PLP.part.buried>
-5.1443

> <Gold.PLP.part.nonpolar>
-30.0267

> <Gold.PLP.part.repulsive>
0.0800

> <Gold.PLP.ligand.clash>
0.0000

> <Gold.PLP.ligand.torsion>
0.5695

> <Gold.PLP.Chemscore.Hbond>
2.0164

> <Gold.PLP.Chemscore.CHOScore>
0.0000

> <Gold.PLP.Chemscore.Metal>
0.0000

> <Gold.Chemscore.Hbonds>
donor molecule, donor type, donor heavy atom, donor atom, acceptor molecule, acceptor atom, score
      P1  H  7989  7998       L1    22  0.01
      P1  H  7997  8008       L1    22  1.00
      P1  H 10752 10765       L1    19  1.00

> <Gold.PLP.Chemscore.Internal.Correction>
0.0812

> <Gold.Rescore>
     Score         DG    S(hbond)    S(metal)    S(lipo)     H(rot)  DE(clash)    DE(int)     intcor
     16.81     -17.38       1.99        0.00      91.62       2.13       0.06       0.51       ----

> <Gold.Chemscore.Fitness>
16.8076

> <Gold.Chemscore.DG>
-17.3830

> <Gold.Chemscore.ZeroCoef>
-5.4800

> <Gold.Chemscore.Hbond>
1.9870

> <Gold.Chemscore.Metal>
0.0000

> <Gold.Chemscore.Lipo>
91.6158

> <Gold.Chemscore.Internal_Hbond>
0.0000

> <Gold.Chemscore.DEClash>
0.0609

> <Gold.Chemscore.DEInternal>
0.5144

> <Gold.Chemscore.Rot>
2.1299

> <Gold.Chemscore.Internal.Correction>
   9.000000E+99

> <Gold.Chemscore.Hbonds>
donor molecule, donor type, donor heavy atom, donor atom, acceptor molecule, acceptor atom, score
      P1  H  7997  8008       L1    22  0.99
      P1  H 10752 10765       L1    19  0.96

> <Gold.Chemscore.Hbond.Weighted>
-6.6365

> <Gold.Chemscore.Metal.Weighted>
-0.0000

> <Gold.Chemscore.Lipo.Weighted>
-10.7191

> <Gold.Chemscore.Internal_Hbond.Weighted>
0.0000

> <Gold.Chemscore.DEClash.Weighted>
0.0609

> <Gold.Chemscore.DEInternal.Weighted>
0.5144

> <Gold.Chemscore.Rot.Weighted>
5.4526

> <Gold.Chemscore.Internal.Correction.Weighted>
   9.000000E+99

> <Gold.Protein.RotatedTorsions>
[ 6907 6896 6895 6894 ] final   97.61 input  -60.11 | X-H torsion
[ 7974 7965 7964 7962 ] final   34.63 input  175.53 | X-H torsion
[ 8008 7997 7996 7995 ] final    4.77 input   59.86 | X-H torsion
[ 10167 10162 10161 10158 ] final -168.83 input  -65.29 | X-H torsion
[ 10718 10713 10712 10709 ] final -142.44 input   66.30 | X-H torsion
[ 10763 10752 10751 10750 ] final -133.59 input  -60.55 | X-H torsion
[ 11005 11000 10999 10996 ] final -139.59 input  -57.11 | X-H torsion

> <Gold.Protein.ActiveResidues>
 VAL166  LYS551  ARG553  GLY616  TRP617  ASP618  TYR619  PRO620  LYS621  CYS622 
 ASP623  PHE694  ASN695  SER759  ASP760  ASP761  ALA762  ILE779  LEU786  VAL792 
 PHE793  MET794  SER795  GLU796  ALA797  LYS798  CYS799  TRP800  GLU811  SER814 

> <Gold.Protein.RotatedAtoms>
  152.5421  134.0707  159.8192 H   0  0  0  0  0  0  0  0  0  0  0  0  # atno 6907 bound_to 6896
  151.0822  133.5374  159.2627 H   0  0  0  0  0  0  0  0  0  0  0  0  # atno 6908 bound_to 6896
  151.2197  135.0522  159.8998 H   0  0  0  0  0  0  0  0  0  0  0  0  # atno 6909 bound_to 6896
  146.1339  139.6244  142.9208 H   0  0  0  0  0  0  0  0  0  0  0  0  # atno 7974 bound_to 7965
  154.7200  140.2710  155.6550 H   0  0  0  0  0  0  0  0  0  0  0  0  # atno 8008 bound_to 7997
  156.2821  140.2736  156.1794 H   0  0  0  0  0  0  0  0  0  0  0  0  # atno 8009 bound_to 7997
  155.0519  140.0371  157.2536 H   0  0  0  0  0  0  0  0  0  0  0  0  # atno 8010 bound_to 7997
  139.5961  144.1110  152.1690 H   0  0  0  0  0  0  0  0  0  0  0  0  # atno 10167 bound_to 10162
  156.3459  130.7662  151.1806 H   0  0  0  0  0  0  0  0  0  0  0  0  # atno 10718 bound_to 10713
  154.8730  135.3761  154.4597 H   0  0  0  0  0  0  0  0  0  0  0  0  # atno 10763 bound_to 10752
  153.5266  135.7028  153.5709 H   0  0  0  0  0  0  0  0  0  0  0  0  # atno 10764 bound_to 10752
  153.3932  135.3967  155.1903 H   0  0  0  0  0  0  0  0  0  0  0  0  # atno 10765 bound_to 10752
  140.8505  134.2292  157.4763 H   0  0  0  0  0  0  0  0  0  0  0  0  # atno 11005 bound_to 11000
  145.5199  141.0432  143.2441 LP  0  0  0  0  0  0  0  0  0  0  0  0  # atno 17320 bound_to 7965
  144.7719  139.6715  143.7191 LP  0  0  0  0  0  0  0  0  0  0  0  0  # atno 17321 bound_to 7965
  140.0695  144.5791  150.7202 LP  0  0  0  0  0  0  0  0  0  0  0  0  # atno 17342 bound_to 10162
  140.7213  143.2591  151.4270 LP  0  0  0  0  0  0  0  0  0  0  0  0  # atno 17343 bound_to 10162
  157.7454  131.0441  150.4778 LP  0  0  0  0  0  0  0  0  0  0  0  0  # atno 17370 bound_to 10713
  156.4965  130.4107  149.6377 LP  0  0  0  0  0  0  0  0  0  0  0  0  # atno 17371 bound_to 10713
  139.8704  134.9680  156.4618 LP  0  0  0  0  0  0  0  0  0  0  0  0  # atno 17394 bound_to 11000
  140.8796  133.7928  155.9452 LP  0  0  0  0  0  0  0  0  0  0  0  0  # atno 17395 bound_to 11000

$$$$
