#       Name:                AV-unprocessed.smi:1191
#       Creating user name   scv26
#       Creation time:       Fri Mar 27 03:58:40 2020


#       File generated by GOLD software.
#

@<TRIPOS>MOLECULE
AV-unprocessed.smi:1191
    50    51     1
SMALL
NO_CHARGES


@<TRIPOS>ATOM
      1 ****        -2.8151   5.1003  -3.3146 C.3            1 S1                 0.0000
      2 ****        -2.9834   3.8805  -2.4574 C.2            1 S1                 0.0000
      3 ****        -3.2262   3.8127  -1.0572 C.2            1 S1                 0.0000
      4 ****        -3.2909   2.4743  -0.7897 C.2            1 S1                 0.0000
      5 ****        -3.5180   1.7631   0.5041 C.3            1 S1                 0.0000
      6 ****        -3.0933   1.8148  -1.9909 N.pl3          1 S1                 0.0000
      7 ****        -3.0631   0.3858  -2.2631 C.3            1 S1                 0.0000
      8 ****        -1.7300  -0.2323  -1.8365 C.2            1 S1                 0.0000
      9 ****        -0.6807   0.1274  -2.3710 O.2            1 S1                 0.0000
     10 ****        -1.7794  -1.1514  -0.8598 N.am           1 S1                 0.0000
     11 ****        -0.6160  -1.8161  -0.2863 C.3            1 S1                 0.0000
     12 ****         0.1179  -0.8958   0.7083 C.3            1 S1                 0.0000
     13 ****         1.2938  -1.5553   1.3294 N.4            1 S1                 1.0000
     14 ****         1.6446  -0.9526   2.6413 C.3            1 S1                 0.0000
     15 ****         2.7755  -1.7358   3.3261 C.3            1 S1                 0.0000
     16 ****         4.0102  -1.8208   2.4204 C.3            1 S1                 0.0000
     17 ****         3.6300  -2.4185   1.0556 C.3            1 S1                 0.0000
     18 ****         4.8435  -2.4883   0.1179 C.3            1 S1                 0.0000
     19 ****         2.4737  -1.6165   0.4243 C.3            1 S1                 0.0000
     20 ****        -2.9071   2.6815  -3.0102 N.2            1 S1                 0.0000
     21 ****        -2.8499   6.0107  -2.7161 H              1 S1                 0.0000
     22 ****        -3.6040   5.1654  -4.0641 H              1 S1                 0.0000
     23 ****        -1.8582   5.0843  -3.8370 H              1 S1                 0.0000
     24 ****        -3.3351   4.6256  -0.3546 H              1 S1                 0.0000
     25 ****        -3.8023   2.4651   1.2882 H              1 S1                 0.0000
     26 ****        -2.6128   1.2492   0.8276 H              1 S1                 0.0000
     27 ****        -4.3152   1.0255   0.4124 H              1 S1                 0.0000
     28 ****        -3.8982  -0.0894  -1.7466 H              1 S1                 0.0000
     29 ****        -3.2134   0.2143  -3.3302 H              1 S1                 0.0000
     30 ****        -2.6832  -1.3959  -0.4810 H              1 S1                 0.0000
     31 ****        -0.9567  -2.7178   0.2232 H              1 S1                 0.0000
     32 ****         0.0413  -2.1451  -1.0918 H              1 S1                 0.0000
     33 ****         0.4320   0.0334   0.2302 H              1 S1                 0.0000
     34 ****        -0.5920  -0.6132   1.4872 H              1 S1                 0.0000
     35 ****         1.9392   0.0884   2.4986 H              1 S1                 0.0000
     36 ****         0.7697  -0.9492   3.2928 H              1 S1                 0.0000
     37 ****         3.0390  -1.2603   4.2714 H              1 S1                 0.0000
     38 ****         2.4294  -2.7408   3.5713 H              1 S1                 0.0000
     39 ****         4.4360  -0.8252   2.2865 H              1 S1                 0.0000
     40 ****         4.7800  -2.4273   2.8990 H              1 S1                 0.0000
     41 ****         3.2826  -3.4399   1.2184 H              1 S1                 0.0000
     42 ****         5.2442  -1.4949  -0.0873 H              1 S1                 0.0000
     43 ****         4.5777  -2.9438  -0.8364 H              1 S1                 0.0000
     44 ****         5.6441  -3.0857   0.5552 H              1 S1                 0.0000
     45 ****         2.1959  -2.0818  -0.5209 H              1 S1                 0.0000
     46 ****         2.8025  -0.6028   0.1887 H              1 S1                 0.0000
     47 ****         1.0195  -2.5078   1.5232 H              1 S1                 0.0000
     48 ****        -0.6978   0.8258  -3.0865 LP             1 S1                 0.0000
     49 ****         0.1887  -0.2788  -2.0895 LP             1 S1                 0.0000
     50 ****        -2.7465   2.4639  -3.9729 LP             1 S1                 0.0000
@<TRIPOS>BOND
    1    1    2 1     
    2    1   21 1     
    3    1   22 1     
    4    1   23 1     
    5    2   20 2     
    6    2    3 1     
    7    3    4 2     
    8    3   24 1     
    9    4    5 1     
   10    4    6 1     
   11    5   25 1     
   12    5   26 1     
   13    5   27 1     
   14    6    7 1     
   15    6   20 1     
   16    7    8 1     
   17    7   28 1     
   18    7   29 1     
   19    8    9 2     
   20    8   10 am    
   21   10   11 1     
   22   10   30 1     
   23   11   12 1     
   24   11   31 1     
   25   11   32 1     
   26   12   13 1     
   27   12   33 1     
   28   12   34 1     
   29   13   19 1     
   30   13   14 1     
   31   13   47 1     
   32   14   15 1     
   33   14   35 1     
   34   14   36 1     
   35   15   16 1     
   36   15   37 1     
   37   15   38 1     
   38   16   17 1     
   39   16   39 1     
   40   16   40 1     
   41   17   18 1     
   42   17   19 1     
   43   17   41 1     
   44   18   42 1     
   45   18   43 1     
   46   18   44 1     
   47   19   45 1     
   48   19   46 1     
   49    9   48 1     
   50    9   49 1     
   51   20   50 1     
@<TRIPOS>SUBSTRUCTURE
      1 S1             1
@<TRIPOS>SET
LONE_PAIRS      STATIC     ATOMS    <user>   **** ""
3 48 49 50
DONOR_HYDROGENS      STATIC     ATOMS    <user>   **** ""
2 30 47
ATOM$BLUE        STATIC     ATOMS    COLORGROUP SYSTEM
3 48 49 50
ATOM$RED        STATIC     ATOMS    COLORGROUP SYSTEM
2 30 47
