AV-unprocessed.smi:1574|AV-procd|sdf|6338|dock3
  -GOLD-   22720 6553D 1   1.00000     0.00000
 Structure written by MMmdl.
 40 41  0  0  0  0  0  0  0  0  1 V2000
  153.4818  141.4184  160.6203 C   0  0  0  0  0  0  0  0  0  0  0  0
  152.4350  142.2926  159.9112 C   0  0  1  0  0  0  0  0  0  0  0  0
  152.9529  143.7358  159.7431 C   0  0  0  0  0  0  0  0  0  0  0  0
  151.9292  144.6307  159.0274 C   0  0  0  0  0  0  0  0  0  0  0  0
  151.5336  144.0382  157.6679 C   0  0  0  0  0  0  0  0  0  0  0  0
  151.0063  142.6064  157.8287 C   0  0  0  0  0  0  0  0  0  0  0  0
  152.0260  141.6975  158.5453 C   0  0  2  0  0  0  0  0  0  0  0  0
  151.4141  140.4354  158.7737 O   0  0  0  0  0  0  0  0  0  0  0  0
  151.5767  139.5088  157.7098 C   0  0  0  0  0  0  0  0  0  0  0  0
  151.2398  138.1035  158.2270 C   0  0  0  0  0  0  0  0  0  0  0  0
  149.9135  138.0718  158.8343 N   0  0  0  0  0  0  0  0  0  0  0  0
  149.1987  136.9592  159.0642 C   0  0  0  0  0  0  0  0  0  0  0  0
  149.6201  135.8245  158.8421 O   0  0  0  0  0  0  0  0  0  0  0  0
  147.7860  137.1533  159.6149 C   0  0  0  0  0  0  0  0  0  0  0  0
  147.6664  136.5994  160.9510 N   0  0  0  0  0  0  0  0  0  0  0  0
  147.7278  135.3395  161.3864 C   0  0  0  0  0  0  0  0  0  0  0  0
  147.5643  135.2664  162.6987 N   0  0  0  0  0  0  0  0  0  0  0  0
  147.3973  136.5903  163.0690 N   0  0  0  0  0  0  0  0  0  0  0  0
  147.4549  137.3857  162.0363 N   0  0  0  0  0  0  0  0  0  0  0  0
  154.3925  141.3303  160.0270 H   0  0  0  0  0  0  0  0  0  0  0  0
  153.1027  140.4116  160.7979 H   0  0  0  0  0  0  0  0  0  0  0  0
  153.7548  141.8399  161.5880 H   0  0  0  0  0  0  0  0  0  0  0  0
  151.5478  142.3287  160.5454 H   0  0  0  0  0  0  0  0  0  0  0  0
  153.1890  144.1634  160.7183 H   0  0  0  0  0  0  0  0  0  0  0  0
  153.8854  143.7291  159.1768 H   0  0  0  0  0  0  0  0  0  0  0  0
  151.0409  144.7420  159.6505 H   0  0  0  0  0  0  0  0  0  0  0  0
  152.3399  145.6316  158.8915 H   0  0  0  0  0  0  0  0  0  0  0  0
  150.7735  144.6620  157.1967 H   0  0  0  0  0  0  0  0  0  0  0  0
  152.3956  144.0389  156.9998 H   0  0  0  0  0  0  0  0  0  0  0  0
  150.0827  142.6287  158.4064 H   0  0  0  0  0  0  0  0  0  0  0  0
  150.7450  142.2025  156.8507 H   0  0  0  0  0  0  0  0  0  0  0  0
  152.9218  141.5834  157.9310 H   0  0  0  0  0  0  0  0  0  0  0  0
  150.9399  139.7544  156.8590 H   0  0  0  0  0  0  0  0  0  0  0  0
  152.6077  139.5491  157.3567 H   0  0  0  0  0  0  0  0  0  0  0  0
  151.2947  137.3780  157.4139 H   0  0  0  0  0  0  0  0  0  0  0  0
  151.9730  137.7933  158.9721 H   0  0  0  0  0  0  0  0  0  0  0  0
  149.4908  138.9635  159.0477 H   0  0  0  0  0  0  0  0  0  0  0  0
  147.5373  138.2152  159.6454 H   0  0  0  0  0  0  0  0  0  0  0  0
  147.0574  136.6697  158.9627 H   0  0  0  0  0  0  0  0  0  0  0  0
  147.8915  134.4839  160.7484 H   0  0  0  0  0  0  0  0  0  0  0  0
  1  2  1  0  0  0  0
  1 20  1  0  0  0  0
  1 21  1  0  0  0  0
  1 22  1  0  0  0  0
  2  7  1  0  0  0  0
  2  3  1  0  0  0  0
  2 23  1  0  0  0  0
  3  4  1  0  0  0  0
  3 24  1  0  0  0  0
  3 25  1  0  0  0  0
  4  5  1  0  0  0  0
  4 26  1  0  0  0  0
  4 27  1  0  0  0  0
  5  6  1  0  0  0  0
  5 28  1  0  0  0  0
  5 29  1  0  0  0  0
  6  7  1  0  0  0  0
  6 30  1  0  0  0  0
  6 31  1  0  0  0  0
  7  8  1  0  0  0  0
  7 32  1  0  0  0  0
  8  9  1  0  0  0  0
  9 10  1  0  0  0  0
  9 33  1  0  0  0  0
  9 34  1  0  0  0  0
 10 11  1  0  0  0  0
 10 35  1  0  0  0  0
 10 36  1  0  0  0  0
 11 12  1  0  0  0  0
 11 37  1  0  0  0  0
 12 13  2  0  0  0  0
 12 14  1  0  0  0  0
 14 15  1  0  0  0  0
 14 38  1  0  0  0  0
 14 39  1  0  0  0  0
 15 19  1  0  0  0  0
 15 16  1  0  0  0  0
 16 17  2  0  0  0  0
 16 40  1  0  0  0  0
 17 18  1  0  0  0  0
 18 19  2  0  0  0  0
M  END
> <s_m_source_file>
AV-unprocessed.smi

> <i_m_source_file_index>
1574

> <i_lp_mmshare_version>
43012

> <i_f3d_flags>
0

> <s_epik_input>
W0NIM11bQ0BASF0xW0NIMl1bQ0gyXVtDSDJdW0NIMl1bQ0BIXTFPW0NIMl1bQ0gyXVtOSF1DKD1PKVtDSDJdbjJbY0hdbm5uMg==

> <s_epik_cmdline>
J2VwaWtfcHl0aG9uJywgJy1waCcsICc3LjAnLCAnLXRuJywgJzgnLCAnLW1hJywgJzIwMCcsICctbWV0YWxfYmluZGluZycsICctaW1hZScsICc8aW5maWxlLm1hZT4nLCAnLW9tYWUnLCAnPG91dGZpbGUubWFlPic=

> <r_lp_tautomer_probability>
1

> <r_epik_Ionization_Penalty>
1.44269e-06

> <r_epik_Ionization_Penalty_Charging>
0

> <r_epik_Ionization_Penalty_Neutral>
1.44269e-06

> <r_epik_State_Penalty>
-0

> <r_epik_Charging_Adjusted_Penalty>
0

> <i_epik_Tot_Q>
0

> <i_epik_Tot_abs_Q>
0

> <r_epik_Metal_State_Penalty>
-0

> <b_epik_Metal_Only>
0

> <s_lp_Force_Field>
OPLS_2005

> <r_lp_Energy>
11.2802

> <b_lp_Chiralities_Consistent>
1

> <s_lp_Variant>
AV-unprocessed.smi:1574-4

> <Gold.Version>
5.8.1

> <Gold.Id.Protein>
6NUR|6NUR_protein|mol2

> <Gold.PLP.Fitness>
45.8957

> <Gold.PLP.PLP>
-38.9080

> <Gold.PLP.part.hbond>
-3.0000

> <Gold.PLP.part.metal>
0.0000

> <Gold.PLP.part.buried>
-6.9009

> <Gold.PLP.part.nonpolar>
-29.9850

> <Gold.PLP.part.repulsive>
0.1776

> <Gold.PLP.ligand.clash>
0.0000

> <Gold.PLP.ligand.torsion>
0.6198

> <Gold.PLP.Chemscore.Hbond>
2.7120

> <Gold.PLP.Chemscore.CHOScore>
0.0000

> <Gold.PLP.Chemscore.Metal>
0.0000

> <Gold.Chemscore.Hbonds>
donor molecule, donor type, donor heavy atom, donor atom, acceptor molecule, acceptor atom, score
      P1  H  6896  6908       L1    13  1.00
      P1  H  6931  6943       L1    19  0.65
      P1  H  6934  6947       L1    19  0.44

> <Gold.PLP.Chemscore.Internal.Correction>
0.0913

> <Gold.Rescore>
     Score         DG    S(hbond)    S(metal)    S(lipo)     H(rot)  DE(clash)    DE(int)     intcor
     14.70     -15.60       2.23        0.00      86.52       2.90       0.02       0.88       ----

> <Gold.Chemscore.Fitness>
14.7025

> <Gold.Chemscore.DG>
-15.5981

> <Gold.Chemscore.ZeroCoef>
-5.4800

> <Gold.Chemscore.Hbond>
2.2250

> <Gold.Chemscore.Metal>
0.0000

> <Gold.Chemscore.Lipo>
86.5238

> <Gold.Chemscore.Internal_Hbond>
0.0000

> <Gold.Chemscore.DEClash>
0.0202

> <Gold.Chemscore.DEInternal>
0.8754

> <Gold.Chemscore.Rot>
2.9050

> <Gold.Chemscore.Internal.Correction>
   9.000000E+99

> <Gold.Chemscore.Hbonds>
donor molecule, donor type, donor heavy atom, donor atom, acceptor molecule, acceptor atom, score
      P1  H  6896  6908       L1    13  0.95
      P1  H  6931  6943       L1    19  0.08
      P1  H  6934  6947       L1    19  0.05

> <Gold.Chemscore.Hbond.Weighted>
-7.4315

> <Gold.Chemscore.Metal.Weighted>
-0.0000

> <Gold.Chemscore.Lipo.Weighted>
-10.1233

> <Gold.Chemscore.Internal_Hbond.Weighted>
0.0000

> <Gold.Chemscore.DEClash.Weighted>
0.0202

> <Gold.Chemscore.DEInternal.Weighted>
0.8754

> <Gold.Chemscore.Rot.Weighted>
7.4367

> <Gold.Chemscore.Internal.Correction.Weighted>
   9.000000E+99

> <Gold.Protein.RotatedTorsions>
[ 6907 6896 6895 6894 ] final  161.36 input  -60.11 | X-H torsion
[ 7974 7965 7964 7962 ] final   55.86 input  175.53 | X-H torsion
[ 8008 7997 7996 7995 ] final  104.30 input   59.86 | X-H torsion
[ 10167 10162 10161 10158 ] final  -68.87 input  -65.29 | X-H torsion
[ 10718 10713 10712 10709 ] final -101.05 input   66.30 | X-H torsion
[ 10763 10752 10751 10750 ] final  177.77 input  -60.55 | X-H torsion
[ 11005 11000 10999 10996 ] final   15.80 input  -57.11 | X-H torsion

> <Gold.Protein.ActiveResidues>
 VAL166  LYS551  ARG553  GLY616  TRP617  ASP618  TYR619  PRO620  LYS621  CYS622 
 ASP623  PHE694  ASN695  SER759  ASP760  ASP761  ALA762  ILE779  LEU786  VAL792 
 PHE793  MET794  SER795  GLU796  ALA797  LYS798  CYS799  TRP800  GLU811  SER814 

> <Gold.Protein.RotatedAtoms>
  151.9567  133.3682  159.4019 H   0  0  0  0  0  0  0  0  0  0  0  0  # atno 6907 bound_to 6896
  150.6971  134.4283  159.5246 H   0  0  0  0  0  0  0  0  0  0  0  0  # atno 6908 bound_to 6896
  152.1965  134.8625  160.0563 H   0  0  0  0  0  0  0  0  0  0  0  0  # atno 6909 bound_to 6896
  145.9460  139.3930  143.0335 H   0  0  0  0  0  0  0  0  0  0  0  0  # atno 7974 bound_to 7965
  156.1560  140.3150  155.8727 H   0  0  0  0  0  0  0  0  0  0  0  0  # atno 8008 bound_to 7997
  155.3876  140.0491  157.3059 H   0  0  0  0  0  0  0  0  0  0  0  0  # atno 8009 bound_to 7997
  154.5102  140.2162  155.9182 H   0  0  0  0  0  0  0  0  0  0  0  0  # atno 8010 bound_to 7997
  140.5474  143.2312  151.6976 H   0  0  0  0  0  0  0  0  0  0  0  0  # atno 10167 bound_to 10162
  156.0182  130.5356  150.6907 H   0  0  0  0  0  0  0  0  0  0  0  0  # atno 10718 bound_to 10713
  154.4989  135.2782  155.1437 H   0  0  0  0  0  0  0  0  0  0  0  0  # atno 10763 bound_to 10752
  154.3078  135.6235  153.5456 H   0  0  0  0  0  0  0  0  0  0  0  0  # atno 10764 bound_to 10752
  152.9899  135.5712  154.5427 H   0  0  0  0  0  0  0  0  0  0  0  0  # atno 10765 bound_to 10752
  140.4543  134.1193  155.7707 H   0  0  0  0  0  0  0  0  0  0  0  0  # atno 11005 bound_to 11000
  145.8236  140.9667  143.0886 LP  0  0  0  0  0  0  0  0  0  0  0  0  # atno 17320 bound_to 7965
  144.6787  140.0072  143.7484 LP  0  0  0  0  0  0  0  0  0  0  0  0  # atno 17321 bound_to 7965
  139.5013  144.3873  152.0316 LP  0  0  0  0  0  0  0  0  0  0  0  0  # atno 17342 bound_to 10162
  140.2987  144.3672  150.6067 LP  0  0  0  0  0  0  0  0  0  0  0  0  # atno 17343 bound_to 10162
  157.4589  131.0881  151.0767 LP  0  0  0  0  0  0  0  0  0  0  0  0  # atno 17370 bound_to 10713
  157.1260  130.6082  149.5517 LP  0  0  0  0  0  0  0  0  0  0  0  0  # atno 17371 bound_to 10713
  141.1650  133.8720  157.1740 LP  0  0  0  0  0  0  0  0  0  0  0  0  # atno 17394 bound_to 11000
  139.9987  135.0036  157.0140 LP  0  0  0  0  0  0  0  0  0  0  0  0  # atno 17395 bound_to 11000

$$$$
