#       Name:                AV-unprocessed.smi:312
#       Creating user name   scv26
#       Creation time:       Thu Mar 26 22:20:41 2020


#       File generated by GOLD software.
#

@<TRIPOS>MOLECULE
AV-unprocessed.smi:312
    38    39     1
SMALL
NO_CHARGES


@<TRIPOS>ATOM
      1 ****        -0.4551  -3.1394  -2.0072 C.3            1 S1                 0.0000
      2 ****         0.0407  -2.2257  -0.8786 C.3            1 S1                 0.0000
      3 ****         1.5784  -2.2843  -0.7461 C.3            1 S1                 0.0000
      4 ****         2.0862  -1.5402   0.4115 N.pl3          1 S1                 0.0000
      5 ****         2.7319  -0.3303   0.4049 C.2            1 S1                 0.0000
      6 ****         3.0009  -0.0240   1.7139 C.2            1 S1                 0.0000
      7 ****         2.5157  -1.0626   2.4627 N.pl3          1 S1                 1.0000
      8 ****         1.9640  -1.9858   1.6686 C.2            1 S1                 0.0000
      9 ****        -0.4145  -0.8608  -1.1413 N.am           1 S1                 0.0000
     10 ****        -0.8264   0.0204  -0.2156 C.2            1 S1                 0.0000
     11 ****        -0.8592  -0.2330   0.9894 O.2            1 S1                 0.0000
     12 ****        -1.2528   1.4038  -0.7313 C.3            1 S1                 0.0000
     13 ****        -0.3548   2.5306  -0.1681 C.3            1 S1                 0.0000
     14 ****        -1.2649   3.4696   0.6347 C.3            1 S1                 0.0000
     15 ****        -2.5152   2.6523   0.9465 C.3            1 S1                 0.0000
     16 ****        -2.6828   1.7608  -0.2828 C.3            1 S1                 0.0000
     17 ****        -0.1657  -4.1752  -1.8285 H              1 S1                 0.0000
     18 ****        -0.0432  -2.8412  -2.9719 H              1 S1                 0.0000
     19 ****        -1.5426  -3.1120  -2.0861 H              1 S1                 0.0000
     20 ****        -0.4081  -2.5899   0.0475 H              1 S1                 0.0000
     21 ****         1.9121  -3.3175  -0.6393 H              1 S1                 0.0000
     22 ****         2.0595  -1.8884  -1.6416 H              1 S1                 0.0000
     23 ****         2.9386   0.2128  -0.5061 H              1 S1                 0.0000
     24 ****         3.4875   0.8325   2.1572 H              1 S1                 0.0000
     25 ****         1.5008  -2.9044   1.9824 H              1 S1                 0.0000
     26 ****        -0.4233  -0.5645  -2.1067 H              1 S1                 0.0000
     27 ****        -1.2089   1.4044  -1.8218 H              1 S1                 0.0000
     28 ****         0.4325   2.1393   0.4789 H              1 S1                 0.0000
     29 ****         0.1457   3.0738  -0.9703 H              1 S1                 0.0000
     30 ****        -0.7829   3.8530   1.5345 H              1 S1                 0.0000
     31 ****        -1.5383   4.3261   0.0169 H              1 S1                 0.0000
     32 ****        -2.3465   2.0384   1.8322 H              1 S1                 0.0000
     33 ****        -3.3893   3.2765   1.1343 H              1 S1                 0.0000
     34 ****        -3.1816   2.3211  -1.0749 H              1 S1                 0.0000
     35 ****        -3.3037   0.8887  -0.0704 H              1 S1                 0.0000
     36 ****         2.5643  -1.1246   3.4720 H              1 S1                 0.0000
     37 ****        -0.5701  -1.1316   1.3194 LP             1 S1                 0.0000
     38 ****        -1.1749   0.4599   1.6377 LP             1 S1                 0.0000
@<TRIPOS>BOND
    1    1    2 1     
    2    1   17 1     
    3    1   18 1     
    4    1   19 1     
    5    2    3 1     
    6    2    9 1     
    7    2   20 1     
    8    3    4 1     
    9    3   21 1     
   10    3   22 1     
   11    4    8 1     
   12    4    5 1     
   13    5    6 2     
   14    5   23 1     
   15    6    7 1     
   16    6   24 1     
   17    7    8 2     
   18    7   36 1     
   19    8   25 1     
   20    9   10 am    
   21    9   26 1     
   22   10   11 2     
   23   10   12 1     
   24   12   16 1     
   25   12   13 1     
   26   12   27 1     
   27   13   14 1     
   28   13   28 1     
   29   13   29 1     
   30   14   15 1     
   31   14   30 1     
   32   14   31 1     
   33   15   16 1     
   34   15   32 1     
   35   15   33 1     
   36   16   34 1     
   37   16   35 1     
   38   11   37 1     
   39   11   38 1     
@<TRIPOS>SUBSTRUCTURE
      1 S1             1
@<TRIPOS>SET
LONE_PAIRS      STATIC     ATOMS    <user>   **** ""
2 37 38
DONOR_HYDROGENS      STATIC     ATOMS    <user>   **** ""
2 36 26
ATOM$BLUE        STATIC     ATOMS    COLORGROUP SYSTEM
2 37 38
ATOM$RED        STATIC     ATOMS    COLORGROUP SYSTEM
2 36 26
