AV-unprocessed.smi:1047|AV-procd|sdf|4573|dock1
  -GOLD-   22720 3 33D 1   1.00000     0.00000
 Structure written by MMmdl.
 56 58  0  0  0  0  0  0  0  0  2 V2000
  143.9561  133.2200  150.0678 C   0  0  0  0  0  0  0  0  0  0  0  0
  144.1776  134.7204  150.3057 C   0  0  0  0  0  0  0  0  0  0  0  0
  145.6127  135.1041  150.2348 N   0  3  2  0  0  0  0  0  0  0  0  0
  146.4719  134.3532  151.1823 C   0  0  0  0  0  0  0  0  0  0  0  0
  146.3365  134.9057  152.6125 C   0  0  0  0  0  0  0  0  0  0  0  0
  146.6486  136.2937  152.6160 O   0  0  0  0  0  0  0  0  0  0  0  0
  145.7620  137.0574  151.8047 C   0  0  1  0  0  0  0  0  0  0  0  0
  146.1557  138.5351  151.9522 C   0  0  0  0  0  0  0  0  0  0  0  0
  147.5011  138.6756  152.5009 N   0  0  0  0  0  0  0  0  0  0  0  0
  147.5289  139.3083  153.8160 C   0  0  0  0  0  0  0  0  0  0  0  0
  148.8820  139.0851  154.5175 C   0  0  2  0  0  0  0  0  0  0  0  0
  148.6331  138.6789  155.8487 O   0  0  0  0  0  0  0  0  0  0  0  0
  149.7733  140.3461  154.5403 C   0  0  0  0  0  0  0  0  0  0  0  0
  150.8654  140.2746  155.4990 N   0  0  0  0  0  0  0  0  0  0  0  0
  151.9425  139.4672  155.4433 C   0  0  0  0  0  0  0  0  0  0  0  0
  152.8282  139.5624  156.4304 N   0  0  0  0  0  0  0  0  0  0  0  0
  152.2551  140.5397  157.2255 C   0  0  0  0  0  0  0  0  0  0  0  0
  152.6966  141.1075  158.4406 C   0  0  0  0  0  0  0  0  0  0  0  0
  151.9384  142.1065  159.0914 C   0  0  0  0  0  0  0  0  0  0  0  0
  152.4505  142.6892  160.3969 C   0  0  0  0  0  0  0  0  0  0  0  0
  150.7169  142.5525  158.5258 C   0  0  0  0  0  0  0  0  0  0  0  0
  149.8848  143.6244  159.2071 C   0  0  0  0  0  0  0  0  0  0  0  0
  150.2617  141.9963  157.3122 C   0  0  0  0  0  0  0  0  0  0  0  0
  151.0253  141.0035  156.6731 C   0  0  0  0  0  0  0  0  0  0  0  0
  145.8762  136.5618  150.3441 C   0  0  0  0  0  0  0  0  0  0  0  0
  142.9105  132.9584  150.2304 H   0  0  0  0  0  0  0  0  0  0  0  0
  144.5555  132.6191  150.7520 H   0  0  0  0  0  0  0  0  0  0  0  0
  144.2060  132.9235  149.0496 H   0  0  0  0  0  0  0  0  0  0  0  0
  143.5803  135.3070  149.6082 H   0  0  0  0  0  0  0  0  0  0  0  0
  143.7994  134.9542  151.3015 H   0  0  0  0  0  0  0  0  0  0  0  0
  146.2408  133.2877  151.1534 H   0  0  0  0  0  0  0  0  0  0  0  0
  147.5083  134.4498  150.8564 H   0  0  0  0  0  0  0  0  0  0  0  0
  145.3337  134.7416  153.0091 H   0  0  0  0  0  0  0  0  0  0  0  0
  147.0279  134.3895  153.2786 H   0  0  0  0  0  0  0  0  0  0  0  0
  144.7457  136.9274  152.1799 H   0  0  0  0  0  0  0  0  0  0  0  0
  146.1162  139.0120  150.9721 H   0  0  0  0  0  0  0  0  0  0  0  0
  145.4305  139.0551  152.5794 H   0  0  0  0  0  0  0  0  0  0  0  0
  148.0855  139.1996  151.8571 H   0  0  0  0  0  0  0  0  0  0  0  0
  147.3721  140.3804  153.6902 H   0  0  0  0  0  0  0  0  0  0  0  0
  146.7082  138.9472  154.4375 H   0  0  0  0  0  0  0  0  0  0  0  0
  149.4342  138.2894  154.0155 H   0  0  0  0  0  0  0  0  0  0  0  0
  147.6979  138.6362  155.9792 H   0  0  0  0  0  0  0  0  0  0  0  0
  150.1920  140.5318  153.5504 H   0  0  0  0  0  0  0  0  0  0  0  0
  149.1670  141.2203  154.7819 H   0  0  0  0  0  0  0  0  0  0  0  0
  152.0867  138.7725  154.6286 H   0  0  0  0  0  0  0  0  0  0  0  0
  153.6267  140.7669  158.8713 H   0  0  0  0  0  0  0  0  0  0  0  0
  151.7256  142.5335  161.1961 H   0  0  0  0  0  0  0  0  0  0  0  0
  152.6284  143.7598  160.2932 H   0  0  0  0  0  0  0  0  0  0  0  0
  153.3877  142.2223  160.7010 H   0  0  0  0  0  0  0  0  0  0  0  0
  148.9910  143.8609  158.6293 H   0  0  0  0  0  0  0  0  0  0  0  0
  150.4618  144.5423  159.3204 H   0  0  0  0  0  0  0  0  0  0  0  0
  149.5666  143.2900  160.1946 H   0  0  0  0  0  0  0  0  0  0  0  0
  149.3332  142.3273  156.8704 H   0  0  0  0  0  0  0  0  0  0  0  0
  146.8877  136.7471  149.9800 H   0  0  0  0  0  0  0  0  0  0  0  0
  145.2154  137.1272  149.6884 H   0  0  0  0  0  0  0  0  0  0  0  0
  145.9130  134.8266  149.3112 H   0  0  0  0  0  0  0  0  0  0  0  0
  1  2  1  0  0  0  0
  1 26  1  0  0  0  0
  1 27  1  0  0  0  0
  1 28  1  0  0  0  0
  2  3  1  0  0  0  0
  2 29  1  0  0  0  0
  2 30  1  0  0  0  0
  3 25  1  0  0  0  0
  3  4  1  0  0  0  0
  3 56  1  0  0  0  0
  4  5  1  0  0  0  0
  4 31  1  0  0  0  0
  4 32  1  0  0  0  0
  5  6  1  0  0  0  0
  5 33  1  0  0  0  0
  5 34  1  0  0  0  0
  6  7  1  0  0  0  0
  7  8  1  0  0  0  0
  7 25  1  0  0  0  0
  7 35  1  0  0  0  0
  8  9  1  0  0  0  0
  8 36  1  0  0  0  0
  8 37  1  0  0  0  0
  9 10  1  0  0  0  0
  9 38  1  0  0  0  0
 10 11  1  0  0  0  0
 10 39  1  0  0  0  0
 10 40  1  0  0  0  0
 11 12  1  0  0  0  0
 11 13  1  0  0  0  0
 11 41  1  0  0  0  0
 12 42  1  0  0  0  0
 13 14  1  0  0  0  0
 13 43  1  0  0  0  0
 13 44  1  0  0  0  0
 14 24  1  0  0  0  0
 14 15  1  0  0  0  0
 15 16  2  0  0  0  0
 15 45  1  0  0  0  0
 16 17  1  0  0  0  0
 17 24  2  0  0  0  0
 17 18  1  0  0  0  0
 18 19  2  0  0  0  0
 18 46  1  0  0  0  0
 19 20  1  0  0  0  0
 19 21  1  0  0  0  0
 20 47  1  0  0  0  0
 20 48  1  0  0  0  0
 20 49  1  0  0  0  0
 21 22  1  0  0  0  0
 21 23  2  0  0  0  0
 22 50  1  0  0  0  0
 22 51  1  0  0  0  0
 22 52  1  0  0  0  0
 23 24  1  0  0  0  0
 23 53  1  0  0  0  0
 25 54  1  0  0  0  0
 25 55  1  0  0  0  0
M  CHG  1   3   1
M  END
> <s_m_source_file>
AV-unprocessed.smi

> <i_m_source_file_index>
1047

> <i_lp_mmshare_version>
43012

> <i_f3d_flags>
0

> <s_epik_input>
W0NIM11bQ0gyXU4xW0NIMl1bQ0gyXU9bQ0BIXShbQ0gyXTEpW0NIMl1bTkhdW0NIMl1bQ0BIXShbT0hdKVtDSDJdbihbY0hdbjIpYyhjMjMpW2NIXWMoW0NIM10pYyhbY0hdMylbQ0gzXQ==

> <s_epik_cmdline>
J2VwaWtfcHl0aG9uJywgJy1waCcsICc3LjAnLCAnLXRuJywgJzgnLCAnLW1hJywgJzIwMCcsICctbWV0YWxfYmluZGluZycsICctaW1hZScsICc8aW5maWxlLm1hZT4nLCAnLW9tYWUnLCAnPG91dGZpbGUubWFlPic=

> <r_epik_Ionization_Penalty>
1.19246

> <r_epik_Ionization_Penalty_Charging>
0.210041

> <r_epik_Ionization_Penalty_Neutral>
0.982415

> <r_epik_State_Penalty>
1.57595

> <r_epik_Charging_Adjusted_Penalty>
1.78599

> <i_epik_Tot_Q>
1

> <i_epik_Tot_abs_Q>
1

> <r_epik_Metal_State_Penalty>
1.46172

> <b_epik_Metal_Only>
0

> <s_lp_Force_Field>
OPLS_2005

> <r_lp_Energy>
32.195

> <b_lp_Chiralities_Consistent>
1

> <s_lp_Variant>
AV-unprocessed.smi:1047-14

> <Gold.Version>
5.8.1

> <Gold.Id.Protein>
6NUR|6NUR_protein|mol2

> <Gold.PLP.Fitness>
48.1350

> <Gold.PLP.PLP>
-42.6837

> <Gold.PLP.part.hbond>
-4.0000

> <Gold.PLP.part.metal>
0.0000

> <Gold.PLP.part.buried>
-1.5668

> <Gold.PLP.part.nonpolar>
-40.0529

> <Gold.PLP.part.repulsive>
3.6956

> <Gold.PLP.ligand.clash>
0.0000

> <Gold.PLP.ligand.torsion>
1.8960

> <Gold.PLP.Chemscore.Hbond>
2.9760

> <Gold.PLP.Chemscore.CHOScore>
0.0000

> <Gold.PLP.Chemscore.Metal>
0.0000

> <Gold.Chemscore.Hbonds>
donor molecule, donor type, donor heavy atom, donor atom, acceptor molecule, acceptor atom, score
      L1  H     3    56       P1  7921  1.00
      L1  H     9    38       P1  7957  1.00
      P1  H  7997  8009       L1    16  1.00

> <Gold.PLP.Chemscore.Internal.Correction>
0.3154

> <Gold.Rescore>
     Score         DG    S(hbond)    S(metal)    S(lipo)     H(rot)  DE(clash)    DE(int)     intcor
     16.23     -20.02       2.09        0.00     121.90       2.62       1.79       2.00       ----

> <Gold.Chemscore.Fitness>
16.2306

> <Gold.Chemscore.DG>
-20.0221

> <Gold.Chemscore.ZeroCoef>
-5.4800

> <Gold.Chemscore.Hbond>
2.0925

> <Gold.Chemscore.Metal>
0.0000

> <Gold.Chemscore.Lipo>
121.9047

> <Gold.Chemscore.Internal_Hbond>
0.0000

> <Gold.Chemscore.DEClash>
1.7947

> <Gold.Chemscore.DEInternal>
1.9968

> <Gold.Chemscore.Rot>
2.6209

> <Gold.Chemscore.Internal.Correction>
   9.000000E+99

> <Gold.Chemscore.Hbonds>
donor molecule, donor type, donor heavy atom, donor atom, acceptor molecule, acceptor atom, score
      L1  H     3    56       P1  7921  0.85
      L1  H     9    38       P1  7957  0.99
      P1  H  7997  8009       L1    16  0.30

> <Gold.Chemscore.Hbond.Weighted>
-6.9888

> <Gold.Chemscore.Metal.Weighted>
-0.0000

> <Gold.Chemscore.Lipo.Weighted>
-14.2628

> <Gold.Chemscore.Internal_Hbond.Weighted>
0.0000

> <Gold.Chemscore.DEClash.Weighted>
1.7947

> <Gold.Chemscore.DEInternal.Weighted>
1.9968

> <Gold.Chemscore.Rot.Weighted>
6.7096

> <Gold.Chemscore.Internal.Correction.Weighted>
   9.000000E+99

> <Gold.Protein.RotatedTorsions>
[ 6907 6896 6895 6894 ] final   64.35 input  -60.11 | X-H torsion
[ 7974 7965 7964 7962 ] final   48.48 input  175.53 | X-H torsion
[ 8008 7997 7996 7995 ] final -159.98 input   59.86 | X-H torsion
[ 10167 10162 10161 10158 ] final  162.12 input  -65.29 | X-H torsion
[ 10718 10713 10712 10709 ] final -149.01 input   66.30 | X-H torsion
[ 10763 10752 10751 10750 ] final  -56.87 input  -60.55 | X-H torsion
[ 11005 11000 10999 10996 ] final -143.30 input  -57.11 | X-H torsion

> <Gold.Protein.ActiveResidues>
 VAL166  LYS551  ARG553  GLY616  TRP617  ASP618  TYR619  PRO620  LYS621  CYS622 
 ASP623  PHE694  ASN695  SER759  ASP760  ASP761  ALA762  ILE779  LEU786  VAL792 
 PHE793  MET794  SER795  GLU796  ALA797  LYS798  CYS799  TRP800  GLU811  SER814 

> <Gold.Protein.RotatedAtoms>
  152.4325  134.5751  159.9931 H   0  0  0  0  0  0  0  0  0  0  0  0  # atno 6907 bound_to 6896
  151.5870  133.3365  159.3028 H   0  0  0  0  0  0  0  0  0  0  0  0  # atno 6908 bound_to 6896
  150.8219  134.7466  159.6844 H   0  0  0  0  0  0  0  0  0  0  0  0  # atno 6909 bound_to 6896
  146.0200  139.4640  142.9903 H   0  0  0  0  0  0  0  0  0  0  0  0  # atno 7974 bound_to 7965
  155.7706  140.0851  157.2109 H   0  0  0  0  0  0  0  0  0  0  0  0  # atno 8008 bound_to 7997
  154.3996  140.1526  156.2995 H   0  0  0  0  0  0  0  0  0  0  0  0  # atno 8009 bound_to 7997
  155.8750  140.3423  155.5850 H   0  0  0  0  0  0  0  0  0  0  0  0  # atno 8010 bound_to 7997
  139.4857  144.4468  151.8881 H   0  0  0  0  0  0  0  0  0  0  0  0  # atno 10167 bound_to 10162
  156.4276  130.8060  151.2285 H   0  0  0  0  0  0  0  0  0  0  0  0  # atno 10718 bound_to 10713
  154.2135  135.6390  153.5122 H   0  0  0  0  0  0  0  0  0  0  0  0  # atno 10763 bound_to 10752
  152.9984  135.5479  154.6190 H   0  0  0  0  0  0  0  0  0  0  0  0  # atno 10764 bound_to 10752
  154.5632  135.2910  155.0872 H   0  0  0  0  0  0  0  0  0  0  0  0  # atno 10765 bound_to 10752
  140.8139  134.2711  157.4929 H   0  0  0  0  0  0  0  0  0  0  0  0  # atno 11005 bound_to 11000
  145.7208  141.0075  143.1403 LP  0  0  0  0  0  0  0  0  0  0  0  0  # atno 17320 bound_to 7965
  144.6986  139.8868  143.7450 LP  0  0  0  0  0  0  0  0  0  0  0  0  # atno 17321 bound_to 7965
  140.3923  144.2599  150.5899 LP  0  0  0  0  0  0  0  0  0  0  0  0  # atno 17342 bound_to 10162
  140.5134  143.2284  151.8500 LP  0  0  0  0  0  0  0  0  0  0  0  0  # atno 17343 bound_to 10162
  157.7508  131.0208  150.3725 LP  0  0  0  0  0  0  0  0  0  0  0  0  # atno 17370 bound_to 10713
  156.4055  130.3924  149.6929 LP  0  0  0  0  0  0  0  0  0  0  0  0  # atno 17371 bound_to 10713
  139.8712  134.9498  156.4038 LP  0  0  0  0  0  0  0  0  0  0  0  0  # atno 17394 bound_to 11000
  140.9169  133.7672  155.9859 LP  0  0  0  0  0  0  0  0  0  0  0  0  # atno 17395 bound_to 11000

$$$$
