AV-unprocessed.smi:2339|AV-procd|sdf|9337|dock2
  -GOLD-   2272012553D 1   1.00000     0.00000
 Structure written by MMmdl.
 49 52  0  0  0  0  0  0  0  0  1 V2000
  151.2743  145.4565  160.2305 C   0  0  0  0  0  0  0  0  0  0  0  0
  151.9057  144.4199  161.1662 C   0  0  0  0  0  0  0  0  0  0  0  0
  152.3241  143.2248  160.4476 N   0  0  0  0  0  0  0  0  0  0  0  0
  151.8669  142.9595  159.1607 C   0  0  0  0  0  0  0  0  0  0  0  0
  152.1471  141.8333  158.4766 C   0  0  0  0  0  0  0  0  0  0  0  0
  152.9871  140.7942  159.1059 C   0  0  0  0  0  0  0  0  0  0  0  0
  153.2585  139.7499  158.5134 O   0  0  0  0  0  0  0  0  0  0  0  0
  153.4792  141.0806  160.4788 C   0  0  0  0  0  0  0  0  0  0  0  0
  154.2665  140.0854  161.0768 N   0  0  0  0  0  0  0  0  0  0  0  0
  154.8478  140.0744  162.2933 C   0  0  0  0  0  0  0  0  0  0  0  0
  154.8245  141.0021  163.0994 O   0  0  0  0  0  0  0  0  0  0  0  0
  155.5331  138.9473  162.5516 N   0  0  0  0  0  0  0  0  0  0  0  0
  156.2773  138.6147  163.7731 C   0  0  1  0  0  0  0  0  0  0  0  0
  155.5944  137.5381  164.6515 C   0  0  1  0  0  0  0  0  0  0  0  0
  154.1753  137.0682  164.4371 C   0  0  0  0  0  0  0  0  0  0  0  0
  154.3600  135.7877  163.6181 C   0  0  0  0  0  0  0  0  0  0  0  0
  155.6544  135.9134  163.0342 O   0  0  0  0  0  0  0  0  0  0  0  0
  156.5105  136.5122  164.0035 C   0  0  1  0  0  0  0  0  0  0  0  0
  157.4407  137.6331  163.4966 C   0  0  0  0  0  0  0  0  0  0  0  0
  158.0187  137.4928  162.0882 C   0  0  0  0  0  0  0  0  0  0  0  0
  159.3321  136.7225  162.2271 C   0  0  0  0  0  0  0  0  0  0  0  0
  159.8265  137.0158  163.6465 C   0  0  0  0  0  0  0  0  0  0  0  0
  158.7161  137.8339  164.3153 C   0  0  0  0  0  0  0  0  0  0  0  0
  153.1167  142.2538  161.0565 C   0  0  0  0  0  0  0  0  0  0  0  0
  150.9601  146.3391  160.7875 H   0  0  0  0  0  0  0  0  0  0  0  0
  150.3966  145.0506  159.7268 H   0  0  0  0  0  0  0  0  0  0  0  0
  151.9817  145.7804  159.4664 H   0  0  0  0  0  0  0  0  0  0  0  0
  152.7643  144.8569  161.6777 H   0  0  0  0  0  0  0  0  0  0  0  0
  151.1948  144.1445  161.9461 H   0  0  0  0  0  0  0  0  0  0  0  0
  151.2586  143.7437  158.7338 H   0  0  0  0  0  0  0  0  0  0  0  0
  151.7706  141.6717  157.4771 H   0  0  0  0  0  0  0  0  0  0  0  0
  154.4419  139.2807  160.4925 H   0  0  0  0  0  0  0  0  0  0  0  0
  155.6215  138.2872  161.7922 H   0  0  0  0  0  0  0  0  0  0  0  0
  156.6035  139.4857  164.3447 H   0  0  0  0  0  0  0  0  0  0  0  0
  155.8528  137.6809  165.7019 H   0  0  0  0  0  0  0  0  0  0  0  0
  153.6637  136.8612  165.3773 H   0  0  0  0  0  0  0  0  0  0  0  0
  153.5732  137.7975  163.8975 H   0  0  0  0  0  0  0  0  0  0  0  0
  154.3493  134.9124  164.2691 H   0  0  0  0  0  0  0  0  0  0  0  0
  153.5888  135.6584  162.8587 H   0  0  0  0  0  0  0  0  0  0  0  0
  156.9474  135.7974  164.7025 H   0  0  0  0  0  0  0  0  0  0  0  0
  157.3383  136.9939  161.3975 H   0  0  0  0  0  0  0  0  0  0  0  0
  158.2233  138.4797  161.6707 H   0  0  0  0  0  0  0  0  0  0  0  0
  159.1471  135.6532  162.1167 H   0  0  0  0  0  0  0  0  0  0  0  0
  160.0565  137.0120  161.4655 H   0  0  0  0  0  0  0  0  0  0  0  0
  159.9949  136.0823  164.1848 H   0  0  0  0  0  0  0  0  0  0  0  0
  160.7681  137.5660  163.6411 H   0  0  0  0  0  0  0  0  0  0  0  0
  158.9970  138.8880  164.3114 H   0  0  0  0  0  0  0  0  0  0  0  0
  158.5901  137.5494  165.3609 H   0  0  0  0  0  0  0  0  0  0  0  0
  153.4112  142.5292  162.0571 H   0  0  0  0  0  0  0  0  0  0  0  0
  1  2  1  0  0  0  0
  1 25  1  0  0  0  0
  1 26  1  0  0  0  0
  1 27  1  0  0  0  0
  2  3  1  0  0  0  0
  2 28  1  0  0  0  0
  2 29  1  0  0  0  0
  3 24  1  0  0  0  0
  3  4  1  0  0  0  0
  4  5  2  0  0  0  0
  4 30  1  0  0  0  0
  5  6  1  0  0  0  0
  5 31  1  0  0  0  0
  6  7  2  0  0  0  0
  6  8  1  0  0  0  0
  8  9  1  0  0  0  0
  8 24  2  0  0  0  0
  9 10  1  0  0  0  0
  9 32  1  0  0  0  0
 10 11  2  0  0  0  0
 10 12  1  0  0  0  0
 12 13  1  0  0  0  0
 12 33  1  0  0  0  0
 13 19  1  0  0  0  0
 13 14  1  0  0  0  0
 13 34  1  0  0  0  0
 14 18  1  0  0  0  0
 14 15  1  0  0  0  0
 14 35  1  0  0  0  0
 15 16  1  0  0  0  0
 15 36  1  0  0  0  0
 15 37  1  0  0  0  0
 16 17  1  0  0  0  0
 16 38  1  0  0  0  0
 16 39  1  0  0  0  0
 17 18  1  0  0  0  0
 18 19  1  0  0  0  0
 18 40  1  0  0  0  0
 19 23  1  0  0  0  0
 19 20  1  0  0  0  0
 20 21  1  0  0  0  0
 20 41  1  0  0  0  0
 20 42  1  0  0  0  0
 21 22  1  0  0  0  0
 21 43  1  0  0  0  0
 21 44  1  0  0  0  0
 22 23  1  0  0  0  0
 22 45  1  0  0  0  0
 22 46  1  0  0  0  0
 23 47  1  0  0  0  0
 23 48  1  0  0  0  0
 24 49  1  0  0  0  0
M  END
> <s_m_source_file>
AV-unprocessed.smi

> <i_m_source_file_index>
2339

> <i_lp_mmshare_version>
43012

> <i_f3d_flags>
0

> <s_epik_input>
W0NIM11bQ0gyXW4xW2NIXVtjSF1jKD1PKWMoW2NIXTEpW05IXUMoPU8pW05IXVtDQEBIXTJbQ0BASF0oW0NIMl1bQ0gyXU8zKVtDQEBIXTNDMjRbQ0gyXVtDSDJdW0NIMl1bQ0gyXTQ=

> <s_epik_cmdline>
J2VwaWtfcHl0aG9uJywgJy1waCcsICc3LjAnLCAnLXRuJywgJzgnLCAnLW1hJywgJzIwMCcsICctbWV0YWxfYmluZGluZycsICctaW1hZScsICc8aW5maWxlLm1hZT4nLCAnLW9tYWUnLCAnPG91dGZpbGUubWFlPic=

> <r_lp_tautomer_probability>
1

> <r_epik_Ionization_Penalty>
0.00145966

> <r_epik_Ionization_Penalty_Charging>
0.00143969

> <r_epik_Ionization_Penalty_Neutral>
1.99697e-05

> <r_epik_State_Penalty>
0.000961843

> <r_epik_Charging_Adjusted_Penalty>
0.00240153

> <i_epik_Tot_Q>
0

> <i_epik_Tot_abs_Q>
0

> <r_epik_Metal_State_Penalty>
-0

> <b_epik_Metal_Only>
0

> <s_lp_Force_Field>
OPLS_2005

> <r_lp_Energy>
59.7263

> <b_lp_Chiralities_Consistent>
1

> <s_lp_Variant>
AV-unprocessed.smi:2339-2

> <Gold.Version>
5.8.1

> <Gold.Id.Protein>
6NUR|6NUR_protein|mol2

> <Gold.PLP.Fitness>
43.6351

> <Gold.PLP.PLP>
-41.2378

> <Gold.PLP.part.hbond>
-2.0000

> <Gold.PLP.part.metal>
0.0000

> <Gold.PLP.part.buried>
-5.9146

> <Gold.PLP.part.nonpolar>
-32.9145

> <Gold.PLP.part.repulsive>
0.0251

> <Gold.PLP.ligand.clash>
0.0000

> <Gold.PLP.ligand.torsion>
0.4045

> <Gold.PLP.Chemscore.Hbond>
1.0000

> <Gold.PLP.Chemscore.CHOScore>
0.0000

> <Gold.PLP.Chemscore.Metal>
0.0000

> <Gold.Chemscore.Hbonds>
donor molecule, donor type, donor heavy atom, donor atom, acceptor molecule, acceptor atom, score
      P1  H  7997  8008       L1     7  1.00

> <Gold.PLP.Chemscore.Internal.Correction>
0.2063

> <Gold.Rescore>
     Score         DG    S(hbond)    S(metal)    S(lipo)     H(rot)  DE(clash)    DE(int)     intcor
     15.02     -16.80       0.97        0.00      94.72       1.17       0.06       1.71       ----

> <Gold.Chemscore.Fitness>
15.0228

> <Gold.Chemscore.DG>
-16.7984

> <Gold.Chemscore.ZeroCoef>
-5.4800

> <Gold.Chemscore.Hbond>
0.9651

> <Gold.Chemscore.Metal>
0.0000

> <Gold.Chemscore.Lipo>
94.7217

> <Gold.Chemscore.Internal_Hbond>
0.0000

> <Gold.Chemscore.DEClash>
0.0621

> <Gold.Chemscore.DEInternal>
1.7135

> <Gold.Chemscore.Rot>
1.1670

> <Gold.Chemscore.Internal.Correction>
   9.000000E+99

> <Gold.Chemscore.Hbonds>
donor molecule, donor type, donor heavy atom, donor atom, acceptor molecule, acceptor atom, score
      P1  H  7997  8008       L1     7  0.73

> <Gold.Chemscore.Hbond.Weighted>
-3.2234

> <Gold.Chemscore.Metal.Weighted>
-0.0000

> <Gold.Chemscore.Lipo.Weighted>
-11.0824

> <Gold.Chemscore.Internal_Hbond.Weighted>
0.0000

> <Gold.Chemscore.DEClash.Weighted>
0.0621

> <Gold.Chemscore.DEInternal.Weighted>
1.7135

> <Gold.Chemscore.Rot.Weighted>
2.9874

> <Gold.Chemscore.Internal.Correction.Weighted>
   9.000000E+99

> <Gold.Protein.RotatedTorsions>
[ 6907 6896 6895 6894 ] final  -85.75 input  -60.11 | X-H torsion
[ 7974 7965 7964 7962 ] final -118.48 input  175.53 | X-H torsion
[ 8008 7997 7996 7995 ] final  -96.70 input   59.86 | X-H torsion
[ 10167 10162 10161 10158 ] final  169.53 input  -65.29 | X-H torsion
[ 10718 10713 10712 10709 ] final  -17.59 input   66.30 | X-H torsion
[ 10763 10752 10751 10750 ] final  -48.38 input  -60.55 | X-H torsion
[ 11005 11000 10999 10996 ] final  138.62 input  -57.11 | X-H torsion

> <Gold.Protein.ActiveResidues>
 VAL166  LYS551  ARG553  GLY616  TRP617  ASP618  TYR619  PRO620  LYS621  CYS622 
 ASP623  PHE694  ASN695  SER759  ASP760  ASP761  ALA762  ILE779  LEU786  VAL792 
 PHE793  MET794  SER795  GLU796  ALA797  LYS798  CYS799  TRP800  GLU811  SER814 

> <Gold.Protein.RotatedAtoms>
  150.6869  134.3156  159.4764 H   0  0  0  0  0  0  0  0  0  0  0  0  # atno 6907 bound_to 6896
  152.1037  134.9321  160.0578 H   0  0  0  0  0  0  0  0  0  0  0  0  # atno 6908 bound_to 6896
  152.0590  133.4019  159.4446 H   0  0  0  0  0  0  0  0  0  0  0  0  # atno 6909 bound_to 6896
  145.0733  140.8374  143.4082 H   0  0  0  0  0  0  0  0  0  0  0  0  # atno 7974 bound_to 7965
  154.7780  140.0469  157.1104 H   0  0  0  0  0  0  0  0  0  0  0  0  # atno 8008 bound_to 7997
  154.9740  140.3093  155.4956 H   0  0  0  0  0  0  0  0  0  0  0  0  # atno 8009 bound_to 7997
  156.2932  140.2248  156.4834 H   0  0  0  0  0  0  0  0  0  0  0  0  # atno 8010 bound_to 7997
  139.4994  144.3696  151.9738 H   0  0  0  0  0  0  0  0  0  0  0  0  # atno 10167 bound_to 10162
  156.5713  130.4750  149.6361 H   0  0  0  0  0  0  0  0  0  0  0  0  # atno 10718 bound_to 10713
  154.0768  135.6597  153.4832 H   0  0  0  0  0  0  0  0  0  0  0  0  # atno 10763 bound_to 10752
  153.0370  135.5170  154.7513 H   0  0  0  0  0  0  0  0  0  0  0  0  # atno 10764 bound_to 10752
  154.6595  135.3013  154.9852 H   0  0  0  0  0  0  0  0  0  0  0  0  # atno 10765 bound_to 10752
  140.0196  134.9402  157.0447 H   0  0  0  0  0  0  0  0  0  0  0  0  # atno 11005 bound_to 11000
  145.1266  139.2659  143.5561 LP  0  0  0  0  0  0  0  0  0  0  0  0  # atno 17320 bound_to 7965
  146.3529  140.0905  142.8613 LP  0  0  0  0  0  0  0  0  0  0  0  0  # atno 17321 bound_to 7965
  140.3132  144.3513  150.6028 LP  0  0  0  0  0  0  0  0  0  0  0  0  # atno 17342 bound_to 10162
  140.5782  143.2175  151.7477 LP  0  0  0  0  0  0  0  0  0  0  0  0  # atno 17343 bound_to 10162
  156.2712  130.7018  151.1815 LP  0  0  0  0  0  0  0  0  0  0  0  0  # atno 17370 bound_to 10713
  157.7347  131.0579  150.5508 LP  0  0  0  0  0  0  0  0  0  0  0  0  # atno 17371 bound_to 10713
  140.4410  134.1681  155.7174 LP  0  0  0  0  0  0  0  0  0  0  0  0  # atno 17394 bound_to 11000
  141.1765  133.8503  157.1403 LP  0  0  0  0  0  0  0  0  0  0  0  0  # atno 17395 bound_to 11000

$$$$
