AV-unprocessed.smi:1285|AV-procd|sdf|5370|dock9
  -GOLD-   22720 4513D 1   1.00000     0.00000
 Structure written by MMmdl.
 46 47  0  0  0  0  0  0  0  0  1 V2000
  148.0641  141.3217  153.9756 C   0  0  0  0  0  0  0  0  0  0  0  0
  148.8032  140.0326  154.3799 C   0  0  0  0  0  0  0  0  0  0  0  0
  149.5205  140.0720  155.7670 C   0  0  2  0  0  0  0  0  0  0  0  0
  148.3985  140.0394  156.8397 C   0  0  0  0  0  0  0  0  0  0  0  0
  150.2870  141.4299  155.8832 C   0  0  0  0  0  0  0  0  0  0  0  0
  150.8005  141.7122  157.2236 N   0  0  0  0  0  0  0  0  0  0  0  0
  151.7791  141.0372  157.8482 C   0  0  0  0  0  0  0  0  0  0  0  0
  152.3572  140.0708  157.3498 O   0  0  0  0  0  0  0  0  0  0  0  0
  152.1592  141.5344  159.2509 C   0  0  1  0  0  0  0  0  0  0  0  0
  153.4940  140.9384  159.7429 C   0  0  0  0  0  0  0  0  0  0  0  0
  152.1536  142.9921  159.2827 N   0  0  0  0  0  0  0  0  0  0  0  0
  152.8633  143.8666  158.5658 C   0  0  0  0  0  0  0  0  0  0  0  0
  152.6461  145.1333  158.8906 N   0  0  0  0  0  0  0  0  0  0  0  0
  151.7374  144.9578  159.8954 C   0  0  0  0  0  0  0  0  0  0  0  0
  151.4161  143.6955  160.1782 N   0  0  0  0  0  0  0  0  0  0  0  0
  150.4299  138.9027  155.9340 N   0  0  0  0  0  0  0  0  0  0  0  0
  151.5672  138.8566  155.0066 C   0  0  0  0  0  0  0  0  0  0  0  0
  152.5337  137.7065  155.3363 C   0  0  0  0  0  0  0  0  0  0  0  0
  151.8299  136.4704  155.3274 O   0  0  0  0  0  0  0  0  0  0  0  0
  150.7514  136.4522  156.2547 C   0  0  0  0  0  0  0  0  0  0  0  0
  149.7704  137.5911  155.9292 C   0  0  0  0  0  0  0  0  0  0  0  0
  147.5874  141.1983  153.0031 H   0  0  0  0  0  0  0  0  0  0  0  0
  148.7434  142.1700  153.8964 H   0  0  0  0  0  0  0  0  0  0  0  0
  147.2821  141.5829  154.6887 H   0  0  0  0  0  0  0  0  0  0  0  0
  148.1017  139.1994  154.3407 H   0  0  0  0  0  0  0  0  0  0  0  0
  149.5262  139.8141  153.5932 H   0  0  0  0  0  0  0  0  0  0  0  0
  147.5852  140.7264  156.6038 H   0  0  0  0  0  0  0  0  0  0  0  0
  148.7673  140.3268  157.8245 H   0  0  0  0  0  0  0  0  0  0  0  0
  147.9598  139.0458  156.9348 H   0  0  0  0  0  0  0  0  0  0  0  0
  151.1031  141.4833  155.1627 H   0  0  0  0  0  0  0  0  0  0  0  0
  149.6257  142.2602  155.6375 H   0  0  0  0  0  0  0  0  0  0  0  0
  150.3791  142.4887  157.7123 H   0  0  0  0  0  0  0  0  0  0  0  0
  151.3846  141.1979  159.9424 H   0  0  0  0  0  0  0  0  0  0  0  0
  153.4570  139.8483  159.7516 H   0  0  0  0  0  0  0  0  0  0  0  0
  153.7128  141.2646  160.7600 H   0  0  0  0  0  0  0  0  0  0  0  0
  154.3348  141.2333  159.1139 H   0  0  0  0  0  0  0  0  0  0  0  0
  153.5573  143.5701  157.7930 H   0  0  0  0  0  0  0  0  0  0  0  0
  151.3051  145.7847  160.4392 H   0  0  0  0  0  0  0  0  0  0  0  0
  151.2171  138.7331  153.9819 H   0  0  0  0  0  0  0  0  0  0  0  0
  152.1346  139.7850  155.0373 H   0  0  0  0  0  0  0  0  0  0  0  0
  153.3367  137.6641  154.6003 H   0  0  0  0  0  0  0  0  0  0  0  0
  153.0001  137.8616  156.3105 H   0  0  0  0  0  0  0  0  0  0  0  0
  150.2464  135.4881  156.1935 H   0  0  0  0  0  0  0  0  0  0  0  0
  151.1334  136.5501  157.2723 H   0  0  0  0  0  0  0  0  0  0  0  0
  148.9641  137.5552  156.6593 H   0  0  0  0  0  0  0  0  0  0  0  0
  149.3240  137.3960  154.9541 H   0  0  0  0  0  0  0  0  0  0  0  0
  1  2  1  0  0  0  0
  1 22  1  0  0  0  0
  1 23  1  0  0  0  0
  1 24  1  0  0  0  0
  2  3  1  0  0  0  0
  2 25  1  0  0  0  0
  2 26  1  0  0  0  0
  3  4  1  0  0  0  0
  3  5  1  0  0  0  0
  3 16  1  0  0  0  0
  4 27  1  0  0  0  0
  4 28  1  0  0  0  0
  4 29  1  0  0  0  0
  5  6  1  0  0  0  0
  5 30  1  0  0  0  0
  5 31  1  0  0  0  0
  6  7  1  0  0  0  0
  6 32  1  0  0  0  0
  7  8  2  0  0  0  0
  7  9  1  0  0  0  0
  9 10  1  0  0  0  0
  9 11  1  0  0  0  0
  9 33  1  0  0  0  0
 10 34  1  0  0  0  0
 10 35  1  0  0  0  0
 10 36  1  0  0  0  0
 11 15  1  0  0  0  0
 11 12  1  0  0  0  0
 12 13  2  0  0  0  0
 12 37  1  0  0  0  0
 13 14  1  0  0  0  0
 14 15  2  0  0  0  0
 14 38  1  0  0  0  0
 16 21  1  0  0  0  0
 16 17  1  0  0  0  0
 17 18  1  0  0  0  0
 17 39  1  0  0  0  0
 17 40  1  0  0  0  0
 18 19  1  0  0  0  0
 18 41  1  0  0  0  0
 18 42  1  0  0  0  0
 19 20  1  0  0  0  0
 20 21  1  0  0  0  0
 20 43  1  0  0  0  0
 20 44  1  0  0  0  0
 21 45  1  0  0  0  0
 21 46  1  0  0  0  0
M  END
> <s_m_source_file>
AV-unprocessed.smi

> <i_m_source_file_index>
1285

> <i_lp_mmshare_version>
43012

> <i_f3d_flags>
0

> <s_epik_input>
W0NIMl0xW0NIMl1PW0NIMl1bQ0gyXU4xW0NAQF0oW0NIM10pKFtDSDJdW0NIM10pW0NIMl1bTkhdQyg9TylbQ0BIXShbQ0gzXSluMltjSF1uW2NIXW4y

> <s_epik_cmdline>
J2VwaWtfcHl0aG9uJywgJy1waCcsICc3LjAnLCAnLXRuJywgJzgnLCAnLW1hJywgJzIwMCcsICctbWV0YWxfYmluZGluZycsICctaW1hZScsICc8aW5maWxlLm1hZT4nLCAnLW9tYWUnLCAnPG91dGZpbGUubWFlPic=

> <r_lp_tautomer_probability>
1

> <r_epik_Ionization_Penalty>
0.285697

> <r_epik_Ionization_Penalty_Charging>
0

> <r_epik_Ionization_Penalty_Neutral>
0.285697

> <r_epik_State_Penalty>
0.278478

> <r_epik_Charging_Adjusted_Penalty>
0.278478

> <i_epik_Tot_Q>
0

> <i_epik_Tot_abs_Q>
0

> <r_epik_Metal_State_Penalty>
0.278477

> <b_epik_Metal_Only>
0

> <s_lp_Force_Field>
OPLS_2005

> <r_lp_Energy>
49.308

> <b_lp_Chiralities_Consistent>
1

> <s_lp_Variant>
AV-unprocessed.smi:1285-4

> <Gold.Version>
5.8.1

> <Gold.Id.Protein>
6NUR|6NUR_protein|mol2

> <Gold.PLP.Fitness>
43.2780

> <Gold.PLP.PLP>
-40.0673

> <Gold.PLP.part.hbond>
-1.9614

> <Gold.PLP.part.metal>
0.0000

> <Gold.PLP.part.buried>
-2.8695

> <Gold.PLP.part.nonpolar>
-34.9683

> <Gold.PLP.part.repulsive>
0.2820

> <Gold.PLP.ligand.clash>
0.0000

> <Gold.PLP.ligand.torsion>
0.7669

> <Gold.PLP.Chemscore.Hbond>
1.5166

> <Gold.PLP.Chemscore.CHOScore>
0.0000

> <Gold.PLP.Chemscore.Metal>
0.0000

> <Gold.Chemscore.Hbonds>
donor molecule, donor type, donor heavy atom, donor atom, acceptor molecule, acceptor atom, score
      P1  H  7997  8008       L1     8  0.67
      P1  H 10752 10765       L1    19  0.85

> <Gold.PLP.Chemscore.Internal.Correction>
0.1948

> <Gold.Rescore>
     Score         DG    S(hbond)    S(metal)    S(lipo)     H(rot)  DE(clash)    DE(int)     intcor
      8.95     -11.17       1.48        0.00      65.11       2.68       0.03       2.20       ----

> <Gold.Chemscore.Fitness>
8.9458

> <Gold.Chemscore.DG>
-11.1747

> <Gold.Chemscore.ZeroCoef>
-5.4800

> <Gold.Chemscore.Hbond>
1.4800

> <Gold.Chemscore.Metal>
0.0000

> <Gold.Chemscore.Lipo>
65.1089

> <Gold.Chemscore.Internal_Hbond>
0.0000

> <Gold.Chemscore.DEClash>
0.0252

> <Gold.Chemscore.DEInternal>
2.2037

> <Gold.Chemscore.Rot>
2.6821

> <Gold.Chemscore.Internal.Correction>
   9.000000E+99

> <Gold.Chemscore.Hbonds>
donor molecule, donor type, donor heavy atom, donor atom, acceptor molecule, acceptor atom, score
      P1  H  7997  8008       L1     8  0.63
      P1  H 10752 10765       L1    19  0.14

> <Gold.Chemscore.Hbond.Weighted>
-4.9431

> <Gold.Chemscore.Metal.Weighted>
-0.0000

> <Gold.Chemscore.Lipo.Weighted>
-7.6177

> <Gold.Chemscore.Internal_Hbond.Weighted>
0.0000

> <Gold.Chemscore.DEClash.Weighted>
0.0252

> <Gold.Chemscore.DEInternal.Weighted>
2.2037

> <Gold.Chemscore.Rot.Weighted>
6.8661

> <Gold.Chemscore.Internal.Correction.Weighted>
   9.000000E+99

> <Gold.Protein.RotatedTorsions>
[ 6907 6896 6895 6894 ] final   70.12 input  -60.11 | X-H torsion
[ 7974 7965 7964 7962 ] final  -22.97 input  175.53 | X-H torsion
[ 8008 7997 7996 7995 ] final  -50.77 input   59.86 | X-H torsion
[ 10167 10162 10161 10158 ] final -116.35 input  -65.29 | X-H torsion
[ 10718 10713 10712 10709 ] final   36.24 input   66.30 | X-H torsion
[ 10763 10752 10751 10750 ] final  174.82 input  -60.55 | X-H torsion
[ 11005 11000 10999 10996 ] final  -13.73 input  -57.11 | X-H torsion

> <Gold.Protein.ActiveResidues>
 VAL166  LYS551  ARG553  GLY616  TRP617  ASP618  TYR619  PRO620  LYS621  CYS622 
 ASP623  PHE694  ASN695  SER759  ASP760  ASP761  ALA762  ILE779  LEU786  VAL792 
 PHE793  MET794  SER795  GLU796  ALA797  LYS798  CYS799  TRP800  GLU811  SER814 

> <Gold.Protein.RotatedAtoms>
  152.4730  134.4915  159.9696 H   0  0  0  0  0  0  0  0  0  0  0  0  # atno 6907 bound_to 6896
  151.4937  133.3513  159.2865 H   0  0  0  0  0  0  0  0  0  0  0  0  # atno 6908 bound_to 6896
  150.8750  134.8159  159.7245 H   0  0  0  0  0  0  0  0  0  0  0  0  # atno 6909 bound_to 6896
  146.1644  140.4552  142.8558 H   0  0  0  0  0  0  0  0  0  0  0  0  # atno 7974 bound_to 7965
  154.4069  140.1264  156.4720 H   0  0  0  0  0  0  0  0  0  0  0  0  # atno 8008 bound_to 7997
  155.7169  140.3493  155.4979 H   0  0  0  0  0  0  0  0  0  0  0  0  # atno 8009 bound_to 7997
  155.9249  140.1059  157.1168 H   0  0  0  0  0  0  0  0  0  0  0  0  # atno 8010 bound_to 7997
  140.0802  143.4795  152.1930 H   0  0  0  0  0  0  0  0  0  0  0  0  # atno 10167 bound_to 10162
  157.3325  130.7505  149.6857 H   0  0  0  0  0  0  0  0  0  0  0  0  # atno 10718 bound_to 10713
  154.4591  135.2767  155.1726 H   0  0  0  0  0  0  0  0  0  0  0  0  # atno 10763 bound_to 10752
  154.3521  135.6148  153.5651 H   0  0  0  0  0  0  0  0  0  0  0  0  # atno 10764 bound_to 10752
  152.9853  135.5814  154.4950 H   0  0  0  0  0  0  0  0  0  0  0  0  # atno 10765 bound_to 10752
  140.7792  133.8377  155.9276 H   0  0  0  0  0  0  0  0  0  0  0  0  # atno 11005 bound_to 11000
  144.8072  140.6320  143.6439 LP  0  0  0  0  0  0  0  0  0  0  0  0  # atno 17320 bound_to 7965
  145.4505  139.1524  143.3921 LP  0  0  0  0  0  0  0  0  0  0  0  0  # atno 17321 bound_to 7965
  139.5784  144.7499  151.3704 LP  0  0  0  0  0  0  0  0  0  0  0  0  # atno 17342 bound_to 10162
  140.7082  143.7460  150.7519 LP  0  0  0  0  0  0  0  0  0  0  0  0  # atno 17343 bound_to 10162
  155.9697  130.4191  150.4359 LP  0  0  0  0  0  0  0  0  0  0  0  0  # atno 17370 bound_to 10713
  157.2394  131.0522  151.2446 LP  0  0  0  0  0  0  0  0  0  0  0  0  # atno 17371 bound_to 10713
  140.9499  134.1792  157.4735 LP  0  0  0  0  0  0  0  0  0  0  0  0  # atno 17394 bound_to 11000
  139.8745  134.9905  156.5506 LP  0  0  0  0  0  0  0  0  0  0  0  0  # atno 17395 bound_to 11000

$$$$
