AV-unprocessed.smi:215|AV-procd|sdf|1656|dock9
  -GOLD-   2262020 53D 1   1.00000     0.00000
 Structure written by MMmdl.
 59 62  0  0  0  0  0  0  0  0  2 V2000
  147.3664  141.4668  155.1815 C   0  0  0  0  0  0  0  0  0  0  0  0
  148.4753  140.6453  155.8597 C   0  0  2  0  0  0  0  0  0  0  0  0
  149.7722  141.4300  156.0907 C   0  0  1  0  0  0  0  0  0  0  0  0
  149.7181  142.4751  157.1559 N   0  3  1  0  0  0  0  0  0  0  0  0
  148.6643  142.2860  158.1872 C   0  0  0  0  0  0  0  0  0  0  0  0
  151.0552  142.7475  157.7464 C   0  0  0  0  0  0  0  0  0  0  0  0
  151.0244  143.8954  158.7696 C   0  0  0  0  0  0  0  0  0  0  0  0
  150.4468  145.0447  158.1876 O   0  0  0  0  0  0  0  0  0  0  0  0
  150.7894  140.3065  156.3087 C   0  0  0  0  0  0  0  0  0  0  0  0
  150.3009  139.2118  155.3520 C   0  0  0  0  0  0  0  0  0  0  0  0
  148.8970  139.5019  155.0553 N   0  0  0  0  0  0  0  0  0  0  0  0
  148.0498  138.4479  155.0856 C   0  0  0  0  0  0  0  0  0  0  0  0
  147.8214  137.7888  156.2522 N   0  0  0  0  0  0  0  0  0  0  0  0
  146.9691  136.7597  156.2791 C   0  0  0  0  0  0  0  0  0  0  0  0
  146.2522  136.2439  155.2784 N   0  0  0  0  0  0  0  0  0  0  0  0
  146.4749  136.9087  154.1075 C   0  0  0  0  0  0  0  0  0  0  0  0
  147.3525  138.0142  153.9280 C   0  0  0  0  0  0  0  0  0  0  0  0
  147.3253  138.4385  152.6065 N   0  0  0  0  0  0  0  0  0  0  0  0
  146.4780  137.6276  152.0335 C   0  0  0  0  0  0  0  0  0  0  0  0
  145.9177  136.6774  152.8593 N   0  0  0  0  0  0  0  0  0  0  0  0
  144.9625  135.6742  152.4779 C   0  0  0  0  0  0  0  0  0  0  0  0
  144.7037  134.4433  153.3513 C   0  0  0  0  0  0  0  0  0  0  0  0
  144.4351  133.6102  152.0757 C   0  0  0  0  0  0  0  0  0  0  0  0
  145.0017  132.1765  152.0597 C   0  0  0  0  0  0  0  0  0  0  0  0
  146.3925  132.1381  152.3107 O   0  0  0  0  0  0  0  0  0  0  0  0
  142.9462  133.5164  151.6922 C   0  0  0  0  0  0  0  0  0  0  0  0
  142.7494  132.6911  150.5617 O   0  0  0  0  0  0  0  0  0  0  0  0
  145.2434  134.6997  151.3312 C   0  0  0  0  0  0  0  0  0  0  0  0
  148.0954  140.2582  156.8045 H   0  0  0  0  0  0  0  0  0  0  0  0
  150.0167  141.9273  155.1496 H   0  0  0  0  0  0  0  0  0  0  0  0
  147.0978  142.3339  155.7852 H   0  0  0  0  0  0  0  0  0  0  0  0
  146.4620  140.8743  155.0421 H   0  0  0  0  0  0  0  0  0  0  0  0
  147.6825  141.8271  154.2017 H   0  0  0  0  0  0  0  0  0  0  0  0
  148.8480  141.4026  158.7983 H   0  0  0  0  0  0  0  0  0  0  0  0
  147.6723  142.2018  157.7478 H   0  0  0  0  0  0  0  0  0  0  0  0
  148.6237  143.1413  158.8602 H   0  0  0  0  0  0  0  0  0  0  0  0
  151.4392  141.8371  158.2091 H   0  0  0  0  0  0  0  0  0  0  0  0
  151.7703  143.0111  156.9656 H   0  0  0  0  0  0  0  0  0  0  0  0
  150.4815  143.6286  159.6756 H   0  0  0  0  0  0  0  0  0  0  0  0
  152.0414  144.1436  159.0743 H   0  0  0  0  0  0  0  0  0  0  0  0
  150.1208  144.8176  157.3294 H   0  0  0  0  0  0  0  0  0  0  0  0
  151.8157  140.6135  156.1055 H   0  0  0  0  0  0  0  0  0  0  0  0
  150.7487  139.9220  157.3271 H   0  0  0  0  0  0  0  0  0  0  0  0
  150.8549  139.2633  154.4143 H   0  0  0  0  0  0  0  0  0  0  0  0
  150.4684  138.2179  155.7690 H   0  0  0  0  0  0  0  0  0  0  0  0
  146.8411  136.2818  157.2392 H   0  0  0  0  0  0  0  0  0  0  0  0
  146.2371  137.7035  150.9830 H   0  0  0  0  0  0  0  0  0  0  0  0
  144.0228  136.1983  152.2927 H   0  0  0  0  0  0  0  0  0  0  0  0
  145.5871  134.1262  153.9064 H   0  0  0  0  0  0  0  0  0  0  0  0
  143.8481  134.5421  154.0199 H   0  0  0  0  0  0  0  0  0  0  0  0
  144.5100  131.5570  152.8103 H   0  0  0  0  0  0  0  0  0  0  0  0
  144.8311  131.6976  151.0953 H   0  0  0  0  0  0  0  0  0  0  0  0
  146.5687  131.4396  152.9223 H   0  0  0  0  0  0  0  0  0  0  0  0
  142.3525  133.1252  152.5190 H   0  0  0  0  0  0  0  0  0  0  0  0
  142.5349  134.4994  151.4616 H   0  0  0  0  0  0  0  0  0  0  0  0
  142.0907  133.0867  150.0114 H   0  0  0  0  0  0  0  0  0  0  0  0
  144.8260  135.0078  150.3723 H   0  0  0  0  0  0  0  0  0  0  0  0
  146.3026  134.4617  151.2283 H   0  0  0  0  0  0  0  0  0  0  0  0
  149.4743  143.3239  156.6650 H   0  0  0  0  0  0  0  0  0  0  0  0
  1  2  1  0  0  0  0
  1 31  1  0  0  0  0
  1 32  1  0  0  0  0
  1 33  1  0  0  0  0
  2 29  1  0  0  0  0
  2 11  1  0  0  0  0
  2  3  1  0  0  0  0
  3 30  1  0  0  0  0
  3  4  1  0  0  0  0
  3  9  1  0  0  0  0
  4  5  1  0  0  0  0
  4  6  1  0  0  0  0
  4 59  1  0  0  0  0
  5 34  1  0  0  0  0
  5 35  1  0  0  0  0
  5 36  1  0  0  0  0
  6  7  1  0  0  0  0
  6 37  1  0  0  0  0
  6 38  1  0  0  0  0
  7  8  1  0  0  0  0
  7 39  1  0  0  0  0
  7 40  1  0  0  0  0
  8 41  1  0  0  0  0
  9 10  1  0  0  0  0
  9 42  1  0  0  0  0
  9 43  1  0  0  0  0
 10 11  1  0  0  0  0
 10 44  1  0  0  0  0
 10 45  1  0  0  0  0
 11 12  1  0  0  0  0
 12 17  1  0  0  0  0
 12 13  2  0  0  0  0
 13 14  1  0  0  0  0
 14 15  2  0  0  0  0
 14 46  1  0  0  0  0
 15 16  1  0  0  0  0
 16 20  1  0  0  0  0
 16 17  2  0  0  0  0
 17 18  1  0  0  0  0
 18 19  2  0  0  0  0
 19 20  1  0  0  0  0
 19 47  1  0  0  0  0
 20 21  1  0  0  0  0
 21 28  1  0  0  0  0
 21 22  1  0  0  0  0
 21 48  1  0  0  0  0
 22 23  1  0  0  0  0
 22 49  1  0  0  0  0
 22 50  1  0  0  0  0
 23 24  1  0  0  0  0
 23 26  1  0  0  0  0
 23 28  1  0  0  0  0
 24 25  1  0  0  0  0
 24 51  1  0  0  0  0
 24 52  1  0  0  0  0
 25 53  1  0  0  0  0
 26 27  1  0  0  0  0
 26 54  1  0  0  0  0
 26 55  1  0  0  0  0
 27 56  1  0  0  0  0
 28 57  1  0  0  0  0
 28 58  1  0  0  0  0
M  CHG  1   4   1
M  END
> <s_m_source_file>
AV-unprocessed.smi

> <i_m_source_file_index>
215

> <i_lp_mmshare_version>
43012

> <i_f3d_flags>
0

> <s_epik_input>
W09IXVtDSDJdW0NIMl1OKFtDSDNdKVtDQEBIXShbQ0BIXTFbQ0gzXSlbQ0gyXVtDSDJdTjFjKG5bY0hdbjIpYyhjMjMpbltjSF1uM1tDSF0oW0NIMl00KVtDSDJdQzQoW0NIMl1bT0hdKVtDSDJdW09IXQ==

> <s_epik_cmdline>
J2VwaWtfcHl0aG9uJywgJy1waCcsICc3LjAnLCAnLXRuJywgJzgnLCAnLW1hJywgJzIwMCcsICctbWV0YWxfYmluZGluZycsICctaW1hZScsICc8aW5maWxlLm1hZT4nLCAnLW9tYWUnLCAnPG91dGZpbGUubWFlPic=

> <r_lp_tautomer_probability>
1

> <r_epik_Ionization_Penalty>
0.0036237

> <r_epik_Ionization_Penalty_Charging>
0.0032725

> <r_epik_Ionization_Penalty_Neutral>
0.000351196

> <r_epik_State_Penalty>
-0

> <r_epik_Charging_Adjusted_Penalty>
0.0032725

> <i_epik_Tot_Q>
1

> <i_epik_Tot_abs_Q>
1

> <r_epik_Metal_State_Penalty>
-0

> <b_epik_Metal_Only>
0

> <s_lp_Force_Field>
OPLS_2005

> <r_lp_Energy>
69.5021

> <b_lp_Chiralities_Consistent>
1

> <s_lp_Variant>
AV-unprocessed.smi:215-7

> <Gold.Version>
5.8.1

> <Gold.Id.Protein>
6NUR|6NUR_protein|mol2

> <Gold.PLP.Fitness>
50.3711

> <Gold.PLP.PLP>
-37.4906

> <Gold.PLP.part.hbond>
-5.2605

> <Gold.PLP.part.metal>
0.0000

> <Gold.PLP.part.buried>
-0.4034

> <Gold.PLP.part.nonpolar>
-32.0963

> <Gold.PLP.part.repulsive>
0.8535

> <Gold.PLP.ligand.clash>
0.0000

> <Gold.PLP.ligand.torsion>
1.3864

> <Gold.PLP.Chemscore.Hbond>
4.0000

> <Gold.PLP.Chemscore.CHOScore>
1.0000

> <Gold.PLP.Chemscore.Metal>
0.0000

> <Gold.Chemscore.Hbonds>
donor molecule, donor type, donor heavy atom, donor atom, acceptor molecule, acceptor atom, score
      L1  H     4    59       P1  8028  2.00
      L1  H     8    41       P1  8028  0.84
      L1  H    27    56       P1 10186  1.00
      L1  C    19    47       P1 10171  0.38

> <Gold.PLP.Chemscore.Internal.Correction>
0.6533

> <Gold.Rescore>
     Score         DG    S(hbond)    S(metal)    S(lipo)     H(rot)  DE(clash)    DE(int)     intcor
      8.24     -11.66       2.47        0.00      87.55       4.81       1.20       2.22       ----

> <Gold.Chemscore.Fitness>
8.2440

> <Gold.Chemscore.DG>
-11.6586

> <Gold.Chemscore.ZeroCoef>
-5.4800

> <Gold.Chemscore.Hbond>
2.4696

> <Gold.Chemscore.Metal>
0.0000

> <Gold.Chemscore.Lipo>
87.5485

> <Gold.Chemscore.Internal_Hbond>
0.0000

> <Gold.Chemscore.DEClash>
1.1983

> <Gold.Chemscore.DEInternal>
2.2164

> <Gold.Chemscore.Rot>
4.8098

> <Gold.Chemscore.Internal.Correction>
   9.000000E+99

> <Gold.Chemscore.Hbonds>
donor molecule, donor type, donor heavy atom, donor atom, acceptor molecule, acceptor atom, score
      L1  H     4    59       P1  8028  1.00
      L1  H     8    41       P1  8028  0.13
      L1  H    27    56       P1 10186  0.97

> <Gold.Chemscore.Hbond.Weighted>
-8.2485

> <Gold.Chemscore.Metal.Weighted>
-0.0000

> <Gold.Chemscore.Lipo.Weighted>
-10.2432

> <Gold.Chemscore.Internal_Hbond.Weighted>
0.0000

> <Gold.Chemscore.DEClash.Weighted>
1.1983

> <Gold.Chemscore.DEInternal.Weighted>
2.2164

> <Gold.Chemscore.Rot.Weighted>
12.3130

> <Gold.Chemscore.Internal.Correction.Weighted>
   9.000000E+99

> <Gold.Protein.RotatedTorsions>
[ 6907 6896 6895 6894 ] final  101.68 input  -60.11 | X-H torsion
[ 7974 7965 7964 7962 ] final   68.38 input  175.53 | X-H torsion
[ 8008 7997 7996 7995 ] final   87.94 input   59.86 | X-H torsion
[ 10167 10162 10161 10158 ] final  152.53 input  -65.29 | X-H torsion
[ 10718 10713 10712 10709 ] final -161.06 input   66.30 | X-H torsion
[ 10763 10752 10751 10750 ] final  -40.24 input  -60.55 | X-H torsion
[ 11005 11000 10999 10996 ] final   50.24 input  -57.11 | X-H torsion

> <Gold.Protein.ActiveResidues>
 VAL166  LYS551  ARG553  GLY616  TRP617  ASP618  TYR619  PRO620  LYS621  CYS622 
 ASP623  PHE694  ASN695  SER759  ASP760  ASP761  ALA762  ILE779  LEU786  VAL792 
 PHE793  MET794  SER795  GLU796  ALA797  LYS798  CYS799  TRP800  GLU811  SER814 

> <Gold.Protein.RotatedAtoms>
  152.5343  134.0089  159.7928 H   0  0  0  0  0  0  0  0  0  0  0  0  # atno 6907 bound_to 6896
  151.0294  133.5796  159.2669 H   0  0  0  0  0  0  0  0  0  0  0  0  # atno 6908 bound_to 6896
  151.2806  135.0719  159.9221 H   0  0  0  0  0  0  0  0  0  0  0  0  # atno 6909 bound_to 6896
  145.8033  139.2993  143.1142 H   0  0  0  0  0  0  0  0  0  0  0  0  # atno 7974 bound_to 7965
  155.9817  140.3377  155.6669 H   0  0  0  0  0  0  0  0  0  0  0  0  # atno 8008 bound_to 7997
  155.6540  140.0708  157.2595 H   0  0  0  0  0  0  0  0  0  0  0  0  # atno 8009 bound_to 7997
  154.4193  140.1720  156.1692 H   0  0  0  0  0  0  0  0  0  0  0  0  # atno 8010 bound_to 7997
  139.4832  144.5350  151.7660 H   0  0  0  0  0  0  0  0  0  0  0  0  # atno 10167 bound_to 10162
  156.5909  130.8770  151.2889 H   0  0  0  0  0  0  0  0  0  0  0  0  # atno 10718 bound_to 10713
  153.9428  135.6759  153.4744 H   0  0  0  0  0  0  0  0  0  0  0  0  # atno 10763 bound_to 10752
  153.0923  135.4868  154.8710 H   0  0  0  0  0  0  0  0  0  0  0  0  # atno 10764 bound_to 10752
  154.7368  135.3151  154.8756 H   0  0  0  0  0  0  0  0  0  0  0  0  # atno 10765 bound_to 10752
  140.1034  134.5050  155.8741 H   0  0  0  0  0  0  0  0  0  0  0  0  # atno 11005 bound_to 11000
  145.9855  140.8647  143.0093 LP  0  0  0  0  0  0  0  0  0  0  0  0  # atno 17320 bound_to 7965
  144.6766  140.2141  143.7374 LP  0  0  0  0  0  0  0  0  0  0  0  0  # atno 17321 bound_to 7965
  140.4881  144.1350  150.5945 LP  0  0  0  0  0  0  0  0  0  0  0  0  # atno 17342 bound_to 10162
  140.4202  143.2615  151.9725 LP  0  0  0  0  0  0  0  0  0  0  0  0  # atno 17343 bound_to 10162
  157.7304  130.9684  150.1830 LP  0  0  0  0  0  0  0  0  0  0  0  0  # atno 17370 bound_to 10713
  156.2550  130.3704  149.8191 LP  0  0  0  0  0  0  0  0  0  0  0  0  # atno 17371 bound_to 10713
  141.2112  133.6703  156.6564 LP  0  0  0  0  0  0  0  0  0  0  0  0  # atno 17394 bound_to 11000
  140.3188  134.8025  157.4236 LP  0  0  0  0  0  0  0  0  0  0  0  0  # atno 17395 bound_to 11000

$$$$
