AV-unprocessed.smi:794|AV-procd|sdf|3757|dock7
  -GOLD-   22720 1193D 1   1.00000     0.00000
 Structure written by MMmdl.
 41 43  0  0  0  0  0  0  0  0  1 V2000
  147.5592  136.9029  163.3581 C   0  0  0  0  0  0  0  0  0  0  0  0
  147.5298  136.2331  162.0185 C   0  0  0  0  0  0  0  0  0  0  0  0
  148.0885  136.8785  160.9110 N   0  0  0  0  0  0  0  0  0  0  0  0
  147.9837  136.1503  159.7948 C   0  0  0  0  0  0  0  0  0  0  0  0
  148.4686  136.5561  158.5242 N   0  0  0  0  0  0  0  0  0  0  0  0
  148.8008  137.7933  158.1166 C   0  0  0  0  0  0  0  0  0  0  0  0
  148.7154  138.8154  158.7978 O   0  0  0  0  0  0  0  0  0  0  0  0
  149.2401  137.7818  156.8500 N   0  0  0  0  0  0  0  0  0  0  0  0
  149.7078  138.9496  156.1013 C   0  0  1  0  0  0  0  0  0  0  0  0
  150.5274  139.9228  156.9850 C   0  0  1  0  0  0  0  0  0  0  0  0
  151.6389  139.1814  157.7588 C   0  0  0  0  0  0  0  0  0  0  0  0
  152.6271  138.8004  156.6421 C   0  0  0  0  0  0  0  0  0  0  0  0
  151.9733  139.4031  155.3809 C   0  0  2  0  0  0  0  0  0  0  0  0
  151.3540  140.6754  155.9473 C   0  0  0  0  0  0  0  0  0  0  0  0
  150.7059  138.6231  154.9522 C   0  0  1  0  0  0  0  0  0  0  0  0
  150.9168  137.1356  154.5900 C   0  0  0  0  0  0  0  0  0  0  0  0
  152.0039  136.9962  153.7001 O   0  0  0  0  0  0  0  0  0  0  0  0
  147.1807  134.6084  160.0327 S   0  0  0  0  0  0  0  0  0  0  0  0
  146.9945  135.0002  161.7241 C   0  0  0  0  0  0  0  0  0  0  0  0
  146.3255  134.0503  162.6610 C   0  0  0  0  0  0  0  0  0  0  0  0
  147.9652  136.2383  164.1210 H   0  0  0  0  0  0  0  0  0  0  0  0
  146.5565  137.1933  163.6727 H   0  0  0  0  0  0  0  0  0  0  0  0
  148.1749  137.8031  163.3466 H   0  0  0  0  0  0  0  0  0  0  0  0
  148.5872  135.8147  157.8497 H   0  0  0  0  0  0  0  0  0  0  0  0
  149.2709  136.8962  156.3668 H   0  0  0  0  0  0  0  0  0  0  0  0
  148.8525  139.4901  155.6903 H   0  0  0  0  0  0  0  0  0  0  0  0
  149.9084  140.5570  157.6204 H   0  0  0  0  0  0  0  0  0  0  0  0
  152.1182  139.8541  158.4711 H   0  0  0  0  0  0  0  0  0  0  0  0
  151.2856  138.3178  158.3218 H   0  0  0  0  0  0  0  0  0  0  0  0
  153.5980  139.2621  156.8265 H   0  0  0  0  0  0  0  0  0  0  0  0
  152.7902  137.7259  156.5723 H   0  0  0  0  0  0  0  0  0  0  0  0
  152.6769  139.5699  154.5646 H   0  0  0  0  0  0  0  0  0  0  0  0
  150.7468  141.2237  155.2246 H   0  0  0  0  0  0  0  0  0  0  0  0
  152.0855  141.3569  156.3854 H   0  0  0  0  0  0  0  0  0  0  0  0
  150.3213  139.1062  154.0518 H   0  0  0  0  0  0  0  0  0  0  0  0
  151.0903  136.5163  155.4692 H   0  0  0  0  0  0  0  0  0  0  0  0
  150.0277  136.7417  154.0970 H   0  0  0  0  0  0  0  0  0  0  0  0
  151.6657  136.9273  152.8204 H   0  0  0  0  0  0  0  0  0  0  0  0
  145.5444  134.5537  163.2314 H   0  0  0  0  0  0  0  0  0  0  0  0
  147.0448  133.6348  163.3672 H   0  0  0  0  0  0  0  0  0  0  0  0
  145.8652  133.2214  162.1223 H   0  0  0  0  0  0  0  0  0  0  0  0
  1  2  1  0  0  0  0
  1 21  1  0  0  0  0
  1 22  1  0  0  0  0
  1 23  1  0  0  0  0
  2 19  2  0  0  0  0
  2  3  1  0  0  0  0
  3  4  2  0  0  0  0
  4  5  1  0  0  0  0
  4 18  1  0  0  0  0
  5  6  1  0  0  0  0
  5 24  1  0  0  0  0
  6  7  2  0  0  0  0
  6  8  1  0  0  0  0
  8  9  1  0  0  0  0
  8 25  1  0  0  0  0
  9 15  1  0  0  0  0
  9 10  1  0  0  0  0
  9 26  1  0  0  0  0
 10 14  1  0  0  0  0
 10 11  1  0  0  0  0
 10 27  1  0  0  0  0
 11 12  1  0  0  0  0
 11 28  1  0  0  0  0
 11 29  1  0  0  0  0
 12 13  1  0  0  0  0
 12 30  1  0  0  0  0
 12 31  1  0  0  0  0
 13 14  1  0  0  0  0
 13 15  1  0  0  0  0
 13 32  1  0  0  0  0
 14 33  1  0  0  0  0
 14 34  1  0  0  0  0
 15 16  1  0  0  0  0
 15 35  1  0  0  0  0
 16 17  1  0  0  0  0
 16 36  1  0  0  0  0
 16 37  1  0  0  0  0
 17 38  1  0  0  0  0
 18 19  1  0  0  0  0
 19 20  1  0  0  0  0
 20 39  1  0  0  0  0
 20 40  1  0  0  0  0
 20 41  1  0  0  0  0
M  END
> <s_m_source_file>
AV-unprocessed.smi

> <i_m_source_file_index>
794

> <i_lp_mmshare_version>
43012

> <i_f3d_flags>
0

> <s_epik_input>
W0NIM11jMW5jKHNjMVtDSDNdKVtOSF1DKD1PKVtOSF1bQ0BIXShbQ0BASF0yMylbQ0BIXShbQ0gyXVtPSF0pW0NAQEhdKFtDSDJdMylbQ0gyXVtDSDJdMg==

> <s_epik_cmdline>
J2VwaWtfcHl0aG9uJywgJy1waCcsICc3LjAnLCAnLXRuJywgJzgnLCAnLW1hJywgJzIwMCcsICctbWV0YWxfYmluZGluZycsICctaW1hZScsICc8aW5maWxlLm1hZT4nLCAnLW9tYWUnLCAnPG91dGZpbGUubWFlPic=

> <r_lp_tautomer_probability>
0.999

> <r_epik_Ionization_Penalty>
0.000713029

> <r_epik_Ionization_Penalty_Charging>
0

> <r_epik_Ionization_Penalty_Neutral>
0.000713029

> <r_epik_State_Penalty>
0.000177984

> <r_epik_Charging_Adjusted_Penalty>
0.000177984

> <i_epik_Tot_Q>
0

> <i_epik_Tot_abs_Q>
0

> <r_epik_Metal_State_Penalty>
-0

> <b_epik_Metal_Only>
0

> <s_lp_Force_Field>
OPLS_2005

> <r_lp_Energy>
49.1423

> <b_lp_Chiralities_Consistent>
1

> <s_lp_Variant>
AV-unprocessed.smi:794-2

> <Gold.Version>
5.8.1

> <Gold.Id.Protein>
6NUR|6NUR_protein|mol2

> <Gold.PLP.Fitness>
44.0599

> <Gold.PLP.PLP>
-35.4373

> <Gold.PLP.part.hbond>
-4.7295

> <Gold.PLP.part.metal>
0.0000

> <Gold.PLP.part.buried>
-1.9116

> <Gold.PLP.part.nonpolar>
-29.7544

> <Gold.PLP.part.repulsive>
0.1025

> <Gold.PLP.ligand.clash>
0.0000

> <Gold.PLP.ligand.torsion>
0.4555

> <Gold.PLP.Chemscore.Hbond>
3.1750

> <Gold.PLP.Chemscore.CHOScore>
0.0000

> <Gold.PLP.Chemscore.Metal>
0.0000

> <Gold.Chemscore.Hbonds>
donor molecule, donor type, donor heavy atom, donor atom, acceptor molecule, acceptor atom, score
      L1  H    17    38       P1  7949  1.00
      P1  H  6931  6943       L1     3  0.85
      P1  H  6934  6947       L1     3  0.21
      P1  H 10752 10763       L1    17  1.00

> <Gold.PLP.Chemscore.Internal.Correction>
0.0086

> <Gold.Rescore>
     Score         DG    S(hbond)    S(metal)    S(lipo)     H(rot)  DE(clash)    DE(int)     intcor
     16.10     -18.98       2.45        0.00      84.48       1.78       0.14       2.74       ----

> <Gold.Chemscore.Fitness>
16.0977

> <Gold.Chemscore.DG>
-18.9824

> <Gold.Chemscore.ZeroCoef>
-5.4800

> <Gold.Chemscore.Hbond>
2.4473

> <Gold.Chemscore.Metal>
0.0000

> <Gold.Chemscore.Lipo>
84.4848

> <Gold.Chemscore.Internal_Hbond>
0.0000

> <Gold.Chemscore.DEClash>
0.1443

> <Gold.Chemscore.DEInternal>
2.7403

> <Gold.Chemscore.Rot>
1.7798

> <Gold.Chemscore.Internal.Correction>
   9.000000E+99

> <Gold.Chemscore.Hbonds>
donor molecule, donor type, donor heavy atom, donor atom, acceptor molecule, acceptor atom, score
      L1  H    17    38       P1  7949  0.94
      P1  H  6931  6943       L1     3  0.14
      P1  H  6934  6947       L1     3  0.11
      P1  H 10752 10763       L1    17  0.61

> <Gold.Chemscore.Hbond.Weighted>
-8.1739

> <Gold.Chemscore.Metal.Weighted>
-0.0000

> <Gold.Chemscore.Lipo.Weighted>
-9.8847

> <Gold.Chemscore.Internal_Hbond.Weighted>
0.0000

> <Gold.Chemscore.DEClash.Weighted>
0.1443

> <Gold.Chemscore.DEInternal.Weighted>
2.7403

> <Gold.Chemscore.Rot.Weighted>
4.5562

> <Gold.Chemscore.Internal.Correction.Weighted>
   9.000000E+99

> <Gold.Protein.RotatedTorsions>
[ 6907 6896 6895 6894 ] final   70.88 input  -60.11 | X-H torsion
[ 7974 7965 7964 7962 ] final  101.95 input  175.53 | X-H torsion
[ 8008 7997 7996 7995 ] final -128.61 input   59.86 | X-H torsion
[ 10167 10162 10161 10158 ] final  -97.71 input  -65.29 | X-H torsion
[ 10718 10713 10712 10709 ] final   57.49 input   66.30 | X-H torsion
[ 10763 10752 10751 10750 ] final   21.71 input  -60.55 | X-H torsion
[ 11005 11000 10999 10996 ] final  109.52 input  -57.11 | X-H torsion

> <Gold.Protein.ActiveResidues>
 VAL166  LYS551  ARG553  GLY616  TRP617  ASP618  TYR619  PRO620  LYS621  CYS622 
 ASP623  PHE694  ASN695  SER759  ASP760  ASP761  ALA762  ILE779  LEU786  VAL792 
 PHE793  MET794  SER795  GLU796  ALA797  LYS798  CYS799  TRP800  GLU811  SER814 

> <Gold.Protein.RotatedAtoms>
  152.4776  134.4803  159.9663 H   0  0  0  0  0  0  0  0  0  0  0  0  # atno 6907 bound_to 6896
  151.4816  133.3539  159.2847 H   0  0  0  0  0  0  0  0  0  0  0  0  # atno 6908 bound_to 6896
  150.8825  134.8245  159.7297 H   0  0  0  0  0  0  0  0  0  0  0  0  # atno 6909 bound_to 6896
  145.3655  139.2409  143.3483 H   0  0  0  0  0  0  0  0  0  0  0  0  # atno 7974 bound_to 7965
  155.2655  140.0438  157.3002 H   0  0  0  0  0  0  0  0  0  0  0  0  # atno 8008 bound_to 7997
  154.5685  140.2367  155.8196 H   0  0  0  0  0  0  0  0  0  0  0  0  # atno 8009 bound_to 7997
  156.2104  140.3000  155.9727 H   0  0  0  0  0  0  0  0  0  0  0  0  # atno 8010 bound_to 7997
  140.2806  143.3285  152.0445 H   0  0  0  0  0  0  0  0  0  0  0  0  # atno 10167 bound_to 10162
  157.5519  130.8771  149.8976 H   0  0  0  0  0  0  0  0  0  0  0  0  # atno 10718 bound_to 10713
  153.0973  135.6663  153.9739 H   0  0  0  0  0  0  0  0  0  0  0  0  # atno 10763 bound_to 10752
  153.9319  135.3003  155.3447 H   0  0  0  0  0  0  0  0  0  0  0  0  # atno 10764 bound_to 10752
  154.7392  135.5087  153.9169 H   0  0  0  0  0  0  0  0  0  0  0  0  # atno 10765 bound_to 10752
  139.8863  134.9460  156.6138 H   0  0  0  0  0  0  0  0  0  0  0  0  # atno 11005 bound_to 11000
  146.2908  140.4297  142.8740 LP  0  0  0  0  0  0  0  0  0  0  0  0  # atno 17320 bound_to 7965
  144.8615  140.7145  143.6104 LP  0  0  0  0  0  0  0  0  0  0  0  0  # atno 17321 bound_to 7965
  139.4964  144.6594  151.6498 LP  0  0  0  0  0  0  0  0  0  0  0  0  # atno 17342 bound_to 10162
  140.5815  143.9938  150.6271 LP  0  0  0  0  0  0  0  0  0  0  0  0  # atno 17343 bound_to 10162
  156.0584  130.3704  150.1039 LP  0  0  0  0  0  0  0  0  0  0  0  0  # atno 17370 bound_to 10713
  156.9211  130.9683  151.3548 LP  0  0  0  0  0  0  0  0  0  0  0  0  # atno 17371 bound_to 10713
  140.7791  133.8675  155.8553 LP  0  0  0  0  0  0  0  0  0  0  0  0  # atno 17394 bound_to 11000
  140.9776  134.1449  157.4523 LP  0  0  0  0  0  0  0  0  0  0  0  0  # atno 17395 bound_to 11000

$$$$
