AV-unprocessed.smi:1236|AV-procd|sdf|5182|dock4
  -GOLD-   22720 4263D 1   1.00000     0.00000
 Structure written by MMmdl.
 40 41  0  0  0  0  0  0  0  0  2 V2000
  146.8098  138.1566  155.3373 C   0  0  0  0  0  0  0  0  0  0  0  0
  146.5917  138.5029  153.8582 C   0  0  1  0  0  0  0  0  0  0  0  0
  147.5355  139.6414  153.4048 C   0  0  0  0  0  0  0  0  0  0  0  0
  148.7777  139.7263  154.2142 N   0  3  0  0  0  0  0  0  0  0  0  0
  149.8844  138.8893  153.6913 C   0  0  0  0  0  0  0  0  0  0  0  0
  151.0946  138.9644  154.6364 C   0  0  0  0  0  0  0  0  0  0  0  0
  151.5017  140.3203  154.7768 O   0  0  0  0  0  0  0  0  0  0  0  0
  150.4781  141.1290  155.3445 C   0  0  0  0  0  0  0  0  0  0  0  0
  149.2393  141.1169  154.4321 C   0  0  0  0  0  0  0  0  0  0  0  0
  146.7833  137.2946  153.0542 N   0  0  0  0  0  0  0  0  0  0  0  0
  145.8644  136.3422  152.8320 C   0  0  0  0  0  0  0  0  0  0  0  0
  144.7163  136.3937  153.2737 O   0  0  0  0  0  0  0  0  0  0  0  0
  146.3594  135.3543  152.0661 N   0  0  0  0  0  0  0  0  0  0  0  0
  145.6823  134.2083  151.5702 C   0  0  0  0  0  0  0  0  0  0  0  0
  146.5136  133.2287  150.9815 C   0  0  0  0  0  0  0  0  0  0  0  0
  145.9374  132.0553  150.4570 C   0  0  0  0  0  0  0  0  0  0  0  0
  144.5427  131.8923  150.5336 C   0  0  0  0  0  0  0  0  0  0  0  0
  143.7873  132.9163  151.1341 C   0  0  0  0  0  0  0  0  0  0  0  0
  144.3375  134.0421  151.6366 N   0  0  0  0  0  0  0  0  0  0  0  0
  146.6375  139.0256  155.9731 H   0  0  0  0  0  0  0  0  0  0  0  0
  147.8270  137.8085  155.5200 H   0  0  0  0  0  0  0  0  0  0  0  0
  146.1256  137.3721  155.6628 H   0  0  0  0  0  0  0  0  0  0  0  0
  145.5568  138.8342  153.7628 H   0  0  0  0  0  0  0  0  0  0  0  0
  147.7946  139.5327  152.3505 H   0  0  0  0  0  0  0  0  0  0  0  0
  146.9913  140.5836  153.4860 H   0  0  0  0  0  0  0  0  0  0  0  0
  149.5650  137.8522  153.5938 H   0  0  0  0  0  0  0  0  0  0  0  0
  150.1668  139.2316  152.6945 H   0  0  0  0  0  0  0  0  0  0  0  0
  150.8540  138.5387  155.6122 H   0  0  0  0  0  0  0  0  0  0  0  0
  151.9249  138.3854  154.2319 H   0  0  0  0  0  0  0  0  0  0  0  0
  150.2283  140.7704  156.3445 H   0  0  0  0  0  0  0  0  0  0  0  0
  150.8532  142.1465  155.4552 H   0  0  0  0  0  0  0  0  0  0  0  0
  149.4726  141.5809  153.4726 H   0  0  0  0  0  0  0  0  0  0  0  0
  148.4435  141.7056  154.8906 H   0  0  0  0  0  0  0  0  0  0  0  0
  147.6998  137.1660  152.6502 H   0  0  0  0  0  0  0  0  0  0  0  0
  147.3279  135.4366  151.7940 H   0  0  0  0  0  0  0  0  0  0  0  0
  147.5836  133.3692  150.9307 H   0  0  0  0  0  0  0  0  0  0  0  0
  146.5559  131.2944  150.0042 H   0  0  0  0  0  0  0  0  0  0  0  0
  144.0646  131.0063  150.1424 H   0  0  0  0  0  0  0  0  0  0  0  0
  142.7136  132.8312  151.2124 H   0  0  0  0  0  0  0  0  0  0  0  0
  148.5448  139.3614  155.1271 H   0  0  0  0  0  0  0  0  0  0  0  0
  1  2  1  0  0  0  0
  1 20  1  0  0  0  0
  1 21  1  0  0  0  0
  1 22  1  0  0  0  0
  2  3  1  0  0  0  0
  2 10  1  0  0  0  0
  2 23  1  0  0  0  0
  3  4  1  0  0  0  0
  3 24  1  0  0  0  0
  3 25  1  0  0  0  0
  4  9  1  0  0  0  0
  4  5  1  0  0  0  0
  4 40  1  0  0  0  0
  5  6  1  0  0  0  0
  5 26  1  0  0  0  0
  5 27  1  0  0  0  0
  6  7  1  0  0  0  0
  6 28  1  0  0  0  0
  6 29  1  0  0  0  0
  7  8  1  0  0  0  0
  8  9  1  0  0  0  0
  8 30  1  0  0  0  0
  8 31  1  0  0  0  0
  9 32  1  0  0  0  0
  9 33  1  0  0  0  0
 10 11  1  0  0  0  0
 10 34  1  0  0  0  0
 11 12  2  0  0  0  0
 11 13  1  0  0  0  0
 13 14  1  0  0  0  0
 13 35  1  0  0  0  0
 14 19  1  0  0  0  0
 14 15  2  0  0  0  0
 15 16  1  0  0  0  0
 15 36  1  0  0  0  0
 16 17  2  0  0  0  0
 16 37  1  0  0  0  0
 17 18  1  0  0  0  0
 17 38  1  0  0  0  0
 18 19  2  0  0  0  0
 18 39  1  0  0  0  0
M  CHG  1   4   1
M  END
> <s_m_source_file>
AV-unprocessed.smi

> <i_m_source_file_index>
1236

> <i_lp_mmshare_version>
43012

> <i_f3d_flags>
0

> <s_epik_input>
W0NIMl0xW0NIMl1PW0NIMl1bQ0gyXU4xW0NIMl1bQ0BASF0oW0NIM10pW05IXUMoPU8pW05IXWMyW2NIXVtjSF1bY0hdW2NIXW4y

> <s_epik_cmdline>
J2VwaWtfcHl0aG9uJywgJy1waCcsICc3LjAnLCAnLXRuJywgJzgnLCAnLW1hJywgJzIwMCcsICctbWV0YWxfYmluZGluZycsICctaW1hZScsICc8aW5maWxlLm1hZT4nLCAnLW9tYWUnLCAnPG91dGZpbGUubWFlPic=

> <r_epik_Ionization_Penalty>
0.602564

> <r_epik_Ionization_Penalty_Charging>
0.602531

> <r_epik_Ionization_Penalty_Neutral>
3.36306e-05

> <r_epik_State_Penalty>
0.617039

> <r_epik_Charging_Adjusted_Penalty>
1.21957

> <i_epik_Tot_Q>
1

> <i_epik_Tot_abs_Q>
1

> <r_epik_Metal_State_Penalty>
0.617041

> <b_epik_Metal_Only>
0

> <s_lp_Force_Field>
OPLS_2005

> <r_lp_Energy>
24.274

> <b_lp_Chiralities_Consistent>
1

> <s_lp_Variant>
AV-unprocessed.smi:1236-4

> <Gold.Version>
5.8.1

> <Gold.Id.Protein>
6NUR|6NUR_protein|mol2

> <Gold.PLP.Fitness>
41.8932

> <Gold.PLP.PLP>
-32.4020

> <Gold.PLP.part.hbond>
-3.1832

> <Gold.PLP.part.metal>
0.0000

> <Gold.PLP.part.buried>
-2.1910

> <Gold.PLP.part.nonpolar>
-27.4916

> <Gold.PLP.part.repulsive>
0.4869

> <Gold.PLP.ligand.clash>
0.0000

> <Gold.PLP.ligand.torsion>
1.2684

> <Gold.PLP.Chemscore.Hbond>
3.0000

> <Gold.PLP.Chemscore.CHOScore>
1.0000

> <Gold.PLP.Chemscore.Metal>
0.0000

> <Gold.Chemscore.Hbonds>
donor molecule, donor type, donor heavy atom, donor atom, acceptor molecule, acceptor atom, score
      L1  H    10    34       P1  7948  1.00
      L1  H    13    35       P1  7948  1.00
      P1  H  7989  7998       L1     7  0.65
      L1  C    18    39       P1 10186  0.15

> <Gold.PLP.Chemscore.Internal.Correction>
0.0281

> <Gold.Rescore>
     Score         DG    S(hbond)    S(metal)    S(lipo)     H(rot)  DE(clash)    DE(int)     intcor
     14.98     -18.40       2.42        0.00      75.44       1.56       1.16       2.27       ----

> <Gold.Chemscore.Fitness>
14.9759

> <Gold.Chemscore.DG>
-18.3976

> <Gold.Chemscore.ZeroCoef>
-5.4800

> <Gold.Chemscore.Hbond>
2.4193

> <Gold.Chemscore.Metal>
0.0000

> <Gold.Chemscore.Lipo>
75.4439

> <Gold.Chemscore.Internal_Hbond>
0.0000

> <Gold.Chemscore.DEClash>
1.1563

> <Gold.Chemscore.DEInternal>
2.2654

> <Gold.Chemscore.Rot>
1.5584

> <Gold.Chemscore.Internal.Correction>
   9.000000E+99

> <Gold.Chemscore.Hbonds>
donor molecule, donor type, donor heavy atom, donor atom, acceptor molecule, acceptor atom, score
      L1  H    10    34       P1  7948  0.98
      L1  H    13    35       P1  7948  0.97
      P1  H  7989  7998       L1     7  0.15

> <Gold.Chemscore.Hbond.Weighted>
-8.0803

> <Gold.Chemscore.Metal.Weighted>
-0.0000

> <Gold.Chemscore.Lipo.Weighted>
-8.8269

> <Gold.Chemscore.Internal_Hbond.Weighted>
0.0000

> <Gold.Chemscore.DEClash.Weighted>
1.1563

> <Gold.Chemscore.DEInternal.Weighted>
2.2654

> <Gold.Chemscore.Rot.Weighted>
3.9896

> <Gold.Chemscore.Internal.Correction.Weighted>
   9.000000E+99

> <Gold.Protein.RotatedTorsions>
[ 6907 6896 6895 6894 ] final -133.36 input  -60.11 | X-H torsion
[ 7974 7965 7964 7962 ] final   93.79 input  175.53 | X-H torsion
[ 8008 7997 7996 7995 ] final   -2.27 input   59.86 | X-H torsion
[ 10167 10162 10161 10158 ] final  161.28 input  -65.29 | X-H torsion
[ 10718 10713 10712 10709 ] final  175.22 input   66.30 | X-H torsion
[ 10763 10752 10751 10750 ] final -110.56 input  -60.55 | X-H torsion
[ 11005 11000 10999 10996 ] final  -35.76 input  -57.11 | X-H torsion

> <Gold.Protein.ActiveResidues>
 VAL166  LYS551  ARG553  GLY616  TRP617  ASP618  TYR619  PRO620  LYS621  CYS622 
 ASP623  PHE694  ASN695  SER759  ASP760  ASP761  ALA762  ILE779  LEU786  VAL792 
 PHE793  MET794  SER795  GLU796  ALA797  LYS798  CYS799  TRP800  GLU811  SER814 

> <Gold.Protein.RotatedAtoms>
  150.9732  133.6322  159.2734 H   0  0  0  0  0  0  0  0  0  0  0  0  # atno 6907 bound_to 6896
  151.3604  135.0902  159.9442 H   0  0  0  0  0  0  0  0  0  0  0  0  # atno 6908 bound_to 6896
  152.5190  133.9306  159.7633 H   0  0  0  0  0  0  0  0  0  0  0  0  # atno 6909 bound_to 6896
  145.4742  139.2281  143.2918 H   0  0  0  0  0  0  0  0  0  0  0  0  # atno 7974 bound_to 7965
  154.6376  140.2538  155.7360 H   0  0  0  0  0  0  0  0  0  0  0  0  # atno 8008 bound_to 7997
  156.2512  140.2894  156.0676 H   0  0  0  0  0  0  0  0  0  0  0  0  # atno 8009 bound_to 7997
  155.1647  140.0385  157.2840 H   0  0  0  0  0  0  0  0  0  0  0  0  # atno 8010 bound_to 7997
  139.4848  144.4552  151.8778 H   0  0  0  0  0  0  0  0  0  0  0  0  # atno 10167 bound_to 10162
  156.9381  130.9992  151.2974 H   0  0  0  0  0  0  0  0  0  0  0  0  # atno 10718 bound_to 10713
  154.8254  135.4559  154.0904 H   0  0  0  0  0  0  0  0  0  0  0  0  # atno 10763 bound_to 10752
  153.2222  135.6895  153.7993 H   0  0  0  0  0  0  0  0  0  0  0  0  # atno 10764 bound_to 10752
  153.7406  135.3313  155.3280 H   0  0  0  0  0  0  0  0  0  0  0  0  # atno 10765 bound_to 10752
  140.9821  133.7050  156.1702 H   0  0  0  0  0  0  0  0  0  0  0  0  # atno 11005 bound_to 11000
  146.2379  140.5522  142.8947 LP  0  0  0  0  0  0  0  0  0  0  0  0  # atno 17320 bound_to 7965
  144.7927  140.6063  143.6530 LP  0  0  0  0  0  0  0  0  0  0  0  0  # atno 17321 bound_to 7965
  140.4011  144.2492  150.5893 LP  0  0  0  0  0  0  0  0  0  0  0  0  # atno 17342 bound_to 10162
  140.5056  143.2305  151.8613 LP  0  0  0  0  0  0  0  0  0  0  0  0  # atno 17343 bound_to 10162
  157.5803  130.8372  149.8513 LP  0  0  0  0  0  0  0  0  0  0  0  0  # atno 17370 bound_to 10713
  156.0417  130.3737  150.1419 LP  0  0  0  0  0  0  0  0  0  0  0  0  # atno 17371 bound_to 10713
  140.7170  134.4400  157.5578 LP  0  0  0  0  0  0  0  0  0  0  0  0  # atno 17394 bound_to 11000
  139.8955  134.8682  156.2130 LP  0  0  0  0  0  0  0  0  0  0  0  0  # atno 17395 bound_to 11000

$$$$
