#       Name:                AV-unprocessed.smi:157
#       Creating user name   scv26
#       Creation time:       Thu Mar 26 19:01:26 2020


#       File generated by GOLD software.
#

@<TRIPOS>MOLECULE
AV-unprocessed.smi:157
    45    47     1
SMALL
NO_CHARGES


@<TRIPOS>ATOM
      1 ****        -4.4188   3.1671  -1.4910 O.3            1 S1                 0.0000
      2 ****        -4.0291   1.8942  -1.0209 C.3            1 S1                 0.0000
      3 ****        -2.5109   1.8478  -0.7855 C.3            1 S1                 0.0000
      4 ****        -2.1192   0.5084  -0.4904 O.3            1 S1                 0.0000
      5 ****        -1.0903   0.4988   0.4548 C.3            1 S1                 0.0000
      6 ****         0.0786  -0.2272  -0.1291 N.pl3          1 S1                 0.0000
      7 ****         0.5214  -0.1298  -1.4004 C.2            1 S1                 0.0000
      8 ****         1.5767  -0.8796  -1.6693 N.pl3          1 S1                 1.0000
      9 ****         1.8892  -1.5464  -0.5036 C.2            1 S1                 0.0000
     10 ****         0.9558  -1.1193   0.4447 C.2            1 S1                 0.0000
     11 ****         0.8235  -1.4707   1.7971 N.2            1 S1                 0.0000
     12 ****         1.7532  -2.0740   2.4642 C.2            1 S1                 0.0000
     13 ****         2.9698  -2.5660   2.0214 N.pl3          1 S1                 0.0000
     14 ****         3.1186  -3.3458   0.8055 C.3            1 S1                 0.0000
     15 ****         3.0359  -2.5079  -0.4768 C.3            1 S1                 0.0000
     16 ****         4.2808  -1.8731  -0.6843 O.3            1 S1                 0.0000
     17 ****        -0.7227   1.9534   0.7467 C.3            1 S1                 0.0000
     18 ****        -2.0221   2.6575   0.4206 C.3            1 S1                 0.0000
     19 ****        -1.7856   4.0135   0.1027 O.3            1 S1                 0.0000
     20 ****        -1.9732   2.1485  -1.6869 H              1 S1                 0.0000
     21 ****        -1.3942  -0.0665   1.3363 H              1 S1                 0.0000
     22 ****         2.9076  -3.1968  -1.3125 H              1 S1                 0.0000
     23 ****        -2.7186   2.5761   1.2566 H              1 S1                 0.0000
     24 ****        -5.3516   3.1588  -1.6443 H              1 S1                 0.0000
     25 ****        -4.5750   1.6562  -0.1072 H              1 S1                 0.0000
     26 ****        -4.3136   1.1536  -1.7686 H              1 S1                 0.0000
     27 ****         0.0501   0.5052  -2.1293 H              1 S1                 0.0000
     28 ****         1.6053  -2.2517   3.5304 H              1 S1                 0.0000
     29 ****         3.6701  -2.8128   2.7065 H              1 S1                 0.0000
     30 ****         4.0535  -3.9061   0.8415 H              1 S1                 0.0000
     31 ****         2.3205  -4.0895   0.7945 H              1 S1                 0.0000
     32 ****         4.2856  -1.4874  -1.5467 H              1 S1                 0.0000
     33 ****        -0.3947   2.0809   1.7787 H              1 S1                 0.0000
     34 ****         0.0746   2.2782   0.0752 H              1 S1                 0.0000
     35 ****        -2.6025   4.4043  -0.1700 H              1 S1                 0.0000
     36 ****         2.0520  -0.9515  -2.5600 H              1 S1                 0.0000
     37 ****        -3.9389   3.3729  -2.3439 LP             1 S1                 0.0000
     38 ****        -4.1958   3.8617  -0.8071 LP             1 S1                 0.0000
     39 ****        -1.8007   0.0660  -1.3287 LP             1 S1                 0.0000
     40 ****        -2.9050   0.0077  -0.1272 LP             1 S1                 0.0000
     41 ****        -0.0296  -1.2440   2.2670 LP             1 S1                 0.0000
     42 ****         5.0172  -2.5458  -0.6128 LP             1 S1                 0.0000
     43 ****         4.4131  -1.1596   0.0038 LP             1 S1                 0.0000
     44 ****        -1.1180   4.0746  -0.6393 LP             1 S1                 0.0000
     45 ****        -1.4345   4.4924   0.9073 LP             1 S1                 0.0000
@<TRIPOS>BOND
    1    1    2 1     
    2    1   24 1     
    3    2    3 1     
    4    2   25 1     
    5    2   26 1     
    6    3   20 1     
    7    3   18 1     
    8    3    4 1     
    9    4    5 1     
   10    5   21 1     
   11    5    6 1     
   12    5   17 1     
   13    6   10 1     
   14    6    7 1     
   15    7    8 2     
   16    7   27 1     
   17    8    9 1     
   18    8   36 1     
   19    9   15 1     
   20    9   10 2     
   21   10   11 1     
   22   11   12 2     
   23   12   13 1     
   24   12   28 1     
   25   13   14 1     
   26   13   29 1     
   27   14   15 1     
   28   14   30 1     
   29   14   31 1     
   30   15   22 1     
   31   15   16 1     
   32   16   32 1     
   33   17   18 1     
   34   17   33 1     
   35   17   34 1     
   36   18   23 1     
   37   18   19 1     
   38   19   35 1     
   39    1   37 1     
   40    1   38 1     
   41    4   39 1     
   42    4   40 1     
   43   11   41 1     
   44   16   42 1     
   45   16   43 1     
   46   19   44 1     
   47   19   45 1     
@<TRIPOS>SUBSTRUCTURE
      1 S1             1
@<TRIPOS>SET
LONE_PAIRS      STATIC     ATOMS    <user>   **** ""
9 37 38 39 40 41 42 43 44 45
DONOR_HYDROGENS      STATIC     ATOMS    <user>   **** ""
5 24 36 29 32 35
ATOM$BLUE        STATIC     ATOMS    COLORGROUP SYSTEM
9 37 38 39 40 41 42 43 44 45
ATOM$RED        STATIC     ATOMS    COLORGROUP SYSTEM
5 24 36 29 32 35
