AV-unprocessed.smi:490|AV-procd|sdf|2706|dock8
  -GOLD-   2262023143D 1   1.00000     0.00000
 Structure written by MMmdl.
 50 52  0  0  0  0  0  0  0  0  2 V2000
  151.7733  144.4331  160.0847 C   0  0  0  0  0  0  0  0  0  0  0  0
  152.0646  142.9536  159.8999 C   0  0  0  0  0  0  0  0  0  0  0  0
  153.0966  142.3614  160.6559 C   0  0  0  0  0  0  0  0  0  0  0  0
  153.3963  140.9963  160.5051 C   0  0  0  0  0  0  0  0  0  0  0  0
  152.6615  140.2051  159.6011 C   0  0  0  0  0  0  0  0  0  0  0  0
  153.0064  138.7351  159.4468 C   0  0  0  0  0  0  0  0  0  0  0  0
  151.6133  140.7862  158.8496 C   0  0  0  0  0  0  0  0  0  0  0  0
  150.8970  140.0118  157.9735 O   0  0  0  0  0  0  0  0  0  0  0  0
  151.1719  140.2924  156.6087 C   0  0  0  0  0  0  0  0  0  0  0  0
  149.8718  140.7410  155.9255 C   0  0  1  0  0  0  0  0  0  0  0  0
  150.1233  140.9001  154.5435 O   0  0  0  0  0  0  0  0  0  0  0  0
  148.7373  139.7160  156.1197 C   0  0  0  0  0  0  0  0  0  0  0  0
  147.4560  140.1680  155.5517 N   0  0  0  0  0  0  0  0  0  0  0  0
  146.8160  139.7777  154.4110 C   0  0  0  0  0  0  0  0  0  0  0  0
  147.2737  138.7509  153.4276 C   0  0  0  0  0  0  0  0  0  0  0  0
  148.4768  139.1180  152.7897 O   0  0  0  0  0  0  0  0  0  0  0  0
  145.6589  140.4934  154.3321 N   0  3  0  0  0  0  0  0  0  0  0  0
  145.5543  141.3466  155.4310 C   0  0  0  0  0  0  0  0  0  0  0  0
  144.5629  142.2568  155.7847 C   0  0  0  0  0  0  0  0  0  0  0  0
  144.7595  142.9727  156.9837 C   0  0  0  0  0  0  0  0  0  0  0  0
  145.9054  142.7697  157.7798 C   0  0  0  0  0  0  0  0  0  0  0  0
  146.9042  141.8447  157.4100 C   0  0  0  0  0  0  0  0  0  0  0  0
  146.7043  141.1422  156.2213 C   0  0  0  0  0  0  0  0  0  0  0  0
  151.3220  142.1671  158.9840 C   0  0  0  0  0  0  0  0  0  0  0  0
  150.2150  142.8015  158.1522 C   0  0  0  0  0  0  0  0  0  0  0  0
  152.3363  144.8466  160.9222 H   0  0  0  0  0  0  0  0  0  0  0  0
  150.7139  144.5969  160.2842 H   0  0  0  0  0  0  0  0  0  0  0  0
  152.0483  144.9894  159.1884 H   0  0  0  0  0  0  0  0  0  0  0  0
  153.6691  142.9545  161.3542 H   0  0  0  0  0  0  0  0  0  0  0  0
  154.1942  140.5589  161.0873 H   0  0  0  0  0  0  0  0  0  0  0  0
  152.9044  138.4153  158.4094 H   0  0  0  0  0  0  0  0  0  0  0  0
  152.3447  138.1256  160.0623 H   0  0  0  0  0  0  0  0  0  0  0  0
  154.0340  138.5403  159.7550 H   0  0  0  0  0  0  0  0  0  0  0  0
  151.9563  141.0435  156.5013 H   0  0  0  0  0  0  0  0  0  0  0  0
  151.5377  139.3805  156.1332 H   0  0  0  0  0  0  0  0  0  0  0  0
  149.5585  141.7000  156.3397 H   0  0  0  0  0  0  0  0  0  0  0  0
  149.6482  140.2294  154.0763 H   0  0  0  0  0  0  0  0  0  0  0  0
  149.0022  138.7465  155.6973 H   0  0  0  0  0  0  0  0  0  0  0  0
  148.5731  139.5412  157.1832 H   0  0  0  0  0  0  0  0  0  0  0  0
  147.4200  137.7995  153.9395 H   0  0  0  0  0  0  0  0  0  0  0  0
  146.5031  138.5911  152.6737 H   0  0  0  0  0  0  0  0  0  0  0  0
  148.8257  138.3606  152.3449 H   0  0  0  0  0  0  0  0  0  0  0  0
  143.6826  142.4113  155.1781 H   0  0  0  0  0  0  0  0  0  0  0  0
  144.0157  143.6894  157.3007 H   0  0  0  0  0  0  0  0  0  0  0  0
  146.0204  143.3332  158.6944 H   0  0  0  0  0  0  0  0  0  0  0  0
  147.7732  141.6930  158.0327 H   0  0  0  0  0  0  0  0  0  0  0  0
  149.8871  142.1575  157.3366 H   0  0  0  0  0  0  0  0  0  0  0  0
  150.5546  143.7351  157.7035 H   0  0  0  0  0  0  0  0  0  0  0  0
  149.3500  143.0160  158.7802 H   0  0  0  0  0  0  0  0  0  0  0  0
  144.9875  140.3973  153.5814 H   0  0  0  0  0  0  0  0  0  0  0  0
  1  2  1  0  0  0  0
  1 26  1  0  0  0  0
  1 27  1  0  0  0  0
  1 28  1  0  0  0  0
  2 24  1  0  0  0  0
  2  3  2  0  0  0  0
  3  4  1  0  0  0  0
  3 29  1  0  0  0  0
  4  5  2  0  0  0  0
  4 30  1  0  0  0  0
  5  6  1  0  0  0  0
  5  7  1  0  0  0  0
  6 31  1  0  0  0  0
  6 32  1  0  0  0  0
  6 33  1  0  0  0  0
  7  8  1  0  0  0  0
  7 24  2  0  0  0  0
  8  9  1  0  0  0  0
  9 10  1  0  0  0  0
  9 34  1  0  0  0  0
  9 35  1  0  0  0  0
 10 11  1  0  0  0  0
 10 12  1  0  0  0  0
 10 36  1  0  0  0  0
 11 37  1  0  0  0  0
 12 13  1  0  0  0  0
 12 38  1  0  0  0  0
 12 39  1  0  0  0  0
 13 23  1  0  0  0  0
 13 14  1  0  0  0  0
 14 15  1  0  0  0  0
 14 17  2  0  0  0  0
 15 16  1  0  0  0  0
 15 40  1  0  0  0  0
 15 41  1  0  0  0  0
 16 42  1  0  0  0  0
 17 18  1  0  0  0  0
 17 50  1  0  0  0  0
 18 23  2  0  0  0  0
 18 19  1  0  0  0  0
 19 20  2  0  0  0  0
 19 43  1  0  0  0  0
 20 21  1  0  0  0  0
 20 44  1  0  0  0  0
 21 22  2  0  0  0  0
 21 45  1  0  0  0  0
 22 23  1  0  0  0  0
 22 46  1  0  0  0  0
 24 25  1  0  0  0  0
 25 47  1  0  0  0  0
 25 48  1  0  0  0  0
 25 49  1  0  0  0  0
M  CHG  1  17   1
M  END
> <s_m_source_file>
AV-unprocessed.smi

> <i_m_source_file_index>
490

> <i_lp_mmshare_version>
43012

> <i_f3d_flags>
0

> <s_epik_input>
W0NIM11jMVtjSF1bY0hdYyhbQ0gzXSljKGMxW0NIM10pT1tDSDJdW0NASF0oW09IXSlbQ0gyXW4oYyhuMilbQ0gyXVtPSF0pYyhjMjMpW2NIXVtjSF1bY0hdW2NIXTM=

> <s_epik_cmdline>
J2VwaWtfcHl0aG9uJywgJy1waCcsICc3LjAnLCAnLXRuJywgJzgnLCAnLW1hJywgJzIwMCcsICctbWV0YWxfYmluZGluZycsICctaW1hZScsICc8aW5maWxlLm1hZT4nLCAnLW9tYWUnLCAnPG91dGZpbGUubWFlPic=

> <r_lp_tautomer_probability>
1

> <r_epik_Ionization_Penalty>
1.43125

> <r_epik_Ionization_Penalty_Charging>
1.43039

> <r_epik_Ionization_Penalty_Neutral>
0.000858184

> <r_epik_State_Penalty>
1.51493

> <r_epik_Charging_Adjusted_Penalty>
2.94531

> <i_epik_Tot_Q>
1

> <i_epik_Tot_abs_Q>
1

> <r_epik_Metal_State_Penalty>
5.5599

> <b_epik_Metal_Only>
0

> <s_lp_Force_Field>
OPLS_2005

> <r_lp_Energy>
24.5509

> <b_lp_Chiralities_Consistent>
1

> <s_lp_Variant>
AV-unprocessed.smi:490-4

> <Gold.Version>
5.8.1

> <Gold.Id.Protein>
6NUR|6NUR_protein|mol2

> <Gold.PLP.Fitness>
52.6373

> <Gold.PLP.PLP>
-42.6230

> <Gold.PLP.part.hbond>
-3.4669

> <Gold.PLP.part.metal>
0.0000

> <Gold.PLP.part.buried>
-5.8711

> <Gold.PLP.part.nonpolar>
-32.2253

> <Gold.PLP.part.repulsive>
0.0000

> <Gold.PLP.ligand.clash>
0.0000

> <Gold.PLP.ligand.torsion>
0.7221

> <Gold.PLP.Chemscore.Hbond>
3.7680

> <Gold.PLP.Chemscore.CHOScore>
0.0000

> <Gold.PLP.Chemscore.Metal>
0.0000

> <Gold.Chemscore.Hbonds>
donor molecule, donor type, donor heavy atom, donor atom, acceptor molecule, acceptor atom, score
      L1  H    16    42       P1  7948  0.71
      L1  H    17    50       P1 10175  2.00
      P1  H  7989  7998       L1    11  0.58

> <Gold.PLP.Chemscore.Internal.Correction>
0.1545

> <Gold.Rescore>
     Score         DG    S(hbond)    S(metal)    S(lipo)     H(rot)  DE(clash)    DE(int)     intcor
     20.06     -21.12       2.80        0.00     119.82       3.02       0.23       0.83       ----

> <Gold.Chemscore.Fitness>
20.0636

> <Gold.Chemscore.DG>
-21.1159

> <Gold.Chemscore.ZeroCoef>
-5.4800

> <Gold.Chemscore.Hbond>
2.7972

> <Gold.Chemscore.Metal>
0.0000

> <Gold.Chemscore.Lipo>
119.8229

> <Gold.Chemscore.Internal_Hbond>
0.0000

> <Gold.Chemscore.DEClash>
0.2266

> <Gold.Chemscore.DEInternal>
0.8257

> <Gold.Chemscore.Rot>
3.0180

> <Gold.Chemscore.Internal.Correction>
   9.000000E+99

> <Gold.Chemscore.Hbonds>
donor molecule, donor type, donor heavy atom, donor atom, acceptor molecule, acceptor atom, score
      L1  H    16    42       P1  7948  0.69
      L1  H    17    50       P1 10175  1.00
      P1  H  7989  7998       L1    11  0.10

> <Gold.Chemscore.Hbond.Weighted>
-9.3426

> <Gold.Chemscore.Metal.Weighted>
-0.0000

> <Gold.Chemscore.Lipo.Weighted>
-14.0193

> <Gold.Chemscore.Internal_Hbond.Weighted>
0.0000

> <Gold.Chemscore.DEClash.Weighted>
0.2266

> <Gold.Chemscore.DEInternal.Weighted>
0.8257

> <Gold.Chemscore.Rot.Weighted>
7.7260

> <Gold.Chemscore.Internal.Correction.Weighted>
   9.000000E+99

> <Gold.Protein.RotatedTorsions>
[ 6907 6896 6895 6894 ] final -118.85 input  -60.11 | X-H torsion
[ 7974 7965 7964 7962 ] final -157.77 input  175.53 | X-H torsion
[ 8008 7997 7996 7995 ] final  -75.71 input   59.86 | X-H torsion
[ 10167 10162 10161 10158 ] final   63.61 input  -65.29 | X-H torsion
[ 10718 10713 10712 10709 ] final  171.24 input   66.30 | X-H torsion
[ 10763 10752 10751 10750 ] final  163.13 input  -60.55 | X-H torsion
[ 11005 11000 10999 10996 ] final  116.95 input  -57.11 | X-H torsion

> <Gold.Protein.ActiveResidues>
 VAL166  LYS551  ARG553  GLY616  TRP617  ASP618  TYR619  PRO620  LYS621  CYS622 
 ASP623  PHE694  ASN695  SER759  ASP760  ASP761  ALA762  ILE779  LEU786  VAL792 
 PHE793  MET794  SER795  GLU796  ALA797  LYS798  CYS799  TRP800  GLU811  SER814 

> <Gold.Protein.RotatedAtoms>
  150.8254  133.8180  159.3120 H   0  0  0  0  0  0  0  0  0  0  0  0  # atno 6907 bound_to 6896
  151.5926  135.1051  160.0052 H   0  0  0  0  0  0  0  0  0  0  0  0  # atno 6908 bound_to 6896
  152.4340  133.7286  159.6631 H   0  0  0  0  0  0  0  0  0  0  0  0  # atno 6909 bound_to 6896
  144.7534  140.3922  143.6031 H   0  0  0  0  0  0  0  0  0  0  0  0  # atno 7974 bound_to 7965
  154.5441  140.0739  156.8559 H   0  0  0  0  0  0  0  0  0  0  0  0  # atno 8008 bound_to 7997
  155.3123  140.3391  155.4225 H   0  0  0  0  0  0  0  0  0  0  0  0  # atno 8009 bound_to 7997
  156.1901  140.1683  156.8094 H   0  0  0  0  0  0  0  0  0  0  0  0  # atno 8010 bound_to 7997
  140.1312  144.4641  150.6864 H   0  0  0  0  0  0  0  0  0  0  0  0  # atno 10167 bound_to 10162
  156.9965  131.0163  151.2842 H   0  0  0  0  0  0  0  0  0  0  0  0  # atno 10718 bound_to 10713
  154.2890  135.2761  155.2663 H   0  0  0  0  0  0  0  0  0  0  0  0  # atno 10763 bound_to 10752
  154.5150  135.5772  153.6638 H   0  0  0  0  0  0  0  0  0  0  0  0  # atno 10764 bound_to 10752
  152.9917  135.6190  154.3054 H   0  0  0  0  0  0  0  0  0  0  0  0  # atno 10765 bound_to 10752
  139.9058  134.9604  156.7276 H   0  0  0  0  0  0  0  0  0  0  0  0  # atno 11005 bound_to 11000
  145.6864  139.1629  143.2671 LP  0  0  0  0  0  0  0  0  0  0  0  0  # atno 17320 bound_to 7965
  146.1513  140.6921  142.9320 LP  0  0  0  0  0  0  0  0  0  0  0  0  # atno 17321 bound_to 7965
  140.6816  143.2329  151.5369 LP  0  0  0  0  0  0  0  0  0  0  0  0  # atno 17342 bound_to 10162
  139.5519  144.2374  152.1545 LP  0  0  0  0  0  0  0  0  0  0  0  0  # atno 17343 bound_to 10162
  157.5421  130.8127  149.8042 LP  0  0  0  0  0  0  0  0  0  0  0  0  # atno 17370 bound_to 10713
  156.0187  130.3803  150.2029 LP  0  0  0  0  0  0  0  0  0  0  0  0  # atno 17371 bound_to 10713
  140.6951  133.9356  155.7989 LP  0  0  0  0  0  0  0  0  0  0  0  0  # atno 17394 bound_to 11000
  141.0413  134.0617  157.3898 LP  0  0  0  0  0  0  0  0  0  0  0  0  # atno 17395 bound_to 11000

$$$$
