#       Name:                AV-unprocessed.smi:914
#       Creating user name   scv26
#       Creation time:       Fri Mar 27 02:05:50 2020


#       File generated by GOLD software.
#

@<TRIPOS>MOLECULE
AV-unprocessed.smi:914
    41    42     1
SMALL
NO_CHARGES


@<TRIPOS>ATOM
      1 ****        -0.9876   4.2619  -3.3462 O.2            1 S1                 0.0000
      2 ****        -1.2946   3.5891  -2.3629 C.2            1 S1                 0.0000
      3 ****        -0.5681   3.5994  -1.2072 N.pl3          1 S1                -1.0000
      4 ****        -0.8967   2.8628  -0.1010 C.2            1 S1                 0.0000
      5 ****        -0.2211   2.8875   0.9279 O.2            1 S1                 0.0000
      6 ****        -2.0139   2.0768  -0.1427 N.am           1 S1                 0.0000
      7 ****        -2.4480   1.2510   0.9932 C.3            1 S1                 0.0000
      8 ****        -1.9454  -0.1960   0.8705 C.3            1 S1                 0.0000
      9 ****        -0.5324  -0.2219   0.9793 O.3            1 S1                 0.0000
     10 ****         0.0062  -1.5283   0.8790 C.3            1 S1                 0.0000
     11 ****         1.5361  -1.4328   0.9058 C.3            1 S1                 0.0000
     12 ****         2.2323  -2.7801   1.0757 C.3            1 S1                 0.0000
     13 ****         3.6109  -2.4794   0.5316 C.3            1 S1                 0.0000
     14 ****         3.3106  -1.5123  -0.6130 C.3            1 S1                 0.0000
     15 ****         2.0249  -0.9580  -0.3440 O.3            1 S1                 0.0000
     16 ****        -2.7915   2.0235  -1.3116 C.2            1 S1                 0.0000
     17 ****        -2.4816   2.7378  -2.4109 C.2            1 S1                 0.0000
     18 ****        -3.4558   2.6497  -3.8350 Cl             1 S1                 0.0000
     19 ****        -2.1332   1.6763   1.9474 H              1 S1                 0.0000
     20 ****        -3.5381   1.2489   1.0327 H              1 S1                 0.0000
     21 ****        -2.3834  -0.8022   1.6648 H              1 S1                 0.0000
     22 ****        -2.2618  -0.6289  -0.0797 H              1 S1                 0.0000
     23 ****        -0.3448  -2.1220   1.7246 H              1 S1                 0.0000
     24 ****        -0.3277  -2.0237  -0.0341 H              1 S1                 0.0000
     25 ****         1.8651  -0.7554   1.6959 H              1 S1                 0.0000
     26 ****         2.2469  -3.1247   2.1101 H              1 S1                 0.0000
     27 ****         1.7472  -3.5433   0.4653 H              1 S1                 0.0000
     28 ****         4.2097  -1.9804   1.2946 H              1 S1                 0.0000
     29 ****         4.1476  -3.3711   0.2070 H              1 S1                 0.0000
     30 ****         4.0660  -0.7302  -0.6914 H              1 S1                 0.0000
     31 ****         3.2687  -2.0388  -1.5669 H              1 S1                 0.0000
     32 ****        -3.6469   1.3659  -1.2594 H              1 S1                 0.0000
     33 ****        -1.5492   4.2245  -4.1727 LP             1 S1                 0.0000
     34 ****        -0.1764   4.8461  -3.3188 LP             1 S1                 0.0000
     35 ****         0.2480   4.1759  -1.1664 LP             1 S1                 0.0000
     36 ****         0.5981   3.4591   0.9746 LP             1 S1                 0.0000
     37 ****        -0.4915   2.3359   1.7170 LP             1 S1                 0.0000
     38 ****        -0.2739   0.1622   1.8656 LP             1 S1                 0.0000
     39 ****        -0.1460   0.3392   0.2473 LP             1 S1                 0.0000
     40 ****         2.0949   0.0391  -0.3140 LP             1 S1                 0.0000
     41 ****         1.3913  -1.2260  -1.0697 LP             1 S1                 0.0000
@<TRIPOS>BOND
    1    1    2 2     
    2    2   17 1     
    3    2    3 1     
    4    3    4 1     
    5    4    5 2     
    6    4    6 am    
    7    6    7 1     
    8    6   16 1     
    9    7    8 1     
   10    7   19 1     
   11    7   20 1     
   12    8    9 1     
   13    8   21 1     
   14    8   22 1     
   15    9   10 1     
   16   10   11 1     
   17   10   23 1     
   18   10   24 1     
   19   11   15 1     
   20   11   12 1     
   21   11   25 1     
   22   12   13 1     
   23   12   26 1     
   24   12   27 1     
   25   13   14 1     
   26   13   28 1     
   27   13   29 1     
   28   14   15 1     
   29   14   30 1     
   30   14   31 1     
   31   16   17 2     
   32   16   32 1     
   33   17   18 1     
   34    1   33 1     
   35    1   34 1     
   36    3   35 1     
   37    5   36 1     
   38    5   37 1     
   39    9   38 1     
   40    9   39 1     
   41   15   40 1     
   42   15   41 1     
@<TRIPOS>SUBSTRUCTURE
      1 S1             1
@<TRIPOS>SET
LONE_PAIRS      STATIC     ATOMS    <user>   **** ""
9 33 34 35 36 37 38 39 40 41
ATOM$BLUE        STATIC     ATOMS    COLORGROUP SYSTEM
9 33 34 35 36 37 38 39 40 41
