AV-unprocessed.smi:750|AV-procd|sdf|3588|dock5
  -GOLD-   22720 0583D 1   1.00000     0.00000
 Structure written by MMmdl.
 23 24  0  0  0  0  0  0  0  0  1 V2000
  149.8340  141.5962  155.3726 C   0  0  0  0  0  0  0  0  0  0  0  0
  150.5725  140.9270  156.5492 C   0  0  1  0  0  0  0  0  0  0  0  0
  151.3259  141.9426  157.4224 C   0  0  0  0  0  0  0  0  0  0  0  0
  152.0502  141.5156  158.5601 C   0  0  0  0  0  0  0  0  0  0  0  0
  152.7334  142.4648  159.3430 C   0  0  0  0  0  0  0  0  0  0  0  0
  152.6713  143.8176  158.9602 C   0  0  0  0  0  0  0  0  0  0  0  0
  151.9884  144.2477  157.8793 N   0  0  0  0  0  0  0  0  0  0  0  0
  151.3352  143.3299  157.1346 C   0  0  0  0  0  0  0  0  0  0  0  0
  149.6492  140.0784  157.2928 N   0  0  0  0  0  0  0  0  0  0  0  0
  150.0090  138.7877  157.2973 C   0  0  0  0  0  0  0  0  0  0  0  0
  149.4163  137.8735  157.8651 O   0  0  0  0  0  0  0  0  0  0  0  0
  151.1212  138.6710  156.5671 N   0  0  0  0  0  0  0  0  0  0  0  0
  151.5258  139.8367  156.0662 C   0  0  0  0  0  0  0  0  0  0  0  0
  152.4965  140.0207  155.3332 O   0  0  0  0  0  0  0  0  0  0  0  0
  150.5165  142.1354  154.7152 H   0  0  0  0  0  0  0  0  0  0  0  0
  149.0925  142.3098  155.7329 H   0  0  0  0  0  0  0  0  0  0  0  0
  149.3097  140.8621  154.7589 H   0  0  0  0  0  0  0  0  0  0  0  0
  152.0809  140.4726  158.8380 H   0  0  0  0  0  0  0  0  0  0  0  0
  153.2906  142.1626  160.2172 H   0  0  0  0  0  0  0  0  0  0  0  0
  153.1825  144.5738  159.5373 H   0  0  0  0  0  0  0  0  0  0  0  0
  150.8069  143.7328  156.2837 H   0  0  0  0  0  0  0  0  0  0  0  0
  148.8354  140.4418  157.7675 H   0  0  0  0  0  0  0  0  0  0  0  0
  151.5928  137.7943  156.3992 H   0  0  0  0  0  0  0  0  0  0  0  0
  1  2  1  0  0  0  0
  1 15  1  0  0  0  0
  1 16  1  0  0  0  0
  1 17  1  0  0  0  0
  2 13  1  0  0  0  0
  2  3  1  0  0  0  0
  2  9  1  0  0  0  0
  3  8  1  0  0  0  0
  3  4  2  0  0  0  0
  4  5  1  0  0  0  0
  4 18  1  0  0  0  0
  5  6  2  0  0  0  0
  5 19  1  0  0  0  0
  6  7  1  0  0  0  0
  6 20  1  0  0  0  0
  7  8  2  0  0  0  0
  8 21  1  0  0  0  0
  9 10  1  0  0  0  0
  9 22  1  0  0  0  0
 10 11  2  0  0  0  0
 10 12  1  0  0  0  0
 12 13  1  0  0  0  0
 12 23  1  0  0  0  0
 13 14  2  0  0  0  0
M  END
> <s_m_source_file>
AV-unprocessed.smi

> <i_m_source_file_index>
750

> <i_lp_mmshare_version>
43012

> <i_f3d_flags>
0

> <s_epik_input>
Tz1DMVtOSF1DKD1PKVtOSF1bQ0BAXTEoW0NIM10pYzJbY0hdW2NIXVtjSF1uW2NIXTI=

> <s_epik_cmdline>
J2VwaWtfcHl0aG9uJywgJy1waCcsICc3LjAnLCAnLXRuJywgJzgnLCAnLW1hJywgJzIwMCcsICctbWV0YWxfYmluZGluZycsICctaW1hZScsICc8aW5maWxlLm1hZT4nLCAnLW9tYWUnLCAnPG91dGZpbGUubWFlPic=

> <r_lp_tautomer_probability>
1

> <r_epik_Ionization_Penalty>
0.0296909

> <r_epik_Ionization_Penalty_Charging>
0

> <r_epik_Ionization_Penalty_Neutral>
0.0296909

> <r_epik_State_Penalty>
0.022996

> <r_epik_Charging_Adjusted_Penalty>
0.022996

> <i_epik_Tot_Q>
0

> <i_epik_Tot_abs_Q>
0

> <r_epik_Metal_State_Penalty>
0.427807

> <b_epik_Metal_Only>
0

> <s_lp_Force_Field>
OPLS_2005

> <r_lp_Energy>
18.5111

> <b_lp_Chiralities_Consistent>
1

> <s_lp_Variant>
AV-unprocessed.smi:750-1

> <Gold.Version>
5.8.1

> <Gold.Id.Protein>
6NUR|6NUR_protein|mol2

> <Gold.PLP.Fitness>
31.5079

> <Gold.PLP.PLP>
-24.2151

> <Gold.PLP.part.hbond>
-2.0000

> <Gold.PLP.part.metal>
0.0000

> <Gold.PLP.part.buried>
-1.8386

> <Gold.PLP.part.nonpolar>
-20.4320

> <Gold.PLP.part.repulsive>
0.1970

> <Gold.PLP.ligand.clash>
0.0000

> <Gold.PLP.ligand.torsion>
0.0620

> <Gold.PLP.Chemscore.Hbond>
1.4329

> <Gold.PLP.Chemscore.CHOScore>
1.0000

> <Gold.PLP.Chemscore.Metal>
0.0000

> <Gold.Chemscore.Hbonds>
donor molecule, donor type, donor heavy atom, donor atom, acceptor molecule, acceptor atom, score
      P1  H  7989  7998       L1    14  0.38
      P1  H  7997  8010       L1    14  1.00
      L1  C     8    21       P1  8028  1.00

> <Gold.PLP.Chemscore.Internal.Correction>
0.1182

> <Gold.Rescore>
     Score         DG    S(hbond)    S(metal)    S(lipo)     H(rot)  DE(clash)    DE(int)     intcor
     14.54     -14.67       1.18        0.00      66.75       1.00       0.05       0.08       ----

> <Gold.Chemscore.Fitness>
14.5434

> <Gold.Chemscore.DG>
-14.6678

> <Gold.Chemscore.ZeroCoef>
-5.4800

> <Gold.Chemscore.Hbond>
1.1789

> <Gold.Chemscore.Metal>
0.0000

> <Gold.Chemscore.Lipo>
66.7550

> <Gold.Chemscore.Internal_Hbond>
0.0000

> <Gold.Chemscore.DEClash>
0.0458

> <Gold.Chemscore.DEInternal>
0.0786

> <Gold.Chemscore.Rot>
1.0000

> <Gold.Chemscore.Internal.Correction>
   9.000000E+99

> <Gold.Chemscore.Hbonds>
donor molecule, donor type, donor heavy atom, donor atom, acceptor molecule, acceptor atom, score
      P1  H  7989  7998       L1    14  0.19
      P1  H  7997  8010       L1    14  0.93

> <Gold.Chemscore.Hbond.Weighted>
-3.9374

> <Gold.Chemscore.Metal.Weighted>
-0.0000

> <Gold.Chemscore.Lipo.Weighted>
-7.8103

> <Gold.Chemscore.Internal_Hbond.Weighted>
0.0000

> <Gold.Chemscore.DEClash.Weighted>
0.0458

> <Gold.Chemscore.DEInternal.Weighted>
0.0786

> <Gold.Chemscore.Rot.Weighted>
2.5600

> <Gold.Chemscore.Internal.Correction.Weighted>
   9.000000E+99

> <Gold.Protein.RotatedTorsions>
[ 6907 6896 6895 6894 ] final  179.74 input  -60.11 | X-H torsion
[ 7974 7965 7964 7962 ] final  178.16 input  175.53 | X-H torsion
[ 8008 7997 7996 7995 ] final   92.81 input   59.86 | X-H torsion
[ 10167 10162 10161 10158 ] final  -25.89 input  -65.29 | X-H torsion
[ 10718 10713 10712 10709 ] final   -4.65 input   66.30 | X-H torsion
[ 10763 10752 10751 10750 ] final   78.20 input  -60.55 | X-H torsion
[ 11005 11000 10999 10996 ] final   39.19 input  -57.11 | X-H torsion

> <Gold.Protein.ActiveResidues>
 VAL166  LYS551  ARG553  GLY616  TRP617  ASP618  TYR619  PRO620  LYS621  CYS622 
 ASP623  PHE694  ASN695  SER759  ASP760  ASP761  ALA762  ILE779  LEU786  VAL792 
 PHE793  MET794  SER795  GLU796  ALA797  LYS798  CYS799  TRP800  GLU811  SER814 

> <Gold.Protein.RotatedAtoms>
  151.6667  133.3315  159.3186 H   0  0  0  0  0  0  0  0  0  0  0  0  # atno 6907 bound_to 6896
  150.7887  134.6897  159.6499 H   0  0  0  0  0  0  0  0  0  0  0  0  # atno 6908 bound_to 6896
  152.3962  134.6364  160.0140 H   0  0  0  0  0  0  0  0  0  0  0  0  # atno 6909 bound_to 6896
  144.7159  140.0356  143.6438 H   0  0  0  0  0  0  0  0  0  0  0  0  # atno 7974 bound_to 7965
  156.0396  140.3321  155.7229 H   0  0  0  0  0  0  0  0  0  0  0  0  # atno 8008 bound_to 7997
  155.5763  140.0632  157.2812 H   0  0  0  0  0  0  0  0  0  0  0  0  # atno 8009 bound_to 7997
  154.4387  140.1852  156.0919 H   0  0  0  0  0  0  0  0  0  0  0  0  # atno 8010 bound_to 7997
  140.7285  143.4226  151.0927 H   0  0  0  0  0  0  0  0  0  0  0  0  # atno 10167 bound_to 10162
  156.7581  130.5261  149.5790 H   0  0  0  0  0  0  0  0  0  0  0  0  # atno 10718 bound_to 10713
  153.0856  135.4886  154.8591 H   0  0  0  0  0  0  0  0  0  0  0  0  # atno 10763 bound_to 10752
  154.7207  135.3039  154.9055 H   0  0  0  0  0  0  0  0  0  0  0  0  # atno 10764 bound_to 10752
  153.9720  135.6800  153.4800 H   0  0  0  0  0  0  0  0  0  0  0  0  # atno 10765 bound_to 10752
  140.2052  134.3821  155.8076 H   0  0  0  0  0  0  0  0  0  0  0  0  # atno 11005 bound_to 11000
  146.0066  139.3135  143.0895 LP  0  0  0  0  0  0  0  0  0  0  0  0  # atno 17320 bound_to 7965
  145.8731  140.9408  143.0640 LP  0  0  0  0  0  0  0  0  0  0  0  0  # atno 17321 bound_to 7965
  139.7873  143.8269  152.3147 LP  0  0  0  0  0  0  0  0  0  0  0  0  # atno 17342 bound_to 10162
  139.8240  144.7283  150.9535 LP  0  0  0  0  0  0  0  0  0  0  0  0  # atno 17343 bound_to 10162
  156.1357  130.6209  151.0396 LP  0  0  0  0  0  0  0  0  0  0  0  0  # atno 17370 bound_to 10713
  157.6747  131.0853  150.7525 LP  0  0  0  0  0  0  0  0  0  0  0  0  # atno 17371 bound_to 10713
  141.2227  133.7114  156.8326 LP  0  0  0  0  0  0  0  0  0  0  0  0  # atno 17394 bound_to 11000
  140.2010  134.8897  157.3169 LP  0  0  0  0  0  0  0  0  0  0  0  0  # atno 17395 bound_to 11000

$$$$
