AV-unprocessed.smi:1807|AV-procd|sdf|7303|dock5
  -GOLD-   22720 8563D 1   1.00000     0.00000
 Structure written by MMmdl.
 44 45  0  0  0  0  0  0  0  0  1 V2000
  154.6519  140.5602  161.0525 C   0  0  0  0  0  0  0  0  0  0  0  0
  154.0547  141.9726  160.9298 C   0  0  2  0  0  0  0  0  0  0  0  0
  153.0264  142.2509  162.0458 C   0  0  0  0  0  0  0  0  0  0  0  0
  152.4800  143.6851  161.9649 C   0  0  0  0  0  0  0  0  0  0  0  0
  151.8753  143.9763  160.5834 C   0  0  0  0  0  0  0  0  0  0  0  0
  152.8905  143.6986  159.4606 C   0  0  0  0  0  0  0  0  0  0  0  0
  153.4596  142.2668  159.5281 C   0  0  2  0  0  0  0  0  0  0  0  0
  152.4175  141.3046  159.1637 N   0  0  0  0  0  0  0  0  0  0  0  0
  152.6097  140.0694  158.6760 C   0  0  0  0  0  0  0  0  0  0  0  0
  153.7244  139.5867  158.4686 O   0  0  0  0  0  0  0  0  0  0  0  0
  151.3355  139.2748  158.3785 C   0  0  0  0  0  0  0  0  0  0  0  0
  151.4907  138.3994  157.2250 N   0  0  0  0  0  0  0  0  0  0  0  0
  150.8649  138.7276  156.0181 C   0  0  0  0  0  0  0  0  0  0  0  0
  150.9771  137.9102  154.8607 C   0  0  0  0  0  0  0  0  0  0  0  0
  150.2254  138.5765  153.9347 C   0  0  0  0  0  0  0  0  0  0  0  0
  149.7211  139.7090  154.5446 N   0  0  0  0  0  0  0  0  0  0  0  0
  148.8601  140.7313  153.9775 C   0  0  0  0  0  0  0  0  0  0  0  0
  147.4677  140.1742  153.6758 C   0  0  0  0  0  0  0  0  0  0  0  0
  146.5490  141.0350  153.2295 N   0  0  0  0  0  0  0  0  0  0  0  0
  147.2237  138.9813  153.8430 O   0  0  0  0  0  0  0  0  0  0  0  0
  150.1179  139.8054  155.8330 N   0  0  0  0  0  0  0  0  0  0  0  0
  153.8839  139.7889  160.9882 H   0  0  0  0  0  0  0  0  0  0  0  0
  155.1624  140.4348  162.0074 H   0  0  0  0  0  0  0  0  0  0  0  0
  155.3806  140.3723  160.2633 H   0  0  0  0  0  0  0  0  0  0  0  0
  154.8809  142.6703  161.0754 H   0  0  0  0  0  0  0  0  0  0  0  0
  152.2011  141.5410  161.9777 H   0  0  0  0  0  0  0  0  0  0  0  0
  153.4851  142.0927  163.0224 H   0  0  0  0  0  0  0  0  0  0  0  0
  151.7284  143.8409  162.7394 H   0  0  0  0  0  0  0  0  0  0  0  0
  153.2843  144.3934  162.1677 H   0  0  0  0  0  0  0  0  0  0  0  0
  150.9846  143.3641  160.4377 H   0  0  0  0  0  0  0  0  0  0  0  0
  151.5445  145.0139  160.5348 H   0  0  0  0  0  0  0  0  0  0  0  0
  152.4295  143.8765  158.4881 H   0  0  0  0  0  0  0  0  0  0  0  0
  153.7113  144.4124  159.5401 H   0  0  0  0  0  0  0  0  0  0  0  0
  154.2693  142.2095  158.7985 H   0  0  0  0  0  0  0  0  0  0  0  0
  151.4634  141.6071  159.2968 H   0  0  0  0  0  0  0  0  0  0  0  0
  151.0729  138.6792  159.2546 H   0  0  0  0  0  0  0  0  0  0  0  0
  150.5178  139.9736  158.1976 H   0  0  0  0  0  0  0  0  0  0  0  0
  151.9810  137.5229  157.3331 H   0  0  0  0  0  0  0  0  0  0  0  0
  151.5171  136.9842  154.7305 H   0  0  0  0  0  0  0  0  0  0  0  0
  150.0070  138.3405  152.9038 H   0  0  0  0  0  0  0  0  0  0  0  0
  148.7806  141.5668  154.6751 H   0  0  0  0  0  0  0  0  0  0  0  0
  149.3219  141.1175  153.0677 H   0  0  0  0  0  0  0  0  0  0  0  0
  145.6166  140.7140  153.0134 H   0  0  0  0  0  0  0  0  0  0  0  0
  146.7937  142.0071  153.1066 H   0  0  0  0  0  0  0  0  0  0  0  0
  1  2  1  0  0  0  0
  1 22  1  0  0  0  0
  1 23  1  0  0  0  0
  1 24  1  0  0  0  0
  2  7  1  0  0  0  0
  2  3  1  0  0  0  0
  2 25  1  0  0  0  0
  3  4  1  0  0  0  0
  3 26  1  0  0  0  0
  3 27  1  0  0  0  0
  4  5  1  0  0  0  0
  4 28  1  0  0  0  0
  4 29  1  0  0  0  0
  5  6  1  0  0  0  0
  5 30  1  0  0  0  0
  5 31  1  0  0  0  0
  6  7  1  0  0  0  0
  6 32  1  0  0  0  0
  6 33  1  0  0  0  0
  7  8  1  0  0  0  0
  7 34  1  0  0  0  0
  8  9  1  0  0  0  0
  8 35  1  0  0  0  0
  9 10  2  0  0  0  0
  9 11  1  0  0  0  0
 11 12  1  0  0  0  0
 11 36  1  0  0  0  0
 11 37  1  0  0  0  0
 12 13  1  0  0  0  0
 12 38  1  0  0  0  0
 13 21  2  0  0  0  0
 13 14  1  0  0  0  0
 14 15  2  0  0  0  0
 14 39  1  0  0  0  0
 15 16  1  0  0  0  0
 15 40  1  0  0  0  0
 16 17  1  0  0  0  0
 16 21  1  0  0  0  0
 17 18  1  0  0  0  0
 17 41  1  0  0  0  0
 17 42  1  0  0  0  0
 18 19  1  0  0  0  0
 18 20  2  0  0  0  0
 19 43  1  0  0  0  0
 19 44  1  0  0  0  0
M  END
> <s_m_source_file>
AV-unprocessed.smi

> <i_m_source_file_index>
1807

> <i_lp_mmshare_version>
43012

> <i_f3d_flags>
0

> <s_epik_input>
W0NIM11bQ0BASF0xW0NIMl1bQ0gyXVtDSDJdW0NIMl1bQ0BIXTFbTkhdQyg9TylbQ0gyXVtOSF1jMltjSF1bY0hdbihuMilbQ0gyXUMoPU8pW05IMl0=

> <s_epik_cmdline>
J2VwaWtfcHl0aG9uJywgJy1waCcsICc3LjAnLCAnLXRuJywgJzgnLCAnLW1hJywgJzIwMCcsICctbWV0YWxfYmluZGluZycsICctaW1hZScsICc8aW5maWxlLm1hZT4nLCAnLW9tYWUnLCAnPG91dGZpbGUubWFlPic=

> <r_lp_tautomer_probability>
1

> <r_epik_Ionization_Penalty>
0.000167642

> <r_epik_Ionization_Penalty_Charging>
0

> <r_epik_Ionization_Penalty_Neutral>
0.000167642

> <r_epik_State_Penalty>
-0

> <r_epik_Charging_Adjusted_Penalty>
0

> <i_epik_Tot_Q>
0

> <i_epik_Tot_abs_Q>
0

> <r_epik_Metal_State_Penalty>
-0

> <b_epik_Metal_Only>
0

> <s_lp_Force_Field>
OPLS_2005

> <r_lp_Energy>
5.83979

> <b_lp_Chiralities_Consistent>
1

> <s_lp_Variant>
AV-unprocessed.smi:1807-3

> <Gold.Version>
5.8.1

> <Gold.Id.Protein>
6NUR|6NUR_protein|mol2

> <Gold.PLP.Fitness>
52.5680

> <Gold.PLP.PLP>
-42.5189

> <Gold.PLP.part.hbond>
-2.0000

> <Gold.PLP.part.metal>
0.0000

> <Gold.PLP.part.buried>
-4.2654

> <Gold.PLP.part.nonpolar>
-36.0000

> <Gold.PLP.part.repulsive>
0.3406

> <Gold.PLP.ligand.clash>
0.0000

> <Gold.PLP.ligand.torsion>
0.8292

> <Gold.PLP.Chemscore.Hbond>
2.0000

> <Gold.PLP.Chemscore.CHOScore>
1.8915

> <Gold.PLP.Chemscore.Metal>
0.0000

> <Gold.Chemscore.Hbonds>
donor molecule, donor type, donor heavy atom, donor atom, acceptor molecule, acceptor atom, score
      L1  H    19    43       P1 10175  1.00
      P1  H  7997  8010       L1    10  1.00
      L1  C    15    40       P1  7948  1.00
      L1  C    15    40       P1  7957  0.90

> <Gold.PLP.Chemscore.Internal.Correction>
0.0332

> <Gold.Rescore>
     Score         DG    S(hbond)    S(metal)    S(lipo)     H(rot)  DE(clash)    DE(int)     intcor
     16.49     -17.48       1.91        0.00     105.68       2.64       0.07       0.93       ----

> <Gold.Chemscore.Fitness>
16.4857

> <Gold.Chemscore.DG>
-17.4780

> <Gold.Chemscore.ZeroCoef>
-5.4800

> <Gold.Chemscore.Hbond>
1.9113

> <Gold.Chemscore.Metal>
0.0000

> <Gold.Chemscore.Lipo>
105.6804

> <Gold.Chemscore.Internal_Hbond>
0.0000

> <Gold.Chemscore.DEClash>
0.0650

> <Gold.Chemscore.DEInternal>
0.9272

> <Gold.Chemscore.Rot>
2.6369

> <Gold.Chemscore.Internal.Correction>
   9.000000E+99

> <Gold.Chemscore.Hbonds>
donor molecule, donor type, donor heavy atom, donor atom, acceptor molecule, acceptor atom, score
      L1  H    19    43       P1 10175  0.62
      P1  H  7997  8010       L1    10  0.99

> <Gold.Chemscore.Hbond.Weighted>
-6.3837

> <Gold.Chemscore.Metal.Weighted>
-0.0000

> <Gold.Chemscore.Lipo.Weighted>
-12.3646

> <Gold.Chemscore.Internal_Hbond.Weighted>
0.0000

> <Gold.Chemscore.DEClash.Weighted>
0.0650

> <Gold.Chemscore.DEInternal.Weighted>
0.9272

> <Gold.Chemscore.Rot.Weighted>
6.7504

> <Gold.Chemscore.Internal.Correction.Weighted>
   9.000000E+99

> <Gold.Protein.RotatedTorsions>
[ 6907 6896 6895 6894 ] final   33.65 input  -60.11 | X-H torsion
[ 7974 7965 7964 7962 ] final  147.52 input  175.53 | X-H torsion
[ 8008 7997 7996 7995 ] final   12.98 input   59.86 | X-H torsion
[ 10167 10162 10161 10158 ] final  -96.50 input  -65.29 | X-H torsion
[ 10718 10713 10712 10709 ] final -133.53 input   66.30 | X-H torsion
[ 10763 10752 10751 10750 ] final   94.70 input  -60.55 | X-H torsion
[ 11005 11000 10999 10996 ] final  137.69 input  -57.11 | X-H torsion

> <Gold.Protein.ActiveResidues>
 VAL166  LYS551  ARG553  GLY616  TRP617  ASP618  TYR619  PRO620  LYS621  CYS622 
 ASP623  PHE694  ASN695  SER759  ASP760  ASP761  ALA762  ILE779  LEU786  VAL792 
 PHE793  MET794  SER795  GLU796  ALA797  LYS798  CYS799  TRP800  GLU811  SER814 

> <Gold.Protein.RotatedAtoms>
  152.0914  134.9404  160.0571 H   0  0  0  0  0  0  0  0  0  0  0  0  # atno 6907 bound_to 6896
  152.0654  133.4077  159.4444 H   0  0  0  0  0  0  0  0  0  0  0  0  # atno 6908 bound_to 6896
  150.6837  134.3073  159.4775 H   0  0  0  0  0  0  0  0  0  0  0  0  # atno 6909 bound_to 6896
  144.8585  139.6039  143.5941 H   0  0  0  0  0  0  0  0  0  0  0  0  # atno 7974 bound_to 7965
  154.8281  140.2895  155.5741 H   0  0  0  0  0  0  0  0  0  0  0  0  # atno 8008 bound_to 7997
  156.3003  140.2537  156.3132 H   0  0  0  0  0  0  0  0  0  0  0  0  # atno 8009 bound_to 7997
  154.9262  140.0384  157.2013 H   0  0  0  0  0  0  0  0  0  0  0  0  # atno 8010 bound_to 7997
  140.2931  143.3209  152.0325 H   0  0  0  0  0  0  0  0  0  0  0  0  # atno 10167 bound_to 10162
  156.2459  130.7124  151.1004 H   0  0  0  0  0  0  0  0  0  0  0  0  # atno 10718 bound_to 10713
  153.2446  135.4280  155.0734 H   0  0  0  0  0  0  0  0  0  0  0  0  # atno 10763 bound_to 10752
  154.8356  135.3411  154.6600 H   0  0  0  0  0  0  0  0  0  0  0  0  # atno 10764 bound_to 10752
  153.7022  135.7027  153.5116 H   0  0  0  0  0  0  0  0  0  0  0  0  # atno 10765 bound_to 10752
  140.0131  134.9430  157.0320 H   0  0  0  0  0  0  0  0  0  0  0  0  # atno 11005 bound_to 11000
  146.2842  139.6958  142.9207 LP  0  0  0  0  0  0  0  0  0  0  0  0  # atno 17320 bound_to 7965
  145.4359  141.0419  143.2885 LP  0  0  0  0  0  0  0  0  0  0  0  0  # atno 17321 bound_to 7965
  139.4933  144.6510  151.6675 LP  0  0  0  0  0  0  0  0  0  0  0  0  # atno 17342 bound_to 10162
  140.5715  144.0101  150.6219 LP  0  0  0  0  0  0  0  0  0  0  0  0  # atno 17343 bound_to 10162
  157.7195  131.0690  150.6195 LP  0  0  0  0  0  0  0  0  0  0  0  0  # atno 17370 bound_to 10713
  156.6272  130.4422  149.5800 LP  0  0  0  0  0  0  0  0  0  0  0  0  # atno 17371 bound_to 10713
  140.4518  134.1574  155.7182 LP  0  0  0  0  0  0  0  0  0  0  0  0  # atno 17394 bound_to 11000
  141.1725  133.8581  157.1527 LP  0  0  0  0  0  0  0  0  0  0  0  0  # atno 17395 bound_to 11000

$$$$
