#       Name:                AV-unprocessed.smi:1667
#       Creating user name   scv26
#       Creation time:       Fri Mar 27 07:38:39 2020


#       File generated by GOLD software.
#

@<TRIPOS>MOLECULE
AV-unprocessed.smi:1667
    50    52     1
SMALL
NO_CHARGES


@<TRIPOS>ATOM
      1 ****        -1.9826   3.4682  -2.9719 C.3            1 S1                 0.0000
      2 ****        -1.6789   2.0084  -2.6537 C.2            1 S1                 0.0000
      3 ****        -1.4746   1.2120  -3.5683 O.2            1 S1                 0.0000
      4 ****        -1.6537   1.6844  -1.3497 N.am           1 S1                 0.0000
      5 ****        -1.3758   0.3768  -0.7497 C.3            1 S1                 0.0000
      6 ****        -2.3452  -0.7297  -1.2093 C.3            1 S1                 0.0000
      7 ****         0.0854   0.0337  -0.9230 C.2            1 S1                 0.0000
      8 ****         0.5340  -0.6154  -2.0000 N.2            1 S1                 0.0000
      9 ****         1.8970  -0.6537  -1.7963 C.ar           1 S1                 0.0000
     10 ****         2.9265  -1.2105  -2.5880 C.ar           1 S1                 0.0000
     11 ****         4.2722  -1.1165  -2.1779 C.ar           1 S1                 0.0000
     12 ****         4.6063  -0.4634  -0.9742 C.ar           1 S1                 0.0000
     13 ****         3.5947   0.0983  -0.1718 C.ar           1 S1                 0.0000
     14 ****         2.2513  -0.0030  -0.5822 C.ar           1 S1                 0.0000
     15 ****         1.0430   0.4291  -0.0397 N.pl3          1 S1                 0.0000
     16 ****         0.8863   1.1753   1.2072 C.3            1 S1                 0.0000
     17 ****         0.8356   0.2896   2.4750 C.3            1 S1                 0.0000
     18 ****         2.0584  -0.3995   2.6457 O.3            1 S1                 0.0000
     19 ****        -0.3714  -0.6389   2.5061 C.ar           1 S1                 0.0000
     20 ****        -0.3047  -1.9383   1.9539 C.ar           1 S1                 0.0000
     21 ****        -1.4347  -2.7783   1.9749 C.ar           1 S1                 0.0000
     22 ****        -2.6395  -2.3246   2.5444 C.ar           1 S1                 0.0000
     23 ****        -2.7128  -1.0312   3.0957 C.ar           1 S1                 0.0000
     24 ****        -3.8719  -0.5919   3.6401 F              1 S1                 0.0000
     25 ****        -1.5817  -0.1921   3.0784 C.ar           1 S1                 0.0000
     26 ****        -1.5748   0.5025   0.3113 H              1 S1                 0.0000
     27 ****        -2.9623   3.7476  -2.5837 H              1 S1                 0.0000
     28 ****        -1.9810   3.6388  -4.0489 H              1 S1                 0.0000
     29 ****        -1.2329   4.1198  -2.5224 H              1 S1                 0.0000
     30 ****        -1.8403   2.4306  -0.6959 H              1 S1                 0.0000
     31 ****        -2.1671  -1.6533  -0.6588 H              1 S1                 0.0000
     32 ****        -2.2402  -0.9585  -2.2697 H              1 S1                 0.0000
     33 ****        -3.3810  -0.4383  -1.0344 H              1 S1                 0.0000
     34 ****         2.6800  -1.7082  -3.5142 H              1 S1                 0.0000
     35 ****         5.0516  -1.5447  -2.7909 H              1 S1                 0.0000
     36 ****         5.6395  -0.3933  -0.6671 H              1 S1                 0.0000
     37 ****         3.8493   0.5990   0.7502 H              1 S1                 0.0000
     38 ****         1.7245   1.8687   1.2859 H              1 S1                 0.0000
     39 ****         0.0008   1.8071   1.1467 H              1 S1                 0.0000
     40 ****         0.7534   0.9540   3.3360 H              1 S1                 0.0000
     41 ****         2.0433  -0.8327   3.4854 H              1 S1                 0.0000
     42 ****         0.6096  -2.2934   1.5012 H              1 S1                 0.0000
     43 ****        -1.3786  -3.7684   1.5474 H              1 S1                 0.0000
     44 ****        -3.5071  -2.9675   2.5562 H              1 S1                 0.0000
     45 ****        -1.6490   0.8004   3.4992 H              1 S1                 0.0000
     46 ****        -1.5079   1.5224  -4.5183 LP             1 S1                 0.0000
     47 ****        -1.2752   0.2541  -3.3619 LP             1 S1                 0.0000
     48 ****         0.0093  -0.9839  -2.7673 LP             1 S1                 0.0000
     49 ****         2.8186   0.2494   2.6144 LP             1 S1                 0.0000
     50 ****         2.1683  -1.0770   1.9184 LP             1 S1                 0.0000
@<TRIPOS>BOND
    1    1    2 1     
    2    1   27 1     
    3    1   28 1     
    4    1   29 1     
    5    2    3 2     
    6    2    4 am    
    7    4    5 1     
    8    4   30 1     
    9    5   26 1     
   10    5    6 1     
   11    5    7 1     
   12    6   31 1     
   13    6   32 1     
   14    6   33 1     
   15    7   15 1     
   16    7    8 2     
   17    8    9 1     
   18    9   14 ar    
   19    9   10 ar    
   20   10   11 ar    
   21   10   34 1     
   22   11   12 ar    
   23   11   35 1     
   24   12   13 ar    
   25   12   36 1     
   26   13   14 ar    
   27   13   37 1     
   28   14   15 1     
   29   15   16 1     
   30   16   17 1     
   31   16   38 1     
   32   16   39 1     
   33   17   18 1     
   34   17   19 1     
   35   17   40 1     
   36   18   41 1     
   37   19   25 ar    
   38   19   20 ar    
   39   20   21 ar    
   40   20   42 1     
   41   21   22 ar    
   42   21   43 1     
   43   22   23 ar    
   44   22   44 1     
   45   23   24 1     
   46   23   25 ar    
   47   25   45 1     
   48    3   46 1     
   49    3   47 1     
   50    8   48 1     
   51   18   49 1     
   52   18   50 1     
@<TRIPOS>SUBSTRUCTURE
      1 S1             1
@<TRIPOS>SET
LONE_PAIRS      STATIC     ATOMS    <user>   **** ""
5 46 47 48 49 50
DONOR_HYDROGENS      STATIC     ATOMS    <user>   **** ""
2 30 41
ATOM$BLUE        STATIC     ATOMS    COLORGROUP SYSTEM
5 46 47 48 49 50
ATOM$RED        STATIC     ATOMS    COLORGROUP SYSTEM
2 30 41
