#       Name:                AV-unprocessed.smi:747
#       Creating user name   scv26
#       Creation time:       Fri Mar 27 00:57:21 2020


#       File generated by GOLD software.
#

@<TRIPOS>MOLECULE
AV-unprocessed.smi:747
    56    57     1
SMALL
NO_CHARGES


@<TRIPOS>ATOM
      1 ****        -4.5834   4.0793   2.2648 C.3            1 S1                 0.0000
      2 ****        -4.2579   3.5061   0.9755 N.am           1 S1                 0.0000
      3 ****        -4.7108   4.1488  -0.2025 C.2            1 S1                 0.0000
      4 ****        -5.3794   5.1826  -0.1819 O.2            1 S1                 0.0000
      5 ****        -4.3191   3.4840  -1.4397 C.2            1 S1                 0.0000
      6 ****        -3.5863   2.3494  -1.4165 C.2            1 S1                 0.0000
      7 ****        -3.1582   1.7414  -0.2506 N.am           1 S1                 0.0000
      8 ****        -2.3506   0.5174  -0.3270 C.3            1 S1                 0.0000
      9 ****        -0.8387   0.7815  -0.3203 C.2            1 S1                 0.0000
     10 ****        -0.3905   1.9262  -0.2387 O.2            1 S1                 0.0000
     11 ****        -0.0611  -0.3065  -0.4216 N.am           1 S1                 0.0000
     12 ****         1.4030  -0.3129  -0.4672 C.3            1 S1                 0.0000
     13 ****         1.9031   0.0061  -1.9054 C.3            1 S1                 0.0000
     14 ****         1.6174  -1.0668  -2.9684 C.2            1 S1                 0.0000
     15 ****         2.5889  -1.3135  -3.8504 N.am           1 S1                 0.0000
     16 ****         0.5411  -1.6601  -3.0052 O.2            1 S1                 0.0000
     17 ****         1.9535  -1.6354   0.1415 C.3            1 S1                 0.0000
     18 ****         1.4349  -1.8689   1.5829 C.3            1 S1                 0.0000
     19 ****         1.9771  -3.1715   2.1929 C.3            1 S1                 0.0000
     20 ****         3.5108  -3.1979   2.1752 C.3            1 S1                 0.0000
     21 ****         4.0413  -2.9879   0.7511 C.3            1 S1                 0.0000
     22 ****         3.5003  -1.6860   0.1386 C.3            1 S1                 0.0000
     23 ****        -3.4898   2.3211   0.9924 C.2            1 S1                 0.0000
     24 ****        -3.1164   1.8055   2.0491 O.2            1 S1                 0.0000
     25 ****        -5.1791   4.9852   2.1592 H              1 S1                 0.0000
     26 ****        -3.6400   4.3129   2.7615 H              1 S1                 0.0000
     27 ****        -5.1493   3.3282   2.8189 H              1 S1                 0.0000
     28 ****        -4.6186   3.9063  -2.3877 H              1 S1                 0.0000
     29 ****        -3.3179   1.8972  -2.3604 H              1 S1                 0.0000
     30 ****        -2.5986  -0.1595   0.4923 H              1 S1                 0.0000
     31 ****        -2.6004  -0.0254  -1.2399 H              1 S1                 0.0000
     32 ****        -0.5171  -1.2048  -0.4908 H              1 S1                 0.0000
     33 ****         1.7554   0.4953   0.1767 H              1 S1                 0.0000
     34 ****         1.4488   0.9356  -2.2505 H              1 S1                 0.0000
     35 ****         2.9735   0.2121  -1.8808 H              1 S1                 0.0000
     36 ****         2.4548  -2.0109  -4.5681 H              1 S1                 0.0000
     37 ****         3.4577  -0.8020  -3.7939 H              1 S1                 0.0000
     38 ****         1.5950  -2.4666  -0.4675 H              1 S1                 0.0000
     39 ****         1.7202  -1.0271   2.2152 H              1 S1                 0.0000
     40 ****         0.3457  -1.9086   1.6015 H              1 S1                 0.0000
     41 ****         1.6164  -3.2796   3.2164 H              1 S1                 0.0000
     42 ****         1.5890  -4.0255   1.6364 H              1 S1                 0.0000
     43 ****         3.8992  -2.4175   2.8308 H              1 S1                 0.0000
     44 ****         3.8727  -4.1467   2.5723 H              1 S1                 0.0000
     45 ****         5.1316  -2.9682   0.7607 H              1 S1                 0.0000
     46 ****         3.7532  -3.8333   0.1250 H              1 S1                 0.0000
     47 ****         3.8854  -1.6052  -0.8772 H              1 S1                 0.0000
     48 ****         3.8978  -0.8321   0.6889 H              1 S1                 0.0000
     49 ****        -5.6239   5.6025   0.6920 LP             1 S1                 0.0000
     50 ****        -5.6778   5.6022  -1.0392 LP             1 S1                 0.0000
     51 ****        -1.0152   2.7044  -0.1752 LP             1 S1                 0.0000
     52 ****         0.5981   2.0770  -0.2360 LP             1 S1                 0.0000
     53 ****        -0.1698  -1.4482  -2.3347 LP             1 S1                 0.0000
     54 ****         0.3767  -2.3547  -3.7057 LP             1 S1                 0.0000
     55 ****        -3.3567   2.2270   2.9234 LP             1 S1                 0.0000
     56 ****        -2.5733   0.9659   2.0313 LP             1 S1                 0.0000
@<TRIPOS>BOND
    1    1    2 1     
    2    1   25 1     
    3    1   26 1     
    4    1   27 1     
    5    2   23 am    
    6    2    3 am    
    7    3    4 2     
    8    3    5 1     
    9    5    6 2     
   10    5   28 1     
   11    6    7 1     
   12    6   29 1     
   13    7    8 1     
   14    7   23 am    
   15    8    9 1     
   16    8   30 1     
   17    8   31 1     
   18    9   10 2     
   19    9   11 am    
   20   11   12 1     
   21   11   32 1     
   22   12   13 1     
   23   12   17 1     
   24   12   33 1     
   25   13   14 1     
   26   13   34 1     
   27   13   35 1     
   28   14   15 am    
   29   14   16 2     
   30   15   36 1     
   31   15   37 1     
   32   17   22 1     
   33   17   18 1     
   34   17   38 1     
   35   18   19 1     
   36   18   39 1     
   37   18   40 1     
   38   19   20 1     
   39   19   41 1     
   40   19   42 1     
   41   20   21 1     
   42   20   43 1     
   43   20   44 1     
   44   21   22 1     
   45   21   45 1     
   46   21   46 1     
   47   22   47 1     
   48   22   48 1     
   49   23   24 2     
   50    4   49 1     
   51    4   50 1     
   52   10   51 1     
   53   10   52 1     
   54   16   53 1     
   55   16   54 1     
   56   24   55 1     
   57   24   56 1     
@<TRIPOS>SUBSTRUCTURE
      1 S1             1
@<TRIPOS>SET
LONE_PAIRS      STATIC     ATOMS    <user>   **** ""
8 49 50 51 52 53 54 55 56
DONOR_HYDROGENS      STATIC     ATOMS    <user>   **** ""
3 32 36 37
ATOM$BLUE        STATIC     ATOMS    COLORGROUP SYSTEM
8 49 50 51 52 53 54 55 56
ATOM$RED        STATIC     ATOMS    COLORGROUP SYSTEM
3 32 36 37
