AV-unprocessed.smi:16|AV-procd|sdf|89|dock3
  -GOLD-   2262015233D 1   1.00000     0.00000
 Structure written by MMmdl.
 60 64  0  0  0  0  0  0  0  0  2 V2000
  154.4041  137.9200  162.0348 C   0  0  0  0  0  0  0  0  0  0  0  0
  154.4021  138.5809  160.6485 C   0  0  0  0  0  0  0  0  0  0  0  0
  153.6425  139.8569  160.6226 N   0  3  1  0  0  0  0  0  0  0  0  0
  154.3529  140.9428  161.3478 C   0  0  0  0  0  0  0  0  0  0  0  0
  153.5022  142.2213  161.4155 C   0  0  0  0  0  0  0  0  0  0  0  0
  153.1071  142.6760  160.0067 C   0  0  2  0  0  0  0  0  0  0  0  0
  152.2739  143.8265  160.0910 O   0  0  0  0  0  0  0  0  0  0  0  0
  151.9320  144.3236  158.8011 C   0  0  0  0  0  0  0  0  0  0  0  0
  151.1574  143.2445  158.0281 C   0  0  0  0  0  0  0  0  0  0  0  0
  151.9337  142.0083  157.9617 N   0  0  0  0  0  0  0  0  0  0  0  0
  151.3569  141.0645  157.1832 C   0  0  0  0  0  0  0  0  0  0  0  0
  152.1277  140.1987  156.4736 N   0  0  0  0  0  0  0  0  0  0  0  0
  151.5513  139.2842  155.6876 C   0  0  0  0  0  0  0  0  0  0  0  0
  150.2519  139.0782  155.4610 N   0  0  0  0  0  0  0  0  0  0  0  0
  149.4789  139.9568  156.1622 C   0  0  0  0  0  0  0  0  0  0  0  0
  149.9479  140.9690  157.0442 C   0  0  0  0  0  0  0  0  0  0  0  0
  148.8768  141.6665  157.5866 N   0  0  0  0  0  0  0  0  0  0  0  0
  147.8292  141.0908  157.0614 C   0  0  0  0  0  0  0  0  0  0  0  0
  148.1004  140.0755  156.1710 N   0  0  0  0  0  0  0  0  0  0  0  0
  147.1455  139.2581  155.4821 C   0  0  0  0  0  0  0  0  0  0  0  0
  147.5982  138.1586  154.5160 C   0  0  0  0  0  0  0  0  0  0  0  0
  146.3357  138.4087  153.6602 C   0  0  0  0  0  0  0  0  0  0  0  0
  146.5158  138.3429  152.1308 C   0  0  0  0  0  0  0  0  0  0  0  0
  147.8431  138.6151  151.7268 O   0  0  0  0  0  0  0  0  0  0  0  0
  145.1447  137.4992  154.0182 C   0  0  0  0  0  0  0  0  0  0  0  0
  143.9246  138.0300  153.5420 O   0  0  0  0  0  0  0  0  0  0  0  0
  146.3218  139.8100  154.3144 C   0  0  0  0  0  0  0  0  0  0  0  0
  152.3516  141.5399  159.2859 C   0  0  1  0  0  0  0  0  0  0  0  0
  153.2450  140.2755  159.2510 C   0  0  0  0  0  0  0  0  0  0  0  0
  154.0134  142.9331  159.4540 H   0  0  0  0  0  0  0  0  0  0  0  0
  151.4490  141.3070  159.8542 H   0  0  0  0  0  0  0  0  0  0  0  0
  155.0567  137.0466  162.0397 H   0  0  0  0  0  0  0  0  0  0  0  0
  153.4124  137.5792  162.3306 H   0  0  0  0  0  0  0  0  0  0  0  0
  154.7677  138.6072  162.7993 H   0  0  0  0  0  0  0  0  0  0  0  0
  155.4399  138.7778  160.3765 H   0  0  0  0  0  0  0  0  0  0  0  0
  154.0106  137.8955  159.8955 H   0  0  0  0  0  0  0  0  0  0  0  0
  154.5876  140.6173  162.3619 H   0  0  0  0  0  0  0  0  0  0  0  0
  155.3031  141.1497  160.8528 H   0  0  0  0  0  0  0  0  0  0  0  0
  152.6072  142.0386  162.0119 H   0  0  0  0  0  0  0  0  0  0  0  0
  154.0575  143.0119  161.9213 H   0  0  0  0  0  0  0  0  0  0  0  0
  151.3190  145.2176  158.9149 H   0  0  0  0  0  0  0  0  0  0  0  0
  152.8321  144.6205  158.2604 H   0  0  0  0  0  0  0  0  0  0  0  0
  150.2035  143.0595  158.5243 H   0  0  0  0  0  0  0  0  0  0  0  0
  150.9341  143.5968  157.0201 H   0  0  0  0  0  0  0  0  0  0  0  0
  152.2268  138.6259  155.1610 H   0  0  0  0  0  0  0  0  0  0  0  0
  146.8229  141.3996  157.3054 H   0  0  0  0  0  0  0  0  0  0  0  0
  146.4916  138.8480  156.2536 H   0  0  0  0  0  0  0  0  0  0  0  0
  148.5324  138.4130  154.0126 H   0  0  0  0  0  0  0  0  0  0  0  0
  147.6598  137.1662  154.9636 H   0  0  0  0  0  0  0  0  0  0  0  0
  146.2468  137.3567  151.7514 H   0  0  0  0  0  0  0  0  0  0  0  0
  145.8675  139.0610  151.6281 H   0  0  0  0  0  0  0  0  0  0  0  0
  148.4278  138.0741  152.2352 H   0  0  0  0  0  0  0  0  0  0  0  0
  145.2766  136.4987  153.6048 H   0  0  0  0  0  0  0  0  0  0  0  0
  145.0524  137.3714  155.0970 H   0  0  0  0  0  0  0  0  0  0  0  0
  144.1080  138.8273  153.0690 H   0  0  0  0  0  0  0  0  0  0  0  0
  145.3353  140.1790  154.5969 H   0  0  0  0  0  0  0  0  0  0  0  0
  146.8661  140.5624  153.7412 H   0  0  0  0  0  0  0  0  0  0  0  0
  154.1369  140.4558  158.6483 H   0  0  0  0  0  0  0  0  0  0  0  0
  152.7036  139.4578  158.7780 H   0  0  0  0  0  0  0  0  0  0  0  0
  152.7885  139.6895  161.1355 H   0  0  0  0  0  0  0  0  0  0  0  0
  1  2  1  0  0  0  0
  1 32  1  0  0  0  0
  1 33  1  0  0  0  0
  1 34  1  0  0  0  0
  2  3  1  0  0  0  0
  2 35  1  0  0  0  0
  2 36  1  0  0  0  0
  3 29  1  0  0  0  0
  3  4  1  0  0  0  0
  3 60  1  0  0  0  0
  4  5  1  0  0  0  0
  4 37  1  0  0  0  0
  4 38  1  0  0  0  0
  5  6  1  0  0  0  0
  5 39  1  0  0  0  0
  5 40  1  0  0  0  0
  6 30  1  0  0  0  0
  6 28  1  0  0  0  0
  6  7  1  0  0  0  0
  7  8  1  0  0  0  0
  8  9  1  0  0  0  0
  8 41  1  0  0  0  0
  8 42  1  0  0  0  0
  9 10  1  0  0  0  0
  9 43  1  0  0  0  0
  9 44  1  0  0  0  0
 10 11  1  0  0  0  0
 10 28  1  0  0  0  0
 11 16  1  0  0  0  0
 11 12  2  0  0  0  0
 12 13  1  0  0  0  0
 13 14  2  0  0  0  0
 13 45  1  0  0  0  0
 14 15  1  0  0  0  0
 15 19  1  0  0  0  0
 15 16  2  0  0  0  0
 16 17  1  0  0  0  0
 17 18  2  0  0  0  0
 18 19  1  0  0  0  0
 18 46  1  0  0  0  0
 19 20  1  0  0  0  0
 20 27  1  0  0  0  0
 20 21  1  0  0  0  0
 20 47  1  0  0  0  0
 21 22  1  0  0  0  0
 21 48  1  0  0  0  0
 21 49  1  0  0  0  0
 22 23  1  0  0  0  0
 22 25  1  0  0  0  0
 22 27  1  0  0  0  0
 23 24  1  0  0  0  0
 23 50  1  0  0  0  0
 23 51  1  0  0  0  0
 24 52  1  0  0  0  0
 25 26  1  0  0  0  0
 25 53  1  0  0  0  0
 25 54  1  0  0  0  0
 26 55  1  0  0  0  0
 27 56  1  0  0  0  0
 27 57  1  0  0  0  0
 28 31  1  0  0  0  0
 28 29  1  0  0  0  0
 29 58  1  0  0  0  0
 29 59  1  0  0  0  0
M  CHG  1   3   1
M  END
> <s_m_source_file>
AV-unprocessed.smi

> <i_m_source_file_index>
16

> <i_lp_mmshare_version>
43012

> <i_f3d_flags>
0

> <s_epik_input>
W0NIM11bQ0gyXU4oW0NIMl1bQ0gyXTEpW0NIMl1bQ0BASF0oW0NAQEhdMTIpTihbQ0gyXVtDSDJdTzIpYyhuW2NIXW4zKWMoYzM0KW5bY0hdbjRbQ0hdKFtDSDJdNSlbQ0gyXUM1KFtDSDJdW09IXSlbQ0gyXVtPSF0=

> <s_epik_cmdline>
J2VwaWtfcHl0aG9uJywgJy1waCcsICc3LjAnLCAnLXRuJywgJzgnLCAnLW1hJywgJzIwMCcsICctbWV0YWxfYmluZGluZycsICctaW1hZScsICc8aW5maWxlLm1hZT4nLCAnLW9tYWUnLCAnPG91dGZpbGUubWFlPic=

> <r_lp_tautomer_probability>
1

> <r_epik_Ionization_Penalty>
0.0135603

> <r_epik_Ionization_Penalty_Charging>
0.0131385

> <r_epik_Ionization_Penalty_Neutral>
0.000421734

> <r_epik_State_Penalty>
0.0102091

> <r_epik_Charging_Adjusted_Penalty>
0.0233476

> <i_epik_Tot_Q>
1

> <i_epik_Tot_abs_Q>
1

> <r_epik_Metal_State_Penalty>
0.0103746

> <b_epik_Metal_Only>
0

> <s_lp_Force_Field>
OPLS_2005

> <r_lp_Energy>
54.8635

> <b_lp_Chiralities_Consistent>
1

> <s_lp_Variant>
AV-unprocessed.smi:16-3

> <Gold.Version>
5.8.1

> <Gold.Id.Protein>
6NUR|6NUR_protein|mol2

> <Gold.PLP.Fitness>
49.5213

> <Gold.PLP.PLP>
-43.0179

> <Gold.PLP.part.hbond>
-3.7674

> <Gold.PLP.part.metal>
0.0000

> <Gold.PLP.part.buried>
-4.6470

> <Gold.PLP.part.nonpolar>
-34.4378

> <Gold.PLP.part.repulsive>
0.2461

> <Gold.PLP.ligand.clash>
0.0000

> <Gold.PLP.ligand.torsion>
1.4672

> <Gold.PLP.Chemscore.Hbond>
2.9440

> <Gold.PLP.Chemscore.CHOScore>
0.0000

> <Gold.PLP.Chemscore.Metal>
0.0000

> <Gold.Chemscore.Hbonds>
donor molecule, donor type, donor heavy atom, donor atom, acceptor molecule, acceptor atom, score
      L1  H    24    52       P1  7948  0.53
      L1  H    26    55       P1 10175  1.00
      P1  H  7954  7966       L1    24  0.88
      P1  H  7997  8008       L1    12  0.55

> <Gold.PLP.Chemscore.Internal.Correction>
0.6059

> <Gold.Rescore>
     Score         DG    S(hbond)    S(metal)    S(lipo)     H(rot)  DE(clash)    DE(int)     intcor
     14.71     -18.70       2.61        0.00     111.11       3.33       0.19       3.81       ----

> <Gold.Chemscore.Fitness>
14.7057

> <Gold.Chemscore.DG>
-18.7016

> <Gold.Chemscore.ZeroCoef>
-5.4800

> <Gold.Chemscore.Hbond>
2.6148

> <Gold.Chemscore.Metal>
0.0000

> <Gold.Chemscore.Lipo>
111.1130

> <Gold.Chemscore.Internal_Hbond>
0.0000

> <Gold.Chemscore.DEClash>
0.1897

> <Gold.Chemscore.DEInternal>
3.8063

> <Gold.Chemscore.Rot>
3.3251

> <Gold.Chemscore.Internal.Correction>
   9.000000E+99

> <Gold.Chemscore.Hbonds>
donor molecule, donor type, donor heavy atom, donor atom, acceptor molecule, acceptor atom, score
      L1  H    24    52       P1  7948  0.54
      L1  H    26    55       P1 10175  0.96
      P1  H  7954  7966       L1    24  0.17
      P1  H  7997  8008       L1    12  0.49

> <Gold.Chemscore.Hbond.Weighted>
-8.7336

> <Gold.Chemscore.Metal.Weighted>
-0.0000

> <Gold.Chemscore.Lipo.Weighted>
-13.0002

> <Gold.Chemscore.Internal_Hbond.Weighted>
0.0000

> <Gold.Chemscore.DEClash.Weighted>
0.1897

> <Gold.Chemscore.DEInternal.Weighted>
3.8063

> <Gold.Chemscore.Rot.Weighted>
8.5122

> <Gold.Chemscore.Internal.Correction.Weighted>
   9.000000E+99

> <Gold.Protein.RotatedTorsions>
[ 6907 6896 6895 6894 ] final  -69.48 input  -60.11 | X-H torsion
[ 7974 7965 7964 7962 ] final -173.22 input  175.53 | X-H torsion
[ 8008 7997 7996 7995 ] final  -48.06 input   59.86 | X-H torsion
[ 10167 10162 10161 10158 ] final  103.71 input  -65.29 | X-H torsion
[ 10718 10713 10712 10709 ] final -144.00 input   66.30 | X-H torsion
[ 10763 10752 10751 10750 ] final   63.72 input  -60.55 | X-H torsion
[ 11005 11000 10999 10996 ] final   88.79 input  -57.11 | X-H torsion

> <Gold.Protein.ActiveResidues>
 VAL166  LYS551  ARG553  GLY616  TRP617  ASP618  TYR619  PRO620  LYS621  CYS622 
 ASP623  PHE694  ASN695  SER759  ASP760  ASP761  ALA762  ILE779  LEU786  VAL792 
 PHE793  MET794  SER795  GLU796  ALA797  LYS798  CYS799  TRP800  GLU811  SER814 

> <Gold.Protein.RotatedAtoms>
  150.7303  134.5590  159.5832 H   0  0  0  0  0  0  0  0  0  0  0  0  # atno 6907 bound_to 6896
  152.3058  134.7553  160.0356 H   0  0  0  0  0  0  0  0  0  0  0  0  # atno 6908 bound_to 6896
  151.8118  133.3347  159.3594 H   0  0  0  0  0  0  0  0  0  0  0  0  # atno 6909 bound_to 6896
  144.7139  140.1655  143.6372 H   0  0  0  0  0  0  0  0  0  0  0  0  # atno 7974 bound_to 7965
  154.4024  140.1331  156.4277 H   0  0  0  0  0  0  0  0  0  0  0  0  # atno 8008 bound_to 7997
  155.7581  140.3486  155.5164 H   0  0  0  0  0  0  0  0  0  0  0  0  # atno 8009 bound_to 7997
  155.8885  140.0999  157.1425 H   0  0  0  0  0  0  0  0  0  0  0  0  # atno 8010 bound_to 7997
  139.7239  144.7052  151.0828 H   0  0  0  0  0  0  0  0  0  0  0  0  # atno 10167 bound_to 10162
  156.3648  130.7757  151.1929 H   0  0  0  0  0  0  0  0  0  0  0  0  # atno 10718 bound_to 10713
  153.0028  135.5419  154.6396 H   0  0  0  0  0  0  0  0  0  0  0  0  # atno 10763 bound_to 10752
  154.5654  135.2837  155.0881 H   0  0  0  0  0  0  0  0  0  0  0  0  # atno 10764 bound_to 10752
  154.2067  135.6474  153.5155 H   0  0  0  0  0  0  0  0  0  0  0  0  # atno 10765 bound_to 10752
  139.8889  134.8510  156.3050 H   0  0  0  0  0  0  0  0  0  0  0  0  # atno 11005 bound_to 11000
  145.8991  139.2420  143.1504 LP  0  0  0  0  0  0  0  0  0  0  0  0  # atno 17320 bound_to 7965
  145.9828  140.8668  143.0106 LP  0  0  0  0  0  0  0  0  0  0  0  0  # atno 17321 bound_to 7965
  140.7759  143.5130  150.9629 LP  0  0  0  0  0  0  0  0  0  0  0  0  # atno 17342 bound_to 10162
  139.8817  143.7063  152.3156 LP  0  0  0  0  0  0  0  0  0  0  0  0  # atno 17343 bound_to 10162
  157.7477  131.0389  150.4527 LP  0  0  0  0  0  0  0  0  0  0  0  0  # atno 17370 bound_to 10713
  156.4744  130.4060  149.6498 LP  0  0  0  0  0  0  0  0  0  0  0  0  # atno 17371 bound_to 10713
  140.9888  133.7221  156.0783 LP  0  0  0  0  0  0  0  0  0  0  0  0  # atno 17394 bound_to 11000
  140.7652  134.3894  157.5518 LP  0  0  0  0  0  0  0  0  0  0  0  0  # atno 17395 bound_to 11000

$$$$
