AV-unprocessed.smi:1021|AV-procd|sdf|4457|dock10
  -GOLD-   22720 2433D 1   1.00000     0.00000
 Structure written by MMmdl.
 43 45  0  0  0  0  0  0  0  0  2 V2000
  149.2058  141.1634  153.2508 O   0  0  0  0  0  0  0  0  0  0  0  0
  148.5010  140.7009  154.3832 C   0  0  0  0  0  0  0  0  0  0  0  0
  148.9337  141.4739  155.6378 C   0  0  0  0  0  0  0  0  0  0  0  0
  150.4595  141.6563  155.7386 C   0  0  0  0  0  0  0  0  0  0  0  0
  150.9092  142.2001  157.0606 C   0  0  0  0  0  0  0  0  0  0  0  0
  150.6163  143.4238  157.5886 N   0  3  0  0  0  0  0  0  0  0  0  0
  151.2136  143.5560  158.8424 C   0  0  0  0  0  0  0  0  0  0  0  0
  151.2003  144.6100  159.7506 C   0  0  0  0  0  0  0  0  0  0  0  0
  151.9190  144.4215  160.9493 C   0  0  0  0  0  0  0  0  0  0  0  0
  152.6154  143.2227  161.2064 C   0  0  0  0  0  0  0  0  0  0  0  0
  152.6214  142.1613  160.2774 C   0  0  0  0  0  0  0  0  0  0  0  0
  151.9060  142.3544  159.0955 C   0  0  0  0  0  0  0  0  0  0  0  0
  151.6889  141.5487  157.9708 N   0  0  0  0  0  0  0  0  0  0  0  0
  152.2801  140.2020  157.9115 C   0  0  0  0  0  0  0  0  0  0  0  0
  151.8296  139.2964  159.0751 C   0  0  1  0  0  0  0  0  0  0  0  0
  150.5038  138.8518  158.8624 O   0  0  0  0  0  0  0  0  0  0  0  0
  152.7966  138.1412  159.2808 C   0  0  0  0  0  0  0  0  0  0  0  0
  153.3998  137.9433  160.5416 C   0  0  0  0  0  0  0  0  0  0  0  0
  154.3031  136.8805  160.7377 C   0  0  0  0  0  0  0  0  0  0  0  0
  154.6108  136.0113  159.6737 C   0  0  0  0  0  0  0  0  0  0  0  0
  155.4804  134.9908  159.8625 F   0  0  0  0  0  0  0  0  0  0  0  0
  154.0148  136.2052  158.4128 C   0  0  0  0  0  0  0  0  0  0  0  0
  153.1112  137.2677  158.2160 C   0  0  0  0  0  0  0  0  0  0  0  0
  149.2370  140.4688  152.6105 H   0  0  0  0  0  0  0  0  0  0  0  0
  147.4289  140.8029  154.2117 H   0  0  0  0  0  0  0  0  0  0  0  0
  148.7080  139.6377  154.5083 H   0  0  0  0  0  0  0  0  0  0  0  0
  148.4588  142.4555  155.6198 H   0  0  0  0  0  0  0  0  0  0  0  0
  148.5555  140.9642  156.5254 H   0  0  0  0  0  0  0  0  0  0  0  0
  150.9613  140.7023  155.5742 H   0  0  0  0  0  0  0  0  0  0  0  0
  150.8022  142.3292  154.9523 H   0  0  0  0  0  0  0  0  0  0  0  0
  150.6691  145.5299  159.5545 H   0  0  0  0  0  0  0  0  0  0  0  0
  151.9377  145.2122  161.6852 H   0  0  0  0  0  0  0  0  0  0  0  0
  153.1572  143.1150  162.1348 H   0  0  0  0  0  0  0  0  0  0  0  0
  153.1634  141.2503  160.4828 H   0  0  0  0  0  0  0  0  0  0  0  0
  152.0560  139.7505  156.9449 H   0  0  0  0  0  0  0  0  0  0  0  0
  153.3633  140.3264  157.9401 H   0  0  0  0  0  0  0  0  0  0  0  0
  151.8112  139.8890  159.9905 H   0  0  0  0  0  0  0  0  0  0  0  0
  150.5282  138.1082  158.2793 H   0  0  0  0  0  0  0  0  0  0  0  0
  153.1736  138.6064  161.3637 H   0  0  0  0  0  0  0  0  0  0  0  0
  154.7608  136.7326  161.7049 H   0  0  0  0  0  0  0  0  0  0  0  0
  154.2516  135.5397  157.5956 H   0  0  0  0  0  0  0  0  0  0  0  0
  152.6618  137.4110  157.2442 H   0  0  0  0  0  0  0  0  0  0  0  0
  150.0462  144.1166  157.1210 H   0  0  0  0  0  0  0  0  0  0  0  0
  1  2  1  0  0  0  0
  1 24  1  0  0  0  0
  2  3  1  0  0  0  0
  2 25  1  0  0  0  0
  2 26  1  0  0  0  0
  3  4  1  0  0  0  0
  3 27  1  0  0  0  0
  3 28  1  0  0  0  0
  4  5  1  0  0  0  0
  4 29  1  0  0  0  0
  4 30  1  0  0  0  0
  5 13  1  0  0  0  0
  5  6  2  0  0  0  0
  6  7  1  0  0  0  0
  6 43  1  0  0  0  0
  7 12  2  0  0  0  0
  7  8  1  0  0  0  0
  8  9  2  0  0  0  0
  8 31  1  0  0  0  0
  9 10  1  0  0  0  0
  9 32  1  0  0  0  0
 10 11  2  0  0  0  0
 10 33  1  0  0  0  0
 11 12  1  0  0  0  0
 11 34  1  0  0  0  0
 12 13  1  0  0  0  0
 13 14  1  0  0  0  0
 14 15  1  0  0  0  0
 14 35  1  0  0  0  0
 14 36  1  0  0  0  0
 15 16  1  0  0  0  0
 15 17  1  0  0  0  0
 15 37  1  0  0  0  0
 16 38  1  0  0  0  0
 17 23  1  0  0  0  0
 17 18  2  0  0  0  0
 18 19  1  0  0  0  0
 18 39  1  0  0  0  0
 19 20  2  0  0  0  0
 19 40  1  0  0  0  0
 20 21  1  0  0  0  0
 20 22  1  0  0  0  0
 22 23  2  0  0  0  0
 22 41  1  0  0  0  0
 23 42  1  0  0  0  0
M  CHG  1   6   1
M  END
> <s_m_source_file>
AV-unprocessed.smi

> <i_m_source_file_index>
1021

> <i_lp_mmshare_version>
43012

> <i_f3d_flags>
0

> <s_epik_input>
W09IXVtDSDJdW0NIMl1bQ0gyXWMobjEpbihjKGMxMilbY0hdW2NIXVtjSF1bY0hdMilbQ0gyXVtDQEhdKFtPSF0pYzNbY0hdW2NIXWMoRilbY0hdW2NIXTM=

> <s_epik_cmdline>
J2VwaWtfcHl0aG9uJywgJy1waCcsICc3LjAnLCAnLXRuJywgJzgnLCAnLW1hJywgJzIwMCcsICctbWV0YWxfYmluZGluZycsICctaW1hZScsICc8aW5maWxlLm1hZT4nLCAnLW9tYWUnLCAnPG91dGZpbGUubWFlPic=

> <r_epik_Ionization_Penalty>
0.786441

> <r_epik_Ionization_Penalty_Charging>
0.786439

> <r_epik_Ionization_Penalty_Neutral>
1.96029e-06

> <r_epik_State_Penalty>
0.816472

> <r_epik_Charging_Adjusted_Penalty>
1.60291

> <i_epik_Tot_Q>
1

> <i_epik_Tot_abs_Q>
1

> <r_epik_Metal_State_Penalty>
4.73733

> <b_epik_Metal_Only>
0

> <s_lp_Force_Field>
OPLS_2005

> <r_lp_Energy>
16.4086

> <b_lp_Chiralities_Consistent>
1

> <s_lp_Variant>
AV-unprocessed.smi:1021-4

> <Gold.Version>
5.8.1

> <Gold.Id.Protein>
6NUR|6NUR_protein|mol2

> <Gold.PLP.Fitness>
58.0548

> <Gold.PLP.PLP>
-46.8672

> <Gold.PLP.part.hbond>
-3.7363

> <Gold.PLP.part.metal>
0.0000

> <Gold.PLP.part.buried>
-7.2142

> <Gold.PLP.part.nonpolar>
-36.3418

> <Gold.PLP.part.repulsive>
0.0085

> <Gold.PLP.ligand.clash>
0.0000

> <Gold.PLP.ligand.torsion>
0.3441

> <Gold.PLP.Chemscore.Hbond>
3.9313

> <Gold.PLP.Chemscore.CHOScore>
0.0000

> <Gold.PLP.Chemscore.Metal>
0.0000

> <Gold.Chemscore.Hbonds>
donor molecule, donor type, donor heavy atom, donor atom, acceptor molecule, acceptor atom, score
      L1  H     1    24       P1  7957  0.93
      L1  H     6    43       P1  8028  2.00
      P1  H  8011  8017       L1     1  0.95

> <Gold.PLP.Chemscore.Internal.Correction>
0.0819

> <Gold.Rescore>
     Score         DG    S(hbond)    S(metal)    S(lipo)     H(rot)  DE(clash)    DE(int)     intcor
     19.69     -20.17       2.35        0.00     127.49       3.16       0.15       0.32       ----

> <Gold.Chemscore.Fitness>
19.6937

> <Gold.Chemscore.DG>
-20.1684

> <Gold.Chemscore.ZeroCoef>
-5.4800

> <Gold.Chemscore.Hbond>
2.3543

> <Gold.Chemscore.Metal>
0.0000

> <Gold.Chemscore.Lipo>
127.4852

> <Gold.Chemscore.Internal_Hbond>
0.0000

> <Gold.Chemscore.DEClash>
0.1545

> <Gold.Chemscore.DEInternal>
0.3203

> <Gold.Chemscore.Rot>
3.1604

> <Gold.Chemscore.Internal.Correction>
   9.000000E+99

> <Gold.Chemscore.Hbonds>
donor molecule, donor type, donor heavy atom, donor atom, acceptor molecule, acceptor atom, score
      L1  H     1    24       P1  7957  0.87
      L1  H     6    43       P1  8028  0.83
      P1  H  8011  8017       L1     1  0.21

> <Gold.Chemscore.Hbond.Weighted>
-7.8633

> <Gold.Chemscore.Metal.Weighted>
-0.0000

> <Gold.Chemscore.Lipo.Weighted>
-14.9158

> <Gold.Chemscore.Internal_Hbond.Weighted>
0.0000

> <Gold.Chemscore.DEClash.Weighted>
0.1545

> <Gold.Chemscore.DEInternal.Weighted>
0.3203

> <Gold.Chemscore.Rot.Weighted>
8.0907

> <Gold.Chemscore.Internal.Correction.Weighted>
   9.000000E+99

> <Gold.Protein.RotatedTorsions>
[ 6907 6896 6895 6894 ] final -130.78 input  -60.11 | X-H torsion
[ 7974 7965 7964 7962 ] final -101.83 input  175.53 | X-H torsion
[ 8008 7997 7996 7995 ] final -138.92 input   59.86 | X-H torsion
[ 10167 10162 10161 10158 ] final   92.94 input  -65.29 | X-H torsion
[ 10718 10713 10712 10709 ] final    9.64 input   66.30 | X-H torsion
[ 10763 10752 10751 10750 ] final  135.69 input  -60.55 | X-H torsion
[ 11005 11000 10999 10996 ] final -109.76 input  -57.11 | X-H torsion

> <Gold.Protein.ActiveResidues>
 VAL166  LYS551  ARG553  GLY616  TRP617  ASP618  TYR619  PRO620  LYS621  CYS622 
 ASP623  PHE694  ASN695  SER759  ASP760  ASP761  ALA762  ILE779  LEU786  VAL792 
 PHE793  MET794  SER795  GLU796  ALA797  LYS798  CYS799  TRP800  GLU811  SER814 

> <Gold.Protein.RotatedAtoms>
  150.9436  133.6628  159.2785 H   0  0  0  0  0  0  0  0  0  0  0  0  # atno 6907 bound_to 6896
  151.4009  135.0969  159.9565 H   0  0  0  0  0  0  0  0  0  0  0  0  # atno 6908 bound_to 6896
  152.5080  133.8930  159.7458 H   0  0  0  0  0  0  0  0  0  0  0  0  # atno 6909 bound_to 6896
  145.2765  140.9314  143.2956 H   0  0  0  0  0  0  0  0  0  0  0  0  # atno 7974 bound_to 7965
  155.4363  140.0528  157.3014 H   0  0  0  0  0  0  0  0  0  0  0  0  # atno 8008 bound_to 7997
  154.4837  140.2092  155.9661 H   0  0  0  0  0  0  0  0  0  0  0  0  # atno 8009 bound_to 7997
  156.1244  140.3183  155.8260 H   0  0  0  0  0  0  0  0  0  0  0  0  # atno 8010 bound_to 7997
  139.8228  144.6723  150.9497 H   0  0  0  0  0  0  0  0  0  0  0  0  # atno 10167 bound_to 10162
  156.9694  130.5963  149.5667 H   0  0  0  0  0  0  0  0  0  0  0  0  # atno 10718 bound_to 10713
  153.8442  135.3087  155.3428 H   0  0  0  0  0  0  0  0  0  0  0  0  # atno 10763 bound_to 10752
  154.7920  135.4777  154.0076 H   0  0  0  0  0  0  0  0  0  0  0  0  # atno 10764 bound_to 10752
  153.1557  135.6851  153.8908 H   0  0  0  0  0  0  0  0  0  0  0  0  # atno 10765 bound_to 10752
  141.0829  133.9188  157.2248 H   0  0  0  0  0  0  0  0  0  0  0  0  # atno 11005 bound_to 11000
  144.9289  139.4321  143.6504 LP  0  0  0  0  0  0  0  0  0  0  0  0  # atno 17320 bound_to 7965
  146.3230  139.8190  142.8930 LP  0  0  0  0  0  0  0  0  0  0  0  0  # atno 17321 bound_to 7965
  140.7812  143.4075  151.1047 LP  0  0  0  0  0  0  0  0  0  0  0  0  # atno 17342 bound_to 10162
  139.7734  143.8461  152.3125 LP  0  0  0  0  0  0  0  0  0  0  0  0  # atno 17343 bound_to 10162
  156.0289  130.5381  150.8482 LP  0  0  0  0  0  0  0  0  0  0  0  0  # atno 17370 bound_to 10713
  157.5603  131.0946  150.9568 LP  0  0  0  0  0  0  0  0  0  0  0  0  # atno 17371 bound_to 10713
  139.9645  135.0145  156.9349 LP  0  0  0  0  0  0  0  0  0  0  0  0  # atno 17394 bound_to 11000
  140.5427  134.0704  155.7346 LP  0  0  0  0  0  0  0  0  0  0  0  0  # atno 17395 bound_to 11000

$$$$
