#       Name:                AV-unprocessed.smi:49
#       Creating user name   scv26
#       Creation time:       Thu Mar 26 16:35:02 2020


#       File generated by GOLD software.
#

@<TRIPOS>MOLECULE
AV-unprocessed.smi:49
    32    33     1
SMALL
NO_CHARGES


@<TRIPOS>ATOM
      1 ****        -3.7260   1.0900   1.2522 C.3            1 S1                 0.0000
      2 ****        -3.2941  -0.3787   1.3075 C.3            1 S1                 0.0000
      3 ****        -1.7925  -0.5262   1.4188 C.2            1 S1                 0.0000
      4 ****        -0.9404  -0.5987   0.4016 N.2            1 S1                 0.0000
      5 ****         0.2802  -0.6906   0.9518 C.2            1 S1                 0.0000
      6 ****         1.5858  -0.7609   0.1805 C.3            1 S1                 0.0000
      7 ****         2.0836   0.6389  -0.2232 C.3            1 S1                 0.0000
      8 ****         1.8916   0.6774  -1.7358 C.3            1 S1                 0.0000
      9 ****         2.7952   1.5480  -2.3831 O.3            1 S1                 0.0000
     10 ****         2.1064  -0.7793  -2.1246 C.3            1 S1                 0.0000
     11 ****         1.4662  -1.5377  -1.0594 N.3            1 S1                 0.0000
     12 ****         0.1992  -0.6469   2.2905 N.2            1 S1                 0.0000
     13 ****        -1.0859  -0.5475   2.5627 N.pl3          1 S1                -1.0000
     14 ****         2.3296  -1.2247   0.8295 H              1 S1                 0.0000
     15 ****         0.8684   0.9745  -1.9717 H              1 S1                 0.0000
     16 ****        -4.8097   1.1746   1.1726 H              1 S1                 0.0000
     17 ****        -3.2863   1.5955   0.3921 H              1 S1                 0.0000
     18 ****        -3.4137   1.6233   2.1504 H              1 S1                 0.0000
     19 ****        -3.7609  -0.8733   2.1597 H              1 S1                 0.0000
     20 ****        -3.6350  -0.9021   0.4137 H              1 S1                 0.0000
     21 ****         1.5692   1.4524   0.2904 H              1 S1                 0.0000
     22 ****         3.1450   0.7193   0.0170 H              1 S1                 0.0000
     23 ****         2.6226   2.4287  -2.0875 H              1 S1                 0.0000
     24 ****         1.6924  -1.0206  -3.1037 H              1 S1                 0.0000
     25 ****         3.1732  -1.0059  -2.1453 H              1 S1                 0.0000
     26 ****         1.9368  -2.4303  -0.9559 H              1 S1                 0.0000
     27 ****        -1.1630  -0.5871  -0.5733 LP             1 S1                 0.0000
     28 ****         2.6673   1.4927  -3.3734 LP             1 S1                 0.0000
     29 ****         3.7342   1.2923  -2.1535 LP             1 S1                 0.0000
     30 ****         0.5028  -1.7040  -1.2697 LP             1 S1                 0.0000
     31 ****         0.9552  -0.6823   2.9440 LP             1 S1                 0.0000
     32 ****        -1.4771  -0.4957   3.4815 LP             1 S1                 0.0000
@<TRIPOS>BOND
    1    1    2 1     
    2    1   16 1     
    3    1   17 1     
    4    1   18 1     
    5    2    3 1     
    6    2   19 1     
    7    2   20 1     
    8    3   13 1     
    9    3    4 2     
   10    4    5 1     
   11    5    6 1     
   12    5   12 2     
   13    6   14 1     
   14    6   11 1     
   15    6    7 1     
   16    7    8 1     
   17    7   21 1     
   18    7   22 1     
   19    8   15 1     
   20    8    9 1     
   21    8   10 1     
   22    9   23 1     
   23   10   11 1     
   24   10   24 1     
   25   10   25 1     
   26   11   26 1     
   27   12   13 1     
   28    4   27 1     
   29    9   28 1     
   30    9   29 1     
   31   11   30 1     
   32   12   31 1     
   33   13   32 1     
@<TRIPOS>SUBSTRUCTURE
      1 S1             1
@<TRIPOS>SET
LONE_PAIRS      STATIC     ATOMS    <user>   **** ""
6 27 28 29 30 31 32
DONOR_HYDROGENS      STATIC     ATOMS    <user>   **** ""
2 23 26
ATOM$BLUE        STATIC     ATOMS    COLORGROUP SYSTEM
6 27 28 29 30 31 32
ATOM$RED        STATIC     ATOMS    COLORGROUP SYSTEM
2 23 26
