AV-unprocessed.smi:37|AV-procd|sdf|331|dock6
  -GOLD-   2262016163D 1   1.00000     0.00000
 Structure written by MMmdl.
 43 44  0  0  0  0  0  0  0  0  2 V2000
  145.5326  142.3428  157.0642 C   0  0  0  0  0  0  0  0  0  0  0  0
  144.5677  141.1965  157.3946 C   0  0  0  0  0  0  0  0  0  0  0  0
  145.2472  140.0837  158.1894 C   0  0  0  0  0  0  0  0  0  0  0  0
  145.7489  140.2987  159.2932 O   0  0  0  0  0  0  0  0  0  0  0  0
  145.2193  138.9017  157.5530 O   0  0  0  0  0  0  0  0  0  0  0  0
  145.8885  137.7867  158.1181 C   0  0  0  0  0  0  0  0  0  0  0  0
  147.3677  137.8115  157.6970 C   0  0  2  0  0  0  0  0  0  0  0  0
  147.4038  137.9949  156.2768 O   0  0  0  0  0  0  0  0  0  0  0  0
  148.1761  137.0094  155.6554 C   0  0  1  0  0  0  0  0  0  0  0  0
  149.5959  137.5089  155.4411 N   0  0  0  0  0  0  0  0  0  0  0  0
  149.9688  138.8104  155.7409 C   0  0  0  0  0  0  0  0  0  0  0  0
  151.2305  139.2426  155.5407 C   0  0  0  0  0  0  0  0  0  0  0  0
  151.5595  140.5102  155.8439 F   0  0  0  0  0  0  0  0  0  0  0  0
  152.2297  138.3299  154.9898 C   0  0  0  0  0  0  0  0  0  0  0  0
  153.3821  138.7258  154.8229 O   0  0  0  0  0  0  0  0  0  0  0  0
  151.8312  137.0629  154.6789 N   0  5  0  0  0  0  0  0  0  0  0  0
  150.5542  136.6223  154.8748 C   0  0  0  0  0  0  0  0  0  0  0  0
  150.1851  135.4842  154.5838 O   0  0  0  0  0  0  0  0  0  0  0  0
  148.1580  135.8123  156.6063 C   0  0  2  0  0  0  0  0  0  0  0  0
  146.4876  134.7632  156.3021 Br  0  0  0  0  0  0  0  0  0  0  0  0
  148.1386  136.5046  157.9616 C   0  0  2  0  0  0  0  0  0  0  0  0
  147.5753  135.6998  158.9910 O   0  0  0  0  0  0  0  0  0  0  0  0
  147.5529  136.1369  160.2630 C   0  0  0  0  0  0  0  0  0  0  0  0
  148.0268  137.1968  160.6723 O   0  0  0  0  0  0  0  0  0  0  0  0
  146.8552  135.1601  161.2062 C   0  0  0  0  0  0  0  0  0  0  0  0
  147.4885  135.1551  162.6045 C   0  0  0  0  0  0  0  0  0  0  0  0
  145.0174  143.1314  156.5156 H   0  0  0  0  0  0  0  0  0  0  0  0
  146.3640  142.0010  156.4465 H   0  0  0  0  0  0  0  0  0  0  0  0
  145.9457  142.7865  157.9708 H   0  0  0  0  0  0  0  0  0  0  0  0
  143.7230  141.5763  157.9701 H   0  0  0  0  0  0  0  0  0  0  0  0
  144.1601  140.7748  156.4756 H   0  0  0  0  0  0  0  0  0  0  0  0
  145.8022  137.8537  159.2032 H   0  0  0  0  0  0  0  0  0  0  0  0
  145.4132  136.8562  157.8059 H   0  0  0  0  0  0  0  0  0  0  0  0
  147.8736  138.6350  158.2020 H   0  0  0  0  0  0  0  0  0  0  0  0
  147.7984  136.7967  154.6539 H   0  0  0  0  0  0  0  0  0  0  0  0
  149.2516  139.5106  156.1387 H   0  0  0  0  0  0  0  0  0  0  0  0
  149.0078  135.1438  156.4685 H   0  0  0  0  0  0  0  0  0  0  0  0
  149.1615  136.7816  158.2226 H   0  0  0  0  0  0  0  0  0  0  0  0
  145.8016  135.4323  161.2785 H   0  0  0  0  0  0  0  0  0  0  0  0
  146.8955  134.1605  160.7729 H   0  0  0  0  0  0  0  0  0  0  0  0
  146.9419  134.4877  163.2707 H   0  0  0  0  0  0  0  0  0  0  0  0
  147.4758  136.1510  163.0495 H   0  0  0  0  0  0  0  0  0  0  0  0
  148.5241  134.8141  162.5740 H   0  0  0  0  0  0  0  0  0  0  0  0
  1  2  1  0  0  0  0
  1 27  1  0  0  0  0
  1 28  1  0  0  0  0
  1 29  1  0  0  0  0
  2  3  1  0  0  0  0
  2 30  1  0  0  0  0
  2 31  1  0  0  0  0
  3  4  2  0  0  0  0
  3  5  1  0  0  0  0
  5  6  1  0  0  0  0
  6  7  1  0  0  0  0
  6 32  1  0  0  0  0
  6 33  1  0  0  0  0
  7 21  1  0  0  0  0
  7  8  1  0  0  0  0
  7 34  1  0  0  0  0
  8  9  1  0  0  0  0
  9 10  1  0  0  0  0
  9 19  1  0  0  0  0
  9 35  1  0  0  0  0
 10 17  1  0  0  0  0
 10 11  1  0  0  0  0
 11 12  2  0  0  0  0
 11 36  1  0  0  0  0
 12 13  1  0  0  0  0
 12 14  1  0  0  0  0
 14 15  2  0  0  0  0
 14 16  1  0  0  0  0
 16 17  1  0  0  0  0
 17 18  2  0  0  0  0
 19 20  1  0  0  0  0
 19 21  1  0  0  0  0
 19 37  1  0  0  0  0
 21 22  1  0  0  0  0
 21 38  1  0  0  0  0
 22 23  1  0  0  0  0
 23 24  2  0  0  0  0
 23 25  1  0  0  0  0
 25 26  1  0  0  0  0
 25 39  1  0  0  0  0
 25 40  1  0  0  0  0
 26 41  1  0  0  0  0
 26 42  1  0  0  0  0
 26 43  1  0  0  0  0
M  CHG  1  16  -1
M  END
> <s_m_source_file>
AV-unprocessed.smi

> <i_m_source_file_index>
37

> <i_lp_mmshare_version>
43012

> <i_f3d_flags>
0

> <s_epik_input>
W0NIM11bQ0gyXUMoPU8pT1tDSDJdW0NAQEhdMU9bQ0BASF0objJbY0hdYyhGKWMoPU8pW25IXWMyPU8pW0NAQEhdKEJyKVtDQEhdMU9DKD1PKVtDSDJdW0NIM10=

> <s_epik_cmdline>
J2VwaWtfcHl0aG9uJywgJy1waCcsICc3LjAnLCAnLXRuJywgJzgnLCAnLW1hJywgJzIwMCcsICctbWV0YWxfYmluZGluZycsICctaW1hZScsICc8aW5maWxlLm1hZT4nLCAnLW9tYWUnLCAnPG91dGZpbGUubWFlPic=

> <r_epik_Ionization_Penalty>
1.08158

> <r_epik_Ionization_Penalty_Charging>
9.05154e-09

> <r_epik_Ionization_Penalty_Neutral>
1.08158

> <r_epik_State_Penalty>
1.13706

> <r_epik_Charging_Adjusted_Penalty>
1.13706

> <i_epik_Tot_Q>
-1

> <i_epik_Tot_abs_Q>
1

> <r_epik_Metal_State_Penalty>
0.00343535

> <b_epik_Metal_Only>
0

> <s_epik_Chemistry_Notes>
This compound has an ester and may undergo hydrolysis at high or low pH. This compound contains an acetal/aminal-like group ( X-CH(R)-Y where X, Y are N, S, or O) that may be acid/base labile, releasing an aldehyde.

> <s_lp_Force_Field>
OPLS_2005

> <r_lp_Energy>
34.8108

> <b_lp_Chiralities_Consistent>
1

> <s_lp_Variant>
AV-unprocessed.smi:37-29

> <Gold.Version>
5.8.1

> <Gold.Id.Protein>
6NUR|6NUR_protein|mol2

> <Gold.PLP.Fitness>
41.5642

> <Gold.PLP.PLP>
-28.1287

> <Gold.PLP.part.hbond>
-5.0000

> <Gold.PLP.part.metal>
0.0000

> <Gold.PLP.part.buried>
-5.5893

> <Gold.PLP.part.nonpolar>
-18.5021

> <Gold.PLP.part.repulsive>
0.2944

> <Gold.PLP.ligand.clash>
0.0000

> <Gold.PLP.ligand.torsion>
0.6252

> <Gold.PLP.Chemscore.Hbond>
4.8660

> <Gold.PLP.Chemscore.CHOScore>
0.0000

> <Gold.PLP.Chemscore.Metal>
0.0000

> <Gold.Chemscore.Hbonds>
donor molecule, donor type, donor heavy atom, donor atom, acceptor molecule, acceptor atom, score
      P1  H  6931  6943       L1    24  0.82
      P1  H  6934  6946       L1     4  0.26
      P1  H  6934  6947       L1    24  0.75
      P1  H  7997  8010       L1    15  0.83
      P1  H 10752 10763       L1    16  2.00

> <Gold.PLP.Chemscore.Internal.Correction>
0.0879

> <Gold.Rescore>
     Score         DG    S(hbond)    S(metal)    S(lipo)     H(rot)  DE(clash)    DE(int)     intcor
     11.42     -13.17       3.73        0.00      30.82       3.27       0.02       1.74       ----

> <Gold.Chemscore.Fitness>
11.4165

> <Gold.Chemscore.DG>
-13.1744

> <Gold.Chemscore.ZeroCoef>
-5.4800

> <Gold.Chemscore.Hbond>
3.7282

> <Gold.Chemscore.Metal>
0.0000

> <Gold.Chemscore.Lipo>
30.8167

> <Gold.Chemscore.Internal_Hbond>
0.0000

> <Gold.Chemscore.DEClash>
0.0162

> <Gold.Chemscore.DEInternal>
1.7416

> <Gold.Chemscore.Rot>
3.2669

> <Gold.Chemscore.Internal.Correction>
   9.000000E+99

> <Gold.Chemscore.Hbonds>
donor molecule, donor type, donor heavy atom, donor atom, acceptor molecule, acceptor atom, score
      P1  H  6931  6943       L1    24  0.81
      P1  H  6934  6946       L1     4  0.26
      P1  H  6934  6947       L1    24  0.70
      P1  H  7997  8010       L1    15  0.77
      P1  H 10752 10763       L1    16  0.67

> <Gold.Chemscore.Hbond.Weighted>
-12.4522

> <Gold.Chemscore.Metal.Weighted>
-0.0000

> <Gold.Chemscore.Lipo.Weighted>
-3.6056

> <Gold.Chemscore.Internal_Hbond.Weighted>
0.0000

> <Gold.Chemscore.DEClash.Weighted>
0.0162

> <Gold.Chemscore.DEInternal.Weighted>
1.7416

> <Gold.Chemscore.Rot.Weighted>
8.3634

> <Gold.Chemscore.Internal.Correction.Weighted>
   9.000000E+99

> <Gold.Protein.RotatedTorsions>
[ 6907 6896 6895 6894 ] final  179.73 input  -60.11 | X-H torsion
[ 7974 7965 7964 7962 ] final  172.14 input  175.53 | X-H torsion
[ 8008 7997 7996 7995 ] final  102.63 input   59.86 | X-H torsion
[ 10167 10162 10161 10158 ] final -142.97 input  -65.29 | X-H torsion
[ 10718 10713 10712 10709 ] final -149.10 input   66.30 | X-H torsion
[ 10763 10752 10751 10750 ] final   53.70 input  -60.55 | X-H torsion
[ 11005 11000 10999 10996 ] final -137.93 input  -57.11 | X-H torsion

> <Gold.Protein.ActiveResidues>
 VAL166  LYS551  ARG553  GLY616  TRP617  ASP618  TYR619  PRO620  LYS621  CYS622 
 ASP623  PHE694  ASN695  SER759  ASP760  ASP761  ALA762  ILE779  LEU786  VAL792 
 PHE793  MET794  SER795  GLU796  ALA797  LYS798  CYS799  TRP800  GLU811  SER814 

> <Gold.Protein.RotatedAtoms>
  151.6669  133.3315  159.3187 H   0  0  0  0  0  0  0  0  0  0  0  0  # atno 6907 bound_to 6896
  150.7886  134.6895  159.6498 H   0  0  0  0  0  0  0  0  0  0  0  0  # atno 6908 bound_to 6896
  152.3961  134.6366  160.0140 H   0  0  0  0  0  0  0  0  0  0  0  0  # atno 6909 bound_to 6896
  144.7276  139.9455  143.6430 H   0  0  0  0  0  0  0  0  0  0  0  0  # atno 7974 bound_to 7965
  156.1411  140.3178  155.8496 H   0  0  0  0  0  0  0  0  0  0  0  0  # atno 8008 bound_to 7997
  155.4153  140.0508  157.3046 H   0  0  0  0  0  0  0  0  0  0  0  0  # atno 8009 bound_to 7997
  154.4977  140.2117  155.9425 H   0  0  0  0  0  0  0  0  0  0  0  0  # atno 8010 bound_to 7997
  139.8038  143.7797  152.2660 H   0  0  0  0  0  0  0  0  0  0  0  0  # atno 10167 bound_to 10162
  156.4287  130.8065  151.2291 H   0  0  0  0  0  0  0  0  0  0  0  0  # atno 10718 bound_to 10713
  152.9797  135.5770  154.4784 H   0  0  0  0  0  0  0  0  0  0  0  0  # atno 10763 bound_to 10752
  154.4336  135.2774  155.1898 H   0  0  0  0  0  0  0  0  0  0  0  0  # atno 10764 bound_to 10752
  154.3595  135.6191  153.5737 H   0  0  0  0  0  0  0  0  0  0  0  0  # atno 10765 bound_to 10752
  140.8664  134.2105  157.4677 H   0  0  0  0  0  0  0  0  0  0  0  0  # atno 11005 bound_to 11000
  146.0752  139.3740  143.0498 LP  0  0  0  0  0  0  0  0  0  0  0  0  # atno 17320 bound_to 7965
  145.7915  140.9812  143.1046 LP  0  0  0  0  0  0  0  0  0  0  0  0  # atno 17321 bound_to 7965
  139.7925  144.7405  150.9936 LP  0  0  0  0  0  0  0  0  0  0  0  0  # atno 17342 bound_to 10162
  140.7819  143.4428  151.0527 LP  0  0  0  0  0  0  0  0  0  0  0  0  # atno 17343 bound_to 10162
  157.7508  131.0205  150.3711 LP  0  0  0  0  0  0  0  0  0  0  0  0  # atno 17370 bound_to 10713
  156.4044  130.3922  149.6936 LP  0  0  0  0  0  0  0  0  0  0  0  0  # atno 17371 bound_to 10713
  139.8709  134.9754  156.4881 LP  0  0  0  0  0  0  0  0  0  0  0  0  # atno 17394 bound_to 11000
  140.8624  133.8050  155.9278 LP  0  0  0  0  0  0  0  0  0  0  0  0  # atno 17395 bound_to 11000

$$$$
