AV-unprocessed.smi:3019|AV-procd|sdf|11487|dock8
  -GOLD-   2272016423D 1   1.00000     0.00000
 Structure written by MMmdl.
 31 32  0  0  0  0  0  0  0  0  2 V2000
  152.1614  143.6517  160.7330 C   0  0  0  0  0  0  0  0  0  0  0  0
  152.3307  142.2874  160.0485 C   0  0  0  0  0  0  0  0  0  0  0  0
  153.7922  141.8172  160.0032 C   0  0  0  0  0  0  0  0  0  0  0  0
  151.7001  142.2671  158.6898 C   0  0  0  0  0  0  0  0  0  0  0  0
  151.0639  143.3339  158.2073 N   0  0  0  0  0  0  0  0  0  0  0  0
  150.6617  142.8992  156.9948 N   0  0  0  0  0  0  0  0  0  0  0  0
  151.0668  141.6394  156.8196 C   0  0  0  0  0  0  0  0  0  0  0  0
  150.7656  140.8686  155.5733 C   0  0  2  0  0  0  0  0  0  0  0  0
  149.2729  140.9222  155.1942 C   0  0  0  0  0  0  0  0  0  0  0  0
  149.0187  140.0626  154.0216 N   0  3  0  0  0  0  0  0  0  0  0  0
  149.4910  138.6825  154.2505 C   0  0  0  0  0  0  0  0  0  0  0  0
  150.9727  138.6913  154.6663 C   0  0  0  0  0  0  0  0  0  0  0  0
  151.1452  139.5158  155.8141 O   0  0  0  0  0  0  0  0  0  0  0  0
  151.7352  141.1725  157.8695 N   0  0  0  0  0  0  0  0  0  0  0  0
  150.1382  143.4742  156.3503 H   0  0  0  0  0  0  0  0  0  0  0  0
  151.1081  143.9233  160.8118 H   0  0  0  0  0  0  0  0  0  0  0  0
  152.6687  144.4407  160.1769 H   0  0  0  0  0  0  0  0  0  0  0  0
  152.5749  143.6379  161.7417 H   0  0  0  0  0  0  0  0  0  0  0  0
  151.7944  141.5649  160.6661 H   0  0  0  0  0  0  0  0  0  0  0  0
  153.8698  140.8155  159.5793 H   0  0  0  0  0  0  0  0  0  0  0  0
  154.2251  141.7864  161.0033 H   0  0  0  0  0  0  0  0  0  0  0  0
  154.4055  142.4843  159.3969 H   0  0  0  0  0  0  0  0  0  0  0  0
  151.3728  141.2728  154.7607 H   0  0  0  0  0  0  0  0  0  0  0  0
  148.6545  140.5792  156.0251 H   0  0  0  0  0  0  0  0  0  0  0  0
  148.9686  141.9442  154.9667 H   0  0  0  0  0  0  0  0  0  0  0  0
  148.0283  140.0499  153.8219 H   0  0  0  0  0  0  0  0  0  0  0  0
  148.8838  138.2205  155.0302 H   0  0  0  0  0  0  0  0  0  0  0  0
  149.3499  138.0954  153.3428 H   0  0  0  0  0  0  0  0  0  0  0  0
  151.3029  137.6799  154.9045 H   0  0  0  0  0  0  0  0  0  0  0  0
  151.6041  139.0487  153.8512 H   0  0  0  0  0  0  0  0  0  0  0  0
  149.5100  140.4451  153.2264 H   0  0  0  0  0  0  0  0  0  0  0  0
  1  2  1  0  0  0  0
  1 16  1  0  0  0  0
  1 17  1  0  0  0  0
  1 18  1  0  0  0  0
  2  3  1  0  0  0  0
  2  4  1  0  0  0  0
  2 19  1  0  0  0  0
  3 20  1  0  0  0  0
  3 21  1  0  0  0  0
  3 22  1  0  0  0  0
  4 14  1  0  0  0  0
  4  5  2  0  0  0  0
  5  6  1  0  0  0  0
  6 15  1  0  0  0  0
  6  7  1  0  0  0  0
  7  8  1  0  0  0  0
  7 14  2  0  0  0  0
  8 13  1  0  0  0  0
  8  9  1  0  0  0  0
  8 23  1  0  0  0  0
  9 10  1  0  0  0  0
  9 24  1  0  0  0  0
  9 25  1  0  0  0  0
 10 11  1  0  0  0  0
 10 26  1  0  0  0  0
 10 31  1  0  0  0  0
 11 12  1  0  0  0  0
 11 27  1  0  0  0  0
 11 28  1  0  0  0  0
 12 13  1  0  0  0  0
 12 29  1  0  0  0  0
 12 30  1  0  0  0  0
M  CHG  1  10   1
M  END
> <s_m_source_file>
AV-unprocessed.smi

> <i_m_source_file_index>
3019

> <i_lp_mmshare_version>
43012

> <i_f3d_flags>
0

> <s_epik_input>
W0NIM11bQ0hdKFtDSDNdKWMxbltuSF1jKG4xKVtDQEBIXTJbQ0gyXVtOSF1bQ0gyXVtDSDJdTzI=

> <s_epik_cmdline>
J2VwaWtfcHl0aG9uJywgJy1waCcsICc3LjAnLCAnLXRuJywgJzgnLCAnLW1hJywgJzIwMCcsICctbWV0YWxfYmluZGluZycsICctaW1hZScsICc8aW5maWxlLm1hZT4nLCAnLW9tYWUnLCAnPG91dGZpbGUubWFlPic=

> <r_epik_Ionization_Penalty>
0.162344

> <r_epik_Ionization_Penalty_Charging>
0.125708

> <r_epik_Ionization_Penalty_Neutral>
0.0366363

> <r_epik_State_Penalty>
1.18286

> <r_epik_Charging_Adjusted_Penalty>
1.30856

> <i_epik_Tot_Q>
1

> <i_epik_Tot_abs_Q>
1

> <r_epik_Metal_State_Penalty>
1.49333

> <b_epik_Metal_Only>
0

> <s_lp_Force_Field>
OPLS_2005

> <r_lp_Energy>
8.53585

> <b_lp_Chiralities_Consistent>
1

> <s_lp_Variant>
AV-unprocessed.smi:3019-3

> <Gold.Version>
5.8.1

> <Gold.Id.Protein>
6NUR|6NUR_protein|mol2

> <Gold.PLP.Fitness>
33.5490

> <Gold.PLP.PLP>
-29.0617

> <Gold.PLP.part.hbond>
-2.0000

> <Gold.PLP.part.metal>
0.0000

> <Gold.PLP.part.buried>
-4.0347

> <Gold.PLP.part.nonpolar>
-23.0719

> <Gold.PLP.part.repulsive>
0.2801

> <Gold.PLP.ligand.clash>
0.0000

> <Gold.PLP.ligand.torsion>
0.2295

> <Gold.PLP.Chemscore.Hbond>
1.6289

> <Gold.PLP.Chemscore.CHOScore>
0.0000

> <Gold.PLP.Chemscore.Metal>
0.0000

> <Gold.Chemscore.Hbonds>
donor molecule, donor type, donor heavy atom, donor atom, acceptor molecule, acceptor atom, score
      L1  H     6    15       P1  8028  1.00
      L1  H    10    31       P1  7957  0.60

> <Gold.PLP.Chemscore.Internal.Correction>
0.0595

> <Gold.Rescore>
     Score         DG    S(hbond)    S(metal)    S(lipo)     H(rot)  DE(clash)    DE(int)     intcor
     14.87     -15.23       1.77        0.00      60.69       1.28       0.04       0.31       ----

> <Gold.Chemscore.Fitness>
14.8725

> <Gold.Chemscore.DG>
-15.2254

> <Gold.Chemscore.ZeroCoef>
-5.4800

> <Gold.Chemscore.Hbond>
1.7726

> <Gold.Chemscore.Metal>
0.0000

> <Gold.Chemscore.Lipo>
60.6867

> <Gold.Chemscore.Internal_Hbond>
0.0000

> <Gold.Chemscore.DEClash>
0.0407

> <Gold.Chemscore.DEInternal>
0.3122

> <Gold.Chemscore.Rot>
1.2795

> <Gold.Chemscore.Internal.Correction>
   9.000000E+99

> <Gold.Chemscore.Hbonds>
donor molecule, donor type, donor heavy atom, donor atom, acceptor molecule, acceptor atom, score
      L1  H     6    15       P1  8028  1.00
      L1  H    10    31       P1  7957  0.59

> <Gold.Chemscore.Hbond.Weighted>
-5.9205

> <Gold.Chemscore.Metal.Weighted>
-0.0000

> <Gold.Chemscore.Lipo.Weighted>
-7.1003

> <Gold.Chemscore.Internal_Hbond.Weighted>
0.0000

> <Gold.Chemscore.DEClash.Weighted>
0.0407

> <Gold.Chemscore.DEInternal.Weighted>
0.3122

> <Gold.Chemscore.Rot.Weighted>
3.2754

> <Gold.Chemscore.Internal.Correction.Weighted>
   9.000000E+99

> <Gold.Protein.RotatedTorsions>
[ 6907 6896 6895 6894 ] final  -53.41 input  -60.11 | X-H torsion
[ 7974 7965 7964 7962 ] final  152.28 input  175.53 | X-H torsion
[ 8008 7997 7996 7995 ] final   -7.56 input   59.86 | X-H torsion
[ 10167 10162 10161 10158 ] final  -73.29 input  -65.29 | X-H torsion
[ 10718 10713 10712 10709 ] final -150.63 input   66.30 | X-H torsion
[ 10763 10752 10751 10750 ] final   41.18 input  -60.55 | X-H torsion
[ 11005 11000 10999 10996 ] final   82.03 input  -57.11 | X-H torsion

> <Gold.Protein.ActiveResidues>
 VAL166  LYS551  ARG553  GLY616  TRP617  ASP618  TYR619  PRO620  LYS621  CYS622 
 ASP623  PHE694  ASN695  SER759  ASP760  ASP761  ALA762  ILE779  LEU786  VAL792 
 PHE793  MET794  SER795  GLU796  ALA797  LYS798  CYS799  TRP800  GLU811  SER814 

> <Gold.Protein.RotatedAtoms>
  150.8430  134.7728  159.6947 H   0  0  0  0  0  0  0  0  0  0  0  0  # atno 6907 bound_to 6896
  152.4513  134.5384  159.9841 H   0  0  0  0  0  0  0  0  0  0  0  0  # atno 6908 bound_to 6896
  151.5520  133.3378  159.2990 H   0  0  0  0  0  0  0  0  0  0  0  0  # atno 6909 bound_to 6896
  144.8234  139.6647  143.6091 H   0  0  0  0  0  0  0  0  0  0  0  0  # atno 7974 bound_to 7965
  154.5826  140.2404  155.8031 H   0  0  0  0  0  0  0  0  0  0  0  0  # atno 8008 bound_to 7997
  156.2190  140.3003  155.9864 H   0  0  0  0  0  0  0  0  0  0  0  0  # atno 8009 bound_to 7997
  155.2513  140.0411  157.2977 H   0  0  0  0  0  0  0  0  0  0  0  0  # atno 8010 bound_to 7997
  140.5122  143.2343  151.7573 H   0  0  0  0  0  0  0  0  0  0  0  0  # atno 10167 bound_to 10162
  156.4486  130.8157  151.2387 H   0  0  0  0  0  0  0  0  0  0  0  0  # atno 10718 bound_to 10713
  152.9915  135.6169  154.2747 H   0  0  0  0  0  0  0  0  0  0  0  0  # atno 10763 bound_to 10752
  154.2478  135.2786  155.2830 H   0  0  0  0  0  0  0  0  0  0  0  0  # atno 10764 bound_to 10752
  154.5314  135.5787  153.6819 H   0  0  0  0  0  0  0  0  0  0  0  0  # atno 10765 bound_to 10752
  139.9077  134.8041  156.2121 H   0  0  0  0  0  0  0  0  0  0  0  0  # atno 11005 bound_to 11000
  146.2539  139.6259  142.9408 LP  0  0  0  0  0  0  0  0  0  0  0  0  # atno 17320 bound_to 7965
  145.5055  141.0437  143.2517 LP  0  0  0  0  0  0  0  0  0  0  0  0  # atno 17321 bound_to 7965
  139.4899  144.4374  151.9804 LP  0  0  0  0  0  0  0  0  0  0  0  0  # atno 17342 bound_to 10162
  140.3466  144.3139  150.5957 LP  0  0  0  0  0  0  0  0  0  0  0  0  # atno 17343 bound_to 10162
  157.7504  131.0145  150.3467 LP  0  0  0  0  0  0  0  0  0  0  0  0  # atno 17370 bound_to 10713
  156.3840  130.3885  149.7080 LP  0  0  0  0  0  0  0  0  0  0  0  0  # atno 17371 bound_to 10713
  141.0459  133.6913  156.1682 LP  0  0  0  0  0  0  0  0  0  0  0  0  # atno 17394 bound_to 11000
  140.6885  134.4691  157.5589 LP  0  0  0  0  0  0  0  0  0  0  0  0  # atno 17395 bound_to 11000

$$$$
