AV-unprocessed.smi:2825|AV-procd|sdf|10888|dock3
  -GOLD-   2272015333D 1   1.00000     0.00000
 Structure written by MMmdl.
 48 49  0  0  0  0  0  0  0  0  1 V2000
  150.0467  133.4745  155.1056 C   0  0  0  0  0  0  0  0  0  0  0  0
  150.4036  134.8398  154.5091 C   0  0  0  0  0  0  0  0  0  0  0  0
  150.1342  135.9986  155.4798 C   0  0  0  0  0  0  0  0  0  0  0  0
  148.3253  136.3379  155.6615 S   0  0  0  0  0  0  0  0  0  0  0  0
  147.6141  135.5316  154.6576 O   0  0  0  0  0  0  0  0  0  0  0  0
  147.9501  136.2430  157.0811 O   0  0  0  0  0  0  0  0  0  0  0  0
  148.1718  137.9996  155.1810 N   0  0  0  0  0  0  0  0  0  0  0  0
  147.4416  138.3218  153.9487 C   0  0  0  0  0  0  0  0  0  0  0  0
  149.0809  139.0313  155.7201 C   0  0  0  0  0  0  0  0  0  0  0  0
  149.3998  140.1722  154.7289 C   0  0  2  0  0  0  0  0  0  0  0  0
  150.3142  139.6513  153.7840 O   0  0  0  0  0  0  0  0  0  0  0  0
  150.0276  141.4202  155.3895 C   0  0  0  0  0  0  0  0  0  0  0  0
  151.0056  141.0882  156.4119 N   0  0  0  0  0  0  0  0  0  0  0  0
  151.8718  140.0560  156.4058 C   0  0  0  0  0  0  0  0  0  0  0  0
  152.6936  139.9437  157.4450 N   0  0  0  0  0  0  0  0  0  0  0  0
  152.3082  141.0218  158.2227 C   0  0  0  0  0  0  0  0  0  0  0  0
  152.7925  141.4710  159.4707 C   0  0  0  0  0  0  0  0  0  0  0  0
  152.2400  142.6120  160.0950 C   0  0  0  0  0  0  0  0  0  0  0  0
  152.7938  143.0619  161.4355 C   0  0  0  0  0  0  0  0  0  0  0  0
  151.1821  143.3201  159.4708 C   0  0  0  0  0  0  0  0  0  0  0  0
  150.5716  144.5493  160.1208 C   0  0  0  0  0  0  0  0  0  0  0  0
  150.6852  142.8833  158.2254 C   0  0  0  0  0  0  0  0  0  0  0  0
  151.2490  141.7526  157.6092 C   0  0  0  0  0  0  0  0  0  0  0  0
  150.2785  132.6727  154.4043 H   0  0  0  0  0  0  0  0  0  0  0  0
  148.9844  133.4124  155.3378 H   0  0  0  0  0  0  0  0  0  0  0  0
  150.6042  133.2859  156.0234 H   0  0  0  0  0  0  0  0  0  0  0  0
  151.4567  134.8425  154.2257 H   0  0  0  0  0  0  0  0  0  0  0  0
  149.8357  134.9863  153.5899 H   0  0  0  0  0  0  0  0  0  0  0  0
  150.5500  135.7888  156.4624 H   0  0  0  0  0  0  0  0  0  0  0  0
  150.6091  136.9131  155.1240 H   0  0  0  0  0  0  0  0  0  0  0  0
  147.9216  137.8562  153.0885 H   0  0  0  0  0  0  0  0  0  0  0  0
  147.3920  139.3986  153.7845 H   0  0  0  0  0  0  0  0  0  0  0  0
  146.4211  137.9441  154.0123 H   0  0  0  0  0  0  0  0  0  0  0  0
  148.6690  139.4371  156.6449 H   0  0  0  0  0  0  0  0  0  0  0  0
  150.0077  138.5367  156.0134 H   0  0  0  0  0  0  0  0  0  0  0  0
  148.5054  140.4504  154.1745 H   0  0  0  0  0  0  0  0  0  0  0  0
  149.8790  139.5932  152.9471 H   0  0  0  0  0  0  0  0  0  0  0  0
  150.5258  142.0397  154.6463 H   0  0  0  0  0  0  0  0  0  0  0  0
  149.2538  142.0416  155.8425 H   0  0  0  0  0  0  0  0  0  0  0  0
  151.9067  139.3525  155.5866 H   0  0  0  0  0  0  0  0  0  0  0  0
  153.5962  140.9288  159.9471 H   0  0  0  0  0  0  0  0  0  0  0  0
  152.0088  143.0667  162.1916 H   0  0  0  0  0  0  0  0  0  0  0  0
  153.2081  144.0674  161.3595 H   0  0  0  0  0  0  0  0  0  0  0  0
  153.5868  142.3987  161.7819 H   0  0  0  0  0  0  0  0  0  0  0  0
  149.7874  144.9807  159.4978 H   0  0  0  0  0  0  0  0  0  0  0  0
  151.3313  145.3154  160.2778 H   0  0  0  0  0  0  0  0  0  0  0  0
  150.1312  144.2933  161.0846 H   0  0  0  0  0  0  0  0  0  0  0  0
  149.8765  143.4116  157.7452 H   0  0  0  0  0  0  0  0  0  0  0  0
  1  2  1  0  0  0  0
  1 24  1  0  0  0  0
  1 25  1  0  0  0  0
  1 26  1  0  0  0  0
  2  3  1  0  0  0  0
  2 27  1  0  0  0  0
  2 28  1  0  0  0  0
  3  4  1  0  0  0  0
  3 29  1  0  0  0  0
  3 30  1  0  0  0  0
  4  5  2  0  0  0  0
  4  6  2  0  0  0  0
  4  7  1  0  0  0  0
  7  8  1  0  0  0  0
  7  9  1  0  0  0  0
  8 31  1  0  0  0  0
  8 32  1  0  0  0  0
  8 33  1  0  0  0  0
  9 10  1  0  0  0  0
  9 34  1  0  0  0  0
  9 35  1  0  0  0  0
 10 11  1  0  0  0  0
 10 12  1  0  0  0  0
 10 36  1  0  0  0  0
 11 37  1  0  0  0  0
 12 13  1  0  0  0  0
 12 38  1  0  0  0  0
 12 39  1  0  0  0  0
 13 23  1  0  0  0  0
 13 14  1  0  0  0  0
 14 15  2  0  0  0  0
 14 40  1  0  0  0  0
 15 16  1  0  0  0  0
 16 23  2  0  0  0  0
 16 17  1  0  0  0  0
 17 18  2  0  0  0  0
 17 41  1  0  0  0  0
 18 19  1  0  0  0  0
 18 20  1  0  0  0  0
 19 42  1  0  0  0  0
 19 43  1  0  0  0  0
 19 44  1  0  0  0  0
 20 21  1  0  0  0  0
 20 22  2  0  0  0  0
 21 45  1  0  0  0  0
 21 46  1  0  0  0  0
 21 47  1  0  0  0  0
 22 23  1  0  0  0  0
 22 48  1  0  0  0  0
M  END
> <s_m_source_file>
AV-unprocessed.smi

> <i_m_source_file_index>
2825

> <i_lp_mmshare_version>
43012

> <i_f3d_flags>
0

> <s_epik_input>
W0NIM11bQ0gyXVtDSDJdUyg9TykoPU8pTihbQ0gzXSlbQ0gyXVtDQEhdKFtPSF0pW0NIMl1uKFtjSF1uMSljKGMxMilbY0hdYyhbQ0gzXSljKFtjSF0yKVtDSDNd

> <s_epik_cmdline>
J2VwaWtfcHl0aG9uJywgJy1waCcsICc3LjAnLCAnLXRuJywgJzgnLCAnLW1hJywgJzIwMCcsICctbWV0YWxfYmluZGluZycsICctaW1hZScsICc8aW5maWxlLm1hZT4nLCAnLW9tYWUnLCAnPG91dGZpbGUubWFlPic=

> <r_epik_Ionization_Penalty>
0.104931

> <r_epik_Ionization_Penalty_Charging>
0

> <r_epik_Ionization_Penalty_Neutral>
0.104931

> <r_epik_State_Penalty>
0.0948201

> <r_epik_Charging_Adjusted_Penalty>
0.0948201

> <i_epik_Tot_Q>
0

> <i_epik_Tot_abs_Q>
0

> <r_epik_Metal_State_Penalty>
0.00010282

> <b_epik_Metal_Only>
0

> <s_lp_Force_Field>
OPLS_2005

> <r_lp_Energy>
0.666552

> <b_lp_Chiralities_Consistent>
1

> <s_lp_Variant>
AV-unprocessed.smi:2825-1

> <Gold.Version>
5.8.1

> <Gold.Id.Protein>
6NUR|6NUR_protein|mol2

> <Gold.PLP.Fitness>
48.1374

> <Gold.PLP.PLP>
-40.8794

> <Gold.PLP.part.hbond>
-3.0000

> <Gold.PLP.part.metal>
0.0000

> <Gold.PLP.part.buried>
-4.6656

> <Gold.PLP.part.nonpolar>
-32.5650

> <Gold.PLP.part.repulsive>
0.0890

> <Gold.PLP.ligand.clash>
0.0000

> <Gold.PLP.ligand.torsion>
2.0744

> <Gold.PLP.Chemscore.Hbond>
2.9760

> <Gold.PLP.Chemscore.CHOScore>
0.0000

> <Gold.PLP.Chemscore.Metal>
0.0000

> <Gold.Chemscore.Hbonds>
donor molecule, donor type, donor heavy atom, donor atom, acceptor molecule, acceptor atom, score
      L1  H    11    37       P1  7957  1.00
      P1  H  7989  7998       L1    11  0.96
      P1  H  7997  8008       L1    15  1.00

> <Gold.PLP.Chemscore.Internal.Correction>
2.4788

> <Gold.Rescore>
     Score         DG    S(hbond)    S(metal)    S(lipo)     H(rot)  DE(clash)    DE(int)     intcor
     16.16     -18.88       2.24        0.00     103.71       2.43       0.03       2.70       ----

> <Gold.Chemscore.Fitness>
16.1558

> <Gold.Chemscore.DG>
-18.8831

> <Gold.Chemscore.ZeroCoef>
-5.4800

> <Gold.Chemscore.Hbond>
2.2449

> <Gold.Chemscore.Metal>
0.0000

> <Gold.Chemscore.Lipo>
103.7087

> <Gold.Chemscore.Internal_Hbond>
0.0000

> <Gold.Chemscore.DEClash>
0.0291

> <Gold.Chemscore.DEInternal>
2.6981

> <Gold.Chemscore.Rot>
2.4332

> <Gold.Chemscore.Internal.Correction>
   9.000000E+99

> <Gold.Chemscore.Hbonds>
donor molecule, donor type, donor heavy atom, donor atom, acceptor molecule, acceptor atom, score
      L1  H    11    37       P1  7957  0.97
      P1  H  7989  7998       L1    11  0.24
      P1  H  7997  8008       L1    15  0.64

> <Gold.Chemscore.Hbond.Weighted>
-7.4981

> <Gold.Chemscore.Metal.Weighted>
-0.0000

> <Gold.Chemscore.Lipo.Weighted>
-12.1339

> <Gold.Chemscore.Internal_Hbond.Weighted>
0.0000

> <Gold.Chemscore.DEClash.Weighted>
0.0291

> <Gold.Chemscore.DEInternal.Weighted>
2.6981

> <Gold.Chemscore.Rot.Weighted>
6.2289

> <Gold.Chemscore.Internal.Correction.Weighted>
   9.000000E+99

> <Gold.Protein.RotatedTorsions>
[ 6907 6896 6895 6894 ] final -172.01 input  -60.11 | X-H torsion
[ 7974 7965 7964 7962 ] final   99.47 input  175.53 | X-H torsion
[ 8008 7997 7996 7995 ] final  -80.49 input   59.86 | X-H torsion
[ 10167 10162 10161 10158 ] final  -60.72 input  -65.29 | X-H torsion
[ 10718 10713 10712 10709 ] final  121.73 input   66.30 | X-H torsion
[ 10763 10752 10751 10750 ] final  154.59 input  -60.55 | X-H torsion
[ 11005 11000 10999 10996 ] final -155.58 input  -57.11 | X-H torsion

> <Gold.Protein.ActiveResidues>
 VAL166  LYS551  ARG553  GLY616  TRP617  ASP618  TYR619  PRO620  LYS621  CYS622 
 ASP623  PHE694  ASN695  SER759  ASP760  ASP761  ALA762  ILE779  LEU786  VAL792 
 PHE793  MET794  SER795  GLU796  ALA797  LYS798  CYS799  TRP800  GLU811  SER814 

> <Gold.Protein.RotatedAtoms>
  151.5331  133.3445  159.2921 H   0  0  0  0  0  0  0  0  0  0  0  0  # atno 6907 bound_to 6896
  150.8581  134.7928  159.7072 H   0  0  0  0  0  0  0  0  0  0  0  0  # atno 6908 bound_to 6896
  152.4609  134.5196  159.9830 H   0  0  0  0  0  0  0  0  0  0  0  0  # atno 6909 bound_to 6896
  145.3985  139.2351  143.3313 H   0  0  0  0  0  0  0  0  0  0  0  0  # atno 7974 bound_to 7965
  154.5888  140.0662  156.9209 H   0  0  0  0  0  0  0  0  0  0  0  0  # atno 8008 bound_to 7997
  155.2332  140.3339  155.4282 H   0  0  0  0  0  0  0  0  0  0  0  0  # atno 8009 bound_to 7997
  156.2241  140.1811  156.7390 H   0  0  0  0  0  0  0  0  0  0  0  0  # atno 8010 bound_to 7997
  140.6053  143.2372  151.5836 H   0  0  0  0  0  0  0  0  0  0  0  0  # atno 10167 bound_to 10162
  157.5795  131.1076  150.8214 H   0  0  0  0  0  0  0  0  0  0  0  0  # atno 10718 bound_to 10713
  154.1547  135.2813  155.3125 H   0  0  0  0  0  0  0  0  0  0  0  0  # atno 10763 bound_to 10752
  154.6191  135.5473  153.7559 H   0  0  0  0  0  0  0  0  0  0  0  0  # atno 10764 bound_to 10752
  153.0210  135.6434  154.1691 H   0  0  0  0  0  0  0  0  0  0  0  0  # atno 10765 bound_to 10752
  140.6850  134.4104  157.5224 H   0  0  0  0  0  0  0  0  0  0  0  0  # atno 11005 bound_to 11000
  146.2763  140.4678  142.8794 LP  0  0  0  0  0  0  0  0  0  0  0  0  # atno 17320 bound_to 7965
  144.8391  140.6828  143.6241 LP  0  0  0  0  0  0  0  0  0  0  0  0  # atno 17321 bound_to 7965
  139.5320  144.2888  152.1169 LP  0  0  0  0  0  0  0  0  0  0  0  0  # atno 17342 bound_to 10162
  140.2076  144.4595  150.6401 LP  0  0  0  0  0  0  0  0  0  0  0  0  # atno 17343 bound_to 10162
  156.8664  130.5131  149.5300 LP  0  0  0  0  0  0  0  0  0  0  0  0  # atno 17370 bound_to 10713
  156.0841  130.5844  150.9616 LP  0  0  0  0  0  0  0  0  0  0  0  0  # atno 17371 bound_to 10713
  139.8940  134.8716  156.2196 LP  0  0  0  0  0  0  0  0  0  0  0  0  # atno 17394 bound_to 11000
  141.0287  133.7000  156.1393 LP  0  0  0  0  0  0  0  0  0  0  0  0  # atno 17395 bound_to 11000

$$$$
