AV-unprocessed.smi:21|AV-procd|sdf|145|dock4
  -GOLD-   2262015353D 1   1.00000     0.00000
 Structure written by MMmdl.
 62 65  0  0  0  0  0  0  0  0  2 V2000
  143.5607  132.4810  149.5811 C   0  0  0  0  0  0  0  0  0  0  0  0
  144.0506  133.8104  149.6532 O   0  0  0  0  0  0  0  0  0  0  0  0
  144.4953  134.1831  150.9492 C   0  0  1  0  0  0  0  0  0  0  0  0
  145.0652  135.5963  151.0049 C   0  0  0  0  0  0  0  0  0  0  0  0
  144.9141  135.9912  152.4807 C   0  0  1  0  0  0  0  0  0  0  0  0
  144.8695  137.5213  152.7174 C   0  0  0  0  0  0  0  0  0  0  0  0
  146.1836  138.1514  152.5624 N   0  0  0  0  0  0  0  0  0  0  0  0
  146.4972  138.7747  151.2825 C   0  0  0  0  0  0  0  0  0  0  0  0
  146.9478  138.4259  153.6585 C   0  0  0  0  0  0  0  0  0  0  0  0
  147.2569  137.4009  154.4971 N   0  0  0  0  0  0  0  0  0  0  0  0
  147.9960  137.6058  155.5897 C   0  0  0  0  0  0  0  0  0  0  0  0
  148.5273  138.7443  156.0327 N   0  0  0  0  0  0  0  0  0  0  0  0
  148.2294  139.7825  155.2022 C   0  0  0  0  0  0  0  0  0  0  0  0
  147.4515  139.7173  154.0087 C   0  0  0  0  0  0  0  0  0  0  0  0
  147.3520  140.9911  153.4567 N   0  0  0  0  0  0  0  0  0  0  0  0
  148.0360  141.7546  154.2630 C   0  0  0  0  0  0  0  0  0  0  0  0
  148.6144  141.1060  155.3285 N   0  0  0  0  0  0  0  0  0  0  0  0
  149.4182  141.7077  156.3781 C   0  0  0  0  0  0  0  0  0  0  0  0
  150.9438  141.4510  156.2548 C   0  0  2  0  0  0  0  0  0  0  0  0
  151.1869  139.9533  155.9581 C   0  0  0  0  0  0  0  0  0  0  0  0
  152.4710  139.7300  155.4112 O   0  0  0  0  0  0  0  0  0  0  0  0
  151.7835  141.9642  157.4614 C   0  0  1  0  0  0  0  0  0  0  0  0
  151.6447  143.4527  157.7422 C   0  0  0  0  0  0  0  0  0  0  0  0
  152.1636  143.5623  159.1683 C   0  0  0  0  0  0  0  0  0  0  0  0
  151.6908  142.3879  159.8098 O   0  0  0  0  0  0  0  0  0  0  0  0
  151.4048  141.3881  158.8357 C   0  0  0  0  0  0  0  0  0  0  0  0
  143.7402  135.2176  152.9843 N   0  3  1  0  0  0  0  0  0  0  0  0
  142.6122  135.9782  153.5720 C   0  0  0  0  0  0  0  0  0  0  0  0
  143.3164  134.2850  151.9142 C   0  0  0  0  0  0  0  0  0  0  0  0
  145.2202  133.4649  151.3373 H   0  0  0  0  0  0  0  0  0  0  0  0
  145.7706  135.5867  153.0221 H   0  0  0  0  0  0  0  0  0  0  0  0
  143.2075  132.2784  148.5702 H   0  0  0  0  0  0  0  0  0  0  0  0
  142.7237  132.3309  150.2645 H   0  0  0  0  0  0  0  0  0  0  0  0
  144.3382  131.7526  149.8137 H   0  0  0  0  0  0  0  0  0  0  0  0
  146.0979  135.6525  150.6592 H   0  0  0  0  0  0  0  0  0  0  0  0
  144.4636  136.2543  150.3762 H   0  0  0  0  0  0  0  0  0  0  0  0
  144.1218  137.9886  152.0771 H   0  0  0  0  0  0  0  0  0  0  0  0
  144.5428  137.7224  153.7378 H   0  0  0  0  0  0  0  0  0  0  0  0
  146.2241  139.8302  151.2903 H   0  0  0  0  0  0  0  0  0  0  0  0
  145.9485  138.2936  150.4726 H   0  0  0  0  0  0  0  0  0  0  0  0
  147.5599  138.6849  151.0549 H   0  0  0  0  0  0  0  0  0  0  0  0
  148.1899  136.7324  156.1949 H   0  0  0  0  0  0  0  0  0  0  0  0
  148.1464  142.8161  154.0943 H   0  0  0  0  0  0  0  0  0  0  0  0
  149.2180  142.7798  156.3929 H   0  0  0  0  0  0  0  0  0  0  0  0
  149.0509  141.3157  157.3271 H   0  0  0  0  0  0  0  0  0  0  0  0
  151.2954  141.9837  155.3708 H   0  0  0  0  0  0  0  0  0  0  0  0
  151.0910  139.3648  156.8710 H   0  0  0  0  0  0  0  0  0  0  0  0
  150.4389  139.5619  155.2687 H   0  0  0  0  0  0  0  0  0  0  0  0
  152.5303  140.1871  154.5864 H   0  0  0  0  0  0  0  0  0  0  0  0
  152.8390  141.7554  157.2794 H   0  0  0  0  0  0  0  0  0  0  0  0
  152.2091  144.0763  157.0485 H   0  0  0  0  0  0  0  0  0  0  0  0
  150.5971  143.7551  157.7024 H   0  0  0  0  0  0  0  0  0  0  0  0
  153.2543  143.5574  159.1798 H   0  0  0  0  0  0  0  0  0  0  0  0
  151.8194  144.4638  159.6754 H   0  0  0  0  0  0  0  0  0  0  0  0
  150.3392  141.1626  158.8902 H   0  0  0  0  0  0  0  0  0  0  0  0
  151.9560  140.4771  159.0657 H   0  0  0  0  0  0  0  0  0  0  0  0
  142.1690  136.6609  152.8462 H   0  0  0  0  0  0  0  0  0  0  0  0
  142.9318  136.5485  154.4442 H   0  0  0  0  0  0  0  0  0  0  0  0
  141.8331  135.2912  153.9040 H   0  0  0  0  0  0  0  0  0  0  0  0
  142.4559  134.7021  151.3874 H   0  0  0  0  0  0  0  0  0  0  0  0
  143.0201  133.3165  152.3178 H   0  0  0  0  0  0  0  0  0  0  0  0
  144.1040  134.6410  153.7296 H   0  0  0  0  0  0  0  0  0  0  0  0
  1  2  1  0  0  0  0
  1 32  1  0  0  0  0
  1 33  1  0  0  0  0
  1 34  1  0  0  0  0
  2  3  1  0  0  0  0
  3 30  1  0  0  0  0
  3 29  1  0  0  0  0
  3  4  1  0  0  0  0
  4  5  1  0  0  0  0
  4 35  1  0  0  0  0
  4 36  1  0  0  0  0
  5 31  1  0  0  0  0
  5  6  1  0  0  0  0
  5 27  1  0  0  0  0
  6  7  1  0  0  0  0
  6 37  1  0  0  0  0
  6 38  1  0  0  0  0
  7  8  1  0  0  0  0
  7  9  1  0  0  0  0
  8 39  1  0  0  0  0
  8 40  1  0  0  0  0
  8 41  1  0  0  0  0
  9 14  1  0  0  0  0
  9 10  2  0  0  0  0
 10 11  1  0  0  0  0
 11 12  2  0  0  0  0
 11 42  1  0  0  0  0
 12 13  1  0  0  0  0
 13 17  1  0  0  0  0
 13 14  2  0  0  0  0
 14 15  1  0  0  0  0
 15 16  2  0  0  0  0
 16 17  1  0  0  0  0
 16 43  1  0  0  0  0
 17 18  1  0  0  0  0
 18 19  1  0  0  0  0
 18 44  1  0  0  0  0
 18 45  1  0  0  0  0
 19 20  1  0  0  0  0
 19 22  1  0  0  0  0
 19 46  1  0  0  0  0
 20 21  1  0  0  0  0
 20 47  1  0  0  0  0
 20 48  1  0  0  0  0
 21 49  1  0  0  0  0
 22 26  1  0  0  0  0
 22 23  1  0  0  0  0
 22 50  1  0  0  0  0
 23 24  1  0  0  0  0
 23 51  1  0  0  0  0
 23 52  1  0  0  0  0
 24 25  1  0  0  0  0
 24 53  1  0  0  0  0
 24 54  1  0  0  0  0
 25 26  1  0  0  0  0
 26 55  1  0  0  0  0
 26 56  1  0  0  0  0
 27 28  1  0  0  0  0
 27 29  1  0  0  0  0
 27 62  1  0  0  0  0
 28 57  1  0  0  0  0
 28 58  1  0  0  0  0
 28 59  1  0  0  0  0
 29 60  1  0  0  0  0
 29 61  1  0  0  0  0
M  CHG  1  27   1
M  END
> <s_m_source_file>
AV-unprocessed.smi

> <i_m_source_file_index>
21

> <i_lp_mmshare_version>
43012

> <i_f3d_flags>
0

> <s_epik_input>
W0NIM11PW0NASF0xW0NIMl1bQ0BIXShOKFtDSDNdKVtDSDJdMSlbQ0gyXU4oW0NIM10pYyhuW2NIXW4yKWMoYzIzKW5bY0hdbjNbQ0gyXVtDQEhdKFtDSDJdW09IXSlbQ0BASF00W0NIMl1bQ0gyXU9bQ0gyXTQ=

> <s_epik_cmdline>
J2VwaWtfcHl0aG9uJywgJy1waCcsICc3LjAnLCAnLXRuJywgJzgnLCAnLW1hJywgJzIwMCcsICctbWV0YWxfYmluZGluZycsICctaW1hZScsICc8aW5maWxlLm1hZT4nLCAnLW9tYWUnLCAnPG91dGZpbGUubWFlPic=

> <r_lp_tautomer_probability>
1

> <r_epik_Ionization_Penalty>
0.0157465

> <r_epik_Ionization_Penalty_Charging>
0.015354

> <r_epik_Ionization_Penalty_Neutral>
0.000392529

> <r_epik_State_Penalty>
0.0120612

> <r_epik_Charging_Adjusted_Penalty>
0.0274152

> <i_epik_Tot_Q>
1

> <i_epik_Tot_abs_Q>
1

> <r_epik_Metal_State_Penalty>
0.0121253

> <b_epik_Metal_Only>
0

> <s_lp_Force_Field>
OPLS_2005

> <r_lp_Energy>
60.8003

> <b_lp_Chiralities_Consistent>
1

> <s_lp_Variant>
AV-unprocessed.smi:21-25

> <Gold.Version>
5.8.1

> <Gold.Id.Protein>
6NUR|6NUR_protein|mol2

> <Gold.PLP.Fitness>
50.9235

> <Gold.PLP.PLP>
-47.8395

> <Gold.PLP.part.hbond>
-2.0363

> <Gold.PLP.part.metal>
0.0000

> <Gold.PLP.part.buried>
-6.0757

> <Gold.PLP.part.nonpolar>
-42.0788

> <Gold.PLP.part.repulsive>
1.6881

> <Gold.PLP.ligand.clash>
0.0000

> <Gold.PLP.ligand.torsion>
1.7095

> <Gold.PLP.Chemscore.Hbond>
1.0000

> <Gold.PLP.Chemscore.CHOScore>
1.0000

> <Gold.PLP.Chemscore.Metal>
0.0000

> <Gold.Chemscore.Hbonds>
donor molecule, donor type, donor heavy atom, donor atom, acceptor molecule, acceptor atom, score
      P1  H  7997  8010       L1    21  0.74
      L1  C    16    43       P1  8028  0.99

> <Gold.PLP.Chemscore.Internal.Correction>
0.5030

> <Gold.Rescore>
     Score         DG    S(hbond)    S(metal)    S(lipo)     H(rot)  DE(clash)    DE(int)     intcor
     11.31     -14.23       0.96        0.00     114.71       3.08       0.98       1.94       ----

> <Gold.Chemscore.Fitness>
11.3059

> <Gold.Chemscore.DG>
-14.2290

> <Gold.Chemscore.ZeroCoef>
-5.4800

> <Gold.Chemscore.Hbond>
0.9588

> <Gold.Chemscore.Metal>
0.0000

> <Gold.Chemscore.Lipo>
114.7074

> <Gold.Chemscore.Internal_Hbond>
0.0000

> <Gold.Chemscore.DEClash>
0.9796

> <Gold.Chemscore.DEInternal>
1.9435

> <Gold.Chemscore.Rot>
3.0758

> <Gold.Chemscore.Internal.Correction>
   9.000000E+99

> <Gold.Chemscore.Hbonds>
donor molecule, donor type, donor heavy atom, donor atom, acceptor molecule, acceptor atom, score
      P1  H  7997  8010       L1    21  0.10

> <Gold.Chemscore.Hbond.Weighted>
-3.2023

> <Gold.Chemscore.Metal.Weighted>
-0.0000

> <Gold.Chemscore.Lipo.Weighted>
-13.4208

> <Gold.Chemscore.Internal_Hbond.Weighted>
0.0000

> <Gold.Chemscore.DEClash.Weighted>
0.9796

> <Gold.Chemscore.DEInternal.Weighted>
1.9435

> <Gold.Chemscore.Rot.Weighted>
7.8741

> <Gold.Chemscore.Internal.Correction.Weighted>
   9.000000E+99

> <Gold.Protein.RotatedTorsions>
[ 6907 6896 6895 6894 ] final    7.67 input  -60.11 | X-H torsion
[ 7974 7965 7964 7962 ] final  -56.37 input  175.53 | X-H torsion
[ 8008 7997 7996 7995 ] final   94.66 input   59.86 | X-H torsion
[ 10167 10162 10161 10158 ] final   62.26 input  -65.29 | X-H torsion
[ 10718 10713 10712 10709 ] final -112.11 input   66.30 | X-H torsion
[ 10763 10752 10751 10750 ] final   39.64 input  -60.55 | X-H torsion
[ 11005 11000 10999 10996 ] final  156.37 input  -57.11 | X-H torsion

> <Gold.Protein.ActiveResidues>
 VAL166  LYS551  ARG553  GLY616  TRP617  ASP618  TYR619  PRO620  LYS621  CYS622 
 ASP623  PHE694  ASN695  SER759  ASP760  ASP761  ALA762  ILE779  LEU786  VAL792 
 PHE793  MET794  SER795  GLU796  ALA797  LYS798  CYS799  TRP800  GLU811  SER814 

> <Gold.Protein.RotatedAtoms>
  151.6937  135.0942  160.0238 H   0  0  0  0  0  0  0  0  0  0  0  0  # atno 6907 bound_to 6896
  152.3763  133.6481  159.6134 H   0  0  0  0  0  0  0  0  0  0  0  0  # atno 6908 bound_to 6896
  150.7711  133.9104  159.3409 H   0  0  0  0  0  0  0  0  0  0  0  0  # atno 6909 bound_to 6896
  145.8635  140.8268  142.9925 H   0  0  0  0  0  0  0  0  0  0  0  0  # atno 7974 bound_to 7965
  156.0603  140.3297  155.7454 H   0  0  0  0  0  0  0  0  0  0  0  0  # atno 8008 bound_to 7997
  155.5465  140.0606  157.2876 H   0  0  0  0  0  0  0  0  0  0  0  0  # atno 8009 bound_to 7997
  154.4478  140.1901  156.0631 H   0  0  0  0  0  0  0  0  0  0  0  0  # atno 8010 bound_to 7997
  140.1458  144.4510  150.6786 H   0  0  0  0  0  0  0  0  0  0  0  0  # atno 10167 bound_to 10162
  156.0686  130.5902  150.8464 H   0  0  0  0  0  0  0  0  0  0  0  0  # atno 10718 bound_to 10713
  152.9961  135.6214  154.2498 H   0  0  0  0  0  0  0  0  0  0  0  0  # atno 10763 bound_to 10752
  154.2237  135.2795  155.2917 H   0  0  0  0  0  0  0  0  0  0  0  0  # atno 10764 bound_to 10752
  154.5507  135.5734  153.6978 H   0  0  0  0  0  0  0  0  0  0  0  0  # atno 10765 bound_to 10752
  140.1669  134.8570  157.2643 H   0  0  0  0  0  0  0  0  0  0  0  0  # atno 11005 bound_to 11000
  144.6726  140.1131  143.7454 LP  0  0  0  0  0  0  0  0  0  0  0  0  # atno 17320 bound_to 7965
  145.9221  139.2552  143.1375 LP  0  0  0  0  0  0  0  0  0  0  0  0  # atno 17321 bound_to 7965
  140.6733  143.2294  151.5571 LP  0  0  0  0  0  0  0  0  0  0  0  0  # atno 17342 bound_to 10162
  139.5450  144.2546  152.1424 LP  0  0  0  0  0  0  0  0  0  0  0  0  # atno 17343 bound_to 10162
  157.5743  131.0946  150.9369 LP  0  0  0  0  0  0  0  0  0  0  0  0  # atno 17370 bound_to 10713
  156.9579  130.5444  149.5285 LP  0  0  0  0  0  0  0  0  0  0  0  0  # atno 17371 bound_to 10713
  140.2423  134.3780  155.7475 LP  0  0  0  0  0  0  0  0  0  0  0  0  # atno 17394 bound_to 11000
  141.2214  133.7272  156.8808 LP  0  0  0  0  0  0  0  0  0  0  0  0  # atno 17395 bound_to 11000

$$$$
