#       Name:                AV-unprocessed.smi:3348
#       Creating user name   scv26
#       Creation time:       Fri Mar 27 19:33:18 2020


#       File generated by GOLD software.
#

@<TRIPOS>MOLECULE
AV-unprocessed.smi:3348
    50    51     1
SMALL
NO_CHARGES


@<TRIPOS>ATOM
      1 ****        -0.8749   3.8793  -0.8437 C.3            1 S1                 0.0000
      2 ****        -1.1167   3.1480   0.4867 C.3            1 S1                 0.0000
      3 ****        -2.6243   3.0781   0.8059 C.3            1 S1                 0.0000
      4 ****        -2.9053   2.4408   2.0818 N.pl3          1 S1                 0.0000
      5 ****        -3.6864   1.3315   2.3306 C.2            1 S1                 0.0000
      6 ****        -3.6660   1.1133   3.6783 C.2            1 S1                 0.0000
      7 ****        -2.8453   2.1622   4.1786 C.2            1 S1                 0.0000
      8 ****        -2.3955   2.9572   3.2212 N.2            1 S1                 0.0000
      9 ****        -0.5382   1.7853   0.4561 N.4            1 S1                 1.0000
     10 ****         0.9289   1.7181   0.6176 C.3            1 S1                 0.0000
     11 ****         1.4037   0.2630   0.6717 C.3            1 S1                 0.0000
     12 ****         1.2234  -0.3183  -0.6113 O.3            1 S1                 0.0000
     13 ****         1.5312  -1.7058  -0.6840 C.3            1 S1                 0.0000
     14 ****         3.0584  -1.9032  -0.7997 C.3            1 S1                 0.0000
     15 ****         3.4224  -3.3794  -1.0157 C.3            1 S1                 0.0000
     16 ****         2.7039  -3.9504  -2.2456 C.3            1 S1                 0.0000
     17 ****         1.1836  -3.7650  -2.1299 C.3            1 S1                 0.0000
     18 ****         0.8022  -2.2860  -1.9176 C.3            1 S1                 0.0000
     19 ****        -0.7235  -2.1308  -1.8054 C.3            1 S1                 0.0000
     20 ****        -1.3260   4.8717  -0.8299 H              1 S1                 0.0000
     21 ****        -1.3065   3.3315  -1.6821 H              1 S1                 0.0000
     22 ****         0.1880   4.0132  -1.0442 H              1 S1                 0.0000
     23 ****        -0.6268   3.7137   1.2807 H              1 S1                 0.0000
     24 ****        -3.0507   4.0820   0.8318 H              1 S1                 0.0000
     25 ****        -3.1544   2.5349   0.0221 H              1 S1                 0.0000
     26 ****        -4.1848   0.7937   1.5373 H              1 S1                 0.0000
     27 ****        -4.1657   0.3272   4.2247 H              1 S1                 0.0000
     28 ****        -2.5663   2.3689   5.2014 H              1 S1                 0.0000
     29 ****        -0.9453   1.2674   1.2219 H              1 S1                 0.0000
     30 ****         1.4296   2.2446  -0.1951 H              1 S1                 0.0000
     31 ****         1.2035   2.2208   1.5458 H              1 S1                 0.0000
     32 ****         2.4562   0.2361   0.9533 H              1 S1                 0.0000
     33 ****         0.8466  -0.2873   1.4317 H              1 S1                 0.0000
     34 ****         1.1620  -2.2187   0.2064 H              1 S1                 0.0000
     35 ****         3.4420  -1.3101  -1.6309 H              1 S1                 0.0000
     36 ****         3.5638  -1.5424   0.0955 H              1 S1                 0.0000
     37 ****         4.5015  -3.4838  -1.1332 H              1 S1                 0.0000
     38 ****         3.1495  -3.9567  -0.1314 H              1 S1                 0.0000
     39 ****         3.0665  -3.4533  -3.1463 H              1 S1                 0.0000
     40 ****         2.9429  -5.0084  -2.3583 H              1 S1                 0.0000
     41 ****         0.7022  -4.1497  -3.0298 H              1 S1                 0.0000
     42 ****         0.8083  -4.3655  -1.3000 H              1 S1                 0.0000
     43 ****         1.1281  -1.7285  -2.7972 H              1 S1                 0.0000
     44 ****        -1.1121  -2.6531  -0.9308 H              1 S1                 0.0000
     45 ****        -1.2236  -2.5378  -2.6848 H              1 S1                 0.0000
     46 ****        -1.0126  -1.0828  -1.7240 H              1 S1                 0.0000
     47 ****        -0.7990   1.3347  -0.4095 H              1 S1                 0.0000
     48 ****        -1.8089   3.7611   3.3193 LP             1 S1                 0.0000
     49 ****         1.8126   0.1658  -1.2582 LP             1 S1                 0.0000
     50 ****         0.2669  -0.1971  -0.8766 LP             1 S1                 0.0000
@<TRIPOS>BOND
    1    1    2 1     
    2    1   20 1     
    3    1   21 1     
    4    1   22 1     
    5    2    3 1     
    6    2    9 1     
    7    2   23 1     
    8    3    4 1     
    9    3   24 1     
   10    3   25 1     
   11    4    8 1     
   12    4    5 1     
   13    5    6 2     
   14    5   26 1     
   15    6    7 1     
   16    6   27 1     
   17    7    8 2     
   18    7   28 1     
   19    9   10 1     
   20    9   29 1     
   21    9   47 1     
   22   10   11 1     
   23   10   30 1     
   24   10   31 1     
   25   11   12 1     
   26   11   32 1     
   27   11   33 1     
   28   12   13 1     
   29   13   18 1     
   30   13   14 1     
   31   13   34 1     
   32   14   15 1     
   33   14   35 1     
   34   14   36 1     
   35   15   16 1     
   36   15   37 1     
   37   15   38 1     
   38   16   17 1     
   39   16   39 1     
   40   16   40 1     
   41   17   18 1     
   42   17   41 1     
   43   17   42 1     
   44   18   19 1     
   45   18   43 1     
   46   19   44 1     
   47   19   45 1     
   48   19   46 1     
   49    8   48 1     
   50   12   49 1     
   51   12   50 1     
@<TRIPOS>SUBSTRUCTURE
      1 S1             1
@<TRIPOS>SET
LONE_PAIRS      STATIC     ATOMS    <user>   **** ""
3 48 49 50
DONOR_HYDROGENS      STATIC     ATOMS    <user>   **** ""
2 29 47
ATOM$BLUE        STATIC     ATOMS    COLORGROUP SYSTEM
3 48 49 50
ATOM$RED        STATIC     ATOMS    COLORGROUP SYSTEM
2 29 47
