AV-unprocessed.smi:121|AV-procd|sdf|1139|dock3
  -GOLD-   2262018273D 1   1.00000     0.00000
 Structure written by MMmdl.
 37 39  0  0  0  0  0  0  0  0  1 V2000
  151.2139  145.5367  159.9258 N   0  0  0  0  0  0  0  0  0  0  0  0
  151.6384  144.4617  159.8732 C   0  0  0  0  0  0  0  0  0  0  0  0
  152.1718  143.1113  159.8078 C   0  0  0  0  0  0  0  0  0  0  0  0
  152.9056  142.5879  160.8912 C   0  0  0  0  0  0  0  0  0  0  0  0
  153.4257  141.2817  160.8213 C   0  0  0  0  0  0  0  0  0  0  0  0
  153.2120  140.4978  159.6712 C   0  0  0  0  0  0  0  0  0  0  0  0
  152.4733  141.0094  158.5840 C   0  0  0  0  0  0  0  0  0  0  0  0
  152.2700  140.1288  157.3540 C   0  0  0  0  0  0  0  0  0  0  0  0
  150.9935  139.4360  157.2650 N   0  0  0  0  0  0  0  0  0  0  0  0
  150.7086  138.4700  158.2604 C   0  0  0  0  0  0  0  0  0  0  0  0
  151.5054  138.2062  159.1627 O   0  0  0  0  0  0  0  0  0  0  0  0
  149.4022  137.8346  158.1307 C   0  0  0  0  0  0  0  0  0  0  0  0
  149.0355  136.8860  159.0090 F   0  0  0  0  0  0  0  0  0  0  0  0
  148.5503  138.1843  157.1427 C   0  0  0  0  0  0  0  0  0  0  0  0
  148.8450  139.1552  156.1986 N   0  0  0  0  0  0  0  0  0  0  0  0
  147.8649  139.5458  155.1118 C   0  0  2  0  0  0  0  0  0  0  0  0
  147.6364  141.0702  155.1102 C   0  0  0  0  0  0  0  0  0  0  0  0
  146.1260  141.1849  155.1670 C   0  0  0  0  0  0  0  0  0  0  0  0
  145.7399  139.9141  155.9085 C   0  0  0  0  0  0  0  0  0  0  0  0
  146.6227  138.9482  155.3529 O   0  0  0  0  0  0  0  0  0  0  0  0
  150.0981  139.8052  156.2328 C   0  0  0  0  0  0  0  0  0  0  0  0
  150.3790  140.6727  155.4023 O   0  0  0  0  0  0  0  0  0  0  0  0
  151.9571  142.3243  158.6582 C   0  0  0  0  0  0  0  0  0  0  0  0
  153.0747  143.1834  161.7770 H   0  0  0  0  0  0  0  0  0  0  0  0
  153.9897  140.8804  161.6503 H   0  0  0  0  0  0  0  0  0  0  0  0
  153.6164  139.4971  159.6268 H   0  0  0  0  0  0  0  0  0  0  0  0
  152.4049  140.7212  156.4486 H   0  0  0  0  0  0  0  0  0  0  0  0
  153.0486  139.3657  157.2962 H   0  0  0  0  0  0  0  0  0  0  0  0
  147.6017  137.6715  157.1068 H   0  0  0  0  0  0  0  0  0  0  0  0
  148.2842  139.1543  154.1829 H   0  0  0  0  0  0  0  0  0  0  0  0
  148.0853  141.5222  155.9965 H   0  0  0  0  0  0  0  0  0  0  0  0
  148.0686  141.5299  154.2210 H   0  0  0  0  0  0  0  0  0  0  0  0
  145.7844  142.0917  155.6669 H   0  0  0  0  0  0  0  0  0  0  0  0
  145.7102  141.1703  154.1588 H   0  0  0  0  0  0  0  0  0  0  0  0
  145.9202  140.0199  156.9793 H   0  0  0  0  0  0  0  0  0  0  0  0
  144.6960  139.6376  155.7599 H   0  0  0  0  0  0  0  0  0  0  0  0
  151.3954  142.7396  157.8345 H   0  0  0  0  0  0  0  0  0  0  0  0
  1  2  3  0  0  0  0
  2  3  1  0  0  0  0
  3 23  1  0  0  0  0
  3  4  2  0  0  0  0
  4  5  1  0  0  0  0
  4 24  1  0  0  0  0
  5  6  2  0  0  0  0
  5 25  1  0  0  0  0
  6  7  1  0  0  0  0
  6 26  1  0  0  0  0
  7  8  1  0  0  0  0
  7 23  2  0  0  0  0
  8  9  1  0  0  0  0
  8 27  1  0  0  0  0
  8 28  1  0  0  0  0
  9 21  1  0  0  0  0
  9 10  1  0  0  0  0
 10 11  2  0  0  0  0
 10 12  1  0  0  0  0
 12 13  1  0  0  0  0
 12 14  2  0  0  0  0
 14 15  1  0  0  0  0
 14 29  1  0  0  0  0
 15 16  1  0  0  0  0
 15 21  1  0  0  0  0
 16 20  1  0  0  0  0
 16 17  1  0  0  0  0
 16 30  1  0  0  0  0
 17 18  1  0  0  0  0
 17 31  1  0  0  0  0
 17 32  1  0  0  0  0
 18 19  1  0  0  0  0
 18 33  1  0  0  0  0
 18 34  1  0  0  0  0
 19 20  1  0  0  0  0
 19 35  1  0  0  0  0
 19 36  1  0  0  0  0
 21 22  2  0  0  0  0
 23 37  1  0  0  0  0
M  END
> <s_m_source_file>
AV-unprocessed.smi

> <i_m_source_file_index>
121

> <i_lp_mmshare_version>
43012

> <i_f3d_flags>
0

> <s_epik_input>
TiNDYzFbY0hdW2NIXVtjSF1jKFtjSF0xKVtDSDJdbjJjKD1PKWMoRilbY0hdbihjMj1PKVtDQEBIXTNbQ0gyXVtDSDJdW0NIMl1PMw==

> <s_epik_cmdline>
J2VwaWtfcHl0aG9uJywgJy1waCcsICc3LjAnLCAnLXRuJywgJzgnLCAnLW1hJywgJzIwMCcsICctbWV0YWxfYmluZGluZycsICctaW1hZScsICc8aW5maWxlLm1hZT4nLCAnLW9tYWUnLCAnPG91dGZpbGUubWFlPic=

> <r_lp_tautomer_probability>
1

> <r_epik_Ionization_Penalty>
1.69864e-08

> <r_epik_Ionization_Penalty_Charging>
1.69802e-08

> <r_epik_Ionization_Penalty_Neutral>
6.20402e-12

> <r_epik_State_Penalty>
-0

> <r_epik_Charging_Adjusted_Penalty>
1.69802e-08

> <i_epik_Tot_Q>
0

> <i_epik_Tot_abs_Q>
0

> <r_epik_Metal_State_Penalty>
-0

> <b_epik_Metal_Only>
0

> <s_epik_Chemistry_Notes>
This compound contains an acetal/aminal-like group ( X-CH(R)-Y where X, Y are N, S, or O) that may be acid/base labile, releasing an aldehyde.

> <s_lp_Force_Field>
OPLS_2005

> <r_lp_Energy>
32.9852

> <b_lp_Chiralities_Consistent>
1

> <s_lp_Variant>
AV-unprocessed.smi:121-1

> <Gold.Version>
5.8.1

> <Gold.Id.Protein>
6NUR|6NUR_protein|mol2

> <Gold.PLP.Fitness>
42.2286

> <Gold.PLP.PLP>
-40.6231

> <Gold.PLP.part.hbond>
-2.5141

> <Gold.PLP.part.metal>
0.0000

> <Gold.PLP.part.buried>
-4.7140

> <Gold.PLP.part.nonpolar>
-34.3050

> <Gold.PLP.part.repulsive>
0.2990

> <Gold.PLP.ligand.clash>
0.0000

> <Gold.PLP.ligand.torsion>
0.4502

> <Gold.PLP.Chemscore.Hbond>
0.8320

> <Gold.PLP.Chemscore.CHOScore>
0.0000

> <Gold.PLP.Chemscore.Metal>
0.0000

> <Gold.Chemscore.Hbonds>
donor molecule, donor type, donor heavy atom, donor atom, acceptor molecule, acceptor atom, score
      P1  H  7989  7998       L1    22  0.33

> <Gold.PLP.Chemscore.Internal.Correction>
0.0099

> <Gold.Rescore>
     Score         DG    S(hbond)    S(metal)    S(lipo)     H(rot)  DE(clash)    DE(int)     intcor
      8.37     -12.76       0.61        0.00      79.49       1.59       0.01       4.38       ----

> <Gold.Chemscore.Fitness>
8.3652

> <Gold.Chemscore.DG>
-12.7574

> <Gold.Chemscore.ZeroCoef>
-5.4800

> <Gold.Chemscore.Hbond>
0.6115

> <Gold.Chemscore.Metal>
0.0000

> <Gold.Chemscore.Lipo>
79.4928

> <Gold.Chemscore.Internal_Hbond>
0.0000

> <Gold.Chemscore.DEClash>
0.0130

> <Gold.Chemscore.DEInternal>
4.3791

> <Gold.Chemscore.Rot>
1.5882

> <Gold.Chemscore.Internal.Correction>
   9.000000E+99

> <Gold.Chemscore.Hbonds>
donor molecule, donor type, donor heavy atom, donor atom, acceptor molecule, acceptor atom, score
      P1  H  7989  7998       L1    22  0.32

> <Gold.Chemscore.Hbond.Weighted>
-2.0425

> <Gold.Chemscore.Metal.Weighted>
-0.0000

> <Gold.Chemscore.Lipo.Weighted>
-9.3007

> <Gold.Chemscore.Internal_Hbond.Weighted>
0.0000

> <Gold.Chemscore.DEClash.Weighted>
0.0130

> <Gold.Chemscore.DEInternal.Weighted>
4.3791

> <Gold.Chemscore.Rot.Weighted>
4.0657

> <Gold.Chemscore.Internal.Correction.Weighted>
   9.000000E+99

> <Gold.Protein.RotatedTorsions>
[ 6907 6896 6895 6894 ] final   78.03 input  -60.11 | X-H torsion
[ 7974 7965 7964 7962 ] final -113.67 input  175.53 | X-H torsion
[ 8008 7997 7996 7995 ] final -122.37 input   59.86 | X-H torsion
[ 10167 10162 10161 10158 ] final  -73.74 input  -65.29 | X-H torsion
[ 10718 10713 10712 10709 ] final   99.59 input   66.30 | X-H torsion
[ 10763 10752 10751 10750 ] final  -26.16 input  -60.55 | X-H torsion
[ 11005 11000 10999 10996 ] final   59.37 input  -57.11 | X-H torsion

> <Gold.Protein.ActiveResidues>
 VAL166  LYS551  ARG553  GLY616  TRP617  ASP618  TYR619  PRO620  LYS621  CYS622 
 ASP623  PHE694  ASN695  SER759  ASP760  ASP761  ALA762  ILE779  LEU786  VAL792 
 PHE793  MET794  SER795  GLU796  ALA797  LYS798  CYS799  TRP800  GLU811  SER814 

> <Gold.Protein.RotatedAtoms>
  152.5142  134.3727  159.9323 H   0  0  0  0  0  0  0  0  0  0  0  0  # atno 6907 bound_to 6896
  151.3681  133.3858  159.2704 H   0  0  0  0  0  0  0  0  0  0  0  0  # atno 6908 bound_to 6896
  150.9599  134.9008  159.7782 H   0  0  0  0  0  0  0  0  0  0  0  0  # atno 6909 bound_to 6896
  145.1293  140.8715  143.3767 H   0  0  0  0  0  0  0  0  0  0  0  0  # atno 7974 bound_to 7965
  155.1632  140.0406  157.2847 H   0  0  0  0  0  0  0  0  0  0  0  0  # atno 8008 bound_to 7997
  154.6321  140.2527  155.7394 H   0  0  0  0  0  0  0  0  0  0  0  0  # atno 8009 bound_to 7997
  156.2490  140.2873  156.0678 H   0  0  0  0  0  0  0  0  0  0  0  0  # atno 8010 bound_to 7997
  140.5085  143.2349  151.7633 H   0  0  0  0  0  0  0  0  0  0  0  0  # atno 10167 bound_to 10162
  157.6873  131.0674  150.4971 H   0  0  0  0  0  0  0  0  0  0  0  0  # atno 10718 bound_to 10713
  153.7114  135.6950  153.5036 H   0  0  0  0  0  0  0  0  0  0  0  0  # atno 10763 bound_to 10752
  153.2269  135.4350  155.0551 H   0  0  0  0  0  0  0  0  0  0  0  0  # atno 10764 bound_to 10752
  154.8313  135.3474  154.6651 H   0  0  0  0  0  0  0  0  0  0  0  0  # atno 10765 bound_to 10752
  140.0309  134.6014  155.9509 H   0  0  0  0  0  0  0  0  0  0  0  0  # atno 11005 bound_to 11000
  145.0654  139.3073  143.5859 LP  0  0  0  0  0  0  0  0  0  0  0  0  # atno 17320 bound_to 7965
  146.3515  140.0110  142.8667 LP  0  0  0  0  0  0  0  0  0  0  0  0  # atno 17321 bound_to 7965
  139.4890  144.4423  151.9750 LP  0  0  0  0  0  0  0  0  0  0  0  0  # atno 17342 bound_to 10162
  140.3515  144.3083  150.5948 LP  0  0  0  0  0  0  0  0  0  0  0  0  # atno 17343 bound_to 10162
  156.5295  130.4181  149.6209 LP  0  0  0  0  0  0  0  0  0  0  0  0  # atno 17370 bound_to 10713
  156.3082  130.7214  151.2101 LP  0  0  0  0  0  0  0  0  0  0  0  0  # atno 17371 bound_to 10713
  141.1830  133.6550  156.5099 LP  0  0  0  0  0  0  0  0  0  0  0  0  # atno 17394 bound_to 11000
  140.4228  134.7172  157.4899 LP  0  0  0  0  0  0  0  0  0  0  0  0  # atno 17395 bound_to 11000

$$$$
