AV-unprocessed.smi:837|AV-procd|sdf|3898|dock10
  -GOLD-   22720 1353D 1   1.00000     0.00000
 Structure written by MMmdl.
 50 52  0  0  0  0  0  0  0  0  2 V2000
  150.6960  140.6992  156.0304 C   0  0  0  0  0  0  0  0  0  0  0  0
  149.6770  140.6516  154.8718 C   0  0  2  0  0  0  0  0  0  0  0  0
  148.3892  141.4176  155.2457 C   0  0  0  0  0  0  0  0  0  0  0  0
  147.3954  141.4645  154.0749 C   0  0  0  0  0  0  0  0  0  0  0  0
  147.0511  140.0556  153.5720 C   0  0  0  0  0  0  0  0  0  0  0  0
  148.3215  139.2748  153.1912 C   0  0  0  0  0  0  0  0  0  0  0  0
  149.3660  139.2183  154.3344 C   0  0  1  0  0  0  0  0  0  0  0  0
  150.5733  138.5641  153.8601 N   0  0  0  0  0  0  0  0  0  0  0  0
  150.8482  137.4271  154.5099 C   0  0  0  0  0  0  0  0  0  0  0  0
  151.8215  136.7053  154.2962 O   0  0  0  0  0  0  0  0  0  0  0  0
  149.8911  137.2255  155.4322 N   0  0  0  0  0  0  0  0  0  0  0  0
  149.8844  136.1016  156.3770 C   0  0  0  0  0  0  0  0  0  0  0  0
  149.3820  134.7985  155.7408 C   0  0  0  0  0  0  0  0  0  0  0  0
  149.0453  133.8434  156.4415 O   0  0  0  0  0  0  0  0  0  0  0  0
  149.3375  134.7760  154.4005 N   0  0  0  0  0  0  0  0  0  0  0  0
  148.9236  133.6326  153.5917 C   0  0  0  0  0  0  0  0  0  0  0  0
  147.4319  133.2769  153.7627 C   0  0  0  0  0  0  0  0  0  0  0  0
  146.7615  132.8262  152.4759 C   0  0  0  0  0  0  0  0  0  0  0  0
  146.2788  131.5052  152.3395 C   0  0  0  0  0  0  0  0  0  0  0  0
  145.6726  131.1117  151.1287 C   0  0  0  0  0  0  0  0  0  0  0  0
  145.5586  132.0491  150.0820 C   0  0  0  0  0  0  0  0  0  0  0  0
  146.0289  133.3047  150.2497 N   0  3  0  0  0  0  0  0  0  0  0  0
  146.6177  133.7200  151.3930 C   0  0  0  0  0  0  0  0  0  0  0  0
  148.9806  138.2089  155.4181 C   0  0  0  0  0  0  0  0  0  0  0  0
  147.9989  138.3121  156.1538 O   0  0  0  0  0  0  0  0  0  0  0  0
  150.3128  140.2135  156.9282 H   0  0  0  0  0  0  0  0  0  0  0  0
  150.9321  141.7299  156.2959 H   0  0  0  0  0  0  0  0  0  0  0  0
  151.6348  140.2138  155.7634 H   0  0  0  0  0  0  0  0  0  0  0  0
  150.1361  141.1999  154.0475 H   0  0  0  0  0  0  0  0  0  0  0  0
  147.9131  140.9611  156.1137 H   0  0  0  0  0  0  0  0  0  0  0  0
  148.6390  142.4370  155.5423 H   0  0  0  0  0  0  0  0  0  0  0  0
  146.4852  141.9807  154.3812 H   0  0  0  0  0  0  0  0  0  0  0  0
  147.8213  142.0491  153.2584 H   0  0  0  0  0  0  0  0  0  0  0  0
  146.4917  139.5182  154.3377 H   0  0  0  0  0  0  0  0  0  0  0  0
  146.3895  140.1244  152.7081 H   0  0  0  0  0  0  0  0  0  0  0  0
  148.0429  138.2675  152.8773 H   0  0  0  0  0  0  0  0  0  0  0  0
  148.7731  139.7441  152.3159 H   0  0  0  0  0  0  0  0  0  0  0  0
  151.1418  138.9451  153.1177 H   0  0  0  0  0  0  0  0  0  0  0  0
  150.8855  135.9287  156.7756 H   0  0  0  0  0  0  0  0  0  0  0  0
  149.2616  136.3540  157.2374 H   0  0  0  0  0  0  0  0  0  0  0  0
  149.6215  135.6081  153.9037 H   0  0  0  0  0  0  0  0  0  0  0  0
  149.1538  133.8128  152.5407 H   0  0  0  0  0  0  0  0  0  0  0  0
  149.5343  132.7833  153.8986 H   0  0  0  0  0  0  0  0  0  0  0  0
  147.3234  132.4913  154.5114 H   0  0  0  0  0  0  0  0  0  0  0  0
  146.8936  134.1391  154.1579 H   0  0  0  0  0  0  0  0  0  0  0  0
  146.3794  130.7967  153.1492 H   0  0  0  0  0  0  0  0  0  0  0  0
  145.3039  130.1037  151.0047 H   0  0  0  0  0  0  0  0  0  0  0  0
  145.1098  131.8340  149.1232 H   0  0  0  0  0  0  0  0  0  0  0  0
  146.9565  134.7456  151.4049 H   0  0  0  0  0  0  0  0  0  0  0  0
  145.9364  133.9676  149.4795 H   0  0  0  0  0  0  0  0  0  0  0  0
  1  2  1  0  0  0  0
  1 26  1  0  0  0  0
  1 27  1  0  0  0  0
  1 28  1  0  0  0  0
  2  7  1  0  0  0  0
  2  3  1  0  0  0  0
  2 29  1  0  0  0  0
  3  4  1  0  0  0  0
  3 30  1  0  0  0  0
  3 31  1  0  0  0  0
  4  5  1  0  0  0  0
  4 32  1  0  0  0  0
  4 33  1  0  0  0  0
  5  6  1  0  0  0  0
  5 34  1  0  0  0  0
  5 35  1  0  0  0  0
  6  7  1  0  0  0  0
  6 36  1  0  0  0  0
  6 37  1  0  0  0  0
  7 24  1  0  0  0  0
  7  8  1  0  0  0  0
  8  9  1  0  0  0  0
  8 38  1  0  0  0  0
  9 10  2  0  0  0  0
  9 11  1  0  0  0  0
 11 12  1  0  0  0  0
 11 24  1  0  0  0  0
 12 13  1  0  0  0  0
 12 39  1  0  0  0  0
 12 40  1  0  0  0  0
 13 14  2  0  0  0  0
 13 15  1  0  0  0  0
 15 16  1  0  0  0  0
 15 41  1  0  0  0  0
 16 17  1  0  0  0  0
 16 42  1  0  0  0  0
 16 43  1  0  0  0  0
 17 18  1  0  0  0  0
 17 44  1  0  0  0  0
 17 45  1  0  0  0  0
 18 23  1  0  0  0  0
 18 19  2  0  0  0  0
 19 20  1  0  0  0  0
 19 46  1  0  0  0  0
 20 21  2  0  0  0  0
 20 47  1  0  0  0  0
 21 22  1  0  0  0  0
 21 48  1  0  0  0  0
 22 23  2  0  0  0  0
 22 50  1  0  0  0  0
 23 49  1  0  0  0  0
 24 25  2  0  0  0  0
M  CHG  1  22   1
M  END
> <s_m_source_file>
AV-unprocessed.smi

> <i_m_source_file_index>
837

> <i_lp_mmshare_version>
43012

> <i_f3d_flags>
0

> <s_epik_input>
W0NIMl0xW0NIMl1bQ0gyXVtDSDJdW0NAQEhdKFtDSDNdKVtDQEBdMTJbTkhdQyg9TylOKEMyPU8pW0NIMl1DKD1PKVtOSF1bQ0gyXVtDSDJdYzNbY0hdW2NIXVtjSF1uW2NIXTM=

> <s_epik_cmdline>
J2VwaWtfcHl0aG9uJywgJy1waCcsICc3LjAnLCAnLXRuJywgJzgnLCAnLW1hJywgJzIwMCcsICctbWV0YWxfYmluZGluZycsICctaW1hZScsICc8aW5maWxlLm1hZT4nLCAnLW9tYWUnLCAnPG91dGZpbGUubWFlPic=

> <r_lp_tautomer_probability>
1

> <r_epik_Ionization_Penalty>
2.28139

> <r_epik_Ionization_Penalty_Charging>
2.28135

> <r_epik_Ionization_Penalty_Neutral>
4.65525e-05

> <r_epik_State_Penalty>
2.43066

> <r_epik_Charging_Adjusted_Penalty>
4.71201

> <i_epik_Tot_Q>
1

> <i_epik_Tot_abs_Q>
1

> <r_epik_Metal_State_Penalty>
2.4646

> <b_epik_Metal_Only>
0

> <s_lp_Force_Field>
OPLS_2005

> <r_lp_Energy>
25.0324

> <b_lp_Chiralities_Consistent>
1

> <s_lp_Variant>
AV-unprocessed.smi:837-7

> <Gold.Version>
5.8.1

> <Gold.Id.Protein>
6NUR|6NUR_protein|mol2

> <Gold.PLP.Fitness>
42.7073

> <Gold.PLP.PLP>
-37.2435

> <Gold.PLP.part.hbond>
-3.3038

> <Gold.PLP.part.metal>
0.0000

> <Gold.PLP.part.buried>
-0.7982

> <Gold.PLP.part.nonpolar>
-35.3324

> <Gold.PLP.part.repulsive>
1.2103

> <Gold.PLP.ligand.clash>
0.0000

> <Gold.PLP.ligand.torsion>
0.7454

> <Gold.PLP.Chemscore.Hbond>
2.3089

> <Gold.PLP.Chemscore.CHOScore>
0.0000

> <Gold.PLP.Chemscore.Metal>
0.0000

> <Gold.Chemscore.Hbonds>
donor molecule, donor type, donor heavy atom, donor atom, acceptor molecule, acceptor atom, score
      L1  H    15    41       P1  7948  0.31
      L1  H    22    50       P1  7921  0.94
      P1  H 10752 10763       L1    10  1.00

> <Gold.PLP.Chemscore.Internal.Correction>
0.0279

> <Gold.Rescore>
     Score         DG    S(hbond)    S(metal)    S(lipo)     H(rot)  DE(clash)    DE(int)     intcor
     14.51     -17.67       1.91        0.00      92.70       1.96       1.89       1.27       ----

> <Gold.Chemscore.Fitness>
14.5117

> <Gold.Chemscore.DG>
-17.6676

> <Gold.Chemscore.ZeroCoef>
-5.4800

> <Gold.Chemscore.Hbond>
1.9069

> <Gold.Chemscore.Metal>
0.0000

> <Gold.Chemscore.Lipo>
92.6999

> <Gold.Chemscore.Internal_Hbond>
0.0000

> <Gold.Chemscore.DEClash>
1.8879

> <Gold.Chemscore.DEInternal>
1.2681

> <Gold.Chemscore.Rot>
1.9638

> <Gold.Chemscore.Internal.Correction>
   9.000000E+99

> <Gold.Chemscore.Hbonds>
donor molecule, donor type, donor heavy atom, donor atom, acceptor molecule, acceptor atom, score
      L1  H    15    41       P1  7948  0.08
      L1  H    22    50       P1  7921  0.20
      P1  H 10752 10763       L1    10  0.93

> <Gold.Chemscore.Hbond.Weighted>
-6.3692

> <Gold.Chemscore.Metal.Weighted>
-0.0000

> <Gold.Chemscore.Lipo.Weighted>
-10.8459

> <Gold.Chemscore.Internal_Hbond.Weighted>
0.0000

> <Gold.Chemscore.DEClash.Weighted>
1.8879

> <Gold.Chemscore.DEInternal.Weighted>
1.2681

> <Gold.Chemscore.Rot.Weighted>
5.0274

> <Gold.Chemscore.Internal.Correction.Weighted>
   9.000000E+99

> <Gold.Protein.RotatedTorsions>
[ 6907 6896 6895 6894 ] final  -18.40 input  -60.11 | X-H torsion
[ 7974 7965 7964 7962 ] final   45.74 input  175.53 | X-H torsion
[ 8008 7997 7996 7995 ] final  103.18 input   59.86 | X-H torsion
[ 10167 10162 10161 10158 ] final -144.08 input  -65.29 | X-H torsion
[ 10718 10713 10712 10709 ] final   97.77 input   66.30 | X-H torsion
[ 10763 10752 10751 10750 ] final   44.91 input  -60.55 | X-H torsion
[ 11005 11000 10999 10996 ] final  -67.99 input  -57.11 | X-H torsion

> <Gold.Protein.ActiveResidues>
 VAL166  LYS551  ARG553  GLY616  TRP617  ASP618  TYR619  PRO620  LYS621  CYS622 
 ASP623  PHE694  ASN695  SER759  ASP760  ASP761  ALA762  ILE779  LEU786  VAL792 
 PHE793  MET794  SER795  GLU796  ALA797  LYS798  CYS799  TRP800  GLU811  SER814 

> <Gold.Protein.RotatedAtoms>
  151.2788  135.0707  159.9161 H   0  0  0  0  0  0  0  0  0  0  0  0  # atno 6907 bound_to 6896
  152.5338  134.0053  159.7924 H   0  0  0  0  0  0  0  0  0  0  0  0  # atno 6908 bound_to 6896
  151.0303  133.5746  159.2692 H   0  0  0  0  0  0  0  0  0  0  0  0  # atno 6909 bound_to 6896
  146.0452  139.4931  142.9753 H   0  0  0  0  0  0  0  0  0  0  0  0  # atno 7974 bound_to 7965
  156.1461  140.3169  155.8572 H   0  0  0  0  0  0  0  0  0  0  0  0  # atno 8008 bound_to 7997
  155.4061  140.0503  157.3051 H   0  0  0  0  0  0  0  0  0  0  0  0  # atno 8009 bound_to 7997
  154.5017  140.2132  155.9344 H   0  0  0  0  0  0  0  0  0  0  0  0  # atno 8010 bound_to 7997
  139.7932  143.7936  152.2652 H   0  0  0  0  0  0  0  0  0  0  0  0  # atno 10167 bound_to 10162
  157.6907  131.0620  150.4695 H   0  0  0  0  0  0  0  0  0  0  0  0  # atno 10718 bound_to 10713
  152.9833  135.6056  154.3351 H   0  0  0  0  0  0  0  0  0  0  0  0  # atno 10763 bound_to 10752
  154.3052  135.2772  155.2594 H   0  0  0  0  0  0  0  0  0  0  0  0  # atno 10764 bound_to 10752
  154.4828  135.5912  153.6458 H   0  0  0  0  0  0  0  0  0  0  0  0  # atno 10765 bound_to 10752
  141.1521  133.6731  156.6377 H   0  0  0  0  0  0  0  0  0  0  0  0  # atno 11005 bound_to 11000
  145.6817  141.0189  143.1603 LP  0  0  0  0  0  0  0  0  0  0  0  0  # atno 17320 bound_to 7965
  144.7094  139.8429  143.7419 LP  0  0  0  0  0  0  0  0  0  0  0  0  # atno 17321 bound_to 7965
  139.8034  144.7365  150.9794 LP  0  0  0  0  0  0  0  0  0  0  0  0  # atno 17342 bound_to 10162
  140.7820  143.4322  151.0677 LP  0  0  0  0  0  0  0  0  0  0  0  0  # atno 17343 bound_to 10162
  156.5034  130.4122  149.6341 LP  0  0  0  0  0  0  0  0  0  0  0  0  # atno 17370 bound_to 10713
  156.3307  130.7330  151.2259 LP  0  0  0  0  0  0  0  0  0  0  0  0  # atno 17371 bound_to 10713
  140.3418  134.7843  157.4403 LP  0  0  0  0  0  0  0  0  0  0  0  0  # atno 17394 bound_to 11000
  140.0932  134.5573  155.8424 LP  0  0  0  0  0  0  0  0  0  0  0  0  # atno 17395 bound_to 11000

$$$$
