#       Name:                AV-unprocessed.smi:1914
#       Creating user name   scv26
#       Creation time:       Fri Mar 27 09:49:42 2020


#       File generated by GOLD software.
#

@<TRIPOS>MOLECULE
AV-unprocessed.smi:1914
    48    49     1
SMALL
NO_CHARGES


@<TRIPOS>ATOM
      1 ****        -3.8093   4.2821   0.5425 C.3            1 S1                 0.0000
      2 ****        -2.8655   3.5031  -0.3844 C.3            1 S1                 0.0000
      3 ****        -3.5742   3.0837  -1.6831 C.3            1 S1                 0.0000
      4 ****        -2.6168   2.2852  -2.5765 C.3            1 S1                 0.0000
      5 ****        -2.0302   1.0841  -1.8180 C.3            1 S1                 0.0000
      6 ****        -1.3477   1.5189  -0.5717 N.4            1 S1                 1.0000
      7 ****        -0.6555   0.3945   0.1074 C.3            1 S1                 0.0000
      8 ****         0.4759   0.8734   1.0382 C.3            1 S1                 0.0000
      9 ****         1.1724  -0.2508   1.6522 N.am           1 S1                 0.0000
     10 ****         2.0974  -1.0069   1.0416 C.2            1 S1                 0.0000
     11 ****         2.4711  -0.8077  -0.1151 O.2            1 S1                 0.0000
     12 ****         2.6948  -2.1499   1.8743 C.3            1 S1                 0.0000
     13 ****         3.1650  -3.2790   1.0543 N.am           1 S1                 0.0000
     14 ****         4.5491  -3.3588   0.8021 C.2            1 S1                 0.0000
     15 ****         5.0808  -4.3485   0.0672 C.2            1 S1                 0.0000
     16 ****         4.1932  -5.3514  -0.4717 C.2            1 S1                 0.0000
     17 ****         2.8672  -5.2824  -0.2400 C.2            1 S1                 0.0000
     18 ****         2.2812  -4.2007   0.5600 C.2            1 S1                 0.0000
     19 ****         1.0703  -4.1260   0.7722 O.2            1 S1                 0.0000
     20 ****        -2.2711   2.2682   0.3229 C.3            1 S1                 0.0000
     21 ****        -4.6582   3.6702   0.8495 H              1 S1                 0.0000
     22 ****        -4.2015   5.1704   0.0464 H              1 S1                 0.0000
     23 ****        -3.2923   4.6110   1.4445 H              1 S1                 0.0000
     24 ****        -2.0424   4.1690  -0.6484 H              1 S1                 0.0000
     25 ****        -4.4511   2.4772  -1.4514 H              1 S1                 0.0000
     26 ****        -3.9356   3.9624  -2.2188 H              1 S1                 0.0000
     27 ****        -3.1399   1.9423  -3.4697 H              1 S1                 0.0000
     28 ****        -1.8091   2.9326  -2.9205 H              1 S1                 0.0000
     29 ****        -2.8188   0.3704  -1.5727 H              1 S1                 0.0000
     30 ****        -1.3230   0.5655  -2.4668 H              1 S1                 0.0000
     31 ****        -1.3794  -0.2110   0.6547 H              1 S1                 0.0000
     32 ****        -0.2209  -0.2593  -0.6500 H              1 S1                 0.0000
     33 ****         1.1848   1.4968   0.4906 H              1 S1                 0.0000
     34 ****         0.0823   1.4876   1.8467 H              1 S1                 0.0000
     35 ****         0.9297  -0.4759   2.6065 H              1 S1                 0.0000
     36 ****         3.5099  -1.7420   2.4732 H              1 S1                 0.0000
     37 ****         1.9565  -2.5013   2.5979 H              1 S1                 0.0000
     38 ****         5.1438  -2.5674   1.2348 H              1 S1                 0.0000
     39 ****         6.1441  -4.3916  -0.1185 H              1 S1                 0.0000
     40 ****         4.5941  -6.1603  -1.0644 H              1 S1                 0.0000
     41 ****         2.2185  -6.0413  -0.6522 H              1 S1                 0.0000
     42 ****        -1.7421   2.5964   1.2168 H              1 S1                 0.0000
     43 ****        -3.0702   1.6043   0.6575 H              1 S1                 0.0000
     44 ****        -0.6259   2.1643  -0.8596 H              1 S1                 0.0000
     45 ****         2.0814  -0.0535  -0.6436 LP             1 S1                 0.0000
     46 ****         3.1641  -1.4003  -0.5257 LP             1 S1                 0.0000
     47 ****         0.7043  -3.3745   1.3211 LP             1 S1                 0.0000
     48 ****         0.4531  -4.8169   0.3956 LP             1 S1                 0.0000
@<TRIPOS>BOND
    1    1    2 1     
    2    1   21 1     
    3    1   22 1     
    4    1   23 1     
    5    2   20 1     
    6    2    3 1     
    7    2   24 1     
    8    3    4 1     
    9    3   25 1     
   10    3   26 1     
   11    4    5 1     
   12    4   27 1     
   13    4   28 1     
   14    5    6 1     
   15    5   29 1     
   16    5   30 1     
   17    6    7 1     
   18    6   20 1     
   19    6   44 1     
   20    7    8 1     
   21    7   31 1     
   22    7   32 1     
   23    8    9 1     
   24    8   33 1     
   25    8   34 1     
   26    9   10 am    
   27    9   35 1     
   28   10   11 2     
   29   10   12 1     
   30   12   13 1     
   31   12   36 1     
   32   12   37 1     
   33   13   18 am    
   34   13   14 1     
   35   14   15 2     
   36   14   38 1     
   37   15   16 1     
   38   15   39 1     
   39   16   17 2     
   40   16   40 1     
   41   17   18 1     
   42   17   41 1     
   43   18   19 2     
   44   20   42 1     
   45   20   43 1     
   46   11   45 1     
   47   11   46 1     
   48   19   47 1     
   49   19   48 1     
@<TRIPOS>SUBSTRUCTURE
      1 S1             1
@<TRIPOS>SET
LONE_PAIRS      STATIC     ATOMS    <user>   **** ""
4 45 46 47 48
DONOR_HYDROGENS      STATIC     ATOMS    <user>   **** ""
2 44 35
ATOM$BLUE        STATIC     ATOMS    COLORGROUP SYSTEM
4 45 46 47 48
ATOM$RED        STATIC     ATOMS    COLORGROUP SYSTEM
2 44 35
