AV-unprocessed.smi:3009|AV-procd|sdf|11454|dock9
  -GOLD-   2272016383D 1   1.00000     0.00000
 Structure written by MMmdl.
 43 44  0  0  0  0  0  0  0  0  1 V2000
  150.8208  137.0377  154.5238 C   0  0  0  0  0  0  0  0  0  0  0  0
  151.5040  138.3550  154.1220 C   0  0  0  0  0  0  0  0  0  0  0  0
  152.9844  138.3396  154.5289 C   0  0  0  0  0  0  0  0  0  0  0  0
  150.7911  139.5805  154.7336 C   0  0  0  0  0  0  0  0  0  0  0  0
  149.5698  140.0142  154.0530 N   0  0  0  0  0  0  0  0  0  0  0  0
  149.0116  141.2409  154.6182 C   0  0  0  0  0  0  0  0  0  0  0  0
  147.7180  141.6650  153.9019 C   0  0  0  0  0  0  0  0  0  0  0  0
  146.7701  140.6042  153.9473 O   0  0  0  0  0  0  0  0  0  0  0  0
  147.2569  139.3955  153.3698 C   0  0  2  0  0  0  0  0  0  0  0  0
  146.1460  138.3284  153.4061 C   0  0  0  0  0  0  0  0  0  0  0  0
  146.4029  137.2125  152.4997 N   0  0  0  0  0  0  0  0  0  0  0  0
  145.4671  136.3974  151.9937 C   0  0  0  0  0  0  0  0  0  0  0  0
  144.2639  136.5107  152.2283 O   0  0  0  0  0  0  0  0  0  0  0  0
  146.0148  135.4554  151.2085 N   0  0  0  0  0  0  0  0  0  0  0  0
  145.3425  134.4266  150.5014 C   0  0  0  0  0  0  0  0  0  0  0  0
  145.9357  133.1984  150.1013 C   0  0  0  0  0  0  0  0  0  0  0  0
  145.0694  132.4304  149.4558 N   0  0  0  0  0  0  0  0  0  0  0  0
  143.9288  133.1567  149.4403 N   0  0  0  0  0  0  0  0  0  0  0  0
  144.0479  134.3782  150.0656 C   0  0  0  0  0  0  0  0  0  0  0  0
  148.5515  138.9708  154.0959 C   0  0  0  0  0  0  0  0  0  0  0  0
  143.0869  132.8093  149.0033 H   0  0  0  0  0  0  0  0  0  0  0  0
  150.8162  136.9068  155.6062 H   0  0  0  0  0  0  0  0  0  0  0  0
  151.3337  136.1807  154.0865 H   0  0  0  0  0  0  0  0  0  0  0  0
  149.7864  137.0065  154.1804 H   0  0  0  0  0  0  0  0  0  0  0  0
  151.4816  138.4290  153.0353 H   0  0  0  0  0  0  0  0  0  0  0  0
  153.0986  138.2576  155.6104 H   0  0  0  0  0  0  0  0  0  0  0  0
  153.4887  139.2520  154.2094 H   0  0  0  0  0  0  0  0  0  0  0  0
  153.5092  137.4991  154.0739 H   0  0  0  0  0  0  0  0  0  0  0  0
  150.5510  139.3400  155.7703 H   0  0  0  0  0  0  0  0  0  0  0  0
  151.4902  140.4170  154.7806 H   0  0  0  0  0  0  0  0  0  0  0  0
  148.8066  141.1002  155.6806 H   0  0  0  0  0  0  0  0  0  0  0  0
  149.7294  142.0564  154.5421 H   0  0  0  0  0  0  0  0  0  0  0  0
  147.2899  142.5453  154.3816 H   0  0  0  0  0  0  0  0  0  0  0  0
  147.9229  141.9333  152.8644 H   0  0  0  0  0  0  0  0  0  0  0  0
  147.4902  139.5943  152.3222 H   0  0  0  0  0  0  0  0  0  0  0  0
  145.9992  137.9711  154.4266 H   0  0  0  0  0  0  0  0  0  0  0  0
  145.2010  138.7823  153.1073 H   0  0  0  0  0  0  0  0  0  0  0  0
  147.3661  137.0436  152.2492 H   0  0  0  0  0  0  0  0  0  0  0  0
  147.0183  135.4785  151.1026 H   0  0  0  0  0  0  0  0  0  0  0  0
  146.9454  132.8464  150.2536 H   0  0  0  0  0  0  0  0  0  0  0  0
  143.2253  135.0741  150.1368 H   0  0  0  0  0  0  0  0  0  0  0  0
  148.9379  138.0605  153.6358 H   0  0  0  0  0  0  0  0  0  0  0  0
  148.3291  138.7236  155.1351 H   0  0  0  0  0  0  0  0  0  0  0  0
  1  2  1  0  0  0  0
  1 22  1  0  0  0  0
  1 23  1  0  0  0  0
  1 24  1  0  0  0  0
  2  3  1  0  0  0  0
  2  4  1  0  0  0  0
  2 25  1  0  0  0  0
  3 26  1  0  0  0  0
  3 27  1  0  0  0  0
  3 28  1  0  0  0  0
  4  5  1  0  0  0  0
  4 29  1  0  0  0  0
  4 30  1  0  0  0  0
  5 20  1  0  0  0  0
  5  6  1  0  0  0  0
  6  7  1  0  0  0  0
  6 31  1  0  0  0  0
  6 32  1  0  0  0  0
  7  8  1  0  0  0  0
  7 33  1  0  0  0  0
  7 34  1  0  0  0  0
  8  9  1  0  0  0  0
  9 10  1  0  0  0  0
  9 20  1  0  0  0  0
  9 35  1  0  0  0  0
 10 11  1  0  0  0  0
 10 36  1  0  0  0  0
 10 37  1  0  0  0  0
 11 12  1  0  0  0  0
 11 38  1  0  0  0  0
 12 13  2  0  0  0  0
 12 14  1  0  0  0  0
 14 15  1  0  0  0  0
 14 39  1  0  0  0  0
 15 19  2  0  0  0  0
 15 16  1  0  0  0  0
 16 17  2  0  0  0  0
 16 40  1  0  0  0  0
 17 18  1  0  0  0  0
 18 21  1  0  0  0  0
 18 19  1  0  0  0  0
 19 41  1  0  0  0  0
 20 42  1  0  0  0  0
 20 43  1  0  0  0  0
M  END
> <s_m_source_file>
AV-unprocessed.smi

> <i_m_source_file_index>
3009

> <i_lp_mmshare_version>
43012

> <i_f3d_flags>
0

> <s_epik_input>
W0NIM11bQ0hdKFtDSDNdKVtDSDJdTjFbQ0gyXVtDSDJdT1tDQEhdKFtDSDJdMSlbQ0gyXVtOSF1DKD1PKVtOSF1jMltjSF1uW25IXVtjSF0y

> <s_epik_cmdline>
J2VwaWtfcHl0aG9uJywgJy1waCcsICc3LjAnLCAnLXRuJywgJzgnLCAnLW1hJywgJzIwMCcsICctbWV0YWxfYmluZGluZycsICctaW1hZScsICc8aW5maWxlLm1hZT4nLCAnLW9tYWUnLCAnPG91dGZpbGUubWFlPic=

> <r_lp_tautomer_probability>
0.5

> <r_epik_Ionization_Penalty>
1.11801

> <r_epik_Ionization_Penalty_Charging>
0

> <r_epik_Ionization_Penalty_Neutral>
1.11801

> <r_epik_State_Penalty>
1.17654

> <r_epik_Charging_Adjusted_Penalty>
1.17654

> <i_epik_Tot_Q>
0

> <i_epik_Tot_abs_Q>
0

> <r_epik_Metal_State_Penalty>
1.17654

> <b_epik_Metal_Only>
0

> <s_lp_Force_Field>
OPLS_2005

> <r_lp_Energy>
28.7191

> <b_lp_Chiralities_Consistent>
1

> <s_lp_Variant>
AV-unprocessed.smi:3009-6

> <Gold.Version>
5.8.1

> <Gold.Id.Protein>
6NUR|6NUR_protein|mol2

> <Gold.PLP.Fitness>
45.6323

> <Gold.PLP.PLP>
-35.2622

> <Gold.PLP.part.hbond>
-2.6208

> <Gold.PLP.part.metal>
0.0000

> <Gold.PLP.part.buried>
-5.9498

> <Gold.PLP.part.nonpolar>
-28.9431

> <Gold.PLP.part.repulsive>
1.7374

> <Gold.PLP.ligand.clash>
0.0000

> <Gold.PLP.ligand.torsion>
0.6266

> <Gold.PLP.Chemscore.Hbond>
2.0000

> <Gold.PLP.Chemscore.CHOScore>
1.8687

> <Gold.PLP.Chemscore.Metal>
0.0000

> <Gold.Chemscore.Hbonds>
donor molecule, donor type, donor heavy atom, donor atom, acceptor molecule, acceptor atom, score
      L1  H    11    38       P1  7948  1.00
      L1  H    14    39       P1  7948  0.67
      L1  C    16    40       P1 10747  0.25
      L1  C    19    41       P1 10186  0.84

> <Gold.PLP.Chemscore.Internal.Correction>
0.0172

> <Gold.Rescore>
     Score         DG    S(hbond)    S(metal)    S(lipo)     H(rot)  DE(clash)    DE(int)     intcor
     16.04     -16.94       1.95        0.00      80.82       1.76       0.03       0.86       ----

> <Gold.Chemscore.Fitness>
16.0428

> <Gold.Chemscore.DG>
-16.9362

> <Gold.Chemscore.ZeroCoef>
-5.4800

> <Gold.Chemscore.Hbond>
1.9455

> <Gold.Chemscore.Metal>
0.0000

> <Gold.Chemscore.Lipo>
80.8170

> <Gold.Chemscore.Internal_Hbond>
0.0000

> <Gold.Chemscore.DEClash>
0.0323

> <Gold.Chemscore.DEInternal>
0.8611

> <Gold.Chemscore.Rot>
1.7568

> <Gold.Chemscore.Internal.Correction>
   9.000000E+99

> <Gold.Chemscore.Hbonds>
donor molecule, donor type, donor heavy atom, donor atom, acceptor molecule, acceptor atom, score
      L1  H    11    38       P1  7948  1.00
      L1  H    14    39       P1  7948  0.57

> <Gold.Chemscore.Hbond.Weighted>
-6.4980

> <Gold.Chemscore.Metal.Weighted>
-0.0000

> <Gold.Chemscore.Lipo.Weighted>
-9.4556

> <Gold.Chemscore.Internal_Hbond.Weighted>
0.0000

> <Gold.Chemscore.DEClash.Weighted>
0.0323

> <Gold.Chemscore.DEInternal.Weighted>
0.8611

> <Gold.Chemscore.Rot.Weighted>
4.4974

> <Gold.Chemscore.Internal.Correction.Weighted>
   9.000000E+99

> <Gold.Protein.RotatedTorsions>
[ 6907 6896 6895 6894 ] final  174.13 input  -60.11 | X-H torsion
[ 7974 7965 7964 7962 ] final  126.98 input  175.53 | X-H torsion
[ 8008 7997 7996 7995 ] final   66.49 input   59.86 | X-H torsion
[ 10167 10162 10161 10158 ] final   92.87 input  -65.29 | X-H torsion
[ 10718 10713 10712 10709 ] final -119.39 input   66.30 | X-H torsion
[ 10763 10752 10751 10750 ] final   95.71 input  -60.55 | X-H torsion
[ 11005 11000 10999 10996 ] final  171.08 input  -57.11 | X-H torsion

> <Gold.Protein.ActiveResidues>
 VAL166  LYS551  ARG553  GLY616  TRP617  ASP618  TYR619  PRO620  LYS621  CYS622 
 ASP623  PHE694  ASN695  SER759  ASP760  ASP761  ALA762  ILE779  LEU786  VAL792 
 PHE793  MET794  SER795  GLU796  ALA797  LYS798  CYS799  TRP800  GLU811  SER814 

> <Gold.Protein.RotatedAtoms>
  151.7572  133.3331  159.3407 H   0  0  0  0  0  0  0  0  0  0  0  0  # atno 6907 bound_to 6896
  150.7512  134.6139  159.6110 H   0  0  0  0  0  0  0  0  0  0  0  0  # atno 6908 bound_to 6896
  152.3429  134.7112  160.0310 H   0  0  0  0  0  0  0  0  0  0  0  0  # atno 6909 bound_to 6896
  145.0556  139.3847  143.5032 H   0  0  0  0  0  0  0  0  0  0  0  0  # atno 7974 bound_to 7965
  155.6782  140.3496  155.4845 H   0  0  0  0  0  0  0  0  0  0  0  0  # atno 8008 bound_to 7997
  155.9630  140.1141  157.0902 H   0  0  0  0  0  0  0  0  0  0  0  0  # atno 8009 bound_to 7997
  154.4147  140.1172  156.5190 H   0  0  0  0  0  0  0  0  0  0  0  0  # atno 8010 bound_to 7997
  139.8235  144.6720  150.9489 H   0  0  0  0  0  0  0  0  0  0  0  0  # atno 10167 bound_to 10162
  156.1178  130.6299  150.9410 H   0  0  0  0  0  0  0  0  0  0  0  0  # atno 10718 bound_to 10713
  153.2564  135.4244  155.0850 H   0  0  0  0  0  0  0  0  0  0  0  0  # atno 10763 bound_to 10752
  154.8403  135.3438  154.6439 H   0  0  0  0  0  0  0  0  0  0  0  0  # atno 10764 bound_to 10752
  153.6860  135.7036  153.5161 H   0  0  0  0  0  0  0  0  0  0  0  0  # atno 10765 bound_to 10752
  140.3152  134.7483  157.4022 H   0  0  0  0  0  0  0  0  0  0  0  0  # atno 11005 bound_to 11000
  146.3521  140.0228  142.8657 LP  0  0  0  0  0  0  0  0  0  0  0  0  # atno 17320 bound_to 7965
  145.1472  140.9604  143.4454 LP  0  0  0  0  0  0  0  0  0  0  0  0  # atno 17321 bound_to 7965
  140.7812  143.4069  151.1056 LP  0  0  0  0  0  0  0  0  0  0  0  0  # atno 17342 bound_to 10162
  139.7728  143.8469  152.3123 LP  0  0  0  0  0  0  0  0  0  0  0  0  # atno 17343 bound_to 10162
  157.6361  131.0916  150.8345 LP  0  0  0  0  0  0  0  0  0  0  0  0  # atno 17370 bound_to 10713
  156.8446  130.5060  149.5317 LP  0  0  0  0  0  0  0  0  0  0  0  0  # atno 17371 bound_to 10713
  140.0990  134.5498  155.8371 LP  0  0  0  0  0  0  0  0  0  0  0  0  # atno 17394 bound_to 11000
  141.2099  133.6689  156.6473 LP  0  0  0  0  0  0  0  0  0  0  0  0  # atno 17395 bound_to 11000

$$$$
