AV-unprocessed.smi:2691|AV-procd|sdf|10390|dock10
  -GOLD-   2272014423D 1   1.00000     0.00000
 Structure written by MMmdl.
 49 51  0  0  0  0  0  0  0  0  1 V2000
  153.4251  142.6696  161.0196 C   0  0  0  0  0  0  0  0  0  0  0  0
  152.6300  142.2387  159.8000 C   0  0  0  0  0  0  0  0  0  0  0  0
  152.5410  140.8633  159.4887 C   0  0  0  0  0  0  0  0  0  0  0  0
  151.8156  140.4212  158.3610 C   0  0  0  0  0  0  0  0  0  0  0  0
  151.5994  139.1423  157.8769 N   0  0  0  0  0  0  0  0  0  0  0  0
  150.8559  139.3858  156.8017 C   0  0  0  0  0  0  0  0  0  0  0  0
  150.5720  140.6733  156.5259 N   0  0  0  0  0  0  0  0  0  0  0  0
  149.7980  141.1802  155.4067 C   0  0  0  0  0  0  0  0  0  0  0  0
  149.1881  140.0499  154.5534 C   0  0  2  0  0  0  0  0  0  0  0  0
  150.1474  139.7103  153.5734 O   0  0  0  0  0  0  0  0  0  0  0  0
  147.8715  140.4476  153.8409 C   0  0  0  0  0  0  0  0  0  0  0  0
  147.0407  139.2733  153.5338 N   0  0  0  0  0  0  0  0  0  0  0  0
  146.9015  138.9440  152.1726 C   0  0  0  0  0  0  0  0  0  0  0  0
  146.2028  137.9244  151.7865 N   0  0  0  0  0  0  0  0  0  0  0  0
  145.5645  137.1176  152.7368 C   0  0  0  0  0  0  0  0  0  0  0  0
  144.7614  135.9272  152.2290 C   0  0  0  0  0  0  0  0  0  0  0  0
  144.9834  135.6907  150.7263 C   0  0  0  0  0  0  0  0  0  0  0  0
  143.2692  136.0788  152.5618 C   0  0  0  0  0  0  0  0  0  0  0  0
  145.6752  137.3910  154.0588 C   0  0  0  0  0  0  0  0  0  0  0  0
  146.4578  138.5360  154.5241 C   0  0  0  0  0  0  0  0  0  0  0  0
  146.5857  138.8110  155.7173 O   0  0  0  0  0  0  0  0  0  0  0  0
  151.1777  141.4006  157.5450 C   0  0  0  0  0  0  0  0  0  0  0  0
  151.2539  142.7717  157.8475 C   0  0  0  0  0  0  0  0  0  0  0  0
  151.9824  143.1961  158.9784 C   0  0  0  0  0  0  0  0  0  0  0  0
  152.0621  144.6791  159.2941 C   0  0  0  0  0  0  0  0  0  0  0  0
  153.8837  141.8151  161.5182 H   0  0  0  0  0  0  0  0  0  0  0  0
  152.7780  143.1700  161.7403 H   0  0  0  0  0  0  0  0  0  0  0  0
  154.2223  143.3558  160.7332 H   0  0  0  0  0  0  0  0  0  0  0  0
  153.0327  140.1335  160.1148 H   0  0  0  0  0  0  0  0  0  0  0  0
  150.5065  138.5819  156.1706 H   0  0  0  0  0  0  0  0  0  0  0  0
  149.0136  141.8351  155.7896 H   0  0  0  0  0  0  0  0  0  0  0  0
  150.4566  141.8016  154.7982 H   0  0  0  0  0  0  0  0  0  0  0  0
  149.0338  139.1772  155.1890 H   0  0  0  0  0  0  0  0  0  0  0  0
  149.7518  139.8033  152.7201 H   0  0  0  0  0  0  0  0  0  0  0  0
  147.2811  141.1155  154.4687 H   0  0  0  0  0  0  0  0  0  0  0  0
  148.0787  141.0502  152.9538 H   0  0  0  0  0  0  0  0  0  0  0  0
  147.4231  139.6014  151.4750 H   0  0  0  0  0  0  0  0  0  0  0  0
  145.1200  135.0386  152.7503 H   0  0  0  0  0  0  0  0  0  0  0  0
  146.0425  135.5604  150.5021 H   0  0  0  0  0  0  0  0  0  0  0  0
  144.6161  136.5260  150.1290 H   0  0  0  0  0  0  0  0  0  0  0  0
  144.4636  134.7928  150.3909 H   0  0  0  0  0  0  0  0  0  0  0  0
  143.1188  136.2203  153.6326 H   0  0  0  0  0  0  0  0  0  0  0  0
  142.7104  135.1906  152.2660 H   0  0  0  0  0  0  0  0  0  0  0  0
  142.8287  136.9339  152.0479 H   0  0  0  0  0  0  0  0  0  0  0  0
  145.1838  136.7619  154.7867 H   0  0  0  0  0  0  0  0  0  0  0  0
  150.7591  143.4907  157.2118 H   0  0  0  0  0  0  0  0  0  0  0  0
  151.4609  145.2664  158.5994 H   0  0  0  0  0  0  0  0  0  0  0  0
  153.0926  145.0282  159.2246 H   0  0  0  0  0  0  0  0  0  0  0  0
  151.6956  144.8774  160.3016 H   0  0  0  0  0  0  0  0  0  0  0  0
  1  2  1  0  0  0  0
  1 26  1  0  0  0  0
  1 27  1  0  0  0  0
  1 28  1  0  0  0  0
  2 24  1  0  0  0  0
  2  3  2  0  0  0  0
  3  4  1  0  0  0  0
  3 29  1  0  0  0  0
  4 22  2  0  0  0  0
  4  5  1  0  0  0  0
  5  6  2  0  0  0  0
  6  7  1  0  0  0  0
  6 30  1  0  0  0  0
  7  8  1  0  0  0  0
  7 22  1  0  0  0  0
  8  9  1  0  0  0  0
  8 31  1  0  0  0  0
  8 32  1  0  0  0  0
  9 10  1  0  0  0  0
  9 11  1  0  0  0  0
  9 33  1  0  0  0  0
 10 34  1  0  0  0  0
 11 12  1  0  0  0  0
 11 35  1  0  0  0  0
 11 36  1  0  0  0  0
 12 20  1  0  0  0  0
 12 13  1  0  0  0  0
 13 14  2  0  0  0  0
 13 37  1  0  0  0  0
 14 15  1  0  0  0  0
 15 16  1  0  0  0  0
 15 19  2  0  0  0  0
 16 17  1  0  0  0  0
 16 18  1  0  0  0  0
 16 38  1  0  0  0  0
 17 39  1  0  0  0  0
 17 40  1  0  0  0  0
 17 41  1  0  0  0  0
 18 42  1  0  0  0  0
 18 43  1  0  0  0  0
 18 44  1  0  0  0  0
 19 20  1  0  0  0  0
 19 45  1  0  0  0  0
 20 21  2  0  0  0  0
 22 23  1  0  0  0  0
 23 24  2  0  0  0  0
 23 46  1  0  0  0  0
 24 25  1  0  0  0  0
 25 47  1  0  0  0  0
 25 48  1  0  0  0  0
 25 49  1  0  0  0  0
M  END
> <s_m_source_file>
AV-unprocessed.smi

> <i_m_source_file_index>
2691

> <i_lp_mmshare_version>
43012

> <i_f3d_flags>
0

> <s_epik_input>
W0NIM11jKFtjSF0xKWMoW0NIM10pW2NIXWMoYzEyKW4oW2NIXW4yKVtDSDJdW0NASF0oW09IXSlbQ0gyXW4zW2NIXW5jKFtDSF0oW0NIM10pW0NIM10pW2NIXWMzPU8=

> <s_epik_cmdline>
J2VwaWtfcHl0aG9uJywgJy1waCcsICc3LjAnLCAnLXRuJywgJzgnLCAnLW1hJywgJzIwMCcsICctbWV0YWxfYmluZGluZycsICctaW1hZScsICc8aW5maWxlLm1hZT4nLCAnLW9tYWUnLCAnPG91dGZpbGUubWFlPic=

> <r_lp_tautomer_probability>
1

> <r_epik_Ionization_Penalty>
0.113357

> <r_epik_Ionization_Penalty_Charging>
3.84185e-08

> <r_epik_Ionization_Penalty_Neutral>
0.113357

> <r_epik_State_Penalty>
0.103025

> <r_epik_Charging_Adjusted_Penalty>
0.103025

> <i_epik_Tot_Q>
0

> <i_epik_Tot_abs_Q>
0

> <r_epik_Metal_State_Penalty>
0.0863451

> <b_epik_Metal_Only>
0

> <s_lp_Force_Field>
OPLS_2005

> <r_lp_Energy>
18.3457

> <b_lp_Chiralities_Consistent>
1

> <s_lp_Variant>
AV-unprocessed.smi:2691-1

> <Gold.Version>
5.8.1

> <Gold.Id.Protein>
6NUR|6NUR_protein|mol2

> <Gold.PLP.Fitness>
54.9372

> <Gold.PLP.PLP>
-48.0397

> <Gold.PLP.part.hbond>
-1.9015

> <Gold.PLP.part.metal>
0.0000

> <Gold.PLP.part.buried>
-4.6446

> <Gold.PLP.part.nonpolar>
-42.1339

> <Gold.PLP.part.repulsive>
0.4497

> <Gold.PLP.ligand.clash>
0.0000

> <Gold.PLP.ligand.torsion>
0.8066

> <Gold.PLP.Chemscore.Hbond>
1.8160

> <Gold.PLP.Chemscore.CHOScore>
1.0000

> <Gold.PLP.Chemscore.Metal>
0.0000

> <Gold.Chemscore.Hbonds>
donor molecule, donor type, donor heavy atom, donor atom, acceptor molecule, acceptor atom, score
      L1  H    10    34       P1  7957  1.00
      P1  H  7989  7998       L1    10  0.80
      L1  C    13    37       P1  7957  1.00

> <Gold.PLP.Chemscore.Internal.Correction>
0.0627

> <Gold.Rescore>
     Score         DG    S(hbond)    S(metal)    S(lipo)     H(rot)  DE(clash)    DE(int)     intcor
     16.51     -17.50       1.43        0.00     115.62       2.45       0.16       0.82       ----

> <Gold.Chemscore.Fitness>
16.5133

> <Gold.Chemscore.DG>
-17.4959

> <Gold.Chemscore.ZeroCoef>
-5.4800

> <Gold.Chemscore.Hbond>
1.4281

> <Gold.Chemscore.Metal>
0.0000

> <Gold.Chemscore.Lipo>
115.6169

> <Gold.Chemscore.Internal_Hbond>
0.0000

> <Gold.Chemscore.DEClash>
0.1606

> <Gold.Chemscore.DEInternal>
0.8219

> <Gold.Chemscore.Rot>
2.4536

> <Gold.Chemscore.Internal.Correction>
   9.000000E+99

> <Gold.Chemscore.Hbonds>
donor molecule, donor type, donor heavy atom, donor atom, acceptor molecule, acceptor atom, score
      L1  H    10    34       P1  7957  0.97
      P1  H  7989  7998       L1    10  0.25

> <Gold.Chemscore.Hbond.Weighted>
-4.7699

> <Gold.Chemscore.Metal.Weighted>
-0.0000

> <Gold.Chemscore.Lipo.Weighted>
-13.5272

> <Gold.Chemscore.Internal_Hbond.Weighted>
0.0000

> <Gold.Chemscore.DEClash.Weighted>
0.1606

> <Gold.Chemscore.DEInternal.Weighted>
0.8219

> <Gold.Chemscore.Rot.Weighted>
6.2812

> <Gold.Chemscore.Internal.Correction.Weighted>
   9.000000E+99

> <Gold.Protein.RotatedTorsions>
[ 6907 6896 6895 6894 ] final  164.04 input  -60.11 | X-H torsion
[ 7974 7965 7964 7962 ] final  108.72 input  175.53 | X-H torsion
[ 8008 7997 7996 7995 ] final  -56.27 input   59.86 | X-H torsion
[ 10167 10162 10161 10158 ] final  -33.41 input  -65.29 | X-H torsion
[ 10718 10713 10712 10709 ] final   45.50 input   66.30 | X-H torsion
[ 10763 10752 10751 10750 ] final -129.68 input  -60.55 | X-H torsion
[ 11005 11000 10999 10996 ] final  177.21 input  -57.11 | X-H torsion

> <Gold.Protein.ActiveResidues>
 VAL166  LYS551  ARG553  GLY616  TRP617  ASP618  TYR619  PRO620  LYS621  CYS622 
 ASP623  PHE694  ASN695  SER759  ASP760  ASP761  ALA762  ILE779  LEU786  VAL792 
 PHE793  MET794  SER795  GLU796  ALA797  LYS798  CYS799  TRP800  GLU811  SER814 

> <Gold.Protein.RotatedAtoms>
  151.9159  133.3573  159.3879 H   0  0  0  0  0  0  0  0  0  0  0  0  # atno 6907 bound_to 6896
  150.7047  134.4685  159.5423 H   0  0  0  0  0  0  0  0  0  0  0  0  # atno 6908 bound_to 6896
  152.2299  134.8332  160.0526 H   0  0  0  0  0  0  0  0  0  0  0  0  # atno 6909 bound_to 6896
  145.2771  139.2646  143.3935 H   0  0  0  0  0  0  0  0  0  0  0  0  # atno 7974 bound_to 7965
  154.4224  140.1133  156.5610 H   0  0  0  0  0  0  0  0  0  0  0  0  # atno 8008 bound_to 7997
  155.6311  140.3495  155.4664 H   0  0  0  0  0  0  0  0  0  0  0  0  # atno 8009 bound_to 7997
  155.9947  140.1186  157.0595 H   0  0  0  0  0  0  0  0  0  0  0  0  # atno 8010 bound_to 7997
  140.7205  143.3622  151.1940 H   0  0  0  0  0  0  0  0  0  0  0  0  # atno 10167 bound_to 10162
  157.4382  130.8065  149.7668 H   0  0  0  0  0  0  0  0  0  0  0  0  # atno 10718 bound_to 10713
  154.8757  135.3887  154.3960 H   0  0  0  0  0  0  0  0  0  0  0  0  # atno 10763 bound_to 10752
  153.4690  135.7030  153.6010 H   0  0  0  0  0  0  0  0  0  0  0  0  # atno 10764 bound_to 10752
  153.4475  135.3841  155.2232 H   0  0  0  0  0  0  0  0  0  0  0  0  # atno 10765 bound_to 10752
  140.3816  134.6941  157.4454 H   0  0  0  0  0  0  0  0  0  0  0  0  # atno 11005 bound_to 11000
  146.3228  140.3228  142.8634 LP  0  0  0  0  0  0  0  0  0  0  0  0  # atno 17320 bound_to 7965
  144.9285  140.7948  143.5704 LP  0  0  0  0  0  0  0  0  0  0  0  0  # atno 17321 bound_to 7965
  139.7177  143.9274  152.2973 LP  0  0  0  0  0  0  0  0  0  0  0  0  # atno 17342 bound_to 10162
  139.9020  144.6906  150.8654 LP  0  0  0  0  0  0  0  0  0  0  0  0  # atno 17343 bound_to 10162
  155.9938  130.3922  150.2883 LP  0  0  0  0  0  0  0  0  0  0  0  0  # atno 17370 bound_to 10713
  157.1046  131.0205  151.3072 LP  0  0  0  0  0  0  0  0  0  0  0  0  # atno 17371 bound_to 10713
  140.0474  134.6180  155.8904 LP  0  0  0  0  0  0  0  0  0  0  0  0  # atno 17394 bound_to 11000
  141.1921  133.6574  156.5488 LP  0  0  0  0  0  0  0  0  0  0  0  0  # atno 17395 bound_to 11000

$$$$
