AV-unprocessed.smi:1698|AV-procd|sdf|6813|dock2
  -GOLD-   22720 7593D 1   1.00000     0.00000
 Structure written by MMmdl.
 28 29  0  0  0  0  0  0  0  0  1 V2000
  145.6691  132.9309  153.7679 O   0  0  0  0  0  0  0  0  0  0  0  0
  146.2262  133.6412  152.9332 C   0  0  0  0  0  0  0  0  0  0  0  0
  145.8554  133.7340  151.6420 N   0  0  0  0  0  0  0  0  0  0  0  0
  144.7849  133.0631  150.9993 C   0  0  0  0  0  0  0  0  0  0  0  0
  144.7998  132.6282  149.6462 C   0  0  0  0  0  0  0  0  0  0  0  0
  143.6627  132.0318  149.3176 N   0  0  0  0  0  0  0  0  0  0  0  0
  142.9226  132.0816  150.4482 N   0  0  0  0  0  0  0  0  0  0  0  0
  143.5651  132.7003  151.4977 C   0  0  0  0  0  0  0  0  0  0  0  0
  147.2813  134.4078  153.2634 N   0  0  0  0  0  0  0  0  0  0  0  0
  147.9325  134.5418  154.5674 C   0  0  2  0  0  0  0  0  0  0  0  0
  147.8068  135.9819  155.0992 C   0  0  0  0  0  0  0  0  0  0  0  0
  148.7865  136.1655  156.2654 C   0  0  0  0  0  0  0  0  0  0  0  0
  150.2009  135.0505  155.9232 S   0  0  0  0  0  0  0  0  0  0  0  0
  151.3491  135.8380  155.4498 O   0  0  0  0  0  0  0  0  0  0  0  0
  150.3404  134.1035  157.0399 O   0  0  0  0  0  0  0  0  0  0  0  0
  149.4294  134.1984  154.4973 C   0  0  0  0  0  0  0  0  0  0  0  0
  141.9909  131.6935  150.4874 H   0  0  0  0  0  0  0  0  0  0  0  0
  146.3958  134.3564  151.0594 H   0  0  0  0  0  0  0  0  0  0  0  0
  145.5812  132.7242  148.9067 H   0  0  0  0  0  0  0  0  0  0  0  0
  143.1059  132.8190  152.4678 H   0  0  0  0  0  0  0  0  0  0  0  0
  147.6692  134.9740  152.5224 H   0  0  0  0  0  0  0  0  0  0  0  0
  147.4528  133.8836  155.2942 H   0  0  0  0  0  0  0  0  0  0  0  0
  148.0758  136.6818  154.3064 H   0  0  0  0  0  0  0  0  0  0  0  0
  146.7843  136.2173  155.3958 H   0  0  0  0  0  0  0  0  0  0  0  0
  149.1332  137.1934  156.3717 H   0  0  0  0  0  0  0  0  0  0  0  0
  148.3326  135.8520  157.2058 H   0  0  0  0  0  0  0  0  0  0  0  0
  149.6308  133.1282  154.5470 H   0  0  0  0  0  0  0  0  0  0  0  0
  149.8830  134.5952  153.5884 H   0  0  0  0  0  0  0  0  0  0  0  0
  1  2  2  0  0  0  0
  2  3  1  0  0  0  0
  2  9  1  0  0  0  0
  3  4  1  0  0  0  0
  3 18  1  0  0  0  0
  4  8  2  0  0  0  0
  4  5  1  0  0  0  0
  5  6  2  0  0  0  0
  5 19  1  0  0  0  0
  6  7  1  0  0  0  0
  7 17  1  0  0  0  0
  7  8  1  0  0  0  0
  8 20  1  0  0  0  0
  9 10  1  0  0  0  0
  9 21  1  0  0  0  0
 10 16  1  0  0  0  0
 10 11  1  0  0  0  0
 10 22  1  0  0  0  0
 11 12  1  0  0  0  0
 11 23  1  0  0  0  0
 11 24  1  0  0  0  0
 12 13  1  0  0  0  0
 12 25  1  0  0  0  0
 12 26  1  0  0  0  0
 13 14  2  0  0  0  0
 13 15  2  0  0  0  0
 13 16  1  0  0  0  0
 16 27  1  0  0  0  0
 16 28  1  0  0  0  0
M  END
> <s_m_source_file>
AV-unprocessed.smi

> <i_m_source_file_index>
1698

> <i_lp_mmshare_version>
43012

> <i_f3d_flags>
0

> <s_epik_input>
Tz1TMSg9TylbQ0gyXVtDSDJdW0NASF0oW0NIMl0xKVtOSF1DKD1PKVtOSF1jMltjSF1uW25IXVtjSF0y

> <s_epik_cmdline>
J2VwaWtfcHl0aG9uJywgJy1waCcsICc3LjAnLCAnLXRuJywgJzgnLCAnLW1hJywgJzIwMCcsICctbWV0YWxfYmluZGluZycsICctaW1hZScsICc8aW5maWxlLm1hZT4nLCAnLW9tYWUnLCAnPG91dGZpbGUubWFlPic=

> <r_lp_tautomer_probability>
1

> <r_epik_Ionization_Penalty>
3.85517e-05

> <r_epik_Ionization_Penalty_Charging>
0

> <r_epik_Ionization_Penalty_Neutral>
3.85517e-05

> <r_epik_State_Penalty>
-0

> <r_epik_Charging_Adjusted_Penalty>
0

> <i_epik_Tot_Q>
0

> <i_epik_Tot_abs_Q>
0

> <r_epik_Metal_State_Penalty>
-0

> <b_epik_Metal_Only>
0

> <s_lp_Force_Field>
OPLS_2005

> <r_lp_Energy>
17.454

> <b_lp_Chiralities_Consistent>
1

> <s_lp_Variant>
AV-unprocessed.smi:1698-1

> <Gold.Version>
5.8.1

> <Gold.Id.Protein>
6NUR|6NUR_protein|mol2

> <Gold.PLP.Fitness>
37.0470

> <Gold.PLP.PLP>
-21.7405

> <Gold.PLP.part.hbond>
-5.6396

> <Gold.PLP.part.metal>
0.0000

> <Gold.PLP.part.buried>
-5.9058

> <Gold.PLP.part.nonpolar>
-12.5588

> <Gold.PLP.part.repulsive>
0.5937

> <Gold.PLP.ligand.clash>
0.0000

> <Gold.PLP.ligand.torsion>
0.2395

> <Gold.PLP.Chemscore.Hbond>
4.1476

> <Gold.PLP.Chemscore.CHOScore>
1.1142

> <Gold.PLP.Chemscore.Metal>
0.0000

> <Gold.Chemscore.Hbonds>
donor molecule, donor type, donor heavy atom, donor atom, acceptor molecule, acceptor atom, score
      L1  H     7    17       P1 10952  0.85
      L1  H     9    21       P1  7948  1.00
      P1  H  6896  6907       L1    15  0.29
      P1  H 10752 10765       L1    14  1.00
      P1  H 10785 10796       L1     6  0.85
      L1  C     5    19       P1  7921  0.44
      L1  C     8    20       P1 10957  0.72

> <Gold.PLP.Chemscore.Internal.Correction>
0.0003

> <Gold.Rescore>
     Score         DG    S(hbond)    S(metal)    S(lipo)     H(rot)  DE(clash)    DE(int)     intcor
     18.13     -19.01       3.51        0.00      37.25       1.00       0.03       0.86       ----

> <Gold.Chemscore.Fitness>
18.1268

> <Gold.Chemscore.DG>
-19.0148

> <Gold.Chemscore.ZeroCoef>
-5.4800

> <Gold.Chemscore.Hbond>
3.5141

> <Gold.Chemscore.Metal>
0.0000

> <Gold.Chemscore.Lipo>
37.2463

> <Gold.Chemscore.Internal_Hbond>
0.0000

> <Gold.Chemscore.DEClash>
0.0310

> <Gold.Chemscore.DEInternal>
0.8570

> <Gold.Chemscore.Rot>
1.0000

> <Gold.Chemscore.Internal.Correction>
   9.000000E+99

> <Gold.Chemscore.Hbonds>
donor molecule, donor type, donor heavy atom, donor atom, acceptor molecule, acceptor atom, score
      L1  H     7    17       P1 10952  0.24
      L1  H     9    21       P1  7948  0.93
      P1  H  6896  6907       L1    15  0.30
      P1  H 10752 10765       L1    14  1.00
      P1  H 10785 10796       L1     6  0.18

> <Gold.Chemscore.Hbond.Weighted>
-11.7369

> <Gold.Chemscore.Metal.Weighted>
-0.0000

> <Gold.Chemscore.Lipo.Weighted>
-4.3578

> <Gold.Chemscore.Internal_Hbond.Weighted>
0.0000

> <Gold.Chemscore.DEClash.Weighted>
0.0310

> <Gold.Chemscore.DEInternal.Weighted>
0.8570

> <Gold.Chemscore.Rot.Weighted>
2.5600

> <Gold.Chemscore.Internal.Correction.Weighted>
   9.000000E+99

> <Gold.Protein.RotatedTorsions>
[ 6907 6896 6895 6894 ] final -121.50 input  -60.11 | X-H torsion
[ 7974 7965 7964 7962 ] final   41.28 input  175.53 | X-H torsion
[ 8008 7997 7996 7995 ] final   14.64 input   59.86 | X-H torsion
[ 10167 10162 10161 10158 ] final  129.91 input  -65.29 | X-H torsion
[ 10718 10713 10712 10709 ] final    1.97 input   66.30 | X-H torsion
[ 10763 10752 10751 10750 ] final -163.60 input  -60.55 | X-H torsion
[ 11005 11000 10999 10996 ] final   58.92 input  -57.11 | X-H torsion

> <Gold.Protein.ActiveResidues>
 VAL166  LYS551  ARG553  GLY616  TRP617  ASP618  TYR619  PRO620  LYS621  CYS622 
 ASP623  PHE694  ASN695  SER759  ASP760  ASP761  ALA762  ILE779  LEU786  VAL792 
 PHE793  MET794  SER795  GLU796  ALA797  LYS798  CYS799  TRP800  GLU811  SER814 

> <Gold.Protein.RotatedAtoms>
  150.8489  133.7818  159.3032 H   0  0  0  0  0  0  0  0  0  0  0  0  # atno 6907 bound_to 6896
  151.5496  135.1066  159.9956 H   0  0  0  0  0  0  0  0  0  0  0  0  # atno 6908 bound_to 6896
  152.4536  133.7636  159.6816 H   0  0  0  0  0  0  0  0  0  0  0  0  # atno 6909 bound_to 6896
  146.0836  139.5434  142.9521 H   0  0  0  0  0  0  0  0  0  0  0  0  # atno 7974 bound_to 7965
  154.8513  140.2930  155.5596 H   0  0  0  0  0  0  0  0  0  0  0  0  # atno 8008 bound_to 7997
  156.3016  140.2495  156.3404 H   0  0  0  0  0  0  0  0  0  0  0  0  # atno 8009 bound_to 7997
  154.9018  140.0391  157.1886 H   0  0  0  0  0  0  0  0  0  0  0  0  # atno 8010 bound_to 7997
  139.5455  144.6769  151.4487 H   0  0  0  0  0  0  0  0  0  0  0  0  # atno 10167 bound_to 10162
  156.8561  130.5570  149.5666 H   0  0  0  0  0  0  0  0  0  0  0  0  # atno 10718 bound_to 10713
  154.7107  135.3005  154.9202 H   0  0  0  0  0  0  0  0  0  0  0  0  # atno 10763 bound_to 10752
  154.0104  135.6695  153.4769 H   0  0  0  0  0  0  0  0  0  0  0  0  # atno 10764 bound_to 10752
  153.0752  135.5038  154.8303 H   0  0  0  0  0  0  0  0  0  0  0  0  # atno 10765 bound_to 10752
  140.0342  134.5968  155.9467 H   0  0  0  0  0  0  0  0  0  0  0  0  # atno 11005 bound_to 11000
  145.6171  141.0329  143.1935 LP  0  0  0  0  0  0  0  0  0  0  0  0  # atno 17320 bound_to 7965
  144.7310  139.7725  143.7347 LP  0  0  0  0  0  0  0  0  0  0  0  0  # atno 17321 bound_to 7965
  140.6702  143.8311  150.6990 LP  0  0  0  0  0  0  0  0  0  0  0  0  # atno 17342 bound_to 10162
  140.1733  143.4176  152.1985 LP  0  0  0  0  0  0  0  0  0  0  0  0  # atno 17343 bound_to 10162
  156.0802  130.5814  150.9548 LP  0  0  0  0  0  0  0  0  0  0  0  0  # atno 17370 bound_to 10713
  157.6276  131.0924  150.8503 LP  0  0  0  0  0  0  0  0  0  0  0  0  # atno 17371 bound_to 10713
  141.1848  133.6553  156.5171 LP  0  0  0  0  0  0  0  0  0  0  0  0  # atno 17394 bound_to 11000
  140.4176  134.7216  157.4871 LP  0  0  0  0  0  0  0  0  0  0  0  0  # atno 17395 bound_to 11000

$$$$
