AV-unprocessed.smi:1703|AV-procd|sdf|6865|dock5
  -GOLD-   22720 8 53D 1   1.00000     0.00000
 Structure written by MMmdl.
 49 51  0  0  0  0  0  0  0  0  2 V2000
  144.9569  144.7688  152.6161 C   0  0  0  0  0  0  0  0  0  0  0  0
  145.7025  144.3527  153.8886 C   0  0  2  0  0  0  0  0  0  0  0  0
  146.4920  143.0435  153.6992 C   0  0  0  0  0  0  0  0  0  0  0  0
  147.1375  142.6427  154.9731 N   0  3  2  0  0  0  0  0  0  0  0  0
  147.9774  141.4223  154.8622 C   0  0  0  0  0  0  0  0  0  0  0  0
  148.9091  141.2357  156.0759 C   0  0  1  0  0  0  0  0  0  0  0  0
  148.5669  140.0276  156.7285 O   0  0  0  0  0  0  0  0  0  0  0  0
  150.3928  141.1953  155.6578 C   0  0  0  0  0  0  0  0  0  0  0  0
  151.2985  141.1436  156.7982 N   0  0  0  0  0  0  0  0  0  0  0  0
  152.1382  140.1397  157.1574 C   0  0  0  0  0  0  0  0  0  0  0  0
  152.2403  138.8638  156.3793 C   0  0  0  0  0  0  0  0  0  0  0  0
  153.5739  138.4326  156.2128 O   0  0  0  0  0  0  0  0  0  0  0  0
  152.8671  140.3564  158.2524 N   0  0  0  0  0  0  0  0  0  0  0  0
  152.4603  141.6166  158.6443 C   0  0  0  0  0  0  0  0  0  0  0  0
  152.8647  142.4124  159.7399 C   0  0  0  0  0  0  0  0  0  0  0  0
  152.3015  143.6896  159.9406 C   0  0  0  0  0  0  0  0  0  0  0  0
  151.3268  144.1877  159.0520 C   0  0  0  0  0  0  0  0  0  0  0  0
  150.9088  143.4107  157.9547 C   0  0  0  0  0  0  0  0  0  0  0  0
  151.4760  142.1371  157.7569 C   0  0  0  0  0  0  0  0  0  0  0  0
  146.1274  142.5446  156.0531 C   0  0  0  0  0  0  0  0  0  0  0  0
  145.3439  143.8652  156.1798 C   0  0  2  0  0  0  0  0  0  0  0  0
  144.2347  143.7812  157.2340 C   0  0  0  0  0  0  0  0  0  0  0  0
  144.7440  144.1717  154.9258 O   0  0  0  0  0  0  0  0  0  0  0  0
  145.6490  144.9254  151.7883 H   0  0  0  0  0  0  0  0  0  0  0  0
  144.4101  145.6993  152.7718 H   0  0  0  0  0  0  0  0  0  0  0  0
  144.2381  144.0073  152.3120 H   0  0  0  0  0  0  0  0  0  0  0  0
  146.3865  145.1563  154.1679 H   0  0  0  0  0  0  0  0  0  0  0  0
  145.8261  142.2475  153.3615 H   0  0  0  0  0  0  0  0  0  0  0  0
  147.2410  143.1841  152.9205 H   0  0  0  0  0  0  0  0  0  0  0  0
  147.3366  140.5428  154.7799 H   0  0  0  0  0  0  0  0  0  0  0  0
  148.5548  141.4643  153.9373 H   0  0  0  0  0  0  0  0  0  0  0  0
  148.7693  142.0500  156.7855 H   0  0  0  0  0  0  0  0  0  0  0  0
  148.0731  140.2331  157.5079 H   0  0  0  0  0  0  0  0  0  0  0  0
  150.5847  140.3282  155.0243 H   0  0  0  0  0  0  0  0  0  0  0  0
  150.6386  142.0670  155.0513 H   0  0  0  0  0  0  0  0  0  0  0  0
  151.6648  138.0811  156.8728 H   0  0  0  0  0  0  0  0  0  0  0  0
  151.7954  139.0063  155.3940 H   0  0  0  0  0  0  0  0  0  0  0  0
  153.7889  138.4697  155.2933 H   0  0  0  0  0  0  0  0  0  0  0  0
  153.6097  142.0394  160.4266 H   0  0  0  0  0  0  0  0  0  0  0  0
  152.6189  144.2896  160.7806 H   0  0  0  0  0  0  0  0  0  0  0  0
  150.9005  145.1669  159.2135 H   0  0  0  0  0  0  0  0  0  0  0  0
  150.1632  143.7914  157.2731 H   0  0  0  0  0  0  0  0  0  0  0  0
  145.4473  141.7178  155.8410 H   0  0  0  0  0  0  0  0  0  0  0  0
  146.6213  142.3206  156.9996 H   0  0  0  0  0  0  0  0  0  0  0  0
  146.0247  144.6718  156.4582 H   0  0  0  0  0  0  0  0  0  0  0  0
  144.6445  143.5506  158.2176 H   0  0  0  0  0  0  0  0  0  0  0  0
  143.5084  143.0074  156.9836 H   0  0  0  0  0  0  0  0  0  0  0  0
  143.6988  144.7276  157.3119 H   0  0  0  0  0  0  0  0  0  0  0  0
  147.7621  143.3916  155.2375 H   0  0  0  0  0  0  0  0  0  0  0  0
  1  2  1  0  0  0  0
  1 24  1  0  0  0  0
  1 25  1  0  0  0  0
  1 26  1  0  0  0  0
  2 23  1  0  0  0  0
  2  3  1  0  0  0  0
  2 27  1  0  0  0  0
  3  4  1  0  0  0  0
  3 28  1  0  0  0  0
  3 29  1  0  0  0  0
  4  5  1  0  0  0  0
  4 20  1  0  0  0  0
  4 49  1  0  0  0  0
  5  6  1  0  0  0  0
  5 30  1  0  0  0  0
  5 31  1  0  0  0  0
  6  7  1  0  0  0  0
  6  8  1  0  0  0  0
  6 32  1  0  0  0  0
  7 33  1  0  0  0  0
  8  9  1  0  0  0  0
  8 34  1  0  0  0  0
  8 35  1  0  0  0  0
  9 19  1  0  0  0  0
  9 10  1  0  0  0  0
 10 11  1  0  0  0  0
 10 13  2  0  0  0  0
 11 12  1  0  0  0  0
 11 36  1  0  0  0  0
 11 37  1  0  0  0  0
 12 38  1  0  0  0  0
 13 14  1  0  0  0  0
 14 19  2  0  0  0  0
 14 15  1  0  0  0  0
 15 16  2  0  0  0  0
 15 39  1  0  0  0  0
 16 17  1  0  0  0  0
 16 40  1  0  0  0  0
 17 18  2  0  0  0  0
 17 41  1  0  0  0  0
 18 19  1  0  0  0  0
 18 42  1  0  0  0  0
 20 21  1  0  0  0  0
 20 43  1  0  0  0  0
 20 44  1  0  0  0  0
 21 22  1  0  0  0  0
 21 23  1  0  0  0  0
 21 45  1  0  0  0  0
 22 46  1  0  0  0  0
 22 47  1  0  0  0  0
 22 48  1  0  0  0  0
M  CHG  1   4   1
M  END
> <s_m_source_file>
AV-unprocessed.smi

> <i_m_source_file_index>
1703

> <i_lp_mmshare_version>
43012

> <i_f3d_flags>
0

> <s_epik_input>
W0NIM11bQ0BASF0xW0NIMl1OKFtDSDJdW0NASF0oTzEpW0NIM10pW0NIMl1bQ0BIXShbT0hdKVtDSDJdbihjKG4yKVtDSDJdW09IXSljKGMyMylbY0hdW2NIXVtjSF1bY0hdMw==

> <s_epik_cmdline>
J2VwaWtfcHl0aG9uJywgJy1waCcsICc3LjAnLCAnLXRuJywgJzgnLCAnLW1hJywgJzIwMCcsICctbWV0YWxfYmluZGluZycsICctaW1hZScsICc8aW5maWxlLm1hZT4nLCAnLW9tYWUnLCAnPG91dGZpbGUubWFlPic=

> <r_epik_Ionization_Penalty>
0.655661

> <r_epik_Ionization_Penalty_Charging>
0.608065

> <r_epik_Ionization_Penalty_Neutral>
0.0475963

> <r_epik_State_Penalty>
0.695267

> <r_epik_Charging_Adjusted_Penalty>
1.30333

> <i_epik_Tot_Q>
1

> <i_epik_Tot_abs_Q>
1

> <r_epik_Metal_State_Penalty>
0.653591

> <b_epik_Metal_Only>
0

> <s_lp_Force_Field>
OPLS_2005

> <r_lp_Energy>
21.6457

> <b_lp_Chiralities_Consistent>
1

> <s_lp_Variant>
AV-unprocessed.smi:1703-13

> <Gold.Version>
5.8.1

> <Gold.Id.Protein>
6NUR|6NUR_protein|mol2

> <Gold.PLP.Fitness>
46.8434

> <Gold.PLP.PLP>
-41.2780

> <Gold.PLP.part.hbond>
-3.0000

> <Gold.PLP.part.metal>
0.0000

> <Gold.PLP.part.buried>
-4.0504

> <Gold.PLP.part.nonpolar>
-33.2812

> <Gold.PLP.part.repulsive>
0.2585

> <Gold.PLP.ligand.clash>
0.0000

> <Gold.PLP.ligand.torsion>
1.0870

> <Gold.PLP.Chemscore.Hbond>
2.5600

> <Gold.PLP.Chemscore.CHOScore>
0.0000

> <Gold.PLP.Chemscore.Metal>
0.0000

> <Gold.Chemscore.Hbonds>
donor molecule, donor type, donor heavy atom, donor atom, acceptor molecule, acceptor atom, score
      L1  H     4    49       P1  8028  2.00
      P1  H  7997  8010       L1    12  0.52

> <Gold.PLP.Chemscore.Internal.Correction>
0.0593

> <Gold.Rescore>
     Score         DG    S(hbond)    S(metal)    S(lipo)     H(rot)  DE(clash)    DE(int)     intcor
     10.93     -13.48       0.54        0.00     117.89       2.96       1.47       1.09       ----

> <Gold.Chemscore.Fitness>
10.9274

> <Gold.Chemscore.DG>
-13.4831

> <Gold.Chemscore.ZeroCoef>
-5.4800

> <Gold.Chemscore.Hbond>
0.5361

> <Gold.Chemscore.Metal>
0.0000

> <Gold.Chemscore.Lipo>
117.8872

> <Gold.Chemscore.Internal_Hbond>
0.0000

> <Gold.Chemscore.DEClash>
1.4685

> <Gold.Chemscore.DEInternal>
1.0872

> <Gold.Chemscore.Rot>
2.9611

> <Gold.Chemscore.Internal.Correction>
   9.000000E+99

> <Gold.Chemscore.Hbonds>
donor molecule, donor type, donor heavy atom, donor atom, acceptor molecule, acceptor atom, score
      L1  H     4    49       P1  8028  0.40
      P1  H  7997  8010       L1    12  0.03

> <Gold.Chemscore.Hbond.Weighted>
-1.7906

> <Gold.Chemscore.Metal.Weighted>
-0.0000

> <Gold.Chemscore.Lipo.Weighted>
-13.7928

> <Gold.Chemscore.Internal_Hbond.Weighted>
0.0000

> <Gold.Chemscore.DEClash.Weighted>
1.4685

> <Gold.Chemscore.DEInternal.Weighted>
1.0872

> <Gold.Chemscore.Rot.Weighted>
7.5803

> <Gold.Chemscore.Internal.Correction.Weighted>
   9.000000E+99

> <Gold.Protein.RotatedTorsions>
[ 6907 6896 6895 6894 ] final  -87.20 input  -60.11 | X-H torsion
[ 7974 7965 7964 7962 ] final   61.00 input  175.53 | X-H torsion
[ 8008 7997 7996 7995 ] final   46.46 input   59.86 | X-H torsion
[ 10167 10162 10161 10158 ] final -124.58 input  -65.29 | X-H torsion
[ 10718 10713 10712 10709 ] final  123.99 input   66.30 | X-H torsion
[ 10763 10752 10751 10750 ] final  143.77 input  -60.55 | X-H torsion
[ 11005 11000 10999 10996 ] final   -9.95 input  -57.11 | X-H torsion

> <Gold.Protein.ActiveResidues>
 VAL166  LYS551  ARG553  GLY616  TRP617  ASP618  TYR619  PRO620  LYS621  CYS622 
 ASP623  PHE694  ASN695  SER759  ASP760  ASP761  ALA762  ILE779  LEU786  VAL792 
 PHE793  MET794  SER795  GLU796  ALA797  LYS798  CYS799  TRP800  GLU811  SER814 

> <Gold.Protein.RotatedAtoms>
  150.6866  134.2933  159.4675 H   0  0  0  0  0  0  0  0  0  0  0  0  # atno 6907 bound_to 6896
  152.0836  134.9452  160.0582 H   0  0  0  0  0  0  0  0  0  0  0  0  # atno 6908 bound_to 6896
  152.0795  133.4111  159.4532 H   0  0  0  0  0  0  0  0  0  0  0  0  # atno 6909 bound_to 6896
  145.8897  139.3502  143.0657 H   0  0  0  0  0  0  0  0  0  0  0  0  # atno 7974 bound_to 7965
  155.3529  140.3414  155.4239 H   0  0  0  0  0  0  0  0  0  0  0  0  # atno 8008 bound_to 7997
  156.1754  140.1646  156.8407 H   0  0  0  0  0  0  0  0  0  0  0  0  # atno 8009 bound_to 7997
  154.5277  140.0752  156.8270 H   0  0  0  0  0  0  0  0  0  0  0  0  # atno 8010 bound_to 7997
  139.9913  143.5638  152.2340 H   0  0  0  0  0  0  0  0  0  0  0  0  # atno 10167 bound_to 10162
  157.5620  131.1089  150.8520 H   0  0  0  0  0  0  0  0  0  0  0  0  # atno 10718 bound_to 10713
  153.9778  135.2944  155.3422 H   0  0  0  0  0  0  0  0  0  0  0  0  # atno 10763 bound_to 10752
  154.7286  135.5078  153.8930 H   0  0  0  0  0  0  0  0  0  0  0  0  # atno 10764 bound_to 10752
  153.0869  135.6696  154.0045 H   0  0  0  0  0  0  0  0  0  0  0  0  # atno 10765 bound_to 10752
  140.7395  133.8682  155.8956 H   0  0  0  0  0  0  0  0  0  0  0  0  # atno 11005 bound_to 11000
  145.8924  140.9295  143.0545 LP  0  0  0  0  0  0  0  0  0  0  0  0  # atno 17320 bound_to 7965
  144.6730  140.0923  143.7464 LP  0  0  0  0  0  0  0  0  0  0  0  0  # atno 17321 bound_to 7965
  139.6338  144.7647  151.2481 LP  0  0  0  0  0  0  0  0  0  0  0  0  # atno 17342 bound_to 10162
  140.7453  143.6434  150.8314 LP  0  0  0  0  0  0  0  0  0  0  0  0  # atno 17343 bound_to 10162
  156.9015  130.5248  149.5282 LP  0  0  0  0  0  0  0  0  0  0  0  0  # atno 17370 bound_to 10713
  156.0672  130.5713  150.9312 LP  0  0  0  0  0  0  0  0  0  0  0  0  # atno 17371 bound_to 10713
  140.9849  134.1356  157.4461 LP  0  0  0  0  0  0  0  0  0  0  0  0  # atno 17394 bound_to 11000
  139.8809  135.0022  156.6114 LP  0  0  0  0  0  0  0  0  0  0  0  0  # atno 17395 bound_to 11000

$$$$
