#       Name:                AV-unprocessed.smi:1733
#       Creating user name   scv26
#       Creation time:       Fri Mar 27 08:19:16 2020


#       File generated by GOLD software.
#

@<TRIPOS>MOLECULE
AV-unprocessed.smi:1733
    57    59     1
SMALL
NO_CHARGES


@<TRIPOS>ATOM
      1 ****        -3.1270   2.9691   1.5371 O.2            1 S1                 0.0000
      2 ****        -3.1452   2.0195   0.7541 C.2            1 S1                 0.0000
      3 ****        -4.2553   1.4308   0.2763 N.am           1 S1                 0.0000
      4 ****        -5.6114   1.7886   0.5068 C.ar           1 S1                 0.0000
      5 ****        -6.5936   0.7893   0.3273 C.ar           1 S1                 0.0000
      6 ****        -7.9527   1.1064   0.5274 C.ar           1 S1                 0.0000
      7 ****        -8.3060   2.3619   0.8772 N.pl3          1 S1                 1.0000
      8 ****        -7.4052   3.3538   1.0450 C.ar           1 S1                 0.0000
      9 ****        -6.0315   3.0965   0.8596 C.ar           1 S1                 0.0000
     10 ****        -2.0393   1.4242   0.2849 N.am           1 S1                 0.0000
     11 ****        -0.6695   1.8092   0.6123 C.3            1 S1                 0.0000
     12 ****         0.2585   1.4708  -0.5745 C.3            1 S1                 0.0000
     13 ****         1.7372   1.6705  -0.1995 C.3            1 S1                 0.0000
     14 ****         2.0385   0.8431   0.9805 N.am           1 S1                 0.0000
     15 ****         2.7431  -0.3171   0.9919 C.2            1 S1                 0.0000
     16 ****         2.8855  -1.0106   2.0001 O.2            1 S1                 0.0000
     17 ****         3.2753  -0.6619  -0.1934 N.am           1 S1                 0.0000
     18 ****         4.0527  -1.8679  -0.4607 C.3            1 S1                 0.0000
     19 ****         4.9178  -1.6516  -1.7170 C.3            1 S1                 0.0000
     20 ****         5.7095  -2.9176  -2.0821 C.3            1 S1                 0.0000
     21 ****         4.7768  -4.1257  -2.2612 C.3            1 S1                 0.0000
     22 ****         3.9163  -4.3507  -1.0085 C.3            1 S1                 0.0000
     23 ****         3.1230  -3.0865  -0.6413 C.3            1 S1                 0.0000
     24 ****         1.3002   1.3179   2.1568 C.3            1 S1                 0.0000
     25 ****        -0.2066   1.1122   1.9130 C.3            1 S1                 0.0000
     26 ****        -4.1127   0.5988  -0.2776 H              1 S1                 0.0000
     27 ****        -6.3113  -0.2149   0.0447 H              1 S1                 0.0000
     28 ****        -8.7618   0.3991   0.4165 H              1 S1                 0.0000
     29 ****        -7.8075   4.3195   1.3145 H              1 S1                 0.0000
     30 ****        -5.3294   3.9078   0.9786 H              1 S1                 0.0000
     31 ****        -2.1493   0.6455  -0.3482 H              1 S1                 0.0000
     32 ****        -0.6226   2.8890   0.7665 H              1 S1                 0.0000
     33 ****         0.1065   0.4351  -0.8832 H              1 S1                 0.0000
     34 ****         0.0058   2.0911  -1.4354 H              1 S1                 0.0000
     35 ****         2.3722   1.4631  -1.0607 H              1 S1                 0.0000
     36 ****         1.9192   2.7187   0.0422 H              1 S1                 0.0000
     37 ****         3.1174  -0.0425  -0.9748 H              1 S1                 0.0000
     38 ****         4.7199  -2.0531   0.3836 H              1 S1                 0.0000
     39 ****         4.2837  -1.3696  -2.5590 H              1 S1                 0.0000
     40 ****         5.6072  -0.8215  -1.5583 H              1 S1                 0.0000
     41 ****         6.2787  -2.7486  -2.9966 H              1 S1                 0.0000
     42 ****         6.4384  -3.1311  -1.2992 H              1 S1                 0.0000
     43 ****         4.1303  -3.9646  -3.1249 H              1 S1                 0.0000
     44 ****         5.3622  -5.0201  -2.4754 H              1 S1                 0.0000
     45 ****         3.2321  -5.1837  -1.1718 H              1 S1                 0.0000
     46 ****         4.5560  -4.6353  -0.1721 H              1 S1                 0.0000
     47 ****         2.5548  -3.2681   0.2718 H              1 S1                 0.0000
     48 ****         2.3911  -2.8797  -1.4234 H              1 S1                 0.0000
     49 ****         1.6004   0.8132   3.0762 H              1 S1                 0.0000
     50 ****         1.5133   2.3755   2.3186 H              1 S1                 0.0000
     51 ****        -0.7746   1.4887   2.7645 H              1 S1                 0.0000
     52 ****        -0.4136   0.0424   1.8533 H              1 S1                 0.0000
     53 ****        -9.2951   2.5714   1.0157 H              1 S1                 0.0000
     54 ****        -3.9856   3.3618   1.8669 LP             1 S1                 0.0000
     55 ****        -2.2537   3.3479   1.8435 LP             1 S1                 0.0000
     56 ****         2.4714  -0.7266   2.8650 LP             1 S1                 0.0000
     57 ****         3.4151  -1.8576   1.9537 LP             1 S1                 0.0000
@<TRIPOS>BOND
    1    1    2 2     
    2    2    3 am    
    3    2   10 am    
    4    3    4 1     
    5    3   26 1     
    6    4    9 ar    
    7    4    5 ar    
    8    5    6 ar    
    9    5   27 1     
   10    6    7 ar    
   11    6   28 1     
   12    7    8 ar    
   13    7   53 1     
   14    8    9 ar    
   15    8   29 1     
   16    9   30 1     
   17   10   11 1     
   18   10   31 1     
   19   11   25 1     
   20   11   12 1     
   21   11   32 1     
   22   12   13 1     
   23   12   33 1     
   24   12   34 1     
   25   13   14 1     
   26   13   35 1     
   27   13   36 1     
   28   14   15 am    
   29   14   24 1     
   30   15   16 2     
   31   15   17 am    
   32   17   18 1     
   33   17   37 1     
   34   18   23 1     
   35   18   19 1     
   36   18   38 1     
   37   19   20 1     
   38   19   39 1     
   39   19   40 1     
   40   20   21 1     
   41   20   41 1     
   42   20   42 1     
   43   21   22 1     
   44   21   43 1     
   45   21   44 1     
   46   22   23 1     
   47   22   45 1     
   48   22   46 1     
   49   23   47 1     
   50   23   48 1     
   51   24   25 1     
   52   24   49 1     
   53   24   50 1     
   54   25   51 1     
   55   25   52 1     
   56    1   54 1     
   57    1   55 1     
   58   16   56 1     
   59   16   57 1     
@<TRIPOS>SUBSTRUCTURE
      1 S1             1
@<TRIPOS>SET
LONE_PAIRS      STATIC     ATOMS    <user>   **** ""
4 54 55 56 57
DONOR_HYDROGENS      STATIC     ATOMS    <user>   **** ""
4 26 53 31 37
ATOM$BLUE        STATIC     ATOMS    COLORGROUP SYSTEM
4 54 55 56 57
ATOM$RED        STATIC     ATOMS    COLORGROUP SYSTEM
4 26 53 31 37
