AV-unprocessed.smi:2097|AV-procd|sdf|8564|dock4
  -GOLD-   2272011293D 1   1.00000     0.00000
 Structure written by MMmdl.
 41 42  0  0  0  0  0  0  0  0  1 V2000
  156.5777  134.8275  161.6067 C   0  0  0  0  0  0  0  0  0  0  0  0
  155.0445  134.7818  161.6806 C   0  0  1  0  0  0  0  0  0  0  0  0
  154.6896  134.5267  163.0375 O   0  0  0  0  0  0  0  0  0  0  0  0
  155.3726  133.4406  163.6558 C   0  0  0  0  0  0  0  0  0  0  0  0
  154.5019  132.8669  164.7799 C   0  0  0  0  0  0  0  0  0  0  0  0
  155.2310  132.0274  165.5143 F   0  0  0  0  0  0  0  0  0  0  0  0
  154.0572  133.8472  165.5656 F   0  0  0  0  0  0  0  0  0  0  0  0
  153.4684  132.1997  164.2672 F   0  0  0  0  0  0  0  0  0  0  0  0
  154.4253  136.1067  161.2061 C   0  0  0  0  0  0  0  0  0  0  0  0
  153.5525  136.0917  160.3390 O   0  0  0  0  0  0  0  0  0  0  0  0
  154.9287  137.2208  161.7698 N   0  0  0  0  0  0  0  0  0  0  0  0
  154.5820  138.5794  161.5335 C   0  0  0  0  0  0  0  0  0  0  0  0
  155.0386  139.6725  162.3086 C   0  0  0  0  0  0  0  0  0  0  0  0
  154.6248  140.9731  161.9616 C   0  0  0  0  0  0  0  0  0  0  0  0
  153.7758  141.1442  160.8493 C   0  0  0  0  0  0  0  0  0  0  0  0
  153.3517  142.4367  160.5102 N   0  0  0  0  0  0  0  0  0  0  0  0
  152.6586  143.1209  161.5948 C   0  0  0  0  0  0  0  0  0  0  0  0
  152.3433  144.5702  161.1867 C   0  0  0  0  0  0  0  0  0  0  0  0
  151.5916  144.5727  159.9761 O   0  0  0  0  0  0  0  0  0  0  0  0
  152.3052  143.9669  158.9017 C   0  0  0  0  0  0  0  0  0  0  0  0
  152.6193  142.5017  159.2515 C   0  0  0  0  0  0  0  0  0  0  0  0
  153.3478  140.1054  160.0938 N   0  0  0  0  0  0  0  0  0  0  0  0
  153.7481  138.8616  160.4316 C   0  0  0  0  0  0  0  0  0  0  0  0
  156.9198  135.0282  160.5907 H   0  0  0  0  0  0  0  0  0  0  0  0
  157.0065  133.8740  161.9155 H   0  0  0  0  0  0  0  0  0  0  0  0
  156.9891  135.5993  162.2586 H   0  0  0  0  0  0  0  0  0  0  0  0
  154.6951  133.9590  161.0537 H   0  0  0  0  0  0  0  0  0  0  0  0
  155.5942  132.6538  162.9339 H   0  0  0  0  0  0  0  0  0  0  0  0
  156.3235  133.7858  164.0641 H   0  0  0  0  0  0  0  0  0  0  0  0
  155.6932  137.0783  162.4139 H   0  0  0  0  0  0  0  0  0  0  0  0
  155.7010  139.5475  163.1506 H   0  0  0  0  0  0  0  0  0  0  0  0
  154.9552  141.8233  162.5403 H   0  0  0  0  0  0  0  0  0  0  0  0
  151.7330  142.5944  161.8317 H   0  0  0  0  0  0  0  0  0  0  0  0
  153.2767  143.1100  162.4935 H   0  0  0  0  0  0  0  0  0  0  0  0
  151.7628  145.0625  161.9670 H   0  0  0  0  0  0  0  0  0  0  0  0
  153.2608  145.1468  161.0586 H   0  0  0  0  0  0  0  0  0  0  0  0
  151.6971  144.0164  157.9985 H   0  0  0  0  0  0  0  0  0  0  0  0
  153.2217  144.5242  158.7010 H   0  0  0  0  0  0  0  0  0  0  0  0
  153.2089  142.0444  158.4561 H   0  0  0  0  0  0  0  0  0  0  0  0
  151.6910  141.9346  159.3341 H   0  0  0  0  0  0  0  0  0  0  0  0
  153.3832  138.0630  159.8020 H   0  0  0  0  0  0  0  0  0  0  0  0
  1  2  1  0  0  0  0
  1 24  1  0  0  0  0
  1 25  1  0  0  0  0
  1 26  1  0  0  0  0
  2  3  1  0  0  0  0
  2  9  1  0  0  0  0
  2 27  1  0  0  0  0
  3  4  1  0  0  0  0
  4  5  1  0  0  0  0
  4 28  1  0  0  0  0
  4 29  1  0  0  0  0
  5  6  1  0  0  0  0
  5  7  1  0  0  0  0
  5  8  1  0  0  0  0
  9 10  2  0  0  0  0
  9 11  1  0  0  0  0
 11 12  1  0  0  0  0
 11 30  1  0  0  0  0
 12 23  1  0  0  0  0
 12 13  2  0  0  0  0
 13 14  1  0  0  0  0
 13 31  1  0  0  0  0
 14 15  2  0  0  0  0
 14 32  1  0  0  0  0
 15 16  1  0  0  0  0
 15 22  1  0  0  0  0
 16 21  1  0  0  0  0
 16 17  1  0  0  0  0
 17 18  1  0  0  0  0
 17 33  1  0  0  0  0
 17 34  1  0  0  0  0
 18 19  1  0  0  0  0
 18 35  1  0  0  0  0
 18 36  1  0  0  0  0
 19 20  1  0  0  0  0
 20 21  1  0  0  0  0
 20 37  1  0  0  0  0
 20 38  1  0  0  0  0
 21 39  1  0  0  0  0
 21 40  1  0  0  0  0
 22 23  2  0  0  0  0
 23 41  1  0  0  0  0
M  END
> <s_m_source_file>
AV-unprocessed.smi

> <i_m_source_file_index>
2097

> <i_lp_mmshare_version>
43012

> <i_f3d_flags>
0

> <s_epik_input>
RkMoRikoRilbQ0gyXU9bQ0BASF0oW0NIM10pQyg9TylbTkhdYzFbY0hdW2NIXWMobltjSF0xKU4yW0NIMl1bQ0gyXU9bQ0gyXVtDSDJdMg==

> <s_epik_cmdline>
J2VwaWtfcHl0aG9uJywgJy1waCcsICc3LjAnLCAnLXRuJywgJzgnLCAnLW1hJywgJzIwMCcsICctbWV0YWxfYmluZGluZycsICctaW1hZScsICc8aW5maWxlLm1hZT4nLCAnLW9tYWUnLCAnPG91dGZpbGUubWFlPic=

> <r_lp_tautomer_probability>
1

> <r_epik_Ionization_Penalty>
0.000443452

> <r_epik_Ionization_Penalty_Charging>
0

> <r_epik_Ionization_Penalty_Neutral>
0.000443452

> <r_epik_State_Penalty>
0.00027288

> <r_epik_Charging_Adjusted_Penalty>
0.00027288

> <i_epik_Tot_Q>
0

> <i_epik_Tot_abs_Q>
0

> <r_epik_Metal_State_Penalty>
-0

> <b_epik_Metal_Only>
0

> <s_lp_Force_Field>
OPLS_2005

> <r_lp_Energy>
27.3588

> <b_lp_Chiralities_Consistent>
1

> <s_lp_Variant>
AV-unprocessed.smi:2097-2

> <Gold.Version>
5.8.1

> <Gold.Id.Protein>
6NUR|6NUR_protein|mol2

> <Gold.PLP.Fitness>
45.0460

> <Gold.PLP.PLP>
-42.9372

> <Gold.PLP.part.hbond>
-1.0000

> <Gold.PLP.part.metal>
0.0000

> <Gold.PLP.part.buried>
-4.6051

> <Gold.PLP.part.nonpolar>
-36.2405

> <Gold.PLP.part.repulsive>
0.0551

> <Gold.PLP.ligand.clash>
0.0000

> <Gold.PLP.ligand.torsion>
0.5162

> <Gold.PLP.Chemscore.Hbond>
1.0000

> <Gold.PLP.Chemscore.CHOScore>
0.0000

> <Gold.PLP.Chemscore.Metal>
0.0000

> <Gold.Chemscore.Hbonds>
donor molecule, donor type, donor heavy atom, donor atom, acceptor molecule, acceptor atom, score
      P1  H  6896  6907       L1    10  1.00

> <Gold.PLP.Chemscore.Internal.Correction>
0.1411

> <Gold.Rescore>
     Score         DG    S(hbond)    S(metal)    S(lipo)     H(rot)  DE(clash)    DE(int)     intcor
     12.97     -14.99       0.99        0.00      95.65       1.95       0.10       1.92       ----

> <Gold.Chemscore.Fitness>
12.9662

> <Gold.Chemscore.DG>
-14.9911

> <Gold.Chemscore.ZeroCoef>
-5.4800

> <Gold.Chemscore.Hbond>
0.9908

> <Gold.Chemscore.Metal>
0.0000

> <Gold.Chemscore.Lipo>
95.6548

> <Gold.Chemscore.Internal_Hbond>
0.0000

> <Gold.Chemscore.DEClash>
0.1040

> <Gold.Chemscore.DEInternal>
1.9210

> <Gold.Chemscore.Rot>
1.9491

> <Gold.Chemscore.Internal.Correction>
   9.000000E+99

> <Gold.Chemscore.Hbonds>
donor molecule, donor type, donor heavy atom, donor atom, acceptor molecule, acceptor atom, score
      P1  H  6896  6907       L1    10  1.00

> <Gold.Chemscore.Hbond.Weighted>
-3.3092

> <Gold.Chemscore.Metal.Weighted>
-0.0000

> <Gold.Chemscore.Lipo.Weighted>
-11.1916

> <Gold.Chemscore.Internal_Hbond.Weighted>
0.0000

> <Gold.Chemscore.DEClash.Weighted>
0.1040

> <Gold.Chemscore.DEInternal.Weighted>
1.9210

> <Gold.Chemscore.Rot.Weighted>
4.9897

> <Gold.Chemscore.Internal.Correction.Weighted>
   9.000000E+99

> <Gold.Protein.RotatedTorsions>
[ 6907 6896 6895 6894 ] final   44.75 input  -60.11 | X-H torsion
[ 7974 7965 7964 7962 ] final  105.29 input  175.53 | X-H torsion
[ 8008 7997 7996 7995 ] final  -48.50 input   59.86 | X-H torsion
[ 10167 10162 10161 10158 ] final  146.87 input  -65.29 | X-H torsion
[ 10718 10713 10712 10709 ] final  -36.44 input   66.30 | X-H torsion
[ 10763 10752 10751 10750 ] final  118.73 input  -60.55 | X-H torsion
[ 11005 11000 10999 10996 ] final -160.73 input  -57.11 | X-H torsion

> <Gold.Protein.ActiveResidues>
 VAL166  LYS551  ARG553  GLY616  TRP617  ASP618  TYR619  PRO620  LYS621  CYS622 
 ASP623  PHE694  ASN695  SER759  ASP760  ASP761  ALA762  ILE779  LEU786  VAL792 
 PHE793  MET794  SER795  GLU796  ALA797  LYS798  CYS799  TRP800  GLU811  SER814 

> <Gold.Protein.RotatedAtoms>
  152.2363  134.8273  160.0466 H   0  0  0  0  0  0  0  0  0  0  0  0  # atno 6907 bound_to 6896
  151.9004  133.3531  159.3837 H   0  0  0  0  0  0  0  0  0  0  0  0  # atno 6908 bound_to 6896
  150.7040  134.4760  159.5492 H   0  0  0  0  0  0  0  0  0  0  0  0  # atno 6909 bound_to 6896
  145.3216  139.2511  143.3709 H   0  0  0  0  0  0  0  0  0  0  0  0  # atno 7974 bound_to 7965
  154.4030  140.1320  156.4350 H   0  0  0  0  0  0  0  0  0  0  0  0  # atno 8008 bound_to 7997
  155.7514  140.3488  155.5132 H   0  0  0  0  0  0  0  0  0  0  0  0  # atno 8009 bound_to 7997
  155.8945  140.1009  157.1384 H   0  0  0  0  0  0  0  0  0  0  0  0  # atno 8010 bound_to 7997
  139.4899  144.5797  151.6896 H   0  0  0  0  0  0  0  0  0  0  0  0  # atno 10167 bound_to 10162
  156.3269  130.4273  149.7908 H   0  0  0  0  0  0  0  0  0  0  0  0  # atno 10718 bound_to 10713
  153.5722  135.3500  155.2842 H   0  0  0  0  0  0  0  0  0  0  0  0  # atno 10763 bound_to 10752
  154.8680  135.4162  154.2713 H   0  0  0  0  0  0  0  0  0  0  0  0  # atno 10764 bound_to 10752
  153.3481  135.7053  153.6881 H   0  0  0  0  0  0  0  0  0  0  0  0  # atno 10765 bound_to 10752
  140.6282  134.4679  157.5228 H   0  0  0  0  0  0  0  0  0  0  0  0  # atno 11005 bound_to 11000
  146.3080  140.3775  142.8680 LP  0  0  0  0  0  0  0  0  0  0  0  0  # atno 17320 bound_to 7965
  144.8935  140.7553  143.5912 LP  0  0  0  0  0  0  0  0  0  0  0  0  # atno 17321 bound_to 7965
  140.5401  144.0593  150.6085 LP  0  0  0  0  0  0  0  0  0  0  0  0  # atno 17342 bound_to 10162
  140.3612  143.2907  152.0381 LP  0  0  0  0  0  0  0  0  0  0  0  0  # atno 17343 bound_to 10162
  156.5195  130.8209  151.3198 LP  0  0  0  0  0  0  0  0  0  0  0  0  # atno 17370 bound_to 10713
  157.7423  130.9887  150.2505 LP  0  0  0  0  0  0  0  0  0  0  0  0  # atno 17371 bound_to 10713
  139.9126  134.8312  156.1474 LP  0  0  0  0  0  0  0  0  0  0  0  0  # atno 17394 bound_to 11000
  141.0694  133.6804  156.2110 LP  0  0  0  0  0  0  0  0  0  0  0  0  # atno 17395 bound_to 11000

$$$$
