AV-unprocessed.smi:1754|AV-procd|sdf|7065|dock5
  -GOLD-   22720 8283D 1   1.00000     0.00000
 Structure written by MMmdl.
 45 46  0  0  0  0  0  0  0  0  2 V2000
  153.4088  142.7085  159.6874 C   0  0  0  0  0  0  0  0  0  0  0  0
  151.9670  142.2371  159.4566 C   0  0  0  0  0  0  0  0  0  0  0  0
  151.5290  142.4518  158.0781 N   0  0  0  0  0  0  0  0  0  0  0  0
  151.5566  143.8052  157.5289 C   0  0  0  0  0  0  0  0  0  0  0  0
  151.6159  144.8746  158.6276 C   0  0  0  0  0  0  0  0  0  0  0  0
  151.1334  141.3587  157.2724 C   0  0  0  0  0  0  0  0  0  0  0  0
  150.7073  141.4957  155.9280 C   0  0  0  0  0  0  0  0  0  0  0  0
  150.3300  140.3574  155.1862 C   0  0  0  0  0  0  0  0  0  0  0  0
  150.3886  139.0783  155.7906 C   0  0  0  0  0  0  0  0  0  0  0  0
  150.0133  137.8725  155.1398 N   0  0  0  0  0  0  0  0  0  0  0  0
  149.8600  136.6435  155.6719 C   0  0  0  0  0  0  0  0  0  0  0  0
  149.9722  136.3823  156.8675 O   0  0  0  0  0  0  0  0  0  0  0  0
  149.5278  135.6917  154.7813 N   0  0  0  0  0  0  0  0  0  0  0  0
  149.2884  134.2677  155.0212 C   0  0  1  0  0  0  0  0  0  0  0  0
  149.4624  133.4540  153.7251 C   0  0  0  0  0  0  0  0  0  0  0  0
  149.5562  131.9656  154.0847 C   0  0  0  0  0  0  0  0  0  0  0  0
  150.3128  131.8903  155.7530 S   0  0  0  0  0  0  0  0  0  0  0  0
  149.3817  131.2112  156.6667 O   0  0  0  0  0  0  0  0  0  0  0  0
  151.7153  131.4617  155.6430 O   0  0  0  0  0  0  0  0  0  0  0  0
  150.2590  133.6944  156.0663 C   0  0  0  0  0  0  0  0  0  0  0  0
  150.8031  138.9962  157.1345 C   0  0  0  0  0  0  0  0  0  0  0  0
  151.1550  140.1129  157.8070 N   0  3  0  0  0  0  0  0  0  0  0  0
  153.7033  142.5548  160.7257 H   0  0  0  0  0  0  0  0  0  0  0  0
  153.5192  143.7704  159.4665 H   0  0  0  0  0  0  0  0  0  0  0  0
  154.1119  142.1608  159.0593 H   0  0  0  0  0  0  0  0  0  0  0  0
  151.8581  141.1898  159.7394 H   0  0  0  0  0  0  0  0  0  0  0  0
  151.3012  142.7892  160.1208 H   0  0  0  0  0  0  0  0  0  0  0  0
  152.4374  143.9027  156.8934 H   0  0  0  0  0  0  0  0  0  0  0  0
  150.7055  143.9746  156.8696 H   0  0  0  0  0  0  0  0  0  0  0  0
  151.6477  145.8734  158.1918 H   0  0  0  0  0  0  0  0  0  0  0  0
  152.5046  144.7559  159.2480 H   0  0  0  0  0  0  0  0  0  0  0  0
  150.7441  144.8260  159.2802 H   0  0  0  0  0  0  0  0  0  0  0  0
  150.6485  142.4613  155.4493 H   0  0  0  0  0  0  0  0  0  0  0  0
  149.9880  140.4930  154.1720 H   0  0  0  0  0  0  0  0  0  0  0  0
  149.7912  137.9595  154.1588 H   0  0  0  0  0  0  0  0  0  0  0  0
  149.3872  136.0019  153.8304 H   0  0  0  0  0  0  0  0  0  0  0  0
  148.2645  134.1114  155.3665 H   0  0  0  0  0  0  0  0  0  0  0  0
  148.6563  133.6430  153.0153 H   0  0  0  0  0  0  0  0  0  0  0  0
  150.3915  133.7519  153.2365 H   0  0  0  0  0  0  0  0  0  0  0  0
  148.5636  131.5185  154.1457 H   0  0  0  0  0  0  0  0  0  0  0  0
  150.1523  131.3934  153.3735 H   0  0  0  0  0  0  0  0  0  0  0  0
  151.2673  134.0859  155.9249 H   0  0  0  0  0  0  0  0  0  0  0  0
  149.9523  133.8861  157.0946 H   0  0  0  0  0  0  0  0  0  0  0  0
  150.8704  138.0731  157.6918 H   0  0  0  0  0  0  0  0  0  0  0  0
  151.4571  140.0126  158.7763 H   0  0  0  0  0  0  0  0  0  0  0  0
  1  2  1  0  0  0  0
  1 23  1  0  0  0  0
  1 24  1  0  0  0  0
  1 25  1  0  0  0  0
  2  3  1  0  0  0  0
  2 26  1  0  0  0  0
  2 27  1  0  0  0  0
  3  4  1  0  0  0  0
  3  6  1  0  0  0  0
  4  5  1  0  0  0  0
  4 28  1  0  0  0  0
  4 29  1  0  0  0  0
  5 30  1  0  0  0  0
  5 31  1  0  0  0  0
  5 32  1  0  0  0  0
  6 22  1  0  0  0  0
  6  7  2  0  0  0  0
  7  8  1  0  0  0  0
  7 33  1  0  0  0  0
  8  9  2  0  0  0  0
  8 34  1  0  0  0  0
  9 10  1  0  0  0  0
  9 21  1  0  0  0  0
 10 11  1  0  0  0  0
 10 35  1  0  0  0  0
 11 12  2  0  0  0  0
 11 13  1  0  0  0  0
 13 14  1  0  0  0  0
 13 36  1  0  0  0  0
 14 20  1  0  0  0  0
 14 15  1  0  0  0  0
 14 37  1  0  0  0  0
 15 16  1  0  0  0  0
 15 38  1  0  0  0  0
 15 39  1  0  0  0  0
 16 17  1  0  0  0  0
 16 40  1  0  0  0  0
 16 41  1  0  0  0  0
 17 18  2  0  0  0  0
 17 19  2  0  0  0  0
 17 20  1  0  0  0  0
 20 42  1  0  0  0  0
 20 43  1  0  0  0  0
 21 22  2  0  0  0  0
 21 44  1  0  0  0  0
 22 45  1  0  0  0  0
M  CHG  1  22   1
M  END
> <s_m_source_file>
AV-unprocessed.smi

> <i_m_source_file_index>
1754

> <i_lp_mmshare_version>
43012

> <i_f3d_flags>
0

> <s_epik_input>
W0NIM11bQ0gyXU4oW0NIMl1bQ0gzXSljMVtjSF1bY0hdYyhbY0hdbjEpW05IXUMoPU8pW05IXVtDQEBIXShbQ0gyXTIpW0NIMl1bQ0gyXVMyKD1PKT1P

> <s_epik_cmdline>
J2VwaWtfcHl0aG9uJywgJy1waCcsICc3LjAnLCAnLXRuJywgJzgnLCAnLW1hJywgJzIwMCcsICctbWV0YWxfYmluZGluZycsICctaW1hZScsICc8aW5maWxlLm1hZT4nLCAnLW9tYWUnLCAnPG91dGZpbGUubWFlPic=

> <r_lp_tautomer_probability>
0.999994

> <r_epik_Ionization_Penalty>
0.271106

> <r_epik_Ionization_Penalty_Charging>
0.271085

> <r_epik_Ionization_Penalty_Neutral>
2.10634e-05

> <r_epik_State_Penalty>
0.017795

> <r_epik_Charging_Adjusted_Penalty>
0.28888

> <i_epik_Tot_Q>
1

> <i_epik_Tot_abs_Q>
1

> <r_epik_Metal_State_Penalty>
0.0544868

> <b_epik_Metal_Only>
0

> <s_lp_Force_Field>
OPLS_2005

> <r_lp_Energy>
29.9971

> <b_lp_Chiralities_Consistent>
1

> <s_lp_Variant>
AV-unprocessed.smi:1754-2

> <Gold.Version>
5.8.1

> <Gold.Id.Protein>
6NUR|6NUR_protein|mol2

> <Gold.PLP.Fitness>
40.5698

> <Gold.PLP.PLP>
-38.6559

> <Gold.PLP.part.hbond>
-1.0000

> <Gold.PLP.part.metal>
0.0000

> <Gold.PLP.part.buried>
-4.0027

> <Gold.PLP.part.nonpolar>
-33.5164

> <Gold.PLP.part.repulsive>
0.1267

> <Gold.PLP.ligand.clash>
0.0000

> <Gold.PLP.ligand.torsion>
0.5666

> <Gold.PLP.Chemscore.Hbond>
1.0000

> <Gold.PLP.Chemscore.CHOScore>
0.0000

> <Gold.PLP.Chemscore.Metal>
0.0000

> <Gold.Chemscore.Hbonds>
donor molecule, donor type, donor heavy atom, donor atom, acceptor molecule, acceptor atom, score
      L1  H    13    36       P1  7948  1.00

> <Gold.PLP.Chemscore.Internal.Correction>
0.0471

> <Gold.Rescore>
     Score         DG    S(hbond)    S(metal)    S(lipo)     H(rot)  DE(clash)    DE(int)     intcor
     12.14     -15.82       0.97        0.00      91.59       1.41       0.17       3.52       ----

> <Gold.Chemscore.Fitness>
12.1393

> <Gold.Chemscore.DG>
-15.8250

> <Gold.Chemscore.ZeroCoef>
-5.4800

> <Gold.Chemscore.Hbond>
0.9673

> <Gold.Chemscore.Metal>
0.0000

> <Gold.Chemscore.Lipo>
91.5919

> <Gold.Chemscore.Internal_Hbond>
0.0000

> <Gold.Chemscore.DEClash>
0.1674

> <Gold.Chemscore.DEInternal>
3.5183

> <Gold.Chemscore.Rot>
1.4070

> <Gold.Chemscore.Internal.Correction>
   9.000000E+99

> <Gold.Chemscore.Hbonds>
donor molecule, donor type, donor heavy atom, donor atom, acceptor molecule, acceptor atom, score
      L1  H    13    36       P1  7948  0.67

> <Gold.Chemscore.Hbond.Weighted>
-3.2307

> <Gold.Chemscore.Metal.Weighted>
-0.0000

> <Gold.Chemscore.Lipo.Weighted>
-10.7162

> <Gold.Chemscore.Internal_Hbond.Weighted>
0.0000

> <Gold.Chemscore.DEClash.Weighted>
0.1674

> <Gold.Chemscore.DEInternal.Weighted>
3.5183

> <Gold.Chemscore.Rot.Weighted>
3.6020

> <Gold.Chemscore.Internal.Correction.Weighted>
   9.000000E+99

> <Gold.Protein.RotatedTorsions>
[ 6907 6896 6895 6894 ] final   -5.71 input  -60.11 | X-H torsion
[ 7974 7965 7964 7962 ] final   61.81 input  175.53 | X-H torsion
[ 8008 7997 7996 7995 ] final  -42.91 input   59.86 | X-H torsion
[ 10167 10162 10161 10158 ] final  162.67 input  -65.29 | X-H torsion
[ 10718 10713 10712 10709 ] final    9.77 input   66.30 | X-H torsion
[ 10763 10752 10751 10750 ] final -114.26 input  -60.55 | X-H torsion
[ 11005 11000 10999 10996 ] final  -84.20 input  -57.11 | X-H torsion

> <Gold.Protein.ActiveResidues>
 VAL166  LYS551  ARG553  GLY616  TRP617  ASP618  TYR619  PRO620  LYS621  CYS622 
 ASP623  PHE694  ASN695  SER759  ASP760  ASP761  ALA762  ILE779  LEU786  VAL792 
 PHE793  MET794  SER795  GLU796  ALA797  LYS798  CYS799  TRP800  GLU811  SER814 

> <Gold.Protein.RotatedAtoms>
  151.4772  135.1050  159.9767 H   0  0  0  0  0  0  0  0  0  0  0  0  # atno 6907 bound_to 6896
  152.4793  133.8212  159.7065 H   0  0  0  0  0  0  0  0  0  0  0  0  # atno 6908 bound_to 6896
  150.8854  133.7254  159.2946 H   0  0  0  0  0  0  0  0  0  0  0  0  # atno 6909 bound_to 6896
  145.8805  139.3440  143.0708 H   0  0  0  0  0  0  0  0  0  0  0  0  # atno 7974 bound_to 7965
  154.3997  140.1461  156.3432 H   0  0  0  0  0  0  0  0  0  0  0  0  # atno 8008 bound_to 7997
  155.8337  140.3465  155.5567 H   0  0  0  0  0  0  0  0  0  0  0  0  # atno 8009 bound_to 7997
  155.8161  140.0891  157.1866 H   0  0  0  0  0  0  0  0  0  0  0  0  # atno 8010 bound_to 7997
  139.4863  144.4415  151.8946 H   0  0  0  0  0  0  0  0  0  0  0  0  # atno 10167 bound_to 10162
  156.9712  130.5970  149.5669 H   0  0  0  0  0  0  0  0  0  0  0  0  # atno 10718 bound_to 10713
  154.8432  135.4424  154.1477 H   0  0  0  0  0  0  0  0  0  0  0  0  # atno 10763 bound_to 10752
  153.2646  135.6939  153.7549 H   0  0  0  0  0  0  0  0  0  0  0  0  # atno 10764 bound_to 10752
  153.6813  135.3402  155.3154 H   0  0  0  0  0  0  0  0  0  0  0  0  # atno 10765 bound_to 10752
  141.1652  133.7334  156.8833 H   0  0  0  0  0  0  0  0  0  0  0  0  # atno 11005 bound_to 11000
  145.9029  140.9231  143.0494 LP  0  0  0  0  0  0  0  0  0  0  0  0  # atno 17320 bound_to 7965
  144.6727  140.1056  143.7458 LP  0  0  0  0  0  0  0  0  0  0  0  0  # atno 17321 bound_to 7965
  140.3867  144.2668  150.5903 LP  0  0  0  0  0  0  0  0  0  0  0  0  # atno 17342 bound_to 10162
  140.5184  143.2272  151.8427 LP  0  0  0  0  0  0  0  0  0  0  0  0  # atno 17343 bound_to 10162
  156.0282  130.5375  150.8463 LP  0  0  0  0  0  0  0  0  0  0  0  0  # atno 17370 bound_to 10713
  157.5591  131.0945  150.9585 LP  0  0  0  0  0  0  0  0  0  0  0  0  # atno 17371 bound_to 10713
  140.1699  134.9107  157.2821 LP  0  0  0  0  0  0  0  0  0  0  0  0  # atno 17394 bound_to 11000
  140.2514  134.3679  155.7441 LP  0  0  0  0  0  0  0  0  0  0  0  0  # atno 17395 bound_to 11000

$$$$
