#       Name:                AV-unprocessed.smi:2413
#       Creating user name   scv26
#       Creation time:       Fri Mar 27 13:16:59 2020


#       File generated by GOLD software.
#

@<TRIPOS>MOLECULE
AV-unprocessed.smi:2413
    52    53     1
SMALL
NO_CHARGES


@<TRIPOS>ATOM
      1 ****        -3.5580   3.1254   0.2268 C.3            1 S1                 0.0000
      2 ****        -3.0430   2.0031   1.1209 C.2            1 S1                 0.0000
      3 ****        -3.2439   0.8286   0.8133 O.2            1 S1                 0.0000
      4 ****        -2.3703   2.3798   2.2194 N.am           1 S1                 0.0000
      5 ****        -1.7974   1.4771   3.2146 C.3            1 S1                 0.0000
      6 ****        -0.3077   1.1855   2.9549 C.3            1 S1                 0.0000
      7 ****        -0.0621   0.4125   1.6433 C.3            1 S1                 0.0000
      8 ****         1.3443   0.0364   1.5044 N.3            1 S1                 0.0000
      9 ****         1.7651  -0.4535   0.2474 C.ar           1 S1                 0.0000
     10 ****         3.1188  -0.7468  -0.0174 C.ar           1 S1                 0.0000
     11 ****         3.4319  -1.2416  -1.2962 C.ar           1 S1                 0.0000
     12 ****         2.4614  -1.4069  -2.2261 N.pl3          1 S1                 1.0000
     13 ****         1.1937  -1.0616  -1.9441 C.ar           1 S1                 0.0000
     14 ****         0.0846  -1.3594  -2.9633 C.3            1 S1                 0.0000
     15 ****        -1.0871  -0.3607  -2.8115 C.3            1 S1                 0.0000
     16 ****        -0.4304  -2.7953  -2.7566 C.3            1 S1                 0.0000
     17 ****         0.6103  -1.1979  -4.4078 C.3            1 S1                 0.0000
     18 ****         0.8400  -0.6349  -0.7231 N.ar           1 S1                 0.0000
     19 ****         1.8819  -0.6443   2.6798 C.3            1 S1                 0.0000
     20 ****         1.5762   0.1618   3.9530 C.3            1 S1                 0.0000
     21 ****         0.1770   0.4057   4.0442 O.3            1 S1                 0.0000
     22 ****        -4.1045   3.8643   0.8136 H              1 S1                 0.0000
     23 ****        -4.2294   2.7340  -0.5381 H              1 S1                 0.0000
     24 ****        -2.7265   3.6244  -0.2712 H              1 S1                 0.0000
     25 ****        -2.2529   3.3691   2.3846 H              1 S1                 0.0000
     26 ****        -1.9068   1.9537   4.1890 H              1 S1                 0.0000
     27 ****        -2.3644   0.5458   3.2686 H              1 S1                 0.0000
     28 ****         0.2357   2.1323   2.9305 H              1 S1                 0.0000
     29 ****        -0.6791  -0.4869   1.6159 H              1 S1                 0.0000
     30 ****        -0.3574   1.0385   0.8008 H              1 S1                 0.0000
     31 ****         3.8987  -0.5999   0.7143 H              1 S1                 0.0000
     32 ****         4.4301  -1.5148  -1.6055 H              1 S1                 0.0000
     33 ****        -1.8583  -0.5366  -3.5623 H              1 S1                 0.0000
     34 ****        -0.7492   0.6702  -2.9251 H              1 S1                 0.0000
     35 ****        -1.5723  -0.4433  -1.8378 H              1 S1                 0.0000
     36 ****        -0.8350  -2.9303  -1.7526 H              1 S1                 0.0000
     37 ****         0.3677  -3.5266  -2.8901 H              1 S1                 0.0000
     38 ****        -1.2226  -3.0398  -3.4650 H              1 S1                 0.0000
     39 ****        -0.1813  -1.3676  -5.1385 H              1 S1                 0.0000
     40 ****         1.4059  -1.9082  -4.6352 H              1 S1                 0.0000
     41 ****         1.0025  -0.1945  -4.5789 H              1 S1                 0.0000
     42 ****         1.4321  -1.6356   2.7492 H              1 S1                 0.0000
     43 ****         2.9587  -0.7872   2.6095 H              1 S1                 0.0000
     44 ****         1.8960  -0.3946   4.8340 H              1 S1                 0.0000
     45 ****         2.1235   1.1058   3.9576 H              1 S1                 0.0000
     46 ****         2.7028  -1.7832  -3.1431 H              1 S1                 0.0000
     47 ****        -3.7453   0.6097  -0.0237 LP             1 S1                 0.0000
     48 ****        -2.9057   0.0931   1.4004 LP             1 S1                 0.0000
     49 ****         1.8144   0.9188   1.4883 LP             1 S1                 0.0000
     50 ****        -0.1225  -0.4479  -0.5268 LP             1 S1                 0.0000
     51 ****        -0.3027  -0.4717   4.0502 LP             1 S1                 0.0000
     52 ****        -0.0095   0.8934   4.8970 LP             1 S1                 0.0000
@<TRIPOS>BOND
    1    1    2 1     
    2    1   22 1     
    3    1   23 1     
    4    1   24 1     
    5    2    3 2     
    6    2    4 am    
    7    4    5 1     
    8    4   25 1     
    9    5    6 1     
   10    5   26 1     
   11    5   27 1     
   12    6   21 1     
   13    6    7 1     
   14    6   28 1     
   15    7    8 1     
   16    7   29 1     
   17    7   30 1     
   18    8    9 1     
   19    8   19 1     
   20    9   18 ar    
   21    9   10 ar    
   22   10   11 ar    
   23   10   31 1     
   24   11   12 ar    
   25   11   32 1     
   26   12   13 ar    
   27   12   46 1     
   28   13   14 1     
   29   13   18 ar    
   30   14   15 1     
   31   14   16 1     
   32   14   17 1     
   33   15   33 1     
   34   15   34 1     
   35   15   35 1     
   36   16   36 1     
   37   16   37 1     
   38   16   38 1     
   39   17   39 1     
   40   17   40 1     
   41   17   41 1     
   42   19   20 1     
   43   19   42 1     
   44   19   43 1     
   45   20   21 1     
   46   20   44 1     
   47   20   45 1     
   48    3   47 1     
   49    3   48 1     
   50    8   49 1     
   51   18   50 1     
   52   21   51 1     
   53   21   52 1     
@<TRIPOS>SUBSTRUCTURE
      1 S1             1
@<TRIPOS>SET
LONE_PAIRS      STATIC     ATOMS    <user>   **** ""
6 47 48 49 50 51 52
DONOR_HYDROGENS      STATIC     ATOMS    <user>   **** ""
2 25 46
ATOM$BLUE        STATIC     ATOMS    COLORGROUP SYSTEM
6 47 48 49 50 51 52
ATOM$RED        STATIC     ATOMS    COLORGROUP SYSTEM
2 25 46
