#       Name:                AV-unprocessed.smi:1900
#       Creating user name   scv26
#       Creation time:       Fri Mar 27 09:44:57 2020


#       File generated by GOLD software.
#

@<TRIPOS>MOLECULE
AV-unprocessed.smi:1900
    49    50     1
SMALL
NO_CHARGES


@<TRIPOS>ATOM
      1 ****        -5.3918   2.1196   0.1965 C.3            1 S1                 0.0000
      2 ****        -3.8766   2.0532  -0.0255 C.3            1 S1                 0.0000
      3 ****        -3.3739   0.6050  -0.1786 C.3            1 S1                 0.0000
      4 ****        -1.9200   0.5839  -0.4676 N.4            1 S1                 1.0000
      5 ****        -1.3852  -0.7975  -0.5680 C.3            1 S1                 0.0000
      6 ****         0.1406  -0.8570  -0.3801 C.3            1 S1                 0.0000
      7 ****         0.6699  -2.3007  -0.3755 C.3            1 S1                 0.0000
      8 ****         2.1192  -2.3460  -0.2164 N.am           1 S1                 0.0000
      9 ****         2.7697  -2.2069   0.9476 C.2            1 S1                 0.0000
     10 ****         2.2037  -2.0050   2.0223 O.2            1 S1                 0.0000
     11 ****         4.0981  -2.3165   0.7818 N.am           1 S1                 0.0000
     12 ****         5.1006  -2.2256   1.7804 C.2            1 S1                 0.0000
     13 ****         6.4926  -2.3929   1.5471 C.2            1 S1                 0.0000
     14 ****         7.1910  -2.2513   2.6645 N.2            1 S1                 0.0000
     15 ****         6.2581  -1.9940   3.6087 N.pl3          1 S1                 0.0000
     16 ****         4.9719  -1.9688   3.1166 C.2            1 S1                 0.0000
     17 ****        -1.6183   1.4247  -1.6525 C.3            1 S1                 0.0000
     18 ****        -2.1700   2.8501  -1.4599 C.3            1 S1                 0.0000
     19 ****        -1.9495   3.7269  -2.6976 C.3            1 S1                 0.0000
     20 ****        -3.5694   2.7783  -1.2109 O.3            1 S1                 0.0000
     21 ****         6.5119  -1.8399   4.5742 H              1 S1                 0.0000
     22 ****        -5.6794   1.5896   1.1048 H              1 S1                 0.0000
     23 ****        -5.9340   1.6730  -0.6375 H              1 S1                 0.0000
     24 ****        -5.7264   3.1526   0.2953 H              1 S1                 0.0000
     25 ****        -3.3811   2.5270   0.8239 H              1 S1                 0.0000
     26 ****        -3.5743   0.0492   0.7385 H              1 S1                 0.0000
     27 ****        -3.9117   0.1010  -0.9835 H              1 S1                 0.0000
     28 ****        -1.8443  -1.4093   0.2100 H              1 S1                 0.0000
     29 ****        -1.6764  -1.2411  -1.5214 H              1 S1                 0.0000
     30 ****         0.6437  -0.3024  -1.1720 H              1 S1                 0.0000
     31 ****         0.4047  -0.3668   0.5579 H              1 S1                 0.0000
     32 ****         0.1912  -2.8830   0.4137 H              1 S1                 0.0000
     33 ****         0.4194  -2.7900  -1.3170 H              1 S1                 0.0000
     34 ****         2.6652  -2.5087  -1.0501 H              1 S1                 0.0000
     35 ****         4.4280  -2.4919  -0.1560 H              1 S1                 0.0000
     36 ****         7.0090  -2.6087   0.6234 H              1 S1                 0.0000
     37 ****         4.1160  -1.7749   3.7457 H              1 S1                 0.0000
     38 ****        -0.5426   1.4771  -1.8159 H              1 S1                 0.0000
     39 ****        -2.0552   0.9690  -2.5427 H              1 S1                 0.0000
     40 ****        -1.6774   3.3232  -0.6085 H              1 S1                 0.0000
     41 ****        -0.8880   3.8214  -2.9278 H              1 S1                 0.0000
     42 ****        -2.3453   4.7305  -2.5399 H              1 S1                 0.0000
     43 ****        -2.4458   3.3074  -3.5732 H              1 S1                 0.0000
     44 ****        -1.4670   1.0141   0.3262 H              1 S1                 0.0000
     45 ****         1.2066  -1.9368   2.0572 LP             1 S1                 0.0000
     46 ****         2.7411  -1.9092   2.8602 LP             1 S1                 0.0000
     47 ****         8.1817  -2.3192   2.7823 LP             1 S1                 0.0000
     48 ****        -3.9268   3.7078  -1.1198 LP             1 S1                 0.0000
     49 ****        -4.0102   2.3263  -1.9864 LP             1 S1                 0.0000
@<TRIPOS>BOND
    1    1    2 1     
    2    1   22 1     
    3    1   23 1     
    4    1   24 1     
    5    2   20 1     
    6    2    3 1     
    7    2   25 1     
    8    3    4 1     
    9    3   26 1     
   10    3   27 1     
   11    4    5 1     
   12    4   17 1     
   13    4   44 1     
   14    5    6 1     
   15    5   28 1     
   16    5   29 1     
   17    6    7 1     
   18    6   30 1     
   19    6   31 1     
   20    7    8 1     
   21    7   32 1     
   22    7   33 1     
   23    8    9 am    
   24    8   34 1     
   25    9   10 2     
   26    9   11 am    
   27   11   12 1     
   28   11   35 1     
   29   12   16 2     
   30   12   13 1     
   31   13   14 2     
   32   13   36 1     
   33   14   15 1     
   34   15   21 1     
   35   15   16 1     
   36   16   37 1     
   37   17   18 1     
   38   17   38 1     
   39   17   39 1     
   40   18   19 1     
   41   18   20 1     
   42   18   40 1     
   43   19   41 1     
   44   19   42 1     
   45   19   43 1     
   46   10   45 1     
   47   10   46 1     
   48   14   47 1     
   49   20   48 1     
   50   20   49 1     
@<TRIPOS>SUBSTRUCTURE
      1 S1             1
@<TRIPOS>SET
LONE_PAIRS      STATIC     ATOMS    <user>   **** ""
5 45 46 47 48 49
DONOR_HYDROGENS      STATIC     ATOMS    <user>   **** ""
4 44 34 35 21
ATOM$BLUE        STATIC     ATOMS    COLORGROUP SYSTEM
5 45 46 47 48 49
ATOM$RED        STATIC     ATOMS    COLORGROUP SYSTEM
4 44 34 35 21
