AV-unprocessed.smi:196|AV-procd|sdf|1532|dock10
  -GOLD-   2262019383D 1   1.00000     0.00000
 Structure written by MMmdl.
 47 50  0  0  0  0  0  0  0  0  1 V2000
  150.4371  141.8767  156.5863 C   0  0  0  0  0  0  0  0  0  0  0  0
  151.2643  140.7762  155.9038 C   0  0  2  0  0  0  0  0  0  0  0  0
  150.4752  140.2117  154.8610 O   0  0  0  0  0  0  0  0  0  0  0  0
  150.9012  138.8784  154.6481 C   0  0  0  0  0  0  0  0  0  0  0  0
  151.0994  138.3731  156.0690 C   0  0  0  0  0  0  0  0  0  0  0  0
  151.7092  139.5760  156.7880 C   0  0  1  0  0  0  0  0  0  0  0  0
  153.1195  139.4702  156.6915 O   0  0  0  0  0  0  0  0  0  0  0  0
  151.3317  139.6511  158.2912 C   0  0  0  0  0  0  0  0  0  0  0  0
  152.1410  138.7856  159.1360 N   0  0  0  0  0  0  0  0  0  0  0  0
  152.1565  137.4082  159.1323 C   0  0  0  0  0  0  0  0  0  0  0  0
  152.9740  136.8572  159.9877 N   0  0  0  0  0  0  0  0  0  0  0  0
  153.5599  137.9369  160.6354 C   0  0  0  0  0  0  0  0  0  0  0  0
  154.5287  138.0632  161.6648 C   0  0  0  0  0  0  0  0  0  0  0  0
  155.1124  136.9852  162.2384 N   0  0  0  0  0  0  0  0  0  0  0  0
  156.0171  136.2360  161.3688 C   0  0  0  0  0  0  0  0  0  0  0  0
  155.4053  134.8459  161.2342 C   0  0  1  0  0  0  0  0  0  0  0  0
  156.3134  133.9065  160.9714 F   0  0  0  0  0  0  0  0  0  0  0  0
  154.7377  134.6542  162.5877 C   0  0  0  0  0  0  0  0  0  0  0  0
  154.1850  136.0546  162.9027 C   0  0  1  0  0  0  0  0  0  0  0  0
  154.0385  136.2810  164.4183 C   0  0  0  0  0  0  0  0  0  0  0  0
  154.2937  135.2672  165.2512 N   0  0  0  0  0  0  0  0  0  0  0  0
  153.6990  137.3854  164.8371 O   0  0  0  0  0  0  0  0  0  0  0  0
  154.8665  139.3158  162.0712 N   0  0  0  0  0  0  0  0  0  0  0  0
  154.2945  140.3795  161.4988 C   0  0  0  0  0  0  0  0  0  0  0  0
  153.3829  140.4139  160.5241 N   0  0  0  0  0  0  0  0  0  0  0  0
  153.0416  139.1569  160.1190 C   0  0  0  0  0  0  0  0  0  0  0  0
  154.6621  134.8283  160.4359 H   0  0  0  0  0  0  0  0  0  0  0  0
  153.1891  136.1363  162.4622 H   0  0  0  0  0  0  0  0  0  0  0  0
  150.9978  142.3555  157.3892 H   0  0  0  0  0  0  0  0  0  0  0  0
  149.5095  141.4837  157.0028 H   0  0  0  0  0  0  0  0  0  0  0  0
  150.1679  142.6530  155.8699 H   0  0  0  0  0  0  0  0  0  0  0  0
  152.1330  141.2422  155.4344 H   0  0  0  0  0  0  0  0  0  0  0  0
  150.1603  138.3020  154.0938 H   0  0  0  0  0  0  0  0  0  0  0  0
  151.8390  138.8710  154.0905 H   0  0  0  0  0  0  0  0  0  0  0  0
  150.1214  138.1398  156.4913 H   0  0  0  0  0  0  0  0  0  0  0  0
  151.7073  137.4688  156.1221 H   0  0  0  0  0  0  0  0  0  0  0  0
  153.4479  139.0870  157.4906 H   0  0  0  0  0  0  0  0  0  0  0  0
  151.4282  140.6734  158.6591 H   0  0  0  0  0  0  0  0  0  0  0  0
  150.2890  139.3675  158.4366 H   0  0  0  0  0  0  0  0  0  0  0  0
  151.5408  136.8200  158.4673 H   0  0  0  0  0  0  0  0  0  0  0  0
  156.1852  136.6991  160.3947 H   0  0  0  0  0  0  0  0  0  0  0  0
  156.9847  136.1786  161.8689 H   0  0  0  0  0  0  0  0  0  0  0  0
  153.9607  133.8893  162.5649 H   0  0  0  0  0  0  0  0  0  0  0  0
  155.4837  134.3533  163.3259 H   0  0  0  0  0  0  0  0  0  0  0  0
  154.1999  135.3994  166.2483 H   0  0  0  0  0  0  0  0  0  0  0  0
  154.5772  134.3720  164.8805 H   0  0  0  0  0  0  0  0  0  0  0  0
  154.6137  141.3404  161.8745 H   0  0  0  0  0  0  0  0  0  0  0  0
  1  2  1  0  0  0  0
  1 29  1  0  0  0  0
  1 30  1  0  0  0  0
  1 31  1  0  0  0  0
  2  6  1  0  0  0  0
  2  3  1  0  0  0  0
  2 32  1  0  0  0  0
  3  4  1  0  0  0  0
  4  5  1  0  0  0  0
  4 33  1  0  0  0  0
  4 34  1  0  0  0  0
  5  6  1  0  0  0  0
  5 35  1  0  0  0  0
  5 36  1  0  0  0  0
  6  7  1  0  0  0  0
  6  8  1  0  0  0  0
  7 37  1  0  0  0  0
  8  9  1  0  0  0  0
  8 38  1  0  0  0  0
  8 39  1  0  0  0  0
  9 26  1  0  0  0  0
  9 10  1  0  0  0  0
 10 11  2  0  0  0  0
 10 40  1  0  0  0  0
 11 12  1  0  0  0  0
 12 26  2  0  0  0  0
 12 13  1  0  0  0  0
 13 14  1  0  0  0  0
 13 23  2  0  0  0  0
 14 19  1  0  0  0  0
 14 15  1  0  0  0  0
 15 16  1  0  0  0  0
 15 41  1  0  0  0  0
 15 42  1  0  0  0  0
 16 27  1  0  0  0  0
 16 17  1  0  0  0  0
 16 18  1  0  0  0  0
 18 19  1  0  0  0  0
 18 43  1  0  0  0  0
 18 44  1  0  0  0  0
 19 28  1  0  0  0  0
 19 20  1  0  0  0  0
 20 21  1  0  0  0  0
 20 22  2  0  0  0  0
 21 45  1  0  0  0  0
 21 46  1  0  0  0  0
 23 24  1  0  0  0  0
 24 25  2  0  0  0  0
 24 47  1  0  0  0  0
 25 26  1  0  0  0  0
M  END
> <s_m_source_file>
AV-unprocessed.smi

> <i_m_source_file_index>
196

> <i_lp_mmshare_version>
43012

> <i_f3d_flags>
0

> <s_epik_input>
W0NIMl0xW0NIMl1PW0NAQEhdKFtDSDNdKVtDQEBdMShbT0hdKVtDSDJdbihbY0hdbjIpYyhjMjMpbltjSF1uYzNONFtDSDJdW0NASF0oRilbQ0gyXVtDQEhdNEMoPU8pW05IMl0=

> <s_epik_cmdline>
J2VwaWtfcHl0aG9uJywgJy1waCcsICc3LjAnLCAnLXRuJywgJzgnLCAnLW1hJywgJzIwMCcsICctbWV0YWxfYmluZGluZycsICctaW1hZScsICc8aW5maWxlLm1hZT4nLCAnLW9tYWUnLCAnPG91dGZpbGUubWFlPic=

> <r_lp_tautomer_probability>
1

> <r_epik_Ionization_Penalty>
0.000857933

> <r_epik_Ionization_Penalty_Charging>
0

> <r_epik_Ionization_Penalty_Neutral>
0.000857933

> <r_epik_State_Penalty>
0.000462053

> <r_epik_Charging_Adjusted_Penalty>
0.000462053

> <i_epik_Tot_Q>
0

> <i_epik_Tot_abs_Q>
0

> <r_epik_Metal_State_Penalty>
-0

> <b_epik_Metal_Only>
0

> <s_lp_Force_Field>
OPLS_2005

> <r_lp_Energy>
45.3025

> <b_lp_Chiralities_Consistent>
1

> <s_lp_Variant>
AV-unprocessed.smi:196-5

> <Gold.Version>
5.8.1

> <Gold.Id.Protein>
6NUR|6NUR_protein|mol2

> <Gold.PLP.Fitness>
42.9420

> <Gold.PLP.PLP>
-37.2708

> <Gold.PLP.part.hbond>
-3.8933

> <Gold.PLP.part.metal>
0.0000

> <Gold.PLP.part.buried>
-4.6385

> <Gold.PLP.part.nonpolar>
-28.7900

> <Gold.PLP.part.repulsive>
0.2571

> <Gold.PLP.ligand.clash>
0.0000

> <Gold.PLP.ligand.torsion>
0.4552

> <Gold.PLP.Chemscore.Hbond>
2.1670

> <Gold.PLP.Chemscore.CHOScore>
0.0000

> <Gold.PLP.Chemscore.Metal>
0.0000

> <Gold.Chemscore.Hbonds>
donor molecule, donor type, donor heavy atom, donor atom, acceptor molecule, acceptor atom, score
      P1  H  6896  6908       L1    11  0.68
      P1  H  7989  7998       L1     3  0.39
      P1  H  7997  8008       L1     7  0.75

> <Gold.PLP.Chemscore.Internal.Correction>
0.0806

> <Gold.Rescore>
     Score         DG    S(hbond)    S(metal)    S(lipo)     H(rot)  DE(clash)    DE(int)     intcor
      6.98      -7.60       0.88        0.00      59.44       3.04       0.38       0.25       ----

> <Gold.Chemscore.Fitness>
6.9765

> <Gold.Chemscore.DG>
-7.6017

> <Gold.Chemscore.ZeroCoef>
-5.4800

> <Gold.Chemscore.Hbond>
0.8840

> <Gold.Chemscore.Metal>
0.0000

> <Gold.Chemscore.Lipo>
59.4415

> <Gold.Chemscore.Internal_Hbond>
0.0000

> <Gold.Chemscore.DEClash>
0.3791

> <Gold.Chemscore.DEInternal>
0.2461

> <Gold.Chemscore.Rot>
3.0413

> <Gold.Chemscore.Internal.Correction>
   9.000000E+99

> <Gold.Chemscore.Hbonds>
donor molecule, donor type, donor heavy atom, donor atom, acceptor molecule, acceptor atom, score
      P1  H  6896  6908       L1    11  0.07
      P1  H  7997  8008       L1     7  0.25

> <Gold.Chemscore.Hbond.Weighted>
-2.9527

> <Gold.Chemscore.Metal.Weighted>
-0.0000

> <Gold.Chemscore.Lipo.Weighted>
-6.9547

> <Gold.Chemscore.Internal_Hbond.Weighted>
0.0000

> <Gold.Chemscore.DEClash.Weighted>
0.3791

> <Gold.Chemscore.DEInternal.Weighted>
0.2461

> <Gold.Chemscore.Rot.Weighted>
7.7856

> <Gold.Chemscore.Internal.Correction.Weighted>
   9.000000E+99

> <Gold.Protein.RotatedTorsions>
[ 6907 6896 6895 6894 ] final  -97.45 input  -60.11 | X-H torsion
[ 7974 7965 7964 7962 ] final  -42.94 input  175.53 | X-H torsion
[ 8008 7997 7996 7995 ] final  -26.57 input   59.86 | X-H torsion
[ 10167 10162 10161 10158 ] final -132.96 input  -65.29 | X-H torsion
[ 10718 10713 10712 10709 ] final  -64.46 input   66.30 | X-H torsion
[ 10763 10752 10751 10750 ] final  -17.43 input  -60.55 | X-H torsion
[ 11005 11000 10999 10996 ] final  132.55 input  -57.11 | X-H torsion

> <Gold.Protein.ActiveResidues>
 VAL166  LYS551  ARG553  GLY616  TRP617  ASP618  TYR619  PRO620  LYS621  CYS622 
 ASP623  PHE694  ASN695  SER759  ASP760  ASP761  ALA762  ILE779  LEU786  VAL792 
 PHE793  MET794  SER795  GLU796  ALA797  LYS798  CYS799  TRP800  GLU811  SER814 

> <Gold.Protein.RotatedAtoms>
  150.7017  134.1347  159.4082 H   0  0  0  0  0  0  0  0  0  0  0  0  # atno 6907 bound_to 6896
  151.9332  135.0245  160.0540 H   0  0  0  0  0  0  0  0  0  0  0  0  # atno 6908 bound_to 6896
  152.2158  133.4910  159.5171 H   0  0  0  0  0  0  0  0  0  0  0  0  # atno 6909 bound_to 6896
  146.0067  140.7011  142.9244 H   0  0  0  0  0  0  0  0  0  0  0  0  # atno 7974 bound_to 7965
  154.4419  140.1896  156.0796 H   0  0  0  0  0  0  0  0  0  0  0  0  # atno 8008 bound_to 7997
  156.0449  140.3315  155.7258 H   0  0  0  0  0  0  0  0  0  0  0  0  # atno 8009 bound_to 7997
  155.5645  140.0607  157.2812 H   0  0  0  0  0  0  0  0  0  0  0  0  # atno 8010 bound_to 7997
  139.9031  143.6583  152.2591 H   0  0  0  0  0  0  0  0  0  0  0  0  # atno 10167 bound_to 10162
  156.0728  130.4234  150.1424 H   0  0  0  0  0  0  0  0  0  0  0  0  # atno 10718 bound_to 10713
  153.5737  135.7007  153.5493 H   0  0  0  0  0  0  0  0  0  0  0  0  # atno 10763 bound_to 10752
  153.3322  135.4044  155.1504 H   0  0  0  0  0  0  0  0  0  0  0  0  # atno 10764 bound_to 10752
  154.8629  135.3721  154.5261 H   0  0  0  0  0  0  0  0  0  0  0  0  # atno 10765 bound_to 10752
  139.9797  134.9552  156.9599 H   0  0  0  0  0  0  0  0  0  0  0  0  # atno 11005 bound_to 11000
  144.6938  140.3328  143.7213 LP  0  0  0  0  0  0  0  0  0  0  0  0  # atno 17320 bound_to 7965
  145.7404  139.1762  143.2379 LP  0  0  0  0  0  0  0  0  0  0  0  0  # atno 17321 bound_to 7965
  139.7007  144.7635  151.1278 LP  0  0  0  0  0  0  0  0  0  0  0  0  # atno 17342 bound_to 10162
  140.7702  143.5461  150.9257 LP  0  0  0  0  0  0  0  0  0  0  0  0  # atno 17343 bound_to 10162
  156.9471  130.9763  151.3505 LP  0  0  0  0  0  0  0  0  0  0  0  0  # atno 17370 bound_to 10713
  157.5807  130.8375  149.8519 LP  0  0  0  0  0  0  0  0  0  0  0  0  # atno 17371 bound_to 10713
  140.5121  134.0991  155.7272 LP  0  0  0  0  0  0  0  0  0  0  0  0  # atno 17394 bound_to 11000
  141.1471  133.9036  157.2190 LP  0  0  0  0  0  0  0  0  0  0  0  0  # atno 17395 bound_to 11000

$$$$
