AV-unprocessed.smi:1751|AV-procd|sdf|7056|dock4
  -GOLD-   22720 8273D 1   1.00000     0.00000
 Structure written by MMmdl.
 35 36  0  0  0  0  0  0  0  0  1 V2000
  151.8698  141.5294  157.9388 C   0  0  0  0  0  0  0  0  0  0  0  0
  151.3267  141.5376  156.6231 O   0  0  0  0  0  0  0  0  0  0  0  0
  150.9150  140.3390  156.0770 C   0  0  0  0  0  0  0  0  0  0  0  0
  150.7764  139.2236  156.9266 C   0  0  0  0  0  0  0  0  0  0  0  0
  150.3596  137.9982  156.3736 C   0  0  0  0  0  0  0  0  0  0  0  0
  150.1039  137.9193  154.9901 C   0  0  0  0  0  0  0  0  0  0  0  0
  149.6708  136.6740  154.4608 N   0  0  0  0  0  0  0  0  0  0  0  0
  149.5846  135.4877  155.0863 C   0  0  0  0  0  0  0  0  0  0  0  0
  149.8674  135.2823  156.2666 O   0  0  0  0  0  0  0  0  0  0  0  0
  149.1200  134.5385  154.2625 N   0  0  0  0  0  0  0  0  0  0  0  0
  148.8625  133.1541  154.6426 C   0  0  0  0  0  0  0  0  0  0  0  0
  148.2373  132.3586  153.4846 C   0  0  2  0  0  0  0  0  0  0  0  0
  146.9652  132.9887  152.9210 C   0  0  0  0  0  0  0  0  0  0  0  0
  146.2778  131.7884  152.3122 C   0  0  0  0  0  0  0  0  0  0  0  0
  146.5923  130.6997  153.3339 C   0  0  0  0  0  0  0  0  0  0  0  0
  147.8394  131.0610  153.9227 O   0  0  0  0  0  0  0  0  0  0  0  0
  150.2584  139.0995  154.2227 C   0  0  0  0  0  0  0  0  0  0  0  0
  150.6554  140.2784  154.7475 N   0  0  0  0  0  0  0  0  0  0  0  0
  152.1431  142.5455  158.2226 H   0  0  0  0  0  0  0  0  0  0  0  0
  152.7710  140.9171  157.9947 H   0  0  0  0  0  0  0  0  0  0  0  0
  151.1439  141.1665  158.6680 H   0  0  0  0  0  0  0  0  0  0  0  0
  150.9863  139.3068  157.9826 H   0  0  0  0  0  0  0  0  0  0  0  0
  150.2445  137.1299  157.0060 H   0  0  0  0  0  0  0  0  0  0  0  0
  149.3218  136.7030  153.5139 H   0  0  0  0  0  0  0  0  0  0  0  0
  148.9052  134.7954  153.3102 H   0  0  0  0  0  0  0  0  0  0  0  0
  149.8059  132.6981  154.9441 H   0  0  0  0  0  0  0  0  0  0  0  0
  148.2106  133.1247  155.5173 H   0  0  0  0  0  0  0  0  0  0  0  0
  148.9555  132.2332  152.6726 H   0  0  0  0  0  0  0  0  0  0  0  0
  146.3508  133.4037  153.7214 H   0  0  0  0  0  0  0  0  0  0  0  0
  147.1668  133.7794  152.1977 H   0  0  0  0  0  0  0  0  0  0  0  0
  145.2085  131.9351  152.1592 H   0  0  0  0  0  0  0  0  0  0  0  0
  146.7320  131.5454  151.3507 H   0  0  0  0  0  0  0  0  0  0  0  0
  145.8340  130.6823  154.1178 H   0  0  0  0  0  0  0  0  0  0  0  0
  146.6363  129.7082  152.8829 H   0  0  0  0  0  0  0  0  0  0  0  0
  150.0441  139.1261  153.1658 H   0  0  0  0  0  0  0  0  0  0  0  0
  1  2  1  0  0  0  0
  1 19  1  0  0  0  0
  1 20  1  0  0  0  0
  1 21  1  0  0  0  0
  2  3  1  0  0  0  0
  3 18  1  0  0  0  0
  3  4  2  0  0  0  0
  4  5  1  0  0  0  0
  4 22  1  0  0  0  0
  5  6  2  0  0  0  0
  5 23  1  0  0  0  0
  6  7  1  0  0  0  0
  6 17  1  0  0  0  0
  7  8  1  0  0  0  0
  7 24  1  0  0  0  0
  8  9  2  0  0  0  0
  8 10  1  0  0  0  0
 10 11  1  0  0  0  0
 10 25  1  0  0  0  0
 11 12  1  0  0  0  0
 11 26  1  0  0  0  0
 11 27  1  0  0  0  0
 12 16  1  0  0  0  0
 12 13  1  0  0  0  0
 12 28  1  0  0  0  0
 13 14  1  0  0  0  0
 13 29  1  0  0  0  0
 13 30  1  0  0  0  0
 14 15  1  0  0  0  0
 14 31  1  0  0  0  0
 14 32  1  0  0  0  0
 15 16  1  0  0  0  0
 15 33  1  0  0  0  0
 15 34  1  0  0  0  0
 17 18  2  0  0  0  0
 17 35  1  0  0  0  0
M  END
> <s_m_source_file>
AV-unprocessed.smi

> <i_m_source_file_index>
1751

> <i_lp_mmshare_version>
43012

> <i_f3d_flags>
0

> <s_epik_input>
W0NIM11PYzFbY0hdW2NIXWMoW2NIXW4xKVtOSF1DKD1PKVtOSF1bQ0gyXVtDQEBIXTJbQ0gyXVtDSDJdW0NIMl1PMg==

> <s_epik_cmdline>
J2VwaWtfcHl0aG9uJywgJy1waCcsICc3LjAnLCAnLXRuJywgJzgnLCAnLW1hJywgJzIwMCcsICctbWV0YWxfYmluZGluZycsICctaW1hZScsICc8aW5maWxlLm1hZT4nLCAnLW9tYWUnLCAnPG91dGZpbGUubWFlPic=

> <r_lp_tautomer_probability>
1

> <r_epik_Ionization_Penalty>
9.01694e-05

> <r_epik_Ionization_Penalty_Charging>
0

> <r_epik_Ionization_Penalty_Neutral>
9.01694e-05

> <r_epik_State_Penalty>
-0

> <r_epik_Charging_Adjusted_Penalty>
0

> <i_epik_Tot_Q>
0

> <i_epik_Tot_abs_Q>
0

> <r_epik_Metal_State_Penalty>
-0

> <b_epik_Metal_Only>
0

> <s_lp_Force_Field>
OPLS_2005

> <r_lp_Energy>
19.4373

> <b_lp_Chiralities_Consistent>
1

> <s_lp_Variant>
AV-unprocessed.smi:1751-1

> <Gold.Version>
5.8.1

> <Gold.Id.Protein>
6NUR|6NUR_protein|mol2

> <Gold.PLP.Fitness>
36.9320

> <Gold.PLP.PLP>
-26.3216

> <Gold.PLP.part.hbond>
-3.1618

> <Gold.PLP.part.metal>
0.0000

> <Gold.PLP.part.buried>
-3.3446

> <Gold.PLP.part.nonpolar>
-19.9534

> <Gold.PLP.part.repulsive>
0.2723

> <Gold.PLP.ligand.clash>
0.1704

> <Gold.PLP.ligand.torsion>
0.1949

> <Gold.PLP.Chemscore.Hbond>
2.7200

> <Gold.PLP.Chemscore.CHOScore>
1.0000

> <Gold.PLP.Chemscore.Metal>
0.0000

> <Gold.Chemscore.Hbonds>
donor molecule, donor type, donor heavy atom, donor atom, acceptor molecule, acceptor atom, score
      L1  H     7    24       P1  7948  1.00
      L1  H    10    25       P1  7948  0.91
      P1  H  7989  7998       L1    18  1.00
      L1  C    17    35       P1  7957  1.00

> <Gold.PLP.Chemscore.Internal.Correction>
0.0105

> <Gold.Rescore>
     Score         DG    S(hbond)    S(metal)    S(lipo)     H(rot)  DE(clash)    DE(int)     intcor
     11.64     -13.42       1.62        0.00      54.37       1.50       0.04       1.74       ----

> <Gold.Chemscore.Fitness>
11.6370

> <Gold.Chemscore.DG>
-13.4242

> <Gold.Chemscore.ZeroCoef>
-5.4800

> <Gold.Chemscore.Hbond>
1.6215

> <Gold.Chemscore.Metal>
0.0000

> <Gold.Chemscore.Lipo>
54.3662

> <Gold.Chemscore.Internal_Hbond>
0.0000

> <Gold.Chemscore.DEClash>
0.0431

> <Gold.Chemscore.DEInternal>
1.7440

> <Gold.Chemscore.Rot>
1.4971

> <Gold.Chemscore.Internal.Correction>
   9.000000E+99

> <Gold.Chemscore.Hbonds>
donor molecule, donor type, donor heavy atom, donor atom, acceptor molecule, acceptor atom, score
      L1  H     7    24       P1  7948  0.94
      L1  H    10    25       P1  7948  0.19
      P1  H  7989  7998       L1    18  0.30

> <Gold.Chemscore.Hbond.Weighted>
-5.4160

> <Gold.Chemscore.Metal.Weighted>
-0.0000

> <Gold.Chemscore.Lipo.Weighted>
-6.3608

> <Gold.Chemscore.Internal_Hbond.Weighted>
0.0000

> <Gold.Chemscore.DEClash.Weighted>
0.0431

> <Gold.Chemscore.DEInternal.Weighted>
1.7440

> <Gold.Chemscore.Rot.Weighted>
3.8326

> <Gold.Chemscore.Internal.Correction.Weighted>
   9.000000E+99

> <Gold.Protein.RotatedTorsions>
[ 6907 6896 6895 6894 ] final  133.71 input  -60.11 | X-H torsion
[ 7974 7965 7964 7962 ] final -163.29 input  175.53 | X-H torsion
[ 8008 7997 7996 7995 ] final  -92.34 input   59.86 | X-H torsion
[ 10167 10162 10161 10158 ] final   41.87 input  -65.29 | X-H torsion
[ 10718 10713 10712 10709 ] final  -17.16 input   66.30 | X-H torsion
[ 10763 10752 10751 10750 ] final  -64.51 input  -60.55 | X-H torsion
[ 11005 11000 10999 10996 ] final  -72.41 input  -57.11 | X-H torsion

> <Gold.Protein.ActiveResidues>
 VAL166  LYS551  ARG553  GLY616  TRP617  ASP618  TYR619  PRO620  LYS621  CYS622 
 ASP623  PHE694  ASN695  SER759  ASP760  ASP761  ALA762  ILE779  LEU786  VAL792 
 PHE793  MET794  SER795  GLU796  ALA797  LYS798  CYS799  TRP800  GLU811  SER814 

> <Gold.Protein.RotatedAtoms>
  152.3191  133.5834  159.5732 H   0  0  0  0  0  0  0  0  0  0  0  0  # atno 6907 bound_to 6896
  150.7362  134.0038  159.3656 H   0  0  0  0  0  0  0  0  0  0  0  0  # atno 6908 bound_to 6896
  151.7924  135.0732  160.0440 H   0  0  0  0  0  0  0  0  0  0  0  0  # atno 6909 bound_to 6896
  144.7330  140.3128  143.6185 H   0  0  0  0  0  0  0  0  0  0  0  0  # atno 7974 bound_to 7965
  154.7219  140.0510  157.0647 H   0  0  0  0  0  0  0  0  0  0  0  0  # atno 8008 bound_to 7997
  155.0416  140.3169  155.4703 H   0  0  0  0  0  0  0  0  0  0  0  0  # atno 8009 bound_to 7997
  156.2818  140.2132  156.5540 H   0  0  0  0  0  0  0  0  0  0  0  0  # atno 8010 bound_to 7997
  140.3600  144.2240  150.6139 H   0  0  0  0  0  0  0  0  0  0  0  0  # atno 10167 bound_to 10162
  156.5774  130.4765  149.6335 H   0  0  0  0  0  0  0  0  0  0  0  0  # atno 10718 bound_to 10713
  154.3312  135.6176  153.5552 H   0  0  0  0  0  0  0  0  0  0  0  0  # atno 10763 bound_to 10752
  152.9811  135.5747  154.4960 H   0  0  0  0  0  0  0  0  0  0  0  0  # atno 10764 bound_to 10752
  154.4646  135.2857  155.1664 H   0  0  0  0  0  0  0  0  0  0  0  0  # atno 10765 bound_to 10752
  141.1608  133.6846  156.7054 H   0  0  0  0  0  0  0  0  0  0  0  0  # atno 11005 bound_to 11000
  145.7647  139.1837  143.2246 LP  0  0  0  0  0  0  0  0  0  0  0  0  # atno 17320 bound_to 7965
  146.0958  140.7602  142.9573 LP  0  0  0  0  0  0  0  0  0  0  0  0  # atno 17321 bound_to 7965
  140.5136  143.2284  151.8498 LP  0  0  0  0  0  0  0  0  0  0  0  0  # atno 17342 bound_to 10162
  139.4815  144.4921  151.9172 LP  0  0  0  0  0  0  0  0  0  0  0  0  # atno 17343 bound_to 10162
  156.2661  130.6990  151.1774 LP  0  0  0  0  0  0  0  0  0  0  0  0  # atno 17370 bound_to 10713
  157.7334  131.0591  150.5577 LP  0  0  0  0  0  0  0  0  0  0  0  0  # atno 17371 bound_to 10713
  140.2927  134.8227  157.4031 LP  0  0  0  0  0  0  0  0  0  0  0  0  # atno 17394 bound_to 11000
  140.1332  134.5068  155.8089 LP  0  0  0  0  0  0  0  0  0  0  0  0  # atno 17395 bound_to 11000

$$$$
