#       Name:                AV-unprocessed.smi:290
#       Creating user name   scv26
#       Creation time:       Thu Mar 26 22:08:44 2020


#       File generated by GOLD software.
#

@<TRIPOS>MOLECULE
AV-unprocessed.smi:290
    69    72     1
SMALL
NO_CHARGES


@<TRIPOS>ATOM
      1 ****        -3.1918  -0.7872   2.8242 C.3            1 S1                 0.0000
      2 ****        -4.3216  -1.3387   1.9369 C.3            1 S1                 0.0000
      3 ****        -5.5859  -1.1385   2.5675 O.3            1 S1                 0.0000
      4 ****        -6.2330  -2.3856   2.7680 C.3            1 S1                 0.0000
      5 ****        -5.7019  -3.2628   1.6424 C.3            1 S1                 0.0000
      6 ****        -4.2434  -2.8388   1.5534 C.3            1 S1                 0.0000
      7 ****        -3.5126  -3.5754   2.5216 O.3            1 S1                 0.0000
      8 ****        -3.6291  -3.1176   0.1605 C.3            1 S1                 0.0000
      9 ****        -2.2750  -2.6069   0.0135 N.pl3          1 S1                 0.0000
     10 ****        -1.1144  -3.2114   0.4403 C.2            1 S1                 0.0000
     11 ****        -0.0190  -2.5443   0.2001 N.2            1 S1                 0.0000
     12 ****        -0.4548  -1.3928  -0.4456 C.ar           1 S1                 0.0000
     13 ****         0.1999  -0.2452  -0.9789 C.ar           1 S1                 0.0000
     14 ****         1.5456  -0.0634  -0.9108 N.3            1 S1                 0.0000
     15 ****         2.1808  -0.3105   0.3819 C.3            1 S1                 0.0000
     16 ****         3.3074   0.7188   0.5194 C.3            1 S1                 0.0000
     17 ****         3.5929   1.1097  -0.9345 C.3            1 S1                 0.0000
     18 ****         4.3205   2.3961  -1.1319 N.4            1 S1                 1.0000
     19 ****         5.7769   2.2506  -0.8983 C.3            1 S1                 0.0000
     20 ****         3.7434   3.5772  -0.4335 C.3            1 S1                 0.0000
     21 ****         3.9637   4.8737  -1.2287 C.3            1 S1                 0.0000
     22 ****         3.1972   4.8491  -2.4146 O.3            1 S1                 0.0000
     23 ****         2.2043   1.0542  -1.5865 C.3            1 S1                 0.0000
     24 ****         2.2665   0.8699  -3.1135 C.3            1 S1                 0.0000
     25 ****        -0.5816   0.6971  -1.5705 N.ar           1 S1                 0.0000
     26 ****        -1.9064   0.5369  -1.6345 C.ar           1 S1                 0.0000
     27 ****        -2.6468  -0.4730  -1.1761 N.ar           1 S1                 0.0000
     28 ****        -1.8717  -1.4250  -0.5831 C.ar           1 S1                 0.0000
     29 ****         4.1893   0.3106  -1.3798 H              1 S1                 0.0000
     30 ****         1.6468   1.9624  -1.3616 H              1 S1                 0.0000
     31 ****        -2.2158  -0.9323   2.3618 H              1 S1                 0.0000
     32 ****        -3.1773  -1.2698   3.8016 H              1 S1                 0.0000
     33 ****        -3.3210   0.2821   2.9909 H              1 S1                 0.0000
     34 ****        -4.3618  -0.7426   1.0251 H              1 S1                 0.0000
     35 ****        -5.9448  -2.7868   3.7406 H              1 S1                 0.0000
     36 ****        -7.3180  -2.2824   2.7478 H              1 S1                 0.0000
     37 ****        -5.8409  -4.3289   1.8271 H              1 S1                 0.0000
     38 ****        -6.2266  -3.0135   0.7189 H              1 S1                 0.0000
     39 ****        -3.5832  -4.4947   2.3151 H              1 S1                 0.0000
     40 ****        -3.6158  -4.1895  -0.0416 H              1 S1                 0.0000
     41 ****        -4.2471  -2.6704  -0.6190 H              1 S1                 0.0000
     42 ****        -1.1061  -4.1660   0.9460 H              1 S1                 0.0000
     43 ****         1.4787  -0.2343   1.2137 H              1 S1                 0.0000
     44 ****         2.5897  -1.3214   0.3784 H              1 S1                 0.0000
     45 ****         2.9403   1.5642   1.1009 H              1 S1                 0.0000
     46 ****         4.1816   0.3162   1.0317 H              1 S1                 0.0000
     47 ****         5.9827   2.0004   0.1431 H              1 S1                 0.0000
     48 ****         6.3117   3.1690  -1.1376 H              1 S1                 0.0000
     49 ****         6.1930   1.4622  -1.5261 H              1 S1                 0.0000
     50 ****         2.6737   3.4619  -0.2636 H              1 S1                 0.0000
     51 ****         4.1919   3.6658   0.5572 H              1 S1                 0.0000
     52 ****         3.6499   5.7332  -0.6361 H              1 S1                 0.0000
     53 ****         5.0142   5.0254  -1.4753 H              1 S1                 0.0000
     54 ****         2.2802   4.8609  -2.1847 H              1 S1                 0.0000
     55 ****         2.7926   1.7008  -3.5838 H              1 S1                 0.0000
     56 ****         1.2721   0.8239  -3.5571 H              1 S1                 0.0000
     57 ****         2.7893  -0.0489  -3.3813 H              1 S1                 0.0000
     58 ****        -2.4511   1.3327  -2.1212 H              1 S1                 0.0000
     59 ****         4.2221   2.5962  -2.1173 H              1 S1                 0.0000
     60 ****        -6.1573  -0.5589   1.9865 LP             1 S1                 0.0000
     61 ****        -5.4478  -0.6916   3.4513 LP             1 S1                 0.0000
     62 ****        -3.8904  -3.4041   3.4315 LP             1 S1                 0.0000
     63 ****        -2.5520  -3.2981   2.5019 LP             1 S1                 0.0000
     64 ****         0.9197  -2.8025   0.4283 LP             1 S1                 0.0000
     65 ****         1.7196  -0.8295  -1.5296 LP             1 S1                 0.0000
     66 ****         3.4036   4.0180  -2.9311 LP             1 S1                 0.0000
     67 ****         3.4144   5.6504  -2.9720 LP             1 S1                 0.0000
     68 ****        -0.1615   1.5163  -1.9608 LP             1 S1                 0.0000
     69 ****        -3.6422  -0.5253  -1.2569 LP             1 S1                 0.0000
@<TRIPOS>BOND
    1    1    2 1     
    2    1   31 1     
    3    1   32 1     
    4    1   33 1     
    5    2    6 1     
    6    2    3 1     
    7    2   34 1     
    8    3    4 1     
    9    4    5 1     
   10    4   35 1     
   11    4   36 1     
   12    5    6 1     
   13    5   37 1     
   14    5   38 1     
   15    6    7 1     
   16    6    8 1     
   17    7   39 1     
   18    8    9 1     
   19    8   40 1     
   20    8   41 1     
   21    9   28 1     
   22    9   10 1     
   23   10   11 2     
   24   10   42 1     
   25   11   12 1     
   26   12   28 ar    
   27   12   13 ar    
   28   13   14 1     
   29   13   25 ar    
   30   14   23 1     
   31   14   15 1     
   32   15   16 1     
   33   15   43 1     
   34   15   44 1     
   35   16   17 1     
   36   16   45 1     
   37   16   46 1     
   38   17   29 1     
   39   17   18 1     
   40   17   23 1     
   41   18   19 1     
   42   18   20 1     
   43   18   59 1     
   44   19   47 1     
   45   19   48 1     
   46   19   49 1     
   47   20   21 1     
   48   20   50 1     
   49   20   51 1     
   50   21   22 1     
   51   21   52 1     
   52   21   53 1     
   53   22   54 1     
   54   23   30 1     
   55   23   24 1     
   56   24   55 1     
   57   24   56 1     
   58   24   57 1     
   59   25   26 ar    
   60   26   27 ar    
   61   26   58 1     
   62   27   28 ar    
   63    3   60 1     
   64    3   61 1     
   65    7   62 1     
   66    7   63 1     
   67   11   64 1     
   68   14   65 1     
   69   22   66 1     
   70   22   67 1     
   71   25   68 1     
   72   27   69 1     
@<TRIPOS>SUBSTRUCTURE
      1 S1             1
@<TRIPOS>SET
LONE_PAIRS      STATIC     ATOMS    <user>   **** ""
10 60 61 62 63 64 65 66 67 68 69
DONOR_HYDROGENS      STATIC     ATOMS    <user>   **** ""
3 39 59 54
ATOM$BLUE        STATIC     ATOMS    COLORGROUP SYSTEM
10 60 61 62 63 64 65 66 67 68 69
ATOM$RED        STATIC     ATOMS    COLORGROUP SYSTEM
3 39 59 54
