AV-unprocessed.smi:1824|AV-procd|sdf|7401|dock8
  -GOLD-   22720 9 73D 1   1.00000     0.00000
 Structure written by MMmdl.
 45 47  0  0  0  0  0  0  0  0  2 V2000
  144.8847  144.3242  153.6476 C   0  0  0  0  0  0  0  0  0  0  0  0
  145.6863  143.4010  154.5716 C   0  0  2  0  0  0  0  0  0  0  0  0
  146.5488  142.4002  153.7816 C   0  0  0  0  0  0  0  0  0  0  0  0
  147.2430  141.4754  154.7094 N   0  3  2  0  0  0  0  0  0  0  0  0
  148.1792  140.5401  154.0347 C   0  0  0  0  0  0  0  0  0  0  0  0
  149.4367  140.2458  154.8772 C   0  0  1  0  0  0  0  0  0  0  0  0
  150.4130  139.6468  154.0456 O   0  0  0  0  0  0  0  0  0  0  0  0
  150.0156  141.5300  155.5024 C   0  0  0  0  0  0  0  0  0  0  0  0
  150.9183  141.2571  156.6070 N   0  0  0  0  0  0  0  0  0  0  0  0
  151.7800  140.2274  156.7191 C   0  0  0  0  0  0  0  0  0  0  0  0
  152.5209  140.1699  157.8217 N   0  0  0  0  0  0  0  0  0  0  0  0
  152.0940  141.2956  158.5046 C   0  0  0  0  0  0  0  0  0  0  0  0
  152.4947  141.8162  159.7557 C   0  0  0  0  0  0  0  0  0  0  0  0
  151.9112  142.9976  160.2586 C   0  0  0  0  0  0  0  0  0  0  0  0
  152.3085  143.4840  161.4583 F   0  0  0  0  0  0  0  0  0  0  0  0
  150.9179  143.6743  159.5194 C   0  0  0  0  0  0  0  0  0  0  0  0
  150.3620  144.8078  160.0091 F   0  0  0  0  0  0  0  0  0  0  0  0
  150.5024  143.1747  158.2702 C   0  0  0  0  0  0  0  0  0  0  0  0
  151.0893  141.9970  157.7720 C   0  0  0  0  0  0  0  0  0  0  0  0
  146.2583  140.7737  155.5665 C   0  0  0  0  0  0  0  0  0  0  0  0
  145.3555  141.7759  156.3129 C   0  0  1  0  0  0  0  0  0  0  0  0
  146.0660  142.5000  157.4704 C   0  0  0  0  0  0  0  0  0  0  0  0
  144.7615  142.6874  155.3883 O   0  0  0  0  0  0  0  0  0  0  0  0
  145.5453  144.9035  153.0018 H   0  0  0  0  0  0  0  0  0  0  0  0
  144.2850  145.0282  154.2251 H   0  0  0  0  0  0  0  0  0  0  0  0
  144.2076  143.7549  153.0102 H   0  0  0  0  0  0  0  0  0  0  0  0
  146.3266  144.0238  155.1966 H   0  0  0  0  0  0  0  0  0  0  0  0
  145.9266  141.8271  153.0923 H   0  0  0  0  0  0  0  0  0  0  0  0
  147.2710  142.9479  153.1774 H   0  0  0  0  0  0  0  0  0  0  0  0
  147.6707  139.5957  153.8337 H   0  0  0  0  0  0  0  0  0  0  0  0
  148.4565  140.9482  153.0616 H   0  0  0  0  0  0  0  0  0  0  0  0
  149.2006  139.5477  155.6797 H   0  0  0  0  0  0  0  0  0  0  0  0
  150.5487  138.7555  154.3297 H   0  0  0  0  0  0  0  0  0  0  0  0
  150.5502  142.1149  154.7524 H   0  0  0  0  0  0  0  0  0  0  0  0
  149.2088  142.1640  155.8721 H   0  0  0  0  0  0  0  0  0  0  0  0
  151.8674  139.4759  155.9479 H   0  0  0  0  0  0  0  0  0  0  0  0
  153.2538  141.3062  160.3299 H   0  0  0  0  0  0  0  0  0  0  0  0
  149.7441  143.6922  157.7020 H   0  0  0  0  0  0  0  0  0  0  0  0
  145.6453  140.1217  154.9419 H   0  0  0  0  0  0  0  0  0  0  0  0
  146.7713  140.1320  156.2843 H   0  0  0  0  0  0  0  0  0  0  0  0
  144.5310  141.2146  156.7536 H   0  0  0  0  0  0  0  0  0  0  0  0
  146.3884  141.7888  158.2313 H   0  0  0  0  0  0  0  0  0  0  0  0
  145.3962  143.2135  157.9508 H   0  0  0  0  0  0  0  0  0  0  0  0
  146.9512  143.0425  157.1401 H   0  0  0  0  0  0  0  0  0  0  0  0
  147.8053  142.0417  155.3292 H   0  0  0  0  0  0  0  0  0  0  0  0
  1  2  1  0  0  0  0
  1 24  1  0  0  0  0
  1 25  1  0  0  0  0
  1 26  1  0  0  0  0
  2 23  1  0  0  0  0
  2  3  1  0  0  0  0
  2 27  1  0  0  0  0
  3  4  1  0  0  0  0
  3 28  1  0  0  0  0
  3 29  1  0  0  0  0
  4  5  1  0  0  0  0
  4 20  1  0  0  0  0
  4 45  1  0  0  0  0
  5  6  1  0  0  0  0
  5 30  1  0  0  0  0
  5 31  1  0  0  0  0
  6  7  1  0  0  0  0
  6  8  1  0  0  0  0
  6 32  1  0  0  0  0
  7 33  1  0  0  0  0
  8  9  1  0  0  0  0
  8 34  1  0  0  0  0
  8 35  1  0  0  0  0
  9 19  1  0  0  0  0
  9 10  1  0  0  0  0
 10 11  2  0  0  0  0
 10 36  1  0  0  0  0
 11 12  1  0  0  0  0
 12 19  2  0  0  0  0
 12 13  1  0  0  0  0
 13 14  2  0  0  0  0
 13 37  1  0  0  0  0
 14 15  1  0  0  0  0
 14 16  1  0  0  0  0
 16 17  1  0  0  0  0
 16 18  2  0  0  0  0
 18 19  1  0  0  0  0
 18 38  1  0  0  0  0
 20 21  1  0  0  0  0
 20 39  1  0  0  0  0
 20 40  1  0  0  0  0
 21 22  1  0  0  0  0
 21 23  1  0  0  0  0
 21 41  1  0  0  0  0
 22 42  1  0  0  0  0
 22 43  1  0  0  0  0
 22 44  1  0  0  0  0
M  CHG  1   4   1
M  END
> <s_m_source_file>
AV-unprocessed.smi

> <i_m_source_file_index>
1824

> <i_lp_mmshare_version>
43012

> <i_f3d_flags>
0

> <s_epik_input>
W0NIM11bQ0BASF0xW0NIMl1OKFtDSDJdW0NASF0oTzEpW0NIM10pW0NIMl1bQ0BIXShbT0hdKVtDSDJdbihbY0hdbjIpYyhjMjMpW2NIXWMoRiljKEYpW2NIXTM=

> <s_epik_cmdline>
J2VwaWtfcHl0aG9uJywgJy1waCcsICc3LjAnLCAnLXRuJywgJzgnLCAnLW1hJywgJzIwMCcsICctbWV0YWxfYmluZGluZycsICctaW1hZScsICc8aW5maWxlLm1hZT4nLCAnLW9tYWUnLCAnPG91dGZpbGUubWFlPic=

> <r_epik_Ionization_Penalty>
0.61967

> <r_epik_Ionization_Penalty_Charging>
0.608065

> <r_epik_Ionization_Penalty_Neutral>
0.0116057

> <r_epik_State_Penalty>
0.664205

> <r_epik_Charging_Adjusted_Penalty>
1.27227

> <i_epik_Tot_Q>
1

> <i_epik_Tot_abs_Q>
1

> <r_epik_Metal_State_Penalty>
0.654947

> <b_epik_Metal_Only>
0

> <s_lp_Force_Field>
OPLS_2005

> <r_lp_Energy>
23.0579

> <b_lp_Chiralities_Consistent>
1

> <s_lp_Variant>
AV-unprocessed.smi:1824-9

> <Gold.Version>
5.8.1

> <Gold.Id.Protein>
6NUR|6NUR_protein|mol2

> <Gold.PLP.Fitness>
51.9917

> <Gold.PLP.PLP>
-48.0175

> <Gold.PLP.part.hbond>
-3.0000

> <Gold.PLP.part.metal>
0.0000

> <Gold.PLP.part.buried>
-7.2513

> <Gold.PLP.part.nonpolar>
-37.2755

> <Gold.PLP.part.repulsive>
0.2182

> <Gold.PLP.ligand.clash>
0.0000

> <Gold.PLP.ligand.torsion>
1.0277

> <Gold.PLP.Chemscore.Hbond>
2.0000

> <Gold.PLP.Chemscore.CHOScore>
0.0000

> <Gold.PLP.Chemscore.Metal>
0.0000

> <Gold.Chemscore.Hbonds>
donor molecule, donor type, donor heavy atom, donor atom, acceptor molecule, acceptor atom, score
      P1  H  7989  7998       L1     7  1.00
      P1  H  7997  8009       L1    11  0.55

> <Gold.PLP.Chemscore.Internal.Correction>
0.0296

> <Gold.Rescore>
     Score         DG    S(hbond)    S(metal)    S(lipo)     H(rot)  DE(clash)    DE(int)     intcor
     14.31     -16.14       1.58        0.00      96.98       2.33       0.01       1.82       ----

> <Gold.Chemscore.Fitness>
14.3098

> <Gold.Chemscore.DG>
-16.1388

> <Gold.Chemscore.ZeroCoef>
-5.4800

> <Gold.Chemscore.Hbond>
1.5763

> <Gold.Chemscore.Metal>
0.0000

> <Gold.Chemscore.Lipo>
96.9765

> <Gold.Chemscore.Internal_Hbond>
0.0000

> <Gold.Chemscore.DEClash>
0.0069

> <Gold.Chemscore.DEInternal>
1.8221

> <Gold.Chemscore.Rot>
2.3251

> <Gold.Chemscore.Internal.Correction>
   9.000000E+99

> <Gold.Chemscore.Hbonds>
donor molecule, donor type, donor heavy atom, donor atom, acceptor molecule, acceptor atom, score
      P1  H  7989  7998       L1     7  0.78
      P1  H  7997  8009       L1    11  0.09

> <Gold.Chemscore.Hbond.Weighted>
-5.2649

> <Gold.Chemscore.Metal.Weighted>
-0.0000

> <Gold.Chemscore.Lipo.Weighted>
-11.3462

> <Gold.Chemscore.Internal_Hbond.Weighted>
0.0000

> <Gold.Chemscore.DEClash.Weighted>
0.0069

> <Gold.Chemscore.DEInternal.Weighted>
1.8221

> <Gold.Chemscore.Rot.Weighted>
5.9523

> <Gold.Chemscore.Internal.Correction.Weighted>
   9.000000E+99

> <Gold.Protein.RotatedTorsions>
[ 6907 6896 6895 6894 ] final -161.18 input  -60.11 | X-H torsion
[ 7974 7965 7964 7962 ] final   72.74 input  175.53 | X-H torsion
[ 8008 7997 7996 7995 ] final  167.84 input   59.86 | X-H torsion
[ 10167 10162 10161 10158 ] final   59.20 input  -65.29 | X-H torsion
[ 10718 10713 10712 10709 ] final  175.12 input   66.30 | X-H torsion
[ 10763 10752 10751 10750 ] final  124.43 input  -60.55 | X-H torsion
[ 11005 11000 10999 10996 ] final   32.50 input  -57.11 | X-H torsion

> <Gold.Protein.ActiveResidues>
 VAL166  LYS551  ARG553  GLY616  TRP617  ASP618  TYR619  PRO620  LYS621  CYS622 
 ASP623  PHE694  ASN695  SER759  ASP760  ASP761  ALA762  ILE779  LEU786  VAL792 
 PHE793  MET794  SER795  GLU796  ALA797  LYS798  CYS799  TRP800  GLU811  SER814 

> <Gold.Protein.RotatedAtoms>
  151.3607  133.3891  159.2689 H   0  0  0  0  0  0  0  0  0  0  0  0  # atno 6907 bound_to 6896
  150.9728  134.9099  159.7808 H   0  0  0  0  0  0  0  0  0  0  0  0  # atno 6908 bound_to 6896
  152.5190  134.3569  159.9323 H   0  0  0  0  0  0  0  0  0  0  0  0  # atno 6909 bound_to 6896
  145.7496  139.2754  143.1439 H   0  0  0  0  0  0  0  0  0  0  0  0  # atno 7974 bound_to 7965
  156.1599  140.1606  156.8630 H   0  0  0  0  0  0  0  0  0  0  0  0  # atno 8008 bound_to 7997
  154.5150  140.0791  156.8100 H   0  0  0  0  0  0  0  0  0  0  0  0  # atno 8009 bound_to 7997
  155.3728  140.3401  155.4246 H   0  0  0  0  0  0  0  0  0  0  0  0  # atno 8010 bound_to 7997
  140.1789  144.4201  150.6624 H   0  0  0  0  0  0  0  0  0  0  0  0  # atno 10167 bound_to 10162
  156.9396  130.9997  151.2971 H   0  0  0  0  0  0  0  0  0  0  0  0  # atno 10718 bound_to 10713
  153.6613  135.3346  155.3128 H   0  0  0  0  0  0  0  0  0  0  0  0  # atno 10763 bound_to 10752
  154.8514  135.4364  154.1801 H   0  0  0  0  0  0  0  0  0  0  0  0  # atno 10764 bound_to 10752
  153.2769  135.7005  153.7500 H   0  0  0  0  0  0  0  0  0  0  0  0  # atno 10765 bound_to 10752
  140.2728  134.3062  155.7823 H   0  0  0  0  0  0  0  0  0  0  0  0  # atno 11005 bound_to 11000
  146.0370  140.8203  142.9848 LP  0  0  0  0  0  0  0  0  0  0  0  0  # atno 17320 bound_to 7965
  144.6852  140.2853  143.7286 LP  0  0  0  0  0  0  0  0  0  0  0  0  # atno 17321 bound_to 7965
  140.6532  143.2230  151.6028 LP  0  0  0  0  0  0  0  0  0  0  0  0  # atno 17342 bound_to 10162
  139.5305  144.2932  152.1135 LP  0  0  0  0  0  0  0  0  0  0  0  0  # atno 17343 bound_to 10162
  157.5794  130.8365  149.8501 LP  0  0  0  0  0  0  0  0  0  0  0  0  # atno 17370 bound_to 10713
  156.0410  130.3739  150.1435 LP  0  0  0  0  0  0  0  0  0  0  0  0  # atno 17371 bound_to 10713
  141.2175  133.7477  156.9361 LP  0  0  0  0  0  0  0  0  0  0  0  0  # atno 17394 bound_to 11000
  140.1357  134.9327  157.2398 LP  0  0  0  0  0  0  0  0  0  0  0  0  # atno 17395 bound_to 11000

$$$$
