AV-unprocessed.smi:149|AV-procd|sdf|1237|dock1
  -GOLD-   2262018453D 1   1.00000     0.00000
 Structure written by MMmdl.
 60 64  0  0  0  0  0  0  0  0  2 V2000
  150.5741  130.6871  155.9522 C   0  0  0  0  0  0  0  0  0  0  0  0
  149.5550  131.7360  155.4670 C   0  0  1  0  0  0  0  0  0  0  0  0
  149.8708  133.1092  156.0876 C   0  0  0  0  0  0  0  0  0  0  0  0
  149.6636  134.1009  155.0458 N   0  0  0  0  0  0  0  0  0  0  0  0
  149.3580  135.3871  155.3624 C   0  0  0  0  0  0  0  0  0  0  0  0
  148.2246  135.6336  156.0722 N   0  0  0  0  0  0  0  0  0  0  0  0
  147.8934  136.8825  156.4112 C   0  0  0  0  0  0  0  0  0  0  0  0
  148.5370  138.0179  156.1387 N   0  0  0  0  0  0  0  0  0  0  0  0
  149.6656  137.7859  155.4094 C   0  0  0  0  0  0  0  0  0  0  0  0
  150.1485  136.5137  154.9866 C   0  0  0  0  0  0  0  0  0  0  0  0
  151.3305  136.6789  154.2741 N   0  0  0  0  0  0  0  0  0  0  0  0
  151.5420  137.9660  154.2909 C   0  0  0  0  0  0  0  0  0  0  0  0
  150.5730  138.7133  154.9237 N   0  0  0  0  0  0  0  0  0  0  0  0
  150.5580  140.1386  155.1225 C   0  0  0  0  0  0  0  0  0  0  0  0
  151.6087  140.8037  156.0234 C   0  0  0  0  0  0  0  0  0  0  0  0
  150.5579  140.9495  157.1458 C   0  0  0  0  0  0  0  0  0  0  0  0
  150.5762  139.8001  158.1718 C   0  0  0  0  0  0  0  0  0  0  0  0
  151.7358  139.8413  158.9788 O   0  0  0  0  0  0  0  0  0  0  0  0
  150.5758  142.2693  157.9423 C   0  0  0  0  0  0  0  0  0  0  0  0
  150.6627  143.4074  157.1083 O   0  0  0  0  0  0  0  0  0  0  0  0
  149.5097  140.8147  156.0189 C   0  0  0  0  0  0  0  0  0  0  0  0
  149.1070  133.4646  153.8665 C   0  0  0  0  0  0  0  0  0  0  0  0
  149.5461  131.9962  153.9414 C   0  0  2  0  0  0  0  0  0  0  0  0
  148.6366  131.1342  153.1271 N   0  3  0  0  0  0  0  0  0  0  0  0
  148.8389  129.6871  153.4021 C   0  0  0  0  0  0  0  0  0  0  0  0
  147.9476  128.8228  152.4957 C   0  0  0  0  0  0  0  0  0  0  0  0
  146.5878  129.1845  152.6871 O   0  0  0  0  0  0  0  0  0  0  0  0
  146.3525  130.5383  152.3276 C   0  0  0  0  0  0  0  0  0  0  0  0
  147.1930  131.4712  153.2168 C   0  0  0  0  0  0  0  0  0  0  0  0
  151.5873  130.9549  155.6507 H   0  0  0  0  0  0  0  0  0  0  0  0
  150.3751  129.6893  155.5676 H   0  0  0  0  0  0  0  0  0  0  0  0
  150.5645  130.6168  157.0403 H   0  0  0  0  0  0  0  0  0  0  0  0
  148.5509  131.4513  155.7856 H   0  0  0  0  0  0  0  0  0  0  0  0
  149.2363  133.2954  156.9553 H   0  0  0  0  0  0  0  0  0  0  0  0
  150.9106  133.1658  156.4122 H   0  0  0  0  0  0  0  0  0  0  0  0
  146.9823  136.9874  156.9816 H   0  0  0  0  0  0  0  0  0  0  0  0
  152.4170  138.3991  153.8300 H   0  0  0  0  0  0  0  0  0  0  0  0
  150.5620  140.5750  154.1228 H   0  0  0  0  0  0  0  0  0  0  0  0
  152.4580  140.1735  156.2887 H   0  0  0  0  0  0  0  0  0  0  0  0
  151.9530  141.7542  155.6135 H   0  0  0  0  0  0  0  0  0  0  0  0
  149.7103  139.8429  158.8322 H   0  0  0  0  0  0  0  0  0  0  0  0
  150.5290  138.8304  157.6749 H   0  0  0  0  0  0  0  0  0  0  0  0
  151.7315  139.0881  159.5496 H   0  0  0  0  0  0  0  0  0  0  0  0
  149.6744  142.3755  158.5464 H   0  0  0  0  0  0  0  0  0  0  0  0
  151.4207  142.2951  158.6311 H   0  0  0  0  0  0  0  0  0  0  0  0
  149.8028  143.5936  156.7635 H   0  0  0  0  0  0  0  0  0  0  0  0
  149.1867  141.7736  155.6107 H   0  0  0  0  0  0  0  0  0  0  0  0
  148.6434  140.2082  156.2803 H   0  0  0  0  0  0  0  0  0  0  0  0
  148.0190  133.5453  153.8940 H   0  0  0  0  0  0  0  0  0  0  0  0
  149.4667  133.9485  152.9578 H   0  0  0  0  0  0  0  0  0  0  0  0
  150.5676  131.9090  153.5661 H   0  0  0  0  0  0  0  0  0  0  0  0
  149.8800  129.4079  153.2413 H   0  0  0  0  0  0  0  0  0  0  0  0
  148.6120  129.4799  154.4491 H   0  0  0  0  0  0  0  0  0  0  0  0
  148.2271  128.9372  151.4471 H   0  0  0  0  0  0  0  0  0  0  0  0
  148.0700  127.7683  152.7445 H   0  0  0  0  0  0  0  0  0  0  0  0
  146.5858  130.6925  151.2727 H   0  0  0  0  0  0  0  0  0  0  0  0
  145.2919  130.7568  152.4522 H   0  0  0  0  0  0  0  0  0  0  0  0
  146.8619  131.4009  154.2542 H   0  0  0  0  0  0  0  0  0  0  0  0
  147.0215  132.4920  152.8792 H   0  0  0  0  0  0  0  0  0  0  0  0
  148.8958  131.2847  152.1624 H   0  0  0  0  0  0  0  0  0  0  0  0
  1  2  1  0  0  0  0
  1 30  1  0  0  0  0
  1 31  1  0  0  0  0
  1 32  1  0  0  0  0
  2 23  1  0  0  0  0
  2  3  1  0  0  0  0
  2 33  1  0  0  0  0
  3  4  1  0  0  0  0
  3 34  1  0  0  0  0
  3 35  1  0  0  0  0
  4  5  1  0  0  0  0
  4 22  1  0  0  0  0
  5 10  1  0  0  0  0
  5  6  2  0  0  0  0
  6  7  1  0  0  0  0
  7  8  2  0  0  0  0
  7 36  1  0  0  0  0
  8  9  1  0  0  0  0
  9 13  1  0  0  0  0
  9 10  2  0  0  0  0
 10 11  1  0  0  0  0
 11 12  2  0  0  0  0
 12 13  1  0  0  0  0
 12 37  1  0  0  0  0
 13 14  1  0  0  0  0
 14 21  1  0  0  0  0
 14 15  1  0  0  0  0
 14 38  1  0  0  0  0
 15 16  1  0  0  0  0
 15 39  1  0  0  0  0
 15 40  1  0  0  0  0
 16 17  1  0  0  0  0
 16 19  1  0  0  0  0
 16 21  1  0  0  0  0
 17 18  1  0  0  0  0
 17 41  1  0  0  0  0
 17 42  1  0  0  0  0
 18 43  1  0  0  0  0
 19 20  1  0  0  0  0
 19 44  1  0  0  0  0
 19 45  1  0  0  0  0
 20 46  1  0  0  0  0
 21 47  1  0  0  0  0
 21 48  1  0  0  0  0
 22 23  1  0  0  0  0
 22 49  1  0  0  0  0
 22 50  1  0  0  0  0
 23 24  1  0  0  0  0
 23 51  1  0  0  0  0
 24 29  1  0  0  0  0
 24 25  1  0  0  0  0
 24 60  1  0  0  0  0
 25 26  1  0  0  0  0
 25 52  1  0  0  0  0
 25 53  1  0  0  0  0
 26 27  1  0  0  0  0
 26 54  1  0  0  0  0
 26 55  1  0  0  0  0
 27 28  1  0  0  0  0
 28 29  1  0  0  0  0
 28 56  1  0  0  0  0
 28 57  1  0  0  0  0
 29 58  1  0  0  0  0
 29 59  1  0  0  0  0
M  CHG  1  24   1
M  END
> <s_m_source_file>
AV-unprocessed.smi

> <i_m_source_file_index>
149

> <i_lp_mmshare_version>
43012

> <i_f3d_flags>
0

> <s_epik_input>
W0NIMl0xW0NIMl1PW0NIMl1bQ0gyXU4xW0NAQEhdMltDSDJdTihbQ0gyXVtDQEhdMltDSDNdKWMobltjSF1uMyljKGMzNCluW2NIXW40W0NIXShbQ0gyXTUpW0NIMl1DNShbQ0gyXVtPSF0pW0NIMl1bT0hd

> <s_epik_cmdline>
J2VwaWtfcHl0aG9uJywgJy1waCcsICc3LjAnLCAnLXRuJywgJzgnLCAnLW1hJywgJzIwMCcsICctbWV0YWxfYmluZGluZycsICctaW1hZScsICc8aW5maWxlLm1hZT4nLCAnLW9tYWUnLCAnPG91dGZpbGUubWFlPic=

> <r_lp_tautomer_probability>
1

> <r_epik_Ionization_Penalty>
0.404847

> <r_epik_Ionization_Penalty_Charging>
0.404623

> <r_epik_Ionization_Penalty_Neutral>
0.000224096

> <r_epik_State_Penalty>
0.238803

> <r_epik_Charging_Adjusted_Penalty>
0.643425

> <i_epik_Tot_Q>
1

> <i_epik_Tot_abs_Q>
1

> <r_epik_Metal_State_Penalty>
0.239083

> <b_epik_Metal_Only>
0

> <s_lp_Force_Field>
OPLS_2005

> <r_lp_Energy>
71.3702

> <b_lp_Chiralities_Consistent>
1

> <s_lp_Variant>
AV-unprocessed.smi:149-4

> <Gold.Version>
5.8.1

> <Gold.Id.Protein>
6NUR|6NUR_protein|mol2

> <Gold.PLP.Fitness>
48.5562

> <Gold.PLP.PLP>
-42.2130

> <Gold.PLP.part.hbond>
-3.0000

> <Gold.PLP.part.metal>
0.0000

> <Gold.PLP.part.buried>
-6.5955

> <Gold.PLP.part.nonpolar>
-34.4812

> <Gold.PLP.part.repulsive>
1.3650

> <Gold.PLP.ligand.clash>
0.0000

> <Gold.PLP.ligand.torsion>
1.7489

> <Gold.PLP.Chemscore.Hbond>
3.0000

> <Gold.PLP.Chemscore.CHOScore>
0.0000

> <Gold.PLP.Chemscore.Metal>
0.0000

> <Gold.Chemscore.Hbonds>
donor molecule, donor type, donor heavy atom, donor atom, acceptor molecule, acceptor atom, score
      L1  H    20    46       P1  8028  0.85
      L1  H    24    60       P1 10747  1.00
      P1  H 10752 10765       L1    11  1.00

> <Gold.PLP.Chemscore.Internal.Correction>
0.8410

> <Gold.Rescore>
     Score         DG    S(hbond)    S(metal)    S(lipo)     H(rot)  DE(clash)    DE(int)     intcor
     13.49     -16.50       2.62        0.00      87.15       3.09       0.12       2.89       ----

> <Gold.Chemscore.Fitness>
13.4879

> <Gold.Chemscore.DG>
-16.5035

> <Gold.Chemscore.ZeroCoef>
-5.4800

> <Gold.Chemscore.Hbond>
2.6169

> <Gold.Chemscore.Metal>
0.0000

> <Gold.Chemscore.Lipo>
87.1496

> <Gold.Chemscore.Internal_Hbond>
0.0000

> <Gold.Chemscore.DEClash>
0.1225

> <Gold.Chemscore.DEInternal>
2.8931

> <Gold.Chemscore.Rot>
3.0912

> <Gold.Chemscore.Internal.Correction>
   9.000000E+99

> <Gold.Chemscore.Hbonds>
donor molecule, donor type, donor heavy atom, donor atom, acceptor molecule, acceptor atom, score
      L1  H    20    46       P1  8028  0.85
      L1  H    24    60       P1 10747  0.73
      P1  H 10752 10765       L1    11  0.87

> <Gold.Chemscore.Hbond.Weighted>
-8.7404

> <Gold.Chemscore.Metal.Weighted>
-0.0000

> <Gold.Chemscore.Lipo.Weighted>
-10.1965

> <Gold.Chemscore.Internal_Hbond.Weighted>
0.0000

> <Gold.Chemscore.DEClash.Weighted>
0.1225

> <Gold.Chemscore.DEInternal.Weighted>
2.8931

> <Gold.Chemscore.Rot.Weighted>
7.9135

> <Gold.Chemscore.Internal.Correction.Weighted>
   9.000000E+99

> <Gold.Protein.RotatedTorsions>
[ 6907 6896 6895 6894 ] final -142.00 input  -60.11 | X-H torsion
[ 7974 7965 7964 7962 ] final  -59.74 input  175.53 | X-H torsion
[ 8008 7997 7996 7995 ] final  154.17 input   59.86 | X-H torsion
[ 10167 10162 10161 10158 ] final  110.59 input  -65.29 | X-H torsion
[ 10718 10713 10712 10709 ] final -173.95 input   66.30 | X-H torsion
[ 10763 10752 10751 10750 ] final  175.32 input  -60.55 | X-H torsion
[ 11005 11000 10999 10996 ] final   70.79 input  -57.11 | X-H torsion

> <Gold.Protein.ActiveResidues>
 VAL166  LYS551  ARG553  GLY616  TRP617  ASP618  TYR619  PRO620  LYS621  CYS622 
 ASP623  PHE694  ASN695  SER759  ASP760  ASP761  ALA762  ILE779  LEU786  VAL792 
 PHE793  MET794  SER795  GLU796  ALA797  LYS798  CYS799  TRP800  GLU811  SER814 

> <Gold.Protein.RotatedAtoms>
  151.0812  133.5388  159.2620 H   0  0  0  0  0  0  0  0  0  0  0  0  # atno 6907 bound_to 6896
  151.2291  135.0547  159.8990 H   0  0  0  0  0  0  0  0  0  0  0  0  # atno 6908 bound_to 6896
  152.5424  134.0604  159.8203 H   0  0  0  0  0  0  0  0  0  0  0  0  # atno 6909 bound_to 6896
  145.8239  140.8523  143.0118 H   0  0  0  0  0  0  0  0  0  0  0  0  # atno 7974 bound_to 7965
  156.2545  140.1974  156.6605 H   0  0  0  0  0  0  0  0  0  0  0  0  # atno 8008 bound_to 7997
  154.6468  140.0577  156.9935 H   0  0  0  0  0  0  0  0  0  0  0  0  # atno 8009 bound_to 7997
  155.1479  140.3248  155.4440 H   0  0  0  0  0  0  0  0  0  0  0  0  # atno 8010 bound_to 7997
  139.6676  144.7127  151.1747 H   0  0  0  0  0  0  0  0  0  0  0  0  # atno 10167 bound_to 10162
  156.7779  130.9472  151.3120 H   0  0  0  0  0  0  0  0  0  0  0  0  # atno 10718 bound_to 10713
  154.4661  135.2769  155.1677 H   0  0  0  0  0  0  0  0  0  0  0  0  # atno 10763 bound_to 10752
  154.3446  135.6163  153.5616 H   0  0  0  0  0  0  0  0  0  0  0  0  # atno 10764 bound_to 10752
  152.9859  135.5796  154.5032 H   0  0  0  0  0  0  0  0  0  0  0  0  # atno 10765 bound_to 10752
  139.9579  134.7113  156.0712 H   0  0  0  0  0  0  0  0  0  0  0  0  # atno 11005 bound_to 11000
  144.6745  140.0573  143.7477 LP  0  0  0  0  0  0  0  0  0  0  0  0  # atno 17320 bound_to 7965
  145.9645  139.2824  143.1135 LP  0  0  0  0  0  0  0  0  0  0  0  0  # atno 17321 bound_to 7965
  140.7605  143.5894  150.8812 LP  0  0  0  0  0  0  0  0  0  0  0  0  # atno 17342 bound_to 10162
  139.9557  143.6221  152.3017 LP  0  0  0  0  0  0  0  0  0  0  0  0  # atno 17343 bound_to 10162
  157.6660  130.9008  149.9933 LP  0  0  0  0  0  0  0  0  0  0  0  0  # atno 17370 bound_to 10713
  156.1236  130.3645  149.9846 LP  0  0  0  0  0  0  0  0  0  0  0  0  # atno 17371 bound_to 10713
  141.1252  133.6601  156.3319 LP  0  0  0  0  0  0  0  0  0  0  0  0  # atno 17394 bound_to 11000
  140.5568  134.5974  157.5423 LP  0  0  0  0  0  0  0  0  0  0  0  0  # atno 17395 bound_to 11000

$$$$
