#       Name:                AV-unprocessed.smi:2790
#       Creating user name   scv26
#       Creation time:       Fri Mar 27 15:20:04 2020


#       File generated by GOLD software.
#

@<TRIPOS>MOLECULE
AV-unprocessed.smi:2790
    49    50     1
SMALL
NO_CHARGES


@<TRIPOS>ATOM
      1 ****        -2.7379   3.1265  -2.4274 C.3            1 S1                 0.0000
      2 ****        -3.2524   3.0168  -1.0422 N.4            1 S1                 1.0000
      3 ****        -4.7301   3.0690  -1.0034 C.3            1 S1                 0.0000
      4 ****        -2.7112   1.8432  -0.3104 C.3            1 S1                 0.0000
      5 ****        -1.2618   2.0365   0.1457 C.2            1 S1                 0.0000
      6 ****        -0.8092   3.1664   0.3313 O.2            1 S1                 0.0000
      7 ****        -0.5486   0.9188   0.3365 N.am           1 S1                 0.0000
      8 ****         0.8491   0.8891   0.7572 C.3            1 S1                 0.0000
      9 ****         1.4071  -0.5539   0.8568 C.3            1 S1                 0.0000
     10 ****         1.2065  -1.2607  -0.5053 C.ar           1 S1                 0.0000
     11 ****         0.1830  -2.2161  -0.7284 C.ar           1 S1                 0.0000
     12 ****         0.0467  -2.7957  -2.0052 C.ar           1 S1                 0.0000
     13 ****         0.8346  -2.4802  -3.0524 N.ar           1 S1                 0.0000
     14 ****         1.7975  -1.5581  -2.8531 C.ar           1 S1                 0.0000
     15 ****         2.0167  -0.9213  -1.6160 C.ar           1 S1                 0.0000
     16 ****         2.9134  -0.4641   1.2381 C.3            1 S1                 0.0000
     17 ****         3.5482  -1.8388   1.5134 C.3            1 S1                 0.0000
     18 ****         2.8186  -2.5543   2.6581 C.3            1 S1                 0.0000
     19 ****         1.3157  -2.6645   2.3688 C.3            1 S1                 0.0000
     20 ****         0.7049  -1.2854   2.0428 C.3            1 S1                 0.0000
     21 ****        -3.0543   2.2746  -3.0308 H              1 S1                 0.0000
     22 ****        -1.6486   3.1694  -2.4438 H              1 S1                 0.0000
     23 ****        -3.1079   4.0360  -2.9019 H              1 S1                 0.0000
     24 ****        -5.1647   2.2001  -1.4994 H              1 S1                 0.0000
     25 ****        -5.0980   3.9668  -1.5012 H              1 S1                 0.0000
     26 ****        -5.0898   3.0924   0.0258 H              1 S1                 0.0000
     27 ****        -3.3018   1.6703   0.5903 H              1 S1                 0.0000
     28 ****        -2.8045   0.9450  -0.9234 H              1 S1                 0.0000
     29 ****        -0.9935   0.0282   0.1666 H              1 S1                 0.0000
     30 ****         1.4358   1.4635   0.0382 H              1 S1                 0.0000
     31 ****         0.9461   1.4037   1.7149 H              1 S1                 0.0000
     32 ****        -0.5019  -2.5195   0.0469 H              1 S1                 0.0000
     33 ****        -0.7236  -3.5295  -2.1915 H              1 S1                 0.0000
     34 ****         2.4083  -1.3123  -3.7091 H              1 S1                 0.0000
     35 ****         2.7944  -0.1772  -1.5434 H              1 S1                 0.0000
     36 ****         3.4921   0.0639   0.4818 H              1 S1                 0.0000
     37 ****         3.0189   0.1414   2.1398 H              1 S1                 0.0000
     38 ****         3.5224  -2.4535   0.6129 H              1 S1                 0.0000
     39 ****         4.6004  -1.7150   1.7704 H              1 S1                 0.0000
     40 ****         3.2446  -3.5459   2.8139 H              1 S1                 0.0000
     41 ****         2.9704  -2.0027   3.5868 H              1 S1                 0.0000
     42 ****         1.1575  -3.3607   1.5460 H              1 S1                 0.0000
     43 ****         0.8076  -3.0970   3.2309 H              1 S1                 0.0000
     44 ****         0.7934  -0.6686   2.9385 H              1 S1                 0.0000
     45 ****        -0.3681  -1.3788   1.8784 H              1 S1                 0.0000
     46 ****        -2.9271   3.8335  -0.5437 H              1 S1                 0.0000
     47 ****        -1.3891   3.9677   0.1843 LP             1 S1                 0.0000
     48 ****         0.1383   3.2828   0.6291 LP             1 S1                 0.0000
     49 ****         0.7094  -2.9143  -3.9445 LP             1 S1                 0.0000
@<TRIPOS>BOND
    1    1    2 1     
    2    1   21 1     
    3    1   22 1     
    4    1   23 1     
    5    2    3 1     
    6    2    4 1     
    7    2   46 1     
    8    3   24 1     
    9    3   25 1     
   10    3   26 1     
   11    4    5 1     
   12    4   27 1     
   13    4   28 1     
   14    5    6 2     
   15    5    7 am    
   16    7    8 1     
   17    7   29 1     
   18    8    9 1     
   19    8   30 1     
   20    8   31 1     
   21    9   20 1     
   22    9   10 1     
   23    9   16 1     
   24   10   15 ar    
   25   10   11 ar    
   26   11   12 ar    
   27   11   32 1     
   28   12   13 ar    
   29   12   33 1     
   30   13   14 ar    
   31   14   15 ar    
   32   14   34 1     
   33   15   35 1     
   34   16   17 1     
   35   16   36 1     
   36   16   37 1     
   37   17   18 1     
   38   17   38 1     
   39   17   39 1     
   40   18   19 1     
   41   18   40 1     
   42   18   41 1     
   43   19   20 1     
   44   19   42 1     
   45   19   43 1     
   46   20   44 1     
   47   20   45 1     
   48    6   47 1     
   49    6   48 1     
   50   13   49 1     
@<TRIPOS>SUBSTRUCTURE
      1 S1             1
@<TRIPOS>SET
LONE_PAIRS      STATIC     ATOMS    <user>   **** ""
3 47 48 49
DONOR_HYDROGENS      STATIC     ATOMS    <user>   **** ""
2 46 29
ATOM$BLUE        STATIC     ATOMS    COLORGROUP SYSTEM
3 47 48 49
ATOM$RED        STATIC     ATOMS    COLORGROUP SYSTEM
2 46 29
