AV-unprocessed.smi:2729|AV-procd|sdf|10526|dock2
  -GOLD-   2272014573D 1   1.00000     0.00000
 Structure written by MMmdl.
 33 34  0  0  0  0  0  0  0  0  1 V2000
  152.8136  138.8652  154.6925 C   0  0  0  0  0  0  0  0  0  0  0  0
  151.3365  138.9276  155.1344 C   0  0  1  0  0  0  0  0  0  0  0  0
  151.0507  140.2043  155.8036 N   0  0  0  0  0  0  0  0  0  0  0  0
  151.6641  140.7434  156.8696 C   0  0  0  0  0  0  0  0  0  0  0  0
  152.5918  140.2070  157.4740 O   0  0  0  0  0  0  0  0  0  0  0  0
  151.1427  141.9470  157.1614 N   0  0  0  0  0  0  0  0  0  0  0  0
  151.4966  142.8333  158.2138 C   0  0  0  0  0  0  0  0  0  0  0  0
  152.5695  142.6158  159.1120 C   0  0  0  0  0  0  0  0  0  0  0  0
  152.8070  143.5613  160.1280 C   0  0  0  0  0  0  0  0  0  0  0  0
  151.9605  144.6836  160.2142 C   0  0  0  0  0  0  0  0  0  0  0  0
  150.9262  144.8966  159.3737 N   0  0  0  0  0  0  0  0  0  0  0  0
  150.7043  143.9856  158.4024 C   0  0  0  0  0  0  0  0  0  0  0  0
  150.3711  138.6972  153.9411 C   0  0  0  0  0  0  0  0  0  0  0  0
  148.9679  138.3828  154.4730 C   0  0  0  0  0  0  0  0  0  0  0  0
  149.2295  137.4780  156.0418 S   0  0  0  0  0  0  0  0  0  0  0  0
  148.5393  138.1939  157.1256 O   0  0  0  0  0  0  0  0  0  0  0  0
  149.0138  136.0392  155.8259 O   0  0  0  0  0  0  0  0  0  0  0  0
  151.0321  137.8043  156.1462 C   0  0  0  0  0  0  0  0  0  0  0  0
  153.0589  137.8903  154.2699 H   0  0  0  0  0  0  0  0  0  0  0  0
  153.4854  139.0353  155.5344 H   0  0  0  0  0  0  0  0  0  0  0  0
  153.0436  139.6086  153.9295 H   0  0  0  0  0  0  0  0  0  0  0  0
  150.3079  140.7493  155.3906 H   0  0  0  0  0  0  0  0  0  0  0  0
  150.4451  142.2953  156.5200 H   0  0  0  0  0  0  0  0  0  0  0  0
  153.2011  141.7434  159.0533 H   0  0  0  0  0  0  0  0  0  0  0  0
  153.6172  143.4259  160.8293 H   0  0  0  0  0  0  0  0  0  0  0  0
  152.1146  145.4265  160.9828 H   0  0  0  0  0  0  0  0  0  0  0  0
  149.8667  144.1870  157.7505 H   0  0  0  0  0  0  0  0  0  0  0  0
  150.3523  139.5275  153.2356 H   0  0  0  0  0  0  0  0  0  0  0  0
  150.7178  137.8311  153.3756 H   0  0  0  0  0  0  0  0  0  0  0  0
  148.4235  139.3005  154.6966 H   0  0  0  0  0  0  0  0  0  0  0  0
  148.3744  137.7828  153.7834 H   0  0  0  0  0  0  0  0  0  0  0  0
  151.5419  136.8811  155.8682 H   0  0  0  0  0  0  0  0  0  0  0  0
  151.3139  138.0454  157.1718 H   0  0  0  0  0  0  0  0  0  0  0  0
  1  2  1  0  0  0  0
  1 19  1  0  0  0  0
  1 20  1  0  0  0  0
  1 21  1  0  0  0  0
  2 18  1  0  0  0  0
  2  3  1  0  0  0  0
  2 13  1  0  0  0  0
  3  4  1  0  0  0  0
  3 22  1  0  0  0  0
  4  5  2  0  0  0  0
  4  6  1  0  0  0  0
  6  7  1  0  0  0  0
  6 23  1  0  0  0  0
  7 12  1  0  0  0  0
  7  8  2  0  0  0  0
  8  9  1  0  0  0  0
  8 24  1  0  0  0  0
  9 10  2  0  0  0  0
  9 25  1  0  0  0  0
 10 11  1  0  0  0  0
 10 26  1  0  0  0  0
 11 12  2  0  0  0  0
 12 27  1  0  0  0  0
 13 14  1  0  0  0  0
 13 28  1  0  0  0  0
 13 29  1  0  0  0  0
 14 15  1  0  0  0  0
 14 30  1  0  0  0  0
 14 31  1  0  0  0  0
 15 16  2  0  0  0  0
 15 17  2  0  0  0  0
 15 18  1  0  0  0  0
 18 32  1  0  0  0  0
 18 33  1  0  0  0  0
M  END
> <s_m_source_file>
AV-unprocessed.smi

> <i_m_source_file_index>
2729

> <i_lp_mmshare_version>
43012

> <i_f3d_flags>
0

> <s_epik_input>
Tz1TKD1PKShbQ0gyXTEpW0NIMl1bQ0gyXVtDQEBdMShbQ0gzXSlbTkhdQyg9TylbTkhdYzJbY0hdW2NIXVtjSF1uW2NIXTI=

> <s_epik_cmdline>
J2VwaWtfcHl0aG9uJywgJy1waCcsICc3LjAnLCAnLXRuJywgJzgnLCAnLW1hJywgJzIwMCcsICctbWV0YWxfYmluZGluZycsICctaW1hZScsICc8aW5maWxlLm1hZT4nLCAnLW9tYWUnLCAnPG91dGZpbGUubWFlPic=

> <r_epik_Ionization_Penalty>
0.00438887

> <r_epik_Ionization_Penalty_Charging>
0

> <r_epik_Ionization_Penalty_Neutral>
0.00438887

> <r_epik_State_Penalty>
0.00314315

> <r_epik_Charging_Adjusted_Penalty>
0.00314315

> <i_epik_Tot_Q>
0

> <i_epik_Tot_abs_Q>
0

> <r_epik_Metal_State_Penalty>
-0

> <b_epik_Metal_Only>
0

> <s_lp_Force_Field>
OPLS_2005

> <r_lp_Energy>
5.02931

> <b_lp_Chiralities_Consistent>
1

> <s_lp_Variant>
AV-unprocessed.smi:2729-1

> <Gold.Version>
5.8.1

> <Gold.Id.Protein>
6NUR|6NUR_protein|mol2

> <Gold.PLP.Fitness>
36.7636

> <Gold.PLP.PLP>
-30.4016

> <Gold.PLP.part.hbond>
-1.0000

> <Gold.PLP.part.metal>
0.0000

> <Gold.PLP.part.buried>
-4.7294

> <Gold.PLP.part.nonpolar>
-25.3570

> <Gold.PLP.part.repulsive>
0.3859

> <Gold.PLP.ligand.clash>
0.0000

> <Gold.PLP.ligand.torsion>
0.0274

> <Gold.PLP.Chemscore.Hbond>
1.0000

> <Gold.PLP.Chemscore.CHOScore>
1.1338

> <Gold.PLP.Chemscore.Metal>
0.0000

> <Gold.Chemscore.Hbonds>
donor molecule, donor type, donor heavy atom, donor atom, acceptor molecule, acceptor atom, score
      P1  H  7997  8010       L1     5  0.99
      L1  C    12    27       P1  8028  0.99
      L1  C    12    27       P1  8029  0.15

> <Gold.PLP.Chemscore.Internal.Correction>
0.0153

> <Gold.Rescore>
     Score         DG    S(hbond)    S(metal)    S(lipo)     H(rot)  DE(clash)    DE(int)     intcor
     15.49     -16.76       0.94        0.00      91.51       1.00       0.01       1.26       ----

> <Gold.Chemscore.Fitness>
15.4911

> <Gold.Chemscore.DG>
-16.7607

> <Gold.Chemscore.ZeroCoef>
-5.4800

> <Gold.Chemscore.Hbond>
0.9385

> <Gold.Chemscore.Metal>
0.0000

> <Gold.Chemscore.Lipo>
91.5064

> <Gold.Chemscore.Internal_Hbond>
0.0000

> <Gold.Chemscore.DEClash>
0.0059

> <Gold.Chemscore.DEInternal>
1.2637

> <Gold.Chemscore.Rot>
1.0000

> <Gold.Chemscore.Internal.Correction>
   9.000000E+99

> <Gold.Chemscore.Hbonds>
donor molecule, donor type, donor heavy atom, donor atom, acceptor molecule, acceptor atom, score
      P1  H  7997  8010       L1     5  0.93

> <Gold.Chemscore.Hbond.Weighted>
-3.1345

> <Gold.Chemscore.Metal.Weighted>
-0.0000

> <Gold.Chemscore.Lipo.Weighted>
-10.7063

> <Gold.Chemscore.Internal_Hbond.Weighted>
0.0000

> <Gold.Chemscore.DEClash.Weighted>
0.0059

> <Gold.Chemscore.DEInternal.Weighted>
1.2637

> <Gold.Chemscore.Rot.Weighted>
2.5600

> <Gold.Chemscore.Internal.Correction.Weighted>
   9.000000E+99

> <Gold.Protein.RotatedTorsions>
[ 6907 6896 6895 6894 ] final  -23.42 input  -60.11 | X-H torsion
[ 7974 7965 7964 7962 ] final  100.30 input  175.53 | X-H torsion
[ 8008 7997 7996 7995 ] final   48.93 input   59.86 | X-H torsion
[ 10167 10162 10161 10158 ] final -103.54 input  -65.29 | X-H torsion
[ 10718 10713 10712 10709 ] final  -87.62 input   66.30 | X-H torsion
[ 10763 10752 10751 10750 ] final -132.93 input  -60.55 | X-H torsion
[ 11005 11000 10999 10996 ] final   50.68 input  -57.11 | X-H torsion

> <Gold.Protein.ActiveResidues>
 VAL166  LYS551  ARG553  GLY616  TRP617  ASP618  TYR619  PRO620  LYS621  CYS622 
 ASP623  PHE694  ASN695  SER759  ASP760  ASP761  ALA762  ILE779  LEU786  VAL792 
 PHE793  MET794  SER795  GLU796  ALA797  LYS798  CYS799  TRP800  GLU811  SER814 

> <Gold.Protein.RotatedAtoms>
  151.2043  135.0455  159.8884 H   0  0  0  0  0  0  0  0  0  0  0  0  # atno 6907 bound_to 6896
  152.5430  134.0816  159.8248 H   0  0  0  0  0  0  0  0  0  0  0  0  # atno 6908 bound_to 6896
  151.0960  133.5232  159.2644 H   0  0  0  0  0  0  0  0  0  0  0  0  # atno 6909 bound_to 6896
  145.3874  139.2369  143.3370 H   0  0  0  0  0  0  0  0  0  0  0  0  # atno 7974 bound_to 7965
  155.3938  140.3434  155.4253 H   0  0  0  0  0  0  0  0  0  0  0  0  # atno 8008 bound_to 7997
  156.1542  140.1580  156.8752 H   0  0  0  0  0  0  0  0  0  0  0  0  # atno 8009 bound_to 7997
  154.5080  140.0797  156.7914 H   0  0  0  0  0  0  0  0  0  0  0  0  # atno 8010 bound_to 7997
  140.2188  143.3691  152.0987 H   0  0  0  0  0  0  0  0  0  0  0  0  # atno 10167 bound_to 10162
  155.9985  130.4806  150.4894 H   0  0  0  0  0  0  0  0  0  0  0  0  # atno 10718 bound_to 10713
  154.8738  135.3782  154.4489 H   0  0  0  0  0  0  0  0  0  0  0  0  # atno 10763 bound_to 10752
  153.5167  135.7029  153.5757 H   0  0  0  0  0  0  0  0  0  0  0  0  # atno 10764 bound_to 10752
  153.4023  135.3945  155.1961 H   0  0  0  0  0  0  0  0  0  0  0  0  # atno 10765 bound_to 10752
  140.0997  134.5098  155.8774 H   0  0  0  0  0  0  0  0  0  0  0  0  # atno 11005 bound_to 11000
  146.2814  140.4551  142.8775 LP  0  0  0  0  0  0  0  0  0  0  0  0  # atno 17320 bound_to 7965
  144.8464  140.6936  143.6196 LP  0  0  0  0  0  0  0  0  0  0  0  0  # atno 17321 bound_to 7965
  139.5152  144.6959  151.5632 LP  0  0  0  0  0  0  0  0  0  0  0  0  # atno 17342 bound_to 10162
  140.6270  143.9150  150.6573 LP  0  0  0  0  0  0  0  0  0  0  0  0  # atno 17343 bound_to 10162
  157.2891  131.0622  151.2146 LP  0  0  0  0  0  0  0  0  0  0  0  0  # atno 17370 bound_to 10713
  157.3165  130.6916  149.6245 LP  0  0  0  0  0  0  0  0  0  0  0  0  # atno 17371 bound_to 10713
  141.2102  133.6692  156.6493 LP  0  0  0  0  0  0  0  0  0  0  0  0  # atno 17394 bound_to 11000
  140.3237  134.7986  157.4273 LP  0  0  0  0  0  0  0  0  0  0  0  0  # atno 17395 bound_to 11000

$$$$
