AV-unprocessed.smi:2425|AV-procd|sdf|9575|dock10
  -GOLD-   2272013203D 1   1.00000     0.00000
 Structure written by MMmdl.
 35 36  0  0  0  0  0  0  0  0  3 V2000
  151.5065  144.9164  158.9009 C   0  0  0  0  0  0  0  0  0  0  0  0
  152.8659  144.2237  158.7240 C   0  0  0  0  0  0  0  0  0  0  0  0
  152.9327  142.8177  159.3393 C   0  0  0  0  0  0  0  0  0  0  0  0
  152.6154  141.7943  158.3313 N   0  0  0  0  0  0  0  0  0  0  0  0
  151.6185  141.8257  157.4322 C   0  0  0  0  0  0  0  0  0  0  0  0
  150.8060  142.7461  157.3447 O   0  0  0  0  0  0  0  0  0  0  0  0
  151.6255  140.7206  156.6675 N   0  0  0  0  0  0  0  0  0  0  0  0
  150.7248  140.3523  155.6268 C   0  0  0  0  0  0  0  0  0  0  0  0
  149.4590  140.9702  155.4753 C   0  0  0  0  0  0  0  0  0  0  0  0
  148.6402  140.5952  154.3939 C   0  0  0  0  0  0  0  0  0  0  0  0
  149.0023  139.6796  153.4742 N   0  0  0  0  0  0  0  0  0  0  0  0
  150.2137  139.1015  153.6074 C   0  0  0  0  0  0  0  0  0  0  0  0
  151.1176  139.3906  154.6553 C   0  0  0  0  0  0  0  0  0  0  0  0
  152.4168  138.6928  154.6973 N   0  3  0  0  0  0  0  0  0  0  0  0
  153.3777  139.2647  155.2018 O   0  0  0  0  0  0  0  0  0  0  0  0
  152.4633  137.5548  154.2424 O   0  5  0  0  0  0  0  0  0  0  0  0
  154.2243  142.4076  160.0761 C   0  0  0  0  0  0  0  0  0  0  0  0
  153.3775  141.6779  161.1219 C   0  0  0  0  0  0  0  0  0  0  0  0
  152.1978  142.5428  160.6718 C   0  0  0  0  0  0  0  0  0  0  0  0
  151.5054  145.8921  158.4148 H   0  0  0  0  0  0  0  0  0  0  0  0
  151.2707  145.0744  159.9534 H   0  0  0  0  0  0  0  0  0  0  0  0
  150.7022  144.3266  158.4608 H   0  0  0  0  0  0  0  0  0  0  0  0
  153.0811  144.1631  157.6567 H   0  0  0  0  0  0  0  0  0  0  0  0
  153.6475  144.8615  159.1368 H   0  0  0  0  0  0  0  0  0  0  0  0
  153.2200  140.9860  158.3212 H   0  0  0  0  0  0  0  0  0  0  0  0
  152.2995  140.0139  156.9243 H   0  0  0  0  0  0  0  0  0  0  0  0
  149.1091  141.7343  156.1523 H   0  0  0  0  0  0  0  0  0  0  0  0
  147.6719  141.0535  154.2577 H   0  0  0  0  0  0  0  0  0  0  0  0
  150.4660  138.3744  152.8495 H   0  0  0  0  0  0  0  0  0  0  0  0
  154.9031  141.7670  159.5116 H   0  0  0  0  0  0  0  0  0  0  0  0
  154.7544  143.2624  160.4997 H   0  0  0  0  0  0  0  0  0  0  0  0
  153.2391  140.6198  160.8942 H   0  0  0  0  0  0  0  0  0  0  0  0
  153.6909  141.8348  162.1544 H   0  0  0  0  0  0  0  0  0  0  0  0
  152.0907  143.4405  161.2830 H   0  0  0  0  0  0  0  0  0  0  0  0
  151.2502  142.0083  160.5997 H   0  0  0  0  0  0  0  0  0  0  0  0
  1  2  1  0  0  0  0
  1 20  1  0  0  0  0
  1 21  1  0  0  0  0
  1 22  1  0  0  0  0
  2  3  1  0  0  0  0
  2 23  1  0  0  0  0
  2 24  1  0  0  0  0
  3 19  1  0  0  0  0
  3  4  1  0  0  0  0
  3 17  1  0  0  0  0
  4  5  1  0  0  0  0
  4 25  1  0  0  0  0
  5  6  2  0  0  0  0
  5  7  1  0  0  0  0
  7  8  1  0  0  0  0
  7 26  1  0  0  0  0
  8 13  1  0  0  0  0
  8  9  2  0  0  0  0
  9 10  1  0  0  0  0
  9 27  1  0  0  0  0
 10 11  2  0  0  0  0
 10 28  1  0  0  0  0
 11 12  1  0  0  0  0
 12 13  2  0  0  0  0
 12 29  1  0  0  0  0
 13 14  1  0  0  0  0
 14 15  2  0  0  0  0
 14 16  1  0  0  0  0
 17 18  1  0  0  0  0
 17 30  1  0  0  0  0
 17 31  1  0  0  0  0
 18 19  1  0  0  0  0
 18 32  1  0  0  0  0
 18 33  1  0  0  0  0
 19 34  1  0  0  0  0
 19 35  1  0  0  0  0
M  CHG  1  14   1
M  CHG  1  16  -1
M  END
> <s_m_source_file>
AV-unprocessed.smi

> <i_m_source_file_index>
2425

> <i_lp_mmshare_version>
43012

> <i_f3d_flags>
0

> <s_epik_input>
W0NIMl0xW0NIMl1bQ0gyXUMxKFtDSDJdW0NIM10pW05IXUMoPU8pW05IXWMyW2NIXVtjSF1uW2NIXWMyW04rXSg9TylbTy1d

> <s_epik_cmdline>
J2VwaWtfcHl0aG9uJywgJy1waCcsICc3LjAnLCAnLXRuJywgJzgnLCAnLW1hJywgJzIwMCcsICctbWV0YWxfYmluZGluZycsICctaW1hZScsICc8aW5maWxlLm1hZT4nLCAnLW9tYWUnLCAnPG91dGZpbGUubWFlPic=

> <r_lp_tautomer_probability>
1

> <r_epik_Ionization_Penalty>
0.00016416

> <r_epik_Ionization_Penalty_Charging>
0

> <r_epik_Ionization_Penalty_Neutral>
0.00016416

> <r_epik_State_Penalty>
-0

> <r_epik_Charging_Adjusted_Penalty>
0

> <i_epik_Tot_Q>
0

> <i_epik_Tot_abs_Q>
2

> <r_epik_Metal_State_Penalty>
-0

> <b_epik_Metal_Only>
0

> <s_lp_Force_Field>
OPLS_2005

> <r_lp_Energy>
29.2252

> <b_lp_Chiralities_Consistent>
1

> <s_lp_Variant>
AV-unprocessed.smi:2425-1

> <Gold.Version>
5.8.1

> <Gold.Id.Protein>
6NUR|6NUR_protein|mol2

> <Gold.PLP.Fitness>
43.6923

> <Gold.PLP.PLP>
-36.8970

> <Gold.PLP.part.hbond>
-2.0000

> <Gold.PLP.part.metal>
0.0000

> <Gold.PLP.part.buried>
-5.3395

> <Gold.PLP.part.nonpolar>
-32.6535

> <Gold.PLP.part.repulsive>
3.6813

> <Gold.PLP.ligand.clash>
0.0000

> <Gold.PLP.ligand.torsion>
1.3839

> <Gold.PLP.Chemscore.Hbond>
1.9760

> <Gold.PLP.Chemscore.CHOScore>
1.0832

> <Gold.PLP.Chemscore.Metal>
0.0000

> <Gold.Chemscore.Hbonds>
donor molecule, donor type, donor heavy atom, donor atom, acceptor molecule, acceptor atom, score
      P1  H  7997  8009       L1    15  0.91
      P1  H 10752 10765       L1    16  0.51
      L1  C    12    29       P1  7948  0.33
      L1  C    12    29       P1  7949  0.14
      L1  C    12    29       P1  7957  0.13

> <Gold.PLP.Chemscore.Internal.Correction>
0.3857

> <Gold.Rescore>
     Score         DG    S(hbond)    S(metal)    S(lipo)     H(rot)  DE(clash)    DE(int)     intcor
     11.90     -21.00       1.88        0.00     105.98       1.23       2.06       7.04       ----

> <Gold.Chemscore.Fitness>
11.9017

> <Gold.Chemscore.DG>
-21.0038

> <Gold.Chemscore.ZeroCoef>
-5.4800

> <Gold.Chemscore.Hbond>
1.8767

> <Gold.Chemscore.Metal>
0.0000

> <Gold.Chemscore.Lipo>
105.9812

> <Gold.Chemscore.Internal_Hbond>
0.0000

> <Gold.Chemscore.DEClash>
2.0606

> <Gold.Chemscore.DEInternal>
7.0415

> <Gold.Chemscore.Rot>
1.2282

> <Gold.Chemscore.Internal.Correction>
   9.000000E+99

> <Gold.Chemscore.Hbonds>
donor molecule, donor type, donor heavy atom, donor atom, acceptor molecule, acceptor atom, score
      P1  H  7997  8009       L1    15  0.88
      P1  H 10752 10765       L1    16  0.50

> <Gold.Chemscore.Hbond.Weighted>
-6.2681

> <Gold.Chemscore.Metal.Weighted>
-0.0000

> <Gold.Chemscore.Lipo.Weighted>
-12.3998

> <Gold.Chemscore.Internal_Hbond.Weighted>
0.0000

> <Gold.Chemscore.DEClash.Weighted>
2.0606

> <Gold.Chemscore.DEInternal.Weighted>
7.0415

> <Gold.Chemscore.Rot.Weighted>
3.1441

> <Gold.Chemscore.Internal.Correction.Weighted>
   9.000000E+99

> <Gold.Protein.RotatedTorsions>
[ 6907 6896 6895 6894 ] final   27.52 input  -60.11 | X-H torsion
[ 7974 7965 7964 7962 ] final  -29.79 input  175.53 | X-H torsion
[ 8008 7997 7996 7995 ] final -158.10 input   59.86 | X-H torsion
[ 10167 10162 10161 10158 ] final  157.28 input  -65.29 | X-H torsion
[ 10718 10713 10712 10709 ] final -144.63 input   66.30 | X-H torsion
[ 10763 10752 10751 10750 ] final  177.56 input  -60.55 | X-H torsion
[ 11005 11000 10999 10996 ] final   -1.39 input  -57.11 | X-H torsion

> <Gold.Protein.ActiveResidues>
 VAL166  LYS551  ARG553  GLY616  TRP617  ASP618  TYR619  PRO620  LYS621  CYS622 
 ASP623  PHE694  ASN695  SER759  ASP760  ASP761  ALA762  ILE779  LEU786  VAL792 
 PHE793  MET794  SER795  GLU796  ALA797  LYS798  CYS799  TRP800  GLU811  SER814 

> <Gold.Protein.RotatedAtoms>
  152.0035  134.9915  160.0565 H   0  0  0  0  0  0  0  0  0  0  0  0  # atno 6907 bound_to 6896
  152.1497  133.4509  159.4815 H   0  0  0  0  0  0  0  0  0  0  0  0  # atno 6908 bound_to 6896
  150.6874  134.2122  159.4407 H   0  0  0  0  0  0  0  0  0  0  0  0  # atno 6909 bound_to 6896
  146.1190  140.5458  142.8743 H   0  0  0  0  0  0  0  0  0  0  0  0  # atno 7974 bound_to 7965
  155.7425  140.0816  157.2239 H   0  0  0  0  0  0  0  0  0  0  0  0  # atno 8008 bound_to 7997
  154.4020  140.1575  156.2688 H   0  0  0  0  0  0  0  0  0  0  0  0  # atno 8009 bound_to 7997
  155.9007  140.3410  155.6027 H   0  0  0  0  0  0  0  0  0  0  0  0  # atno 8010 bound_to 7997
  139.4823  144.4931  151.8279 H   0  0  0  0  0  0  0  0  0  0  0  0  # atno 10167 bound_to 10162
  156.3725  130.7795  151.1977 H   0  0  0  0  0  0  0  0  0  0  0  0  # atno 10718 bound_to 10713
  154.4961  135.2781  155.1458 H   0  0  0  0  0  0  0  0  0  0  0  0  # atno 10763 bound_to 10752
  154.3110  135.6229  153.5469 H   0  0  0  0  0  0  0  0  0  0  0  0  # atno 10764 bound_to 10752
  152.9895  135.5719  154.5394 H   0  0  0  0  0  0  0  0  0  0  0  0  # atno 10765 bound_to 10752
  140.6468  133.9440  155.8357 H   0  0  0  0  0  0  0  0  0  0  0  0  # atno 11005 bound_to 11000
  144.7580  140.5354  143.6755 LP  0  0  0  0  0  0  0  0  0  0  0  0  # atno 17320 bound_to 7965
  145.5505  139.1476  143.3397 LP  0  0  0  0  0  0  0  0  0  0  0  0  # atno 17321 bound_to 7965
  140.4417  144.1977  150.5892 LP  0  0  0  0  0  0  0  0  0  0  0  0  # atno 17342 bound_to 10162
  140.4676  143.2425  151.9134 LP  0  0  0  0  0  0  0  0  0  0  0  0  # atno 17343 bound_to 10162
  157.7485  131.0368  150.4427 LP  0  0  0  0  0  0  0  0  0  0  0  0  # atno 17370 bound_to 10713
  156.4656  130.4041  149.6549 LP  0  0  0  0  0  0  0  0  0  0  0  0  # atno 17371 bound_to 10713
  141.0566  134.0407  157.3714 LP  0  0  0  0  0  0  0  0  0  0  0  0  # atno 17394 bound_to 11000
  139.9060  135.0179  156.7487 LP  0  0  0  0  0  0  0  0  0  0  0  0  # atno 17395 bound_to 11000

$$$$
