AV-unprocessed.smi:3156|AV-procd|sdf|12036|dock5
  -GOLD-   2272017453D 1   1.00000     0.00000
 Structure written by MMmdl.
 41 42  0  0  0  0  0  0  0  0  2 V2000
  147.7712  141.9682  154.8269 C   0  0  0  0  0  0  0  0  0  0  0  0
  149.1680  141.3279  154.7728 C   0  0  1  0  0  0  0  0  0  0  0  0
  150.0545  142.0509  155.7144 N   0  3  0  0  0  0  0  0  0  0  0  0
  149.9941  141.5828  157.1148 C   0  0  0  0  0  0  0  0  0  0  0  0
  151.1603  142.1397  157.9439 C   0  0  1  0  0  0  0  0  0  0  0  0
  151.3566  143.6571  157.7390 C   0  0  0  0  0  0  0  0  0  0  0  0
  152.4518  144.1922  158.6679 C   0  0  0  0  0  0  0  0  0  0  0  0
  152.1434  143.7893  160.1131 C   0  0  0  0  0  0  0  0  0  0  0  0
  151.9081  142.2738  160.2048 C   0  0  0  0  0  0  0  0  0  0  0  0
  150.8633  141.8906  159.3157 O   0  0  0  0  0  0  0  0  0  0  0  0
  149.1479  139.8115  155.1092 C   0  0  1  0  0  0  0  0  0  0  0  0
  148.0806  139.0255  154.3229 C   0  0  0  0  0  0  0  0  0  0  0  0
  150.4586  139.2020  154.9110 N   0  0  0  0  0  0  0  0  0  0  0  0
  150.7690  138.0516  154.2145 C   0  0  0  0  0  0  0  0  0  0  0  0
  152.1171  137.8624  154.3172 C   0  0  0  0  0  0  0  0  0  0  0  0
  152.5546  138.9640  155.1037 C   0  0  0  0  0  0  0  0  0  0  0  0
  151.5609  139.7611  155.4597 N   0  0  0  0  0  0  0  0  0  0  0  0
  147.1068  141.5518  154.0703 H   0  0  0  0  0  0  0  0  0  0  0  0
  147.8268  143.0415  154.6414 H   0  0  0  0  0  0  0  0  0  0  0  0
  147.3035  141.8232  155.8012 H   0  0  0  0  0  0  0  0  0  0  0  0
  149.5441  141.4580  153.7563 H   0  0  0  0  0  0  0  0  0  0  0  0
  151.0077  141.9637  155.3921 H   0  0  0  0  0  0  0  0  0  0  0  0
  149.0473  141.8725  157.5718 H   0  0  0  0  0  0  0  0  0  0  0  0
  150.0250  140.4924  157.1126 H   0  0  0  0  0  0  0  0  0  0  0  0
  152.0745  141.6042  157.6803 H   0  0  0  0  0  0  0  0  0  0  0  0
  151.6139  143.8754  156.7023 H   0  0  0  0  0  0  0  0  0  0  0  0
  150.4210  144.1800  157.9434 H   0  0  0  0  0  0  0  0  0  0  0  0
  153.4193  143.7852  158.3708 H   0  0  0  0  0  0  0  0  0  0  0  0
  152.5277  145.2766  158.5830 H   0  0  0  0  0  0  0  0  0  0  0  0
  152.9603  144.0861  160.7714 H   0  0  0  0  0  0  0  0  0  0  0  0
  151.2541  144.3174  160.4597 H   0  0  0  0  0  0  0  0  0  0  0  0
  152.8203  141.7232  159.9704 H   0  0  0  0  0  0  0  0  0  0  0  0
  151.6232  142.0005  161.2208 H   0  0  0  0  0  0  0  0  0  0  0  0
  148.9103  139.7055  156.1688 H   0  0  0  0  0  0  0  0  0  0  0  0
  147.0712  139.3344  154.5927 H   0  0  0  0  0  0  0  0  0  0  0  0
  148.1513  137.9575  154.5320 H   0  0  0  0  0  0  0  0  0  0  0  0
  148.1947  139.1598  153.2468 H   0  0  0  0  0  0  0  0  0  0  0  0
  150.0132  137.4666  153.7110 H   0  0  0  0  0  0  0  0  0  0  0  0
  152.7029  137.0601  153.8933 H   0  0  0  0  0  0  0  0  0  0  0  0
  153.5568  139.2053  155.4261 H   0  0  0  0  0  0  0  0  0  0  0  0
  149.7979  143.0274  155.6940 H   0  0  0  0  0  0  0  0  0  0  0  0
  1  2  1  0  0  0  0
  1 18  1  0  0  0  0
  1 19  1  0  0  0  0
  1 20  1  0  0  0  0
  2  3  1  0  0  0  0
  2 11  1  0  0  0  0
  2 21  1  0  0  0  0
  3  4  1  0  0  0  0
  3 22  1  0  0  0  0
  3 41  1  0  0  0  0
  4  5  1  0  0  0  0
  4 23  1  0  0  0  0
  4 24  1  0  0  0  0
  5 10  1  0  0  0  0
  5  6  1  0  0  0  0
  5 25  1  0  0  0  0
  6  7  1  0  0  0  0
  6 26  1  0  0  0  0
  6 27  1  0  0  0  0
  7  8  1  0  0  0  0
  7 28  1  0  0  0  0
  7 29  1  0  0  0  0
  8  9  1  0  0  0  0
  8 30  1  0  0  0  0
  8 31  1  0  0  0  0
  9 10  1  0  0  0  0
  9 32  1  0  0  0  0
  9 33  1  0  0  0  0
 11 12  1  0  0  0  0
 11 13  1  0  0  0  0
 11 34  1  0  0  0  0
 12 35  1  0  0  0  0
 12 36  1  0  0  0  0
 12 37  1  0  0  0  0
 13 17  1  0  0  0  0
 13 14  1  0  0  0  0
 14 15  2  0  0  0  0
 14 38  1  0  0  0  0
 15 16  1  0  0  0  0
 15 39  1  0  0  0  0
 16 17  2  0  0  0  0
 16 40  1  0  0  0  0
M  CHG  1   3   1
M  END
> <s_m_source_file>
AV-unprocessed.smi

> <i_m_source_file_index>
3156

> <i_lp_mmshare_version>
43012

> <i_f3d_flags>
0

> <s_epik_input>
bjFbY0hdW2NIXVtjSF1uMVtDQEBIXShbQ0gzXSlbQ0BIXShbQ0gzXSlbTkhdW0NIMl1bQ0BASF0yW0NIMl1bQ0gyXVtDSDJdW0NIMl1PMg==

> <s_epik_cmdline>
J2VwaWtfcHl0aG9uJywgJy1waCcsICc3LjAnLCAnLXRuJywgJzgnLCAnLW1hJywgJzIwMCcsICctbWV0YWxfYmluZGluZycsICctaW1hZScsICc8aW5maWxlLm1hZT4nLCAnLW9tYWUnLCAnPG91dGZpbGUubWFlPic=

> <r_lp_tautomer_probability>
1

> <r_epik_Ionization_Penalty>
0.00658015

> <r_epik_Ionization_Penalty_Charging>
0.00656881

> <r_epik_Ionization_Penalty_Neutral>
1.13431e-05

> <r_epik_State_Penalty>
0.0048654

> <r_epik_Charging_Adjusted_Penalty>
0.0114342

> <i_epik_Tot_Q>
1

> <i_epik_Tot_abs_Q>
1

> <r_epik_Metal_State_Penalty>
-0

> <b_epik_Metal_Only>
0

> <s_lp_Force_Field>
OPLS_2005

> <r_lp_Energy>
18.5215

> <b_lp_Chiralities_Consistent>
1

> <s_lp_Variant>
AV-unprocessed.smi:3156-8

> <Gold.Version>
5.8.1

> <Gold.Id.Protein>
6NUR|6NUR_protein|mol2

> <Gold.PLP.Fitness>
50.3082

> <Gold.PLP.PLP>
-41.6533

> <Gold.PLP.part.hbond>
-2.0000

> <Gold.PLP.part.metal>
0.0000

> <Gold.PLP.part.buried>
-2.3308

> <Gold.PLP.part.nonpolar>
-37.8506

> <Gold.PLP.part.repulsive>
0.2013

> <Gold.PLP.ligand.clash>
0.0000

> <Gold.PLP.ligand.torsion>
0.5416

> <Gold.PLP.Chemscore.Hbond>
2.1925

> <Gold.PLP.Chemscore.CHOScore>
1.0237

> <Gold.PLP.Chemscore.Metal>
0.0000

> <Gold.Chemscore.Hbonds>
donor molecule, donor type, donor heavy atom, donor atom, acceptor molecule, acceptor atom, score
      L1  H     3    41       P1  8028  2.00
      P1  H  7989  7998       L1    17  0.05
      L1  C    14    38       P1  7948  1.00
      L1  C    14    38       P1  7949  0.01

> <Gold.PLP.Chemscore.Internal.Correction>
0.0896

> <Gold.Rescore>
     Score         DG    S(hbond)    S(metal)    S(lipo)     H(rot)  DE(clash)    DE(int)     intcor
     14.51     -17.74       1.00        0.00     111.14       1.59       0.07       3.16       ----

> <Gold.Chemscore.Fitness>
14.5136

> <Gold.Chemscore.DG>
-17.7423

> <Gold.Chemscore.ZeroCoef>
-5.4800

> <Gold.Chemscore.Hbond>
0.9997

> <Gold.Chemscore.Metal>
0.0000

> <Gold.Chemscore.Lipo>
111.1406

> <Gold.Chemscore.Internal_Hbond>
0.0000

> <Gold.Chemscore.DEClash>
0.0688

> <Gold.Chemscore.DEInternal>
3.1599

> <Gold.Chemscore.Rot>
1.5938

> <Gold.Chemscore.Internal.Correction>
   9.000000E+99

> <Gold.Chemscore.Hbonds>
donor molecule, donor type, donor heavy atom, donor atom, acceptor molecule, acceptor atom, score
      L1  H     3    41       P1  8028  1.00

> <Gold.Chemscore.Hbond.Weighted>
-3.3391

> <Gold.Chemscore.Metal.Weighted>
-0.0000

> <Gold.Chemscore.Lipo.Weighted>
-13.0035

> <Gold.Chemscore.Internal_Hbond.Weighted>
0.0000

> <Gold.Chemscore.DEClash.Weighted>
0.0688

> <Gold.Chemscore.DEInternal.Weighted>
3.1599

> <Gold.Chemscore.Rot.Weighted>
4.0802

> <Gold.Chemscore.Internal.Correction.Weighted>
   9.000000E+99

> <Gold.Protein.RotatedTorsions>
[ 6907 6896 6895 6894 ] final  148.70 input  -60.11 | X-H torsion
[ 7974 7965 7964 7962 ] final  139.94 input  175.53 | X-H torsion
[ 8008 7997 7996 7995 ] final   40.19 input   59.86 | X-H torsion
[ 10167 10162 10161 10158 ] final  152.25 input  -65.29 | X-H torsion
[ 10718 10713 10712 10709 ] final  -77.37 input   66.30 | X-H torsion
[ 10763 10752 10751 10750 ] final   13.92 input  -60.55 | X-H torsion
[ 11005 11000 10999 10996 ] final  -12.93 input  -57.11 | X-H torsion

> <Gold.Protein.ActiveResidues>
 VAL166  LYS551  ARG553  GLY616  TRP617  ASP618  TYR619  PRO620  LYS621  CYS622 
 ASP623  PHE694  ASN695  SER759  ASP760  ASP761  ALA762  ILE779  LEU786  VAL792 
 PHE793  MET794  SER795  GLU796  ALA797  LYS798  CYS799  TRP800  GLU811  SER814 

> <Gold.Protein.RotatedAtoms>
  152.1379  133.4446  159.4752 H   0  0  0  0  0  0  0  0  0  0  0  0  # atno 6907 bound_to 6896
  150.6883  134.2341  159.4455 H   0  0  0  0  0  0  0  0  0  0  0  0  # atno 6908 bound_to 6896
  152.0229  134.9811  160.0621 H   0  0  0  0  0  0  0  0  0  0  0  0  # atno 6909 bound_to 6896
  144.9232  139.5141  143.5653 H   0  0  0  0  0  0  0  0  0  0  0  0  # atno 7974 bound_to 7965
  155.2491  140.3351  155.4284 H   0  0  0  0  0  0  0  0  0  0  0  0  # atno 8008 bound_to 7997
  156.2223  140.1814  156.7490 H   0  0  0  0  0  0  0  0  0  0  0  0  # atno 8009 bound_to 7997
  154.5845  140.0648  156.9136 H   0  0  0  0  0  0  0  0  0  0  0  0  # atno 8010 bound_to 7997
  139.4834  144.5373  151.7623 H   0  0  0  0  0  0  0  0  0  0  0  0  # atno 10167 bound_to 10162
  156.0147  130.4489  150.3335 H   0  0  0  0  0  0  0  0  0  0  0  0  # atno 10718 bound_to 10713
  153.1673  135.6806  153.8657 H   0  0  0  0  0  0  0  0  0  0  0  0  # atno 10763 bound_to 10752
  153.8032  135.3153  155.3393 H   0  0  0  0  0  0  0  0  0  0  0  0  # atno 10764 bound_to 10752
  154.7974  135.4798  154.0285 H   0  0  0  0  0  0  0  0  0  0  0  0  # atno 10765 bound_to 10752
  140.7709  133.8439  155.9206 H   0  0  0  0  0  0  0  0  0  0  0  0  # atno 11005 bound_to 11000
  146.3214  139.8127  142.8942 LP  0  0  0  0  0  0  0  0  0  0  0  0  # atno 17320 bound_to 7965
  145.3262  141.0256  143.3472 LP  0  0  0  0  0  0  0  0  0  0  0  0  # atno 17321 bound_to 7965
  140.4908  144.1313  150.5950 LP  0  0  0  0  0  0  0  0  0  0  0  0  # atno 17342 bound_to 10162
  140.4173  143.2628  151.9758 LP  0  0  0  0  0  0  0  0  0  0  0  0  # atno 17343 bound_to 10162
  157.1432  131.0302  151.2918 LP  0  0  0  0  0  0  0  0  0  0  0  0  # atno 17370 bound_to 10713
  157.4454  130.7568  149.7105 LP  0  0  0  0  0  0  0  0  0  0  0  0  # atno 17371 bound_to 10713
  140.9575  134.1699  157.4680 LP  0  0  0  0  0  0  0  0  0  0  0  0  # atno 17394 bound_to 11000
  139.8756  134.9932  156.5634 LP  0  0  0  0  0  0  0  0  0  0  0  0  # atno 17395 bound_to 11000

$$$$
