AV-unprocessed.smi:473|AV-procd|sdf|2661|dock3
  -GOLD-   2262023 73D 1   1.00000     0.00000
 Structure written by MMmdl.
 42 44  0  0  0  0  0  0  0  0  1 V2000
  151.3207  145.7655  159.9971 C   0  0  0  0  0  0  0  0  0  0  0  0
  152.1086  144.4688  160.0565 C   0  0  0  0  0  0  0  0  0  0  0  0
  152.4204  143.9114  161.3172 C   0  0  0  0  0  0  0  0  0  0  0  0
  153.1486  142.7055  161.4159 C   0  0  0  0  0  0  0  0  0  0  0  0
  153.5578  141.9904  162.5286 N   0  0  0  0  0  0  0  0  0  0  0  0
  154.1906  140.9633  161.9686 C   0  0  0  0  0  0  0  0  0  0  0  0
  154.2401  140.9287  160.6229 N   0  0  0  0  0  0  0  0  0  0  0  0
  154.8699  139.9189  159.7910 C   0  0  0  0  0  0  0  0  0  0  0  0
  153.9825  138.6732  159.6025 C   0  0  2  0  0  0  0  0  0  0  0  0
  154.7945  137.5892  159.1944 O   0  0  0  0  0  0  0  0  0  0  0  0
  152.8940  138.9002  158.5418 C   0  0  0  0  0  0  0  0  0  0  0  0
  153.5117  139.2794  157.3188 O   0  0  0  0  0  0  0  0  0  0  0  0
  152.6770  139.1324  156.1768 C   0  0  0  0  0  0  0  0  0  0  0  0
  151.7134  140.2783  156.1263 C   0  0  0  0  0  0  0  0  0  0  0  0
  151.1997  141.1087  157.0837 C   0  0  0  0  0  0  0  0  0  0  0  0
  150.3387  142.0177  156.4089 C   0  0  0  0  0  0  0  0  0  0  0  0
  150.3969  141.6805  155.0868 C   0  0  0  0  0  0  0  0  0  0  0  0
  151.2341  140.6250  154.8964 O   0  0  0  0  0  0  0  0  0  0  0  0
  153.5607  142.0686  160.2089 C   0  0  0  0  0  0  0  0  0  0  0  0
  153.2578  142.6136  158.9488 C   0  0  0  0  0  0  0  0  0  0  0  0
  152.5283  143.8183  158.8683 C   0  0  0  0  0  0  0  0  0  0  0  0
  152.2023  144.3970  157.5028 C   0  0  0  0  0  0  0  0  0  0  0  0
  151.0778  146.1299  160.9956 H   0  0  0  0  0  0  0  0  0  0  0  0
  150.3847  145.6192  159.4576 H   0  0  0  0  0  0  0  0  0  0  0  0
  151.8966  146.5396  159.4896 H   0  0  0  0  0  0  0  0  0  0  0  0
  152.1005  144.4059  162.2225 H   0  0  0  0  0  0  0  0  0  0  0  0
  154.6432  140.1893  162.5713 H   0  0  0  0  0  0  0  0  0  0  0  0
  155.0930  140.3723  158.8244 H   0  0  0  0  0  0  0  0  0  0  0  0
  155.8277  139.6439  160.2353 H   0  0  0  0  0  0  0  0  0  0  0  0
  153.5140  138.4243  160.5557 H   0  0  0  0  0  0  0  0  0  0  0  0
  154.6039  137.3947  158.2897 H   0  0  0  0  0  0  0  0  0  0  0  0
  152.3431  137.9714  158.3878 H   0  0  0  0  0  0  0  0  0  0  0  0
  152.1714  139.6495  158.8696 H   0  0  0  0  0  0  0  0  0  0  0  0
  153.2638  139.0648  155.2595 H   0  0  0  0  0  0  0  0  0  0  0  0
  152.1225  138.1989  156.2727 H   0  0  0  0  0  0  0  0  0  0  0  0
  151.4162  141.0652  158.1408 H   0  0  0  0  0  0  0  0  0  0  0  0
  149.7536  142.8187  156.8362 H   0  0  0  0  0  0  0  0  0  0  0  0
  149.9331  142.0684  154.1917 H   0  0  0  0  0  0  0  0  0  0  0  0
  153.5827  142.1061  158.0524 H   0  0  0  0  0  0  0  0  0  0  0  0
  152.6172  143.7844  156.7018 H   0  0  0  0  0  0  0  0  0  0  0  0
  152.6155  145.4009  157.4038 H   0  0  0  0  0  0  0  0  0  0  0  0
  151.1230  144.4501  157.3589 H   0  0  0  0  0  0  0  0  0  0  0  0
  1  2  1  0  0  0  0
  1 23  1  0  0  0  0
  1 24  1  0  0  0  0
  1 25  1  0  0  0  0
  2 21  1  0  0  0  0
  2  3  2  0  0  0  0
  3  4  1  0  0  0  0
  3 26  1  0  0  0  0
  4 19  2  0  0  0  0
  4  5  1  0  0  0  0
  5  6  2  0  0  0  0
  6  7  1  0  0  0  0
  6 27  1  0  0  0  0
  7  8  1  0  0  0  0
  7 19  1  0  0  0  0
  8  9  1  0  0  0  0
  8 28  1  0  0  0  0
  8 29  1  0  0  0  0
  9 10  1  0  0  0  0
  9 11  1  0  0  0  0
  9 30  1  0  0  0  0
 10 31  1  0  0  0  0
 11 12  1  0  0  0  0
 11 32  1  0  0  0  0
 11 33  1  0  0  0  0
 12 13  1  0  0  0  0
 13 14  1  0  0  0  0
 13 34  1  0  0  0  0
 13 35  1  0  0  0  0
 14 18  1  0  0  0  0
 14 15  2  0  0  0  0
 15 16  1  0  0  0  0
 15 36  1  0  0  0  0
 16 17  2  0  0  0  0
 16 37  1  0  0  0  0
 17 18  1  0  0  0  0
 17 38  1  0  0  0  0
 19 20  1  0  0  0  0
 20 21  2  0  0  0  0
 20 39  1  0  0  0  0
 21 22  1  0  0  0  0
 22 40  1  0  0  0  0
 22 41  1  0  0  0  0
 22 42  1  0  0  0  0
M  END
> <s_m_source_file>
AV-unprocessed.smi

> <i_m_source_file_index>
473

> <i_lp_mmshare_version>
43012

> <i_f3d_flags>
0

> <s_epik_input>
W0NIM11jKFtjSF0xKWMoW0NIM10pW2NIXWMoYzEyKW4oW2NIXW4yKVtDSDJdW0NASF0oW09IXSlbQ0gyXU9bQ0gyXWMzW2NIXVtjSF1bY0hdbzM=

> <s_epik_cmdline>
J2VwaWtfcHl0aG9uJywgJy1waCcsICc3LjAnLCAnLXRuJywgJzgnLCAnLW1hJywgJzIwMCcsICctbWV0YWxfYmluZGluZycsICctaW1hZScsICc8aW5maWxlLm1hZT4nLCAnLW9tYWUnLCAnPG91dGZpbGUubWFlPic=

> <r_epik_Ionization_Penalty>
0.112477

> <r_epik_Ionization_Penalty_Charging>
0

> <r_epik_Ionization_Penalty_Neutral>
0.112477

> <r_epik_State_Penalty>
0.102177

> <r_epik_Charging_Adjusted_Penalty>
0.102177

> <i_epik_Tot_Q>
0

> <i_epik_Tot_abs_Q>
0

> <r_epik_Metal_State_Penalty>
0.000111506

> <b_epik_Metal_Only>
0

> <s_lp_Force_Field>
OPLS_2005

> <r_lp_Energy>
9.85232

> <b_lp_Chiralities_Consistent>
1

> <s_lp_Variant>
AV-unprocessed.smi:473-1

> <Gold.Version>
5.8.1

> <Gold.Id.Protein>
6NUR|6NUR_protein|mol2

> <Gold.PLP.Fitness>
56.8397

> <Gold.PLP.PLP>
-52.7106

> <Gold.PLP.part.hbond>
-1.9124

> <Gold.PLP.part.metal>
0.0000

> <Gold.PLP.part.buried>
-4.2541

> <Gold.PLP.part.nonpolar>
-45.8653

> <Gold.PLP.part.repulsive>
0.0849

> <Gold.PLP.ligand.clash>
0.0000

> <Gold.PLP.ligand.torsion>
0.9992

> <Gold.PLP.Chemscore.Hbond>
2.0000

> <Gold.PLP.Chemscore.CHOScore>
0.0000

> <Gold.PLP.Chemscore.Metal>
0.0000

> <Gold.Chemscore.Hbonds>
donor molecule, donor type, donor heavy atom, donor atom, acceptor molecule, acceptor atom, score
      P1  H  7989  7998       L1    18  0.74
      P1  H  7997  8008       L1    12  0.63

> <Gold.PLP.Chemscore.Internal.Correction>
0.1275

> <Gold.Rescore>
     Score         DG    S(hbond)    S(metal)    S(lipo)     H(rot)  DE(clash)    DE(int)     intcor
     20.72     -22.00       1.77        0.00     143.37       2.41       0.25       1.04       ----

> <Gold.Chemscore.Fitness>
20.7177

> <Gold.Chemscore.DG>
-22.0035

> <Gold.Chemscore.ZeroCoef>
-5.4800

> <Gold.Chemscore.Hbond>
1.7709

> <Gold.Chemscore.Metal>
0.0000

> <Gold.Chemscore.Lipo>
143.3667

> <Gold.Chemscore.Internal_Hbond>
0.0000

> <Gold.Chemscore.DEClash>
0.2462

> <Gold.Chemscore.DEInternal>
1.0395

> <Gold.Chemscore.Rot>
2.4083

> <Gold.Chemscore.Internal.Correction>
   9.000000E+99

> <Gold.Chemscore.Hbonds>
donor molecule, donor type, donor heavy atom, donor atom, acceptor molecule, acceptor atom, score
      P1  H  7989  7998       L1    18  0.16
      P1  H  7997  8008       L1    12  0.53

> <Gold.Chemscore.Hbond.Weighted>
-5.9149

> <Gold.Chemscore.Metal.Weighted>
-0.0000

> <Gold.Chemscore.Lipo.Weighted>
-16.7739

> <Gold.Chemscore.Internal_Hbond.Weighted>
0.0000

> <Gold.Chemscore.DEClash.Weighted>
0.2462

> <Gold.Chemscore.DEInternal.Weighted>
1.0395

> <Gold.Chemscore.Rot.Weighted>
6.1653

> <Gold.Chemscore.Internal.Correction.Weighted>
   9.000000E+99

> <Gold.Protein.RotatedTorsions>
[ 6907 6896 6895 6894 ] final   75.05 input  -60.11 | X-H torsion
[ 7974 7965 7964 7962 ] final  -21.66 input  175.53 | X-H torsion
[ 8008 7997 7996 7995 ] final  -92.89 input   59.86 | X-H torsion
[ 10167 10162 10161 10158 ] final -128.74 input  -65.29 | X-H torsion
[ 10718 10713 10712 10709 ] final  131.41 input   66.30 | X-H torsion
[ 10763 10752 10751 10750 ] final -165.79 input  -60.55 | X-H torsion
[ 11005 11000 10999 10996 ] final  -48.58 input  -57.11 | X-H torsion

> <Gold.Protein.ActiveResidues>
 VAL166  LYS551  ARG553  GLY616  TRP617  ASP618  TYR619  PRO620  LYS621  CYS622 
 ASP623  PHE694  ASN695  SER759  ASP760  ASP761  ALA762  ILE779  LEU786  VAL792 
 PHE793  MET794  SER795  GLU796  ALA797  LYS798  CYS799  TRP800  GLU811  SER814 

> <Gold.Protein.RotatedAtoms>
  152.5007  134.4179  159.9470 H   0  0  0  0  0  0  0  0  0  0  0  0  # atno 6907 bound_to 6896
  151.4150  133.3709  159.2756 H   0  0  0  0  0  0  0  0  0  0  0  0  # atno 6908 bound_to 6896
  150.9264  134.8702  159.7582 H   0  0  0  0  0  0  0  0  0  0  0  0  # atno 6909 bound_to 6896
  146.1720  140.4372  142.8528 H   0  0  0  0  0  0  0  0  0  0  0  0  # atno 7974 bound_to 7965
  154.7288  140.0504  157.0707 H   0  0  0  0  0  0  0  0  0  0  0  0  # atno 8008 bound_to 7997
  155.0329  140.3160  155.4732 H   0  0  0  0  0  0  0  0  0  0  0  0  # atno 8009 bound_to 7997
  156.2836  140.2146  156.5451 H   0  0  0  0  0  0  0  0  0  0  0  0  # atno 8010 bound_to 7997
  139.9471  143.6097  152.2486 H   0  0  0  0  0  0  0  0  0  0  0  0  # atno 10167 bound_to 10162
  157.4970  131.1093  150.9480 H   0  0  0  0  0  0  0  0  0  0  0  0  # atno 10718 bound_to 10713
  154.6897  135.2968  154.9496 H   0  0  0  0  0  0  0  0  0  0  0  0  # atno 10763 bound_to 10752
  154.0464  135.6650  153.4799 H   0  0  0  0  0  0  0  0  0  0  0  0  # atno 10764 bound_to 10752
  153.0604  135.5119  154.7983 H   0  0  0  0  0  0  0  0  0  0  0  0  # atno 10765 bound_to 10752
  141.0709  133.6679  156.3461 H   0  0  0  0  0  0  0  0  0  0  0  0  # atno 11005 bound_to 11000
  144.8178  140.6497  143.6373 LP  0  0  0  0  0  0  0  0  0  0  0  0  # atno 17320 bound_to 7965
  145.4314  139.1548  143.4020 LP  0  0  0  0  0  0  0  0  0  0  0  0  # atno 17321 bound_to 7965
  139.6658  144.7662  151.1877 LP  0  0  0  0  0  0  0  0  0  0  0  0  # atno 17342 bound_to 10162
  140.7594  143.5941  150.8766 LP  0  0  0  0  0  0  0  0  0  0  0  0  # atno 17343 bound_to 10162
  157.0163  130.5656  149.5326 LP  0  0  0  0  0  0  0  0  0  0  0  0  # atno 17370 bound_to 10713
  156.0206  130.5301  150.8264 LP  0  0  0  0  0  0  0  0  0  0  0  0  # atno 17371 bound_to 10713
  140.5675  134.5873  157.5449 LP  0  0  0  0  0  0  0  0  0  0  0  0  # atno 17394 bound_to 11000
  139.9522  134.7596  156.0421 LP  0  0  0  0  0  0  0  0  0  0  0  0  # atno 17395 bound_to 11000

$$$$
