AV-unprocessed.smi:1448|AV-procd|sdf|5894|dock8
  -GOLD-   22720 5583D 1   1.00000     0.00000
 Structure written by MMmdl.
 49 50  0  0  0  0  0  0  0  0  2 V2000
  151.0988  142.2240  156.2995 C   0  0  0  0  0  0  0  0  0  0  0  0
  150.7423  141.0149  155.4857 C   0  0  0  0  0  0  0  0  0  0  0  0
  149.4821  140.6870  154.9063 C   0  0  0  0  0  0  0  0  0  0  0  0
  149.7361  139.4931  154.2882 C   0  0  0  0  0  0  0  0  0  0  0  0
  148.8932  138.7067  153.5673 N   0  0  0  0  0  0  0  0  0  0  0  0
  147.6567  138.9900  153.1223 C   0  0  0  0  0  0  0  0  0  0  0  0
  147.0640  140.0554  153.2897 O   0  0  0  0  0  0  0  0  0  0  0  0
  147.1239  137.9450  152.4726 N   0  0  0  0  0  0  0  0  0  0  0  0
  145.7979  137.9024  151.8541 C   0  0  0  0  0  0  0  0  0  0  0  0
  144.7805  136.9949  152.6199 C   0  0  0  0  0  0  0  0  0  0  0  0
  144.1172  137.8311  153.6913 N   0  3  0  0  0  0  0  0  0  0  0  0
  145.0008  138.3823  154.7504 C   0  0  0  0  0  0  0  0  0  0  0  0
  142.8997  137.2347  154.3016 C   0  0  0  0  0  0  0  0  0  0  0  0
  143.7203  136.4259  151.6279 C   0  0  0  0  0  0  0  0  0  0  0  0
  144.2937  135.4404  150.5901 C   0  0  0  0  0  0  0  0  0  0  0  0
  145.0591  134.2887  151.2548 C   0  0  0  0  0  0  0  0  0  0  0  0
  146.1463  134.8159  152.1996 C   0  0  0  0  0  0  0  0  0  0  0  0
  145.5448  135.7773  153.2406 C   0  0  0  0  0  0  0  0  0  0  0  0
  151.0552  139.1566  154.4956 N   0  0  0  0  0  0  0  0  0  0  0  0
  151.7918  137.9935  154.0404 C   0  0  0  0  0  0  0  0  0  0  0  0
  151.6730  140.1001  155.2385 N   0  0  0  0  0  0  0  0  0  0  0  0
  150.2514  142.9040  156.3872 H   0  0  0  0  0  0  0  0  0  0  0  0
  151.9207  142.7765  155.8434 H   0  0  0  0  0  0  0  0  0  0  0  0
  151.4036  141.9425  157.3077 H   0  0  0  0  0  0  0  0  0  0  0  0
  148.5618  141.2495  154.9485 H   0  0  0  0  0  0  0  0  0  0  0  0
  149.2438  137.7839  153.3564 H   0  0  0  0  0  0  0  0  0  0  0  0
  147.6869  137.1113  152.3832 H   0  0  0  0  0  0  0  0  0  0  0  0
  145.4113  138.9134  151.7270 H   0  0  0  0  0  0  0  0  0  0  0  0
  145.9497  137.5515  150.8355 H   0  0  0  0  0  0  0  0  0  0  0  0
  145.5512  137.5915  155.2611 H   0  0  0  0  0  0  0  0  0  0  0  0
  144.4175  138.9186  155.4999 H   0  0  0  0  0  0  0  0  0  0  0  0
  145.7093  139.1057  154.3477 H   0  0  0  0  0  0  0  0  0  0  0  0
  143.1536  136.4269  154.9888 H   0  0  0  0  0  0  0  0  0  0  0  0
  142.2047  136.8444  153.5605 H   0  0  0  0  0  0  0  0  0  0  0  0
  142.3582  137.9910  154.8708 H   0  0  0  0  0  0  0  0  0  0  0  0
  142.9368  135.9128  152.1868 H   0  0  0  0  0  0  0  0  0  0  0  0
  143.2257  137.2313  151.0848 H   0  0  0  0  0  0  0  0  0  0  0  0
  143.4814  135.0351  149.9858 H   0  0  0  0  0  0  0  0  0  0  0  0
  144.9483  135.9640  149.8935 H   0  0  0  0  0  0  0  0  0  0  0  0
  144.3613  133.6644  151.8144 H   0  0  0  0  0  0  0  0  0  0  0  0
  145.5035  133.6471  150.4932 H   0  0  0  0  0  0  0  0  0  0  0  0
  146.6194  133.9762  152.7097 H   0  0  0  0  0  0  0  0  0  0  0  0
  146.9391  135.3012  151.6310 H   0  0  0  0  0  0  0  0  0  0  0  0
  146.3248  136.1138  153.9243 H   0  0  0  0  0  0  0  0  0  0  0  0
  144.8684  135.1652  153.8365 H   0  0  0  0  0  0  0  0  0  0  0  0
  151.2789  137.0863  154.3600 H   0  0  0  0  0  0  0  0  0  0  0  0
  152.8013  137.9917  154.4534 H   0  0  0  0  0  0  0  0  0  0  0  0
  151.8547  138.0036  152.9520 H   0  0  0  0  0  0  0  0  0  0  0  0
  143.7822  138.6458  153.1967 H   0  0  0  0  0  0  0  0  0  0  0  0
  1  2  1  0  0  0  0
  1 22  1  0  0  0  0
  1 23  1  0  0  0  0
  1 24  1  0  0  0  0
  2 21  2  0  0  0  0
  2  3  1  0  0  0  0
  3  4  2  0  0  0  0
  3 25  1  0  0  0  0
  4  5  1  0  0  0  0
  4 19  1  0  0  0  0
  5  6  1  0  0  0  0
  5 26  1  0  0  0  0
  6  7  2  0  0  0  0
  6  8  1  0  0  0  0
  8  9  1  0  0  0  0
  8 27  1  0  0  0  0
  9 10  1  0  0  0  0
  9 28  1  0  0  0  0
  9 29  1  0  0  0  0
 10 18  1  0  0  0  0
 10 11  1  0  0  0  0
 10 14  1  0  0  0  0
 11 12  1  0  0  0  0
 11 13  1  0  0  0  0
 11 49  1  0  0  0  0
 12 30  1  0  0  0  0
 12 31  1  0  0  0  0
 12 32  1  0  0  0  0
 13 33  1  0  0  0  0
 13 34  1  0  0  0  0
 13 35  1  0  0  0  0
 14 15  1  0  0  0  0
 14 36  1  0  0  0  0
 14 37  1  0  0  0  0
 15 16  1  0  0  0  0
 15 38  1  0  0  0  0
 15 39  1  0  0  0  0
 16 17  1  0  0  0  0
 16 40  1  0  0  0  0
 16 41  1  0  0  0  0
 17 18  1  0  0  0  0
 17 42  1  0  0  0  0
 17 43  1  0  0  0  0
 18 44  1  0  0  0  0
 18 45  1  0  0  0  0
 19 20  1  0  0  0  0
 19 21  1  0  0  0  0
 20 46  1  0  0  0  0
 20 47  1  0  0  0  0
 20 48  1  0  0  0  0
M  CHG  1  11   1
M  END
> <s_m_source_file>
AV-unprocessed.smi

> <i_m_source_file_index>
1448

> <i_lp_mmshare_version>
43012

> <i_f3d_flags>
0

> <s_epik_input>
W0NIM11jMVtjSF1jKG4objEpW0NIM10pW05IXUMoPU8pW05IXVtDSDJdQzIoTihbQ0gzXSlbQ0gzXSlbQ0gyXVtDSDJdW0NIMl1bQ0gyXVtDSDJdMg==

> <s_epik_cmdline>
J2VwaWtfcHl0aG9uJywgJy1waCcsICc3LjAnLCAnLXRuJywgJzgnLCAnLW1hJywgJzIwMCcsICctbWV0YWxfYmluZGluZycsICctaW1hZScsICc8aW5maWxlLm1hZT4nLCAnLW9tYWUnLCAnPG91dGZpbGUubWFlPic=

> <r_lp_tautomer_probability>
1

> <r_epik_Ionization_Penalty>
0.00238996

> <r_epik_Ionization_Penalty_Charging>
0.00230992

> <r_epik_Ionization_Penalty_Neutral>
8.00361e-05

> <r_epik_State_Penalty>
0.00159337

> <r_epik_Charging_Adjusted_Penalty>
0.00390329

> <i_epik_Tot_Q>
1

> <i_epik_Tot_abs_Q>
1

> <r_epik_Metal_State_Penalty>
-0

> <b_epik_Metal_Only>
0

> <s_lp_Force_Field>
OPLS_2005

> <r_lp_Energy>
34.408

> <b_lp_Chiralities_Consistent>
1

> <s_lp_Variant>
AV-unprocessed.smi:1448-1

> <Gold.Version>
5.8.1

> <Gold.Id.Protein>
6NUR|6NUR_protein|mol2

> <Gold.PLP.Fitness>
42.5007

> <Gold.PLP.PLP>
-33.7576

> <Gold.PLP.part.hbond>
-4.8388

> <Gold.PLP.part.metal>
0.0000

> <Gold.PLP.part.buried>
2.4758

> <Gold.PLP.part.nonpolar>
-30.9762

> <Gold.PLP.part.repulsive>
0.3256

> <Gold.PLP.ligand.clash>
0.0000

> <Gold.PLP.ligand.torsion>
0.7193

> <Gold.PLP.Chemscore.Hbond>
3.3473

> <Gold.PLP.Chemscore.CHOScore>
0.0000

> <Gold.PLP.Chemscore.Metal>
0.0000

> <Gold.Chemscore.Hbonds>
donor molecule, donor type, donor heavy atom, donor atom, acceptor molecule, acceptor atom, score
      L1  H     5    26       P1  7948  0.56
      L1  H     8    27       P1  7948  1.00
      L1  H    11    49       P1 10175  2.00

> <Gold.PLP.Chemscore.Internal.Correction>
0.1398

> <Gold.Rescore>
     Score         DG    S(hbond)    S(metal)    S(lipo)     H(rot)  DE(clash)    DE(int)     intcor
     12.58     -15.70       1.81        0.00      67.90       1.47       1.44       1.68       ----

> <Gold.Chemscore.Fitness>
12.5772

> <Gold.Chemscore.DG>
-15.6983

> <Gold.Chemscore.ZeroCoef>
-5.4800

> <Gold.Chemscore.Hbond>
1.8095

> <Gold.Chemscore.Metal>
0.0000

> <Gold.Chemscore.Lipo>
67.9038

> <Gold.Chemscore.Internal_Hbond>
0.0000

> <Gold.Chemscore.DEClash>
1.4432

> <Gold.Chemscore.DEInternal>
1.6779

> <Gold.Chemscore.Rot>
1.4727

> <Gold.Chemscore.Internal.Correction>
   9.000000E+99

> <Gold.Chemscore.Hbonds>
donor molecule, donor type, donor heavy atom, donor atom, acceptor molecule, acceptor atom, score
      L1  H     5    26       P1  7948  0.54
      L1  H     8    27       P1  7948  0.97
      L1  H    11    49       P1 10175  0.99

> <Gold.Chemscore.Hbond.Weighted>
-6.0436

> <Gold.Chemscore.Metal.Weighted>
-0.0000

> <Gold.Chemscore.Lipo.Weighted>
-7.9447

> <Gold.Chemscore.Internal_Hbond.Weighted>
0.0000

> <Gold.Chemscore.DEClash.Weighted>
1.4432

> <Gold.Chemscore.DEInternal.Weighted>
1.6779

> <Gold.Chemscore.Rot.Weighted>
3.7700

> <Gold.Chemscore.Internal.Correction.Weighted>
   9.000000E+99

> <Gold.Protein.RotatedTorsions>
[ 6907 6896 6895 6894 ] final    4.11 input  -60.11 | X-H torsion
[ 7974 7965 7964 7962 ] final  -69.02 input  175.53 | X-H torsion
[ 8008 7997 7996 7995 ] final  173.72 input   59.86 | X-H torsion
[ 10167 10162 10161 10158 ] final  -71.22 input  -65.29 | X-H torsion
[ 10718 10713 10712 10709 ] final   64.94 input   66.30 | X-H torsion
[ 10763 10752 10751 10750 ] final  107.23 input  -60.55 | X-H torsion
[ 11005 11000 10999 10996 ] final -157.53 input  -57.11 | X-H torsion

> <Gold.Protein.ActiveResidues>
 VAL166  LYS551  ARG553  GLY616  TRP617  ASP618  TYR619  PRO620  LYS621  CYS622 
 ASP623  PHE694  ASN695  SER759  ASP760  ASP761  ALA762  ILE779  LEU786  VAL792 
 PHE793  MET794  SER795  GLU796  ALA797  LYS798  CYS799  TRP800  GLU811  SER814 

> <Gold.Protein.RotatedAtoms>
  151.6361  135.1018  160.0131 H   0  0  0  0  0  0  0  0  0  0  0  0  # atno 6907 bound_to 6896
  152.4080  133.6915  159.6381 H   0  0  0  0  0  0  0  0  0  0  0  0  # atno 6908 bound_to 6896
  150.7973  133.8592  159.3268 H   0  0  0  0  0  0  0  0  0  0  0  0  # atno 6909 bound_to 6896
  145.7090  140.9086  143.0690 H   0  0  0  0  0  0  0  0  0  0  0  0  # atno 7974 bound_to 7965
  156.1046  140.1453  156.9421 H   0  0  0  0  0  0  0  0  0  0  0  0  # atno 8008 bound_to 7997
  154.4725  140.0905  156.7226 H   0  0  0  0  0  0  0  0  0  0  0  0  # atno 8009 bound_to 7997
  155.4701  140.3441  155.4326 H   0  0  0  0  0  0  0  0  0  0  0  0  # atno 8010 bound_to 7997
  140.5290  143.2323  151.7296 H   0  0  0  0  0  0  0  0  0  0  0  0  # atno 10167 bound_to 10162
  157.6073  130.9187  149.9911 H   0  0  0  0  0  0  0  0  0  0  0  0  # atno 10718 bound_to 10713
  153.4039  135.3851  155.2006 H   0  0  0  0  0  0  0  0  0  0  0  0  # atno 10763 bound_to 10752
  154.8732  135.3778  154.4585 H   0  0  0  0  0  0  0  0  0  0  0  0  # atno 10764 bound_to 10752
  153.5085  135.7087  153.5855 H   0  0  0  0  0  0  0  0  0  0  0  0  # atno 10765 bound_to 10752
  140.6636  134.4322  157.5234 H   0  0  0  0  0  0  0  0  0  0  0  0  # atno 11005 bound_to 11000
  144.6947  139.9049  143.7460 LP  0  0  0  0  0  0  0  0  0  0  0  0  # atno 17320 bound_to 7965
  146.0729  139.3718  143.0512 LP  0  0  0  0  0  0  0  0  0  0  0  0  # atno 17321 bound_to 7965
  139.4948  144.4142  152.0047 LP  0  0  0  0  0  0  0  0  0  0  0  0  # atno 17342 bound_to 10162
  140.3243  144.3391  150.6002 LP  0  0  0  0  0  0  0  0  0  0  0  0  # atno 17343 bound_to 10162
  156.1163  130.3647  149.9962 LP  0  0  0  0  0  0  0  0  0  0  0  0  # atno 17370 bound_to 10713
  156.8051  130.9304  151.3645 LP  0  0  0  0  0  0  0  0  0  0  0  0  # atno 17371 bound_to 10713
  139.9004  134.8568  156.1919 LP  0  0  0  0  0  0  0  0  0  0  0  0  # atno 17394 bound_to 11000
  141.0446  133.6920  156.1659 LP  0  0  0  0  0  0  0  0  0  0  0  0  # atno 17395 bound_to 11000

$$$$
