AV-unprocessed.smi:2467|AV-procd|sdf|9728|dock2
  -GOLD-   2272013373D 1   1.00000     0.00000
 Structure written by MMmdl.
 46 47  0  0  0  0  0  0  0  0  1 V2000
  144.4789  132.5266  149.1272 C   0  0  0  0  0  0  0  0  0  0  0  0
  144.4091  133.3786  150.4041 C   0  0  0  0  0  0  0  0  0  0  0  0
  145.7611  133.5733  151.1406 C   0  0  0  0  0  0  0  0  0  0  0  0
  146.1113  132.3036  151.9635 C   0  0  0  0  0  0  0  0  0  0  0  0
  147.3898  132.3794  152.8086 C   0  0  0  0  0  0  0  0  0  0  0  0
  145.7636  134.8537  152.0288 C   0  0  1  0  0  0  0  0  0  0  0  0
  145.4602  136.1472  151.2307 C   0  0  0  0  0  0  0  0  0  0  0  0
  145.5132  137.3910  152.1315 C   0  0  2  0  0  0  0  0  0  0  0  0
  146.8942  137.6457  152.5309 N   0  0  0  0  0  0  0  0  0  0  0  0
  147.3149  138.5414  153.4368 C   0  0  0  0  0  0  0  0  0  0  0  0
  146.5445  139.2681  154.0618 O   0  0  0  0  0  0  0  0  0  0  0  0
  148.6502  138.6026  153.6323 N   0  0  0  0  0  0  0  0  0  0  0  0
  149.4423  139.4167  154.4976 C   0  0  0  0  0  0  0  0  0  0  0  0
  150.6844  138.8490  154.8623 C   0  0  0  0  0  0  0  0  0  0  0  0
  151.5516  139.5591  155.7153 C   0  0  0  0  0  0  0  0  0  0  0  0
  151.1555  140.8236  156.1855 C   0  0  0  0  0  0  0  0  0  0  0  0
  149.9045  141.3194  155.7772 C   0  0  0  0  0  0  0  0  0  0  0  0
  149.0734  140.6395  154.9597 N   0  0  0  0  0  0  0  0  0  0  0  0
  144.5987  137.1771  153.3497 C   0  0  0  0  0  0  0  0  0  0  0  0
  144.8765  135.8236  154.0235 C   0  0  0  0  0  0  0  0  0  0  0  0
  144.7821  134.7751  153.0637 O   0  0  0  0  0  0  0  0  0  0  0  0
  143.5293  132.5620  148.5930 H   0  0  0  0  0  0  0  0  0  0  0  0
  144.6824  131.4786  149.3441 H   0  0  0  0  0  0  0  0  0  0  0  0
  145.2512  132.8915  148.4498 H   0  0  0  0  0  0  0  0  0  0  0  0
  144.0185  134.3497  150.0994 H   0  0  0  0  0  0  0  0  0  0  0  0
  143.6709  132.9544  151.0860 H   0  0  0  0  0  0  0  0  0  0  0  0
  146.5196  133.6984  150.3665 H   0  0  0  0  0  0  0  0  0  0  0  0
  145.2739  132.0470  152.6137 H   0  0  0  0  0  0  0  0  0  0  0  0
  146.2359  131.4577  151.2894 H   0  0  0  0  0  0  0  0  0  0  0  0
  147.6133  131.4084  153.2506 H   0  0  0  0  0  0  0  0  0  0  0  0
  147.2879  133.0866  153.6313 H   0  0  0  0  0  0  0  0  0  0  0  0
  148.2485  132.6712  152.2038 H   0  0  0  0  0  0  0  0  0  0  0  0
  146.7403  134.9252  152.5106 H   0  0  0  0  0  0  0  0  0  0  0  0
  146.1421  136.2774  150.3929 H   0  0  0  0  0  0  0  0  0  0  0  0
  144.4648  136.0687  150.7914 H   0  0  0  0  0  0  0  0  0  0  0  0
  145.1571  138.2506  151.5611 H   0  0  0  0  0  0  0  0  0  0  0  0
  147.6027  137.0917  152.0702 H   0  0  0  0  0  0  0  0  0  0  0  0
  149.1822  137.9528  153.0715 H   0  0  0  0  0  0  0  0  0  0  0  0
  150.9753  137.8760  154.4931 H   0  0  0  0  0  0  0  0  0  0  0  0
  152.5043  139.1399  156.0034 H   0  0  0  0  0  0  0  0  0  0  0  0
  151.7931  141.3983  156.8408 H   0  0  0  0  0  0  0  0  0  0  0  0
  149.5601  142.2859  156.1143 H   0  0  0  0  0  0  0  0  0  0  0  0
  144.7069  137.9902  154.0685 H   0  0  0  0  0  0  0  0  0  0  0  0
  143.5592  137.1983  153.0204 H   0  0  0  0  0  0  0  0  0  0  0  0
  145.8595  135.8147  154.4969 H   0  0  0  0  0  0  0  0  0  0  0  0
  144.1458  135.6440  154.8121 H   0  0  0  0  0  0  0  0  0  0  0  0
  1  2  1  0  0  0  0
  1 22  1  0  0  0  0
  1 23  1  0  0  0  0
  1 24  1  0  0  0  0
  2  3  1  0  0  0  0
  2 25  1  0  0  0  0
  2 26  1  0  0  0  0
  3  4  1  0  0  0  0
  3  6  1  0  0  0  0
  3 27  1  0  0  0  0
  4  5  1  0  0  0  0
  4 28  1  0  0  0  0
  4 29  1  0  0  0  0
  5 30  1  0  0  0  0
  5 31  1  0  0  0  0
  5 32  1  0  0  0  0
  6 21  1  0  0  0  0
  6  7  1  0  0  0  0
  6 33  1  0  0  0  0
  7  8  1  0  0  0  0
  7 34  1  0  0  0  0
  7 35  1  0  0  0  0
  8  9  1  0  0  0  0
  8 19  1  0  0  0  0
  8 36  1  0  0  0  0
  9 10  1  0  0  0  0
  9 37  1  0  0  0  0
 10 11  2  0  0  0  0
 10 12  1  0  0  0  0
 12 13  1  0  0  0  0
 12 38  1  0  0  0  0
 13 18  1  0  0  0  0
 13 14  2  0  0  0  0
 14 15  1  0  0  0  0
 14 39  1  0  0  0  0
 15 16  2  0  0  0  0
 15 40  1  0  0  0  0
 16 17  1  0  0  0  0
 16 41  1  0  0  0  0
 17 18  2  0  0  0  0
 17 42  1  0  0  0  0
 19 20  1  0  0  0  0
 19 43  1  0  0  0  0
 19 44  1  0  0  0  0
 20 21  1  0  0  0  0
 20 45  1  0  0  0  0
 20 46  1  0  0  0  0
M  END
> <s_m_source_file>
AV-unprocessed.smi

> <i_m_source_file_index>
2467

> <i_lp_mmshare_version>
43012

> <i_f3d_flags>
0

> <s_epik_input>
W0NIM11bQ0gyXVtDSF0oW0NIMl1bQ0gzXSlbQ0BASF0xW0NIMl1bQ0BIXShbQ0gyXVtDSDJdTzEpW05IXUMoPU8pW05IXWMyW2NIXVtjSF1bY0hdW2NIXW4y

> <s_epik_cmdline>
J2VwaWtfcHl0aG9uJywgJy1waCcsICc3LjAnLCAnLXRuJywgJzgnLCAnLW1hJywgJzIwMCcsICctbWV0YWxfYmluZGluZycsICctaW1hZScsICc8aW5maWxlLm1hZT4nLCAnLW9tYWUnLCAnPG91dGZpbGUubWFlPic=

> <r_lp_tautomer_probability>
1

> <r_epik_Ionization_Penalty>
4.80427e-05

> <r_epik_Ionization_Penalty_Charging>
0

> <r_epik_Ionization_Penalty_Neutral>
4.80427e-05

> <r_epik_State_Penalty>
-0

> <r_epik_Charging_Adjusted_Penalty>
0

> <i_epik_Tot_Q>
0

> <i_epik_Tot_abs_Q>
0

> <r_epik_Metal_State_Penalty>
-0

> <b_epik_Metal_Only>
0

> <s_lp_Force_Field>
OPLS_2005

> <r_lp_Energy>
20.8854

> <b_lp_Chiralities_Consistent>
1

> <s_lp_Variant>
AV-unprocessed.smi:2467-4

> <Gold.Version>
5.8.1

> <Gold.Id.Protein>
6NUR|6NUR_protein|mol2

> <Gold.PLP.Fitness>
45.6034

> <Gold.PLP.PLP>
-37.8748

> <Gold.PLP.part.hbond>
-3.0000

> <Gold.PLP.part.metal>
0.0000

> <Gold.PLP.part.buried>
-3.5593

> <Gold.PLP.part.nonpolar>
-32.4926

> <Gold.PLP.part.repulsive>
0.4421

> <Gold.PLP.ligand.clash>
0.0000

> <Gold.PLP.ligand.torsion>
0.4534

> <Gold.PLP.Chemscore.Hbond>
1.8640

> <Gold.PLP.Chemscore.CHOScore>
1.0000

> <Gold.PLP.Chemscore.Metal>
0.0000

> <Gold.Chemscore.Hbonds>
donor molecule, donor type, donor heavy atom, donor atom, acceptor molecule, acceptor atom, score
      L1  H     9    37       P1  7948  1.00
      L1  H    12    38       P1  7948  0.74
      L1  C    17    42       P1  8028  0.91

> <Gold.PLP.Chemscore.Internal.Correction>
0.0435

> <Gold.Rescore>
     Score         DG    S(hbond)    S(metal)    S(lipo)     H(rot)  DE(clash)    DE(int)     intcor
     15.40     -18.15       1.86        0.00      87.60       1.49       0.09       2.65       ----

> <Gold.Chemscore.Fitness>
15.3986

> <Gold.Chemscore.DG>
-18.1458

> <Gold.Chemscore.ZeroCoef>
-5.4800

> <Gold.Chemscore.Hbond>
1.8621

> <Gold.Chemscore.Metal>
0.0000

> <Gold.Chemscore.Lipo>
87.6013

> <Gold.Chemscore.Internal_Hbond>
0.0000

> <Gold.Chemscore.DEClash>
0.0949

> <Gold.Chemscore.DEInternal>
2.6522

> <Gold.Chemscore.Rot>
1.4856

> <Gold.Chemscore.Internal.Correction>
   9.000000E+99

> <Gold.Chemscore.Hbonds>
donor molecule, donor type, donor heavy atom, donor atom, acceptor molecule, acceptor atom, score
      L1  H     9    37       P1  7948  0.98
      L1  H    12    38       P1  7948  0.70

> <Gold.Chemscore.Hbond.Weighted>
-6.2195

> <Gold.Chemscore.Metal.Weighted>
-0.0000

> <Gold.Chemscore.Lipo.Weighted>
-10.2494

> <Gold.Chemscore.Internal_Hbond.Weighted>
0.0000

> <Gold.Chemscore.DEClash.Weighted>
0.0949

> <Gold.Chemscore.DEInternal.Weighted>
2.6522

> <Gold.Chemscore.Rot.Weighted>
3.8031

> <Gold.Chemscore.Internal.Correction.Weighted>
   9.000000E+99

> <Gold.Protein.RotatedTorsions>
[ 6907 6896 6895 6894 ] final   -5.02 input  -60.11 | X-H torsion
[ 7974 7965 7964 7962 ] final  148.16 input  175.53 | X-H torsion
[ 8008 7997 7996 7995 ] final  -39.36 input   59.86 | X-H torsion
[ 10167 10162 10161 10158 ] final  -96.48 input  -65.29 | X-H torsion
[ 10718 10713 10712 10709 ] final  -22.95 input   66.30 | X-H torsion
[ 10763 10752 10751 10750 ] final   86.03 input  -60.55 | X-H torsion
[ 11005 11000 10999 10996 ] final   97.90 input  -57.11 | X-H torsion

> <Gold.Protein.ActiveResidues>
 VAL166  LYS551  ARG553  GLY616  TRP617  ASP618  TYR619  PRO620  LYS621  CYS622 
 ASP623  PHE694  ASN695  SER759  ASP760  ASP761  ALA762  ILE779  LEU786  VAL792 
 PHE793  MET794  SER795  GLU796  ALA797  LYS798  CYS799  TRP800  GLU811  SER814 

> <Gold.Protein.RotatedAtoms>
  151.4883  135.1056  159.9796 H   0  0  0  0  0  0  0  0  0  0  0  0  # atno 6907 bound_to 6896
  152.4751  133.8116  159.7017 H   0  0  0  0  0  0  0  0  0  0  0  0  # atno 6908 bound_to 6896
  150.8784  133.7344  159.2966 H   0  0  0  0  0  0  0  0  0  0  0  0  # atno 6909 bound_to 6896
  144.8535  139.6119  143.5963 H   0  0  0  0  0  0  0  0  0  0  0  0  # atno 7974 bound_to 7965
  154.4024  140.1553  156.2851 H   0  0  0  0  0  0  0  0  0  0  0  0  # atno 8008 bound_to 7997
  155.8835  140.3442  155.5883 H   0  0  0  0  0  0  0  0  0  0  0  0  # atno 8009 bound_to 7997
  155.7640  140.0821  157.2132 H   0  0  0  0  0  0  0  0  0  0  0  0  # atno 8010 bound_to 7997
  140.2934  143.3207  152.0323 H   0  0  0  0  0  0  0  0  0  0  0  0  # atno 10167 bound_to 10162
  156.4976  130.4580  149.6719 H   0  0  0  0  0  0  0  0  0  0  0  0  # atno 10718 bound_to 10713
  153.1531  135.4595  154.9665 H   0  0  0  0  0  0  0  0  0  0  0  0  # atno 10763 bound_to 10752
  154.7840  135.3198  154.7929 H   0  0  0  0  0  0  0  0  0  0  0  0  # atno 10764 bound_to 10752
  153.8431  135.6928  153.4855 H   0  0  0  0  0  0  0  0  0  0  0  0  # atno 10765 bound_to 10752
  139.8774  134.9023  156.4376 H   0  0  0  0  0  0  0  0  0  0  0  0  # atno 11005 bound_to 11000
  146.2804  139.6863  142.9233 LP  0  0  0  0  0  0  0  0  0  0  0  0  # atno 17320 bound_to 7965
  145.4452  141.0425  143.2835 LP  0  0  0  0  0  0  0  0  0  0  0  0  # atno 17321 bound_to 7965
  139.4932  144.6509  151.6678 LP  0  0  0  0  0  0  0  0  0  0  0  0  # atno 17342 bound_to 10162
  140.5713  144.0104  150.6218 LP  0  0  0  0  0  0  0  0  0  0  0  0  # atno 17343 bound_to 10162
  156.3365  130.7359  151.2297 LP  0  0  0  0  0  0  0  0  0  0  0  0  # atno 17370 bound_to 10713
  157.7467  131.0415  150.4651 LP  0  0  0  0  0  0  0  0  0  0  0  0  # atno 17371 bound_to 10713
  140.9022  133.7771  155.9693 LP  0  0  0  0  0  0  0  0  0  0  0  0  # atno 17394 bound_to 11000
  140.8638  134.2808  157.5222 LP  0  0  0  0  0  0  0  0  0  0  0  0  # atno 17395 bound_to 11000

$$$$
