AV-unprocessed.smi:3055|AV-procd|sdf|11641|dock4
  -GOLD-   2272017 33D 1   1.00000     0.00000
 Structure written by MMmdl.
 48 50  0  0  0  0  0  0  0  0  3 V2000
  144.8688  137.8729  154.4822 O   0  0  0  0  0  0  0  0  0  0  0  0
  145.4785  137.3387  153.5560 C   0  0  0  0  0  0  0  0  0  0  0  0
  146.8161  137.4008  153.4577 N   0  0  0  0  0  0  0  0  0  0  0  0
  147.6859  138.0935  154.4002 C   0  0  0  0  0  0  0  0  0  0  0  0
  148.4175  139.2645  153.7255 C   0  0  0  0  0  0  0  0  0  0  0  0
  147.8572  140.5663  154.1022 N   0  0  0  0  0  0  0  0  0  0  0  0
  146.5499  140.9676  153.9978 C   0  0  0  0  0  0  0  0  0  0  0  0
  146.4963  142.2528  154.4725 C   0  0  0  0  0  0  0  0  0  0  0  0
  147.7709  142.5798  154.8510 N   0  3  0  0  0  0  0  0  0  0  0  0
  148.5967  141.5523  154.6274 C   0  0  0  0  0  0  0  0  0  0  0  0
  144.8673  136.6233  152.5777 N   0  0  0  0  0  0  0  0  0  0  0  0
  145.4893  136.1336  151.3349 C   0  0  0  0  0  0  0  0  0  0  0  0
  145.5125  134.5962  151.3592 C   0  0  0  0  0  0  0  0  0  0  0  0
  144.0955  134.0285  151.5685 C   0  0  0  0  0  0  0  0  0  0  0  0
  143.3841  134.6506  152.7991 C   0  0  1  0  0  0  0  0  0  0  0  0
  143.9509  134.1546  154.0884 N   0  3  0  0  0  0  0  0  0  0  0  0
  145.3948  134.4078  154.2824 C   0  0  0  0  0  0  0  0  0  0  0  0
  145.6254  134.2313  155.7781 C   0  0  0  0  0  0  0  0  0  0  0  0
  144.3547  134.8019  156.3989 C   0  0  0  0  0  0  0  0  0  0  0  0
  143.2774  134.6494  155.3154 C   0  0  0  0  0  0  0  0  0  0  0  0
  143.4627  136.1949  152.6762 C   0  0  0  0  0  0  0  0  0  0  0  0
  147.2575  136.9307  152.6811 H   0  0  0  0  0  0  0  0  0  0  0  0
  147.1063  138.4515  155.2528 H   0  0  0  0  0  0  0  0  0  0  0  0
  148.4156  137.3823  154.7899 H   0  0  0  0  0  0  0  0  0  0  0  0
  149.4684  139.2677  154.0172 H   0  0  0  0  0  0  0  0  0  0  0  0
  148.3902  139.1675  152.6389 H   0  0  0  0  0  0  0  0  0  0  0  0
  145.7756  140.3261  153.6020 H   0  0  0  0  0  0  0  0  0  0  0  0
  145.6681  142.9398  154.5688 H   0  0  0  0  0  0  0  0  0  0  0  0
  149.6524  141.5268  154.8315 H   0  0  0  0  0  0  0  0  0  0  0  0
  144.9012  136.4816  150.4842 H   0  0  0  0  0  0  0  0  0  0  0  0
  146.4961  136.5117  151.1583 H   0  0  0  0  0  0  0  0  0  0  0  0
  145.9299  134.2151  150.4269 H   0  0  0  0  0  0  0  0  0  0  0  0
  146.1714  134.2509  152.1569 H   0  0  0  0  0  0  0  0  0  0  0  0
  143.5041  134.2560  150.6805 H   0  0  0  0  0  0  0  0  0  0  0  0
  144.1284  132.9406  151.6163 H   0  0  0  0  0  0  0  0  0  0  0  0
  142.3346  134.3532  152.7707 H   0  0  0  0  0  0  0  0  0  0  0  0
  146.0203  133.7354  153.6979 H   0  0  0  0  0  0  0  0  0  0  0  0
  145.6328  135.4319  153.9902 H   0  0  0  0  0  0  0  0  0  0  0  0
  145.7090  133.1700  156.0159 H   0  0  0  0  0  0  0  0  0  0  0  0
  146.5310  134.7272  156.1294 H   0  0  0  0  0  0  0  0  0  0  0  0
  144.0881  134.2938  157.3264 H   0  0  0  0  0  0  0  0  0  0  0  0
  144.4971  135.8584  156.6309 H   0  0  0  0  0  0  0  0  0  0  0  0
  142.8027  135.6165  155.1426 H   0  0  0  0  0  0  0  0  0  0  0  0
  142.5017  133.9450  155.6180 H   0  0  0  0  0  0  0  0  0  0  0  0
  142.9262  136.6800  153.4921 H   0  0  0  0  0  0  0  0  0  0  0  0
  142.9373  136.5150  151.7751 H   0  0  0  0  0  0  0  0  0  0  0  0
  143.8409  133.1507  154.0966 H   0  0  0  0  0  0  0  0  0  0  0  0
  148.0498  143.4685  155.2480 H   0  0  0  0  0  0  0  0  0  0  0  0
  1  2  2  0  0  0  0
  2  3  1  0  0  0  0
  2 11  1  0  0  0  0
  3  4  1  0  0  0  0
  3 22  1  0  0  0  0
  4  5  1  0  0  0  0
  4 23  1  0  0  0  0
  4 24  1  0  0  0  0
  5  6  1  0  0  0  0
  5 25  1  0  0  0  0
  5 26  1  0  0  0  0
  6 10  1  0  0  0  0
  6  7  1  0  0  0  0
  7  8  2  0  0  0  0
  7 27  1  0  0  0  0
  8  9  1  0  0  0  0
  8 28  1  0  0  0  0
  9 10  2  0  0  0  0
  9 48  1  0  0  0  0
 10 29  1  0  0  0  0
 11 21  1  0  0  0  0
 11 12  1  0  0  0  0
 12 13  1  0  0  0  0
 12 30  1  0  0  0  0
 12 31  1  0  0  0  0
 13 14  1  0  0  0  0
 13 32  1  0  0  0  0
 13 33  1  0  0  0  0
 14 15  1  0  0  0  0
 14 34  1  0  0  0  0
 14 35  1  0  0  0  0
 15 16  1  0  0  0  0
 15 21  1  0  0  0  0
 15 36  1  0  0  0  0
 16 20  1  0  0  0  0
 16 17  1  0  0  0  0
 16 47  1  0  0  0  0
 17 18  1  0  0  0  0
 17 37  1  0  0  0  0
 17 38  1  0  0  0  0
 18 19  1  0  0  0  0
 18 39  1  0  0  0  0
 18 40  1  0  0  0  0
 19 20  1  0  0  0  0
 19 41  1  0  0  0  0
 19 42  1  0  0  0  0
 20 43  1  0  0  0  0
 20 44  1  0  0  0  0
 21 45  1  0  0  0  0
 21 46  1  0  0  0  0
M  CHG  1   9   1
M  CHG  1  16   1
M  END
> <s_m_source_file>
AV-unprocessed.smi

> <i_m_source_file_index>
3055

> <i_lp_mmshare_version>
43012

> <i_f3d_flags>
0

> <s_epik_input>
W2NIXTFuW2NIXVtjSF1uMVtDSDJdW0NIMl1bTkhdQyg9TylOMltDSDJdW0NIMl1bQ0gyXVtDQEhdKFtDSDJdMilOM1tDSDJdW0NIMl1bQ0gyXVtDSDJdMw==

> <s_epik_cmdline>
J2VwaWtfcHl0aG9uJywgJy1waCcsICc3LjAnLCAnLXRuJywgJzgnLCAnLW1hJywgJzIwMCcsICctbWV0YWxfYmluZGluZycsICctaW1hZScsICc8aW5maWxlLm1hZT4nLCAnLW9tYWUnLCAnPG91dGZpbGUubWFlPic=

> <r_lp_tautomer_probability>
1

> <r_epik_Ionization_Penalty>
0.259176

> <r_epik_Ionization_Penalty_Charging>
0.00125522

> <r_epik_Ionization_Penalty_Neutral>
0.257921

> <r_epik_State_Penalty>
0.249312

> <r_epik_Charging_Adjusted_Penalty>
0.250567

> <i_epik_Tot_Q>
2

> <i_epik_Tot_abs_Q>
2

> <r_epik_Metal_State_Penalty>
0.53666

> <b_epik_Metal_Only>
0

> <s_lp_Force_Field>
OPLS_2005

> <r_lp_Energy>
71.9504

> <b_lp_Chiralities_Consistent>
1

> <s_lp_Variant>
AV-unprocessed.smi:3055-1

> <Gold.Version>
5.8.1

> <Gold.Id.Protein>
6NUR|6NUR_protein|mol2

> <Gold.PLP.Fitness>
45.3689

> <Gold.PLP.PLP>
-30.4417

> <Gold.PLP.part.hbond>
-3.0000

> <Gold.PLP.part.metal>
0.0000

> <Gold.PLP.part.buried>
-3.1837

> <Gold.PLP.part.nonpolar>
-26.8855

> <Gold.PLP.part.repulsive>
0.3444

> <Gold.PLP.ligand.clash>
2.2520

> <Gold.PLP.ligand.torsion>
0.4258

> <Gold.PLP.Chemscore.Hbond>
5.0000

> <Gold.PLP.Chemscore.CHOScore>
1.0000

> <Gold.PLP.Chemscore.Metal>
0.0000

> <Gold.Chemscore.Hbonds>
donor molecule, donor type, donor heavy atom, donor atom, acceptor molecule, acceptor atom, score
      L1  H     3    22       P1  7948  0.96
      L1  H     9    48       P1  8028  1.98
      L1  H    16    47       P1 10957  1.66
      L1  C     7    27       P1 10175  1.00

> <Gold.PLP.Chemscore.Internal.Correction>
0.0308

> <Gold.Rescore>
     Score         DG    S(hbond)    S(metal)    S(lipo)     H(rot)  DE(clash)    DE(int)     intcor
     13.74     -16.72       2.91        0.00      54.11       1.87       0.01       2.97       ----

> <Gold.Chemscore.Fitness>
13.7426

> <Gold.Chemscore.DG>
-16.7184

> <Gold.Chemscore.ZeroCoef>
-5.4800

> <Gold.Chemscore.Hbond>
2.9052

> <Gold.Chemscore.Metal>
0.0000

> <Gold.Chemscore.Lipo>
54.1069

> <Gold.Chemscore.Internal_Hbond>
0.0000

> <Gold.Chemscore.DEClash>
0.0089

> <Gold.Chemscore.DEInternal>
2.9669

> <Gold.Chemscore.Rot>
1.8732

> <Gold.Chemscore.Internal.Correction>
   9.000000E+99

> <Gold.Chemscore.Hbonds>
donor molecule, donor type, donor heavy atom, donor atom, acceptor molecule, acceptor atom, score
      L1  H     3    22       P1  7948  0.89
      L1  H     9    48       P1  8028  0.65
      L1  H    16    47       P1 10957  0.82

> <Gold.Chemscore.Hbond.Weighted>
-9.7033

> <Gold.Chemscore.Metal.Weighted>
-0.0000

> <Gold.Chemscore.Lipo.Weighted>
-6.3305

> <Gold.Chemscore.Internal_Hbond.Weighted>
0.0000

> <Gold.Chemscore.DEClash.Weighted>
0.0089

> <Gold.Chemscore.DEInternal.Weighted>
2.9669

> <Gold.Chemscore.Rot.Weighted>
4.7954

> <Gold.Chemscore.Internal.Correction.Weighted>
   9.000000E+99

> <Gold.Protein.RotatedTorsions>
[ 6907 6896 6895 6894 ] final   73.06 input  -60.11 | X-H torsion
[ 7974 7965 7964 7962 ] final -110.56 input  175.53 | X-H torsion
[ 8008 7997 7996 7995 ] final  -40.61 input   59.86 | X-H torsion
[ 10167 10162 10161 10158 ] final    1.00 input  -65.29 | X-H torsion
[ 10718 10713 10712 10709 ] final  122.93 input   66.30 | X-H torsion
[ 10763 10752 10751 10750 ] final  157.97 input  -60.55 | X-H torsion
[ 11005 11000 10999 10996 ] final -142.88 input  -57.11 | X-H torsion

> <Gold.Protein.ActiveResidues>
 VAL166  LYS551  ARG553  GLY616  TRP617  ASP618  TYR619  PRO620  LYS621  CYS622 
 ASP623  PHE694  ASN695  SER759  ASP760  ASP761  ALA762  ILE779  LEU786  VAL792 
 PHE793  MET794  SER795  GLU796  ALA797  LYS798  CYS799  TRP800  GLU811  SER814 

> <Gold.Protein.RotatedAtoms>
  152.4902  134.4478  159.9564 H   0  0  0  0  0  0  0  0  0  0  0  0  # atno 6907 bound_to 6896
  151.4467  133.3622  159.2797 H   0  0  0  0  0  0  0  0  0  0  0  0  # atno 6908 bound_to 6896
  150.9050  134.8488  159.7446 H   0  0  0  0  0  0  0  0  0  0  0  0  # atno 6909 bound_to 6896
  145.1667  140.8905  143.3559 H   0  0  0  0  0  0  0  0  0  0  0  0  # atno 7974 bound_to 7965
  154.4010  140.1521  156.3055 H   0  0  0  0  0  0  0  0  0  0  0  0  # atno 8008 bound_to 7997
  155.8662  140.3451  155.5768 H   0  0  0  0  0  0  0  0  0  0  0  0  # atno 8009 bound_to 7997
  155.7825  140.0845  157.2042 H   0  0  0  0  0  0  0  0  0  0  0  0  # atno 8010 bound_to 7997
  140.6703  143.7067  150.7909 H   0  0  0  0  0  0  0  0  0  0  0  0  # atno 10167 bound_to 10162
  157.5704  131.1083  150.8377 H   0  0  0  0  0  0  0  0  0  0  0  0  # atno 10718 bound_to 10713
  154.2087  135.2787  155.2966 H   0  0  0  0  0  0  0  0  0  0  0  0  # atno 10763 bound_to 10752
  154.5796  135.5593  153.7176 H   0  0  0  0  0  0  0  0  0  0  0  0  # atno 10764 bound_to 10752
  153.0069  135.6341  154.2226 H   0  0  0  0  0  0  0  0  0  0  0  0  # atno 10765 bound_to 10752
  140.8181  134.2663  157.4912 H   0  0  0  0  0  0  0  0  0  0  0  0  # atno 11005 bound_to 11000
  145.0275  139.3370  143.6041 LP  0  0  0  0  0  0  0  0  0  0  0  0  # atno 17320 bound_to 7965
  146.3474  139.9599  142.8718 LP  0  0  0  0  0  0  0  0  0  0  0  0  # atno 17321 bound_to 7965
  140.0751  143.5023  152.2559 LP  0  0  0  0  0  0  0  0  0  0  0  0  # atno 17342 bound_to 10162
  139.5969  144.7570  151.3266 LP  0  0  0  0  0  0  0  0  0  0  0  0  # atno 17343 bound_to 10162
  156.8851  130.5193  149.5289 LP  0  0  0  0  0  0  0  0  0  0  0  0  # atno 17370 bound_to 10713
  156.0750  130.5774  150.9456 LP  0  0  0  0  0  0  0  0  0  0  0  0  # atno 17371 bound_to 10713
  139.8710  134.9520  156.4103 LP  0  0  0  0  0  0  0  0  0  0  0  0  # atno 17394 bound_to 11000
  140.9127  133.7700  155.9811 LP  0  0  0  0  0  0  0  0  0  0  0  0  # atno 17395 bound_to 11000

$$$$
