#       Name:                AV-unprocessed.smi:1915
#       Creating user name   scv26
#       Creation time:       Fri Mar 27 09:50:25 2020


#       File generated by GOLD software.
#

@<TRIPOS>MOLECULE
AV-unprocessed.smi:1915
    49    50     1
SMALL
NO_CHARGES


@<TRIPOS>ATOM
      1 ****        -4.7511   1.0490   1.4713 C.3            1 S1                 0.0000
      2 ****        -4.7249   0.5470   0.0173 C.3            1 S1                 0.0000
      3 ****        -6.1277   0.0970  -0.4174 C.3            1 S1                 0.0000
      4 ****        -3.6966  -0.5811  -0.2233 C.3            1 S1                 0.0000
      5 ****        -2.3172  -0.1656   0.0321 N.am           1 S1                 0.0000
      6 ****        -1.5170   0.4213  -1.0311 C.3            1 S1                 0.0000
      7 ****        -0.0760   0.4934  -0.4812 C.3            1 S1                 0.0000
      8 ****         0.8757  -0.4849  -1.1865 C.2            1 S1                 0.0000
      9 ****         0.5992  -1.6831  -1.2520 O.2            1 S1                 0.0000
     10 ****         2.0024   0.0380  -1.6926 N.am           1 S1                 0.0000
     11 ****         3.0722  -0.7279  -2.3249 C.3            1 S1                 0.0000
     12 ****         3.9219  -1.5176  -1.3082 C.3            1 S1                 0.0000
     13 ****         4.4227  -0.6717  -0.1494 C.ar           1 S1                 0.0000
     14 ****         3.7999  -0.7404   1.1156 C.ar           1 S1                 0.0000
     15 ****         4.2894   0.0788   2.1507 C.ar           1 S1                 0.0000
     16 ****         5.3787   0.9299   1.8833 C.ar           1 S1                 0.0000
     17 ****         5.9327   0.9227   0.5875 C.ar           1 S1                 0.0000
     18 ****         5.4695   0.1423  -0.4128 N.ar           1 S1                 0.0000
     19 ****        -0.2014   0.1648   1.0193 C.3            1 S1                 0.0000
     20 ****        -1.6314  -0.3245   1.1701 C.2            1 S1                 0.0000
     21 ****        -2.0614  -0.8080   2.2162 O.2            1 S1                 0.0000
     22 ****        -4.9559   0.2347   2.1670 H              1 S1                 0.0000
     23 ****        -5.5219   1.8072   1.6109 H              1 S1                 0.0000
     24 ****        -3.8032   1.5039   1.7573 H              1 S1                 0.0000
     25 ****        -4.4483   1.3911  -0.6156 H              1 S1                 0.0000
     26 ****        -6.4742  -0.7488   0.1771 H              1 S1                 0.0000
     27 ****        -6.1379  -0.2059  -1.4650 H              1 S1                 0.0000
     28 ****        -6.8530   0.9032  -0.3037 H              1 S1                 0.0000
     29 ****        -3.9420  -1.4481   0.3927 H              1 S1                 0.0000
     30 ****        -3.7658  -0.9247  -1.2562 H              1 S1                 0.0000
     31 ****        -1.5951  -0.1700  -1.9452 H              1 S1                 0.0000
     32 ****        -1.8948   1.4198  -1.2546 H              1 S1                 0.0000
     33 ****         0.3058   1.5087  -0.6023 H              1 S1                 0.0000
     34 ****         2.1499   1.0323  -1.5963 H              1 S1                 0.0000
     35 ****         2.6619  -1.3986  -3.0812 H              1 S1                 0.0000
     36 ****         3.7091  -0.0192  -2.8548 H              1 S1                 0.0000
     37 ****         3.3398  -2.3498  -0.9106 H              1 S1                 0.0000
     38 ****         4.7759  -1.9680  -1.8154 H              1 S1                 0.0000
     39 ****         2.9617  -1.3994   1.2879 H              1 S1                 0.0000
     40 ****         3.8361   0.0564   3.1307 H              1 S1                 0.0000
     41 ****         5.7805   1.5726   2.6526 H              1 S1                 0.0000
     42 ****         6.7688   1.5625   0.3473 H              1 S1                 0.0000
     43 ****         0.5011  -0.5960   1.3638 H              1 S1                 0.0000
     44 ****        -0.0570   1.0563   1.6300 H              1 S1                 0.0000
     45 ****        -0.2484  -2.0236  -0.8449 LP             1 S1                 0.0000
     46 ****         1.2222  -2.3156  -1.7123 LP             1 S1                 0.0000
     47 ****         5.8881   0.1659  -1.3207 LP             1 S1                 0.0000
     48 ****        -3.0080  -1.1263   2.2679 LP             1 S1                 0.0000
     49 ****        -1.4644  -0.8827   3.0150 LP             1 S1                 0.0000
@<TRIPOS>BOND
    1    1    2 1     
    2    1   22 1     
    3    1   23 1     
    4    1   24 1     
    5    2    3 1     
    6    2    4 1     
    7    2   25 1     
    8    3   26 1     
    9    3   27 1     
   10    3   28 1     
   11    4    5 1     
   12    4   29 1     
   13    4   30 1     
   14    5   20 am    
   15    5    6 1     
   16    6    7 1     
   17    6   31 1     
   18    6   32 1     
   19    7    8 1     
   20    7   19 1     
   21    7   33 1     
   22    8    9 2     
   23    8   10 am    
   24   10   11 1     
   25   10   34 1     
   26   11   12 1     
   27   11   35 1     
   28   11   36 1     
   29   12   13 1     
   30   12   37 1     
   31   12   38 1     
   32   13   18 ar    
   33   13   14 ar    
   34   14   15 ar    
   35   14   39 1     
   36   15   16 ar    
   37   15   40 1     
   38   16   17 ar    
   39   16   41 1     
   40   17   18 ar    
   41   17   42 1     
   42   19   20 1     
   43   19   43 1     
   44   19   44 1     
   45   20   21 2     
   46    9   45 1     
   47    9   46 1     
   48   18   47 1     
   49   21   48 1     
   50   21   49 1     
@<TRIPOS>SUBSTRUCTURE
      1 S1             1
@<TRIPOS>SET
LONE_PAIRS      STATIC     ATOMS    <user>   **** ""
5 45 46 47 48 49
DONOR_HYDROGENS      STATIC     ATOMS    <user>   **** ""
1 34
ATOM$BLUE        STATIC     ATOMS    COLORGROUP SYSTEM
5 45 46 47 48 49
ATOM$RED        STATIC     ATOMS    COLORGROUP SYSTEM
1 34
