#       Name:                AV-unprocessed.smi:809
#       Creating user name   scv26
#       Creation time:       Fri Mar 27 01:24:31 2020


#       File generated by GOLD software.
#

@<TRIPOS>MOLECULE
AV-unprocessed.smi:809
    45    46     1
SMALL
NO_CHARGES


@<TRIPOS>ATOM
      1 ****        -4.5840   3.8904   1.1992 C.3            1 S1                 0.0000
      2 ****        -4.6007   2.3942   1.2016 C.2            1 S1                 0.0000
      3 ****        -5.7066   1.5794   1.2053 C.2            1 S1                 0.0000
      4 ****        -5.2742  -0.1097   1.2061 S.3            1 S1                 0.0000
      5 ****        -3.5826   0.3637   1.2034 C.2            1 S1                 0.0000
      6 ****        -2.5338  -0.5930   1.2000 N.am           1 S1                 0.0000
      7 ****        -1.2082  -0.3696   1.1920 C.2            1 S1                 0.0000
      8 ****        -0.6744   0.7401   1.2041 O.2            1 S1                 0.0000
      9 ****        -0.5216  -1.5210   1.1600 N.am           1 S1                 0.0000
     10 ****         0.9346  -1.6472   1.1303 C.3            1 S1                 0.0000
     11 ****         1.4789  -2.0835  -0.2563 C.3            1 S1                 0.0000
     12 ****         1.0885  -3.4322  -0.4330 O.3            1 S1                 0.0000
     13 ****         0.9548  -1.2624  -1.4577 C.3            1 S1                 0.0000
     14 ****         1.5542   0.1546  -1.4923 C.3            1 S1                 0.0000
     15 ****         3.0365   0.1036  -1.5221 N.4            1 S1                 1.0000
     16 ****         3.6422   1.4438  -1.6759 C.3            1 S1                 0.0000
     17 ****         3.5945  -0.6380  -0.3642 C.3            1 S1                 0.0000
     18 ****         3.0229  -2.0671  -0.2889 C.3            1 S1                 0.0000
     19 ****        -3.3942   1.6884   1.2005 N.2            1 S1                 0.0000
     20 ****        -5.5836   4.3000   1.0522 H              1 S1                 0.0000
     21 ****        -3.9498   4.2767   0.4010 H              1 S1                 0.0000
     22 ****        -4.2030   4.2804   2.1432 H              1 S1                 0.0000
     23 ****        -6.7467   1.8699   1.2068 H              1 S1                 0.0000
     24 ****        -2.8278  -1.5587   1.1945 H              1 S1                 0.0000
     25 ****        -1.0454  -2.3843   1.1510 H              1 S1                 0.0000
     26 ****         1.3913  -0.7079   1.4419 H              1 S1                 0.0000
     27 ****         1.2253  -2.3728   1.8913 H              1 S1                 0.0000
     28 ****         1.4343  -3.7443  -1.2551 H              1 S1                 0.0000
     29 ****         1.2229  -1.7693  -2.3862 H              1 S1                 0.0000
     30 ****        -0.1340  -1.2105  -1.4597 H              1 S1                 0.0000
     31 ****         1.1911   0.6777  -2.3778 H              1 S1                 0.0000
     32 ****         1.2270   0.7340  -0.6292 H              1 S1                 0.0000
     33 ****         3.4202   2.0754  -0.8146 H              1 S1                 0.0000
     34 ****         3.2620   1.9387  -2.5702 H              1 S1                 0.0000
     35 ****         4.7256   1.3674  -1.7741 H              1 S1                 0.0000
     36 ****         4.6799  -0.6895  -0.4585 H              1 S1                 0.0000
     37 ****         3.3896  -0.0900   0.5560 H              1 S1                 0.0000
     38 ****         3.4274  -2.5826   0.5833 H              1 S1                 0.0000
     39 ****         3.3771  -2.6231  -1.1586 H              1 S1                 0.0000
     40 ****         3.2886  -0.4201  -2.3481 H              1 S1                 0.0000
     41 ****        -1.2380   1.5659   1.2213 LP             1 S1                 0.0000
     42 ****         0.3228   0.8154   1.1967 LP             1 S1                 0.0000
     43 ****         0.0905  -3.4947  -0.4429 LP             1 S1                 0.0000
     44 ****         1.4498  -3.9876   0.3160 LP             1 S1                 0.0000
     45 ****        -2.4938   2.1234   1.1978 LP             1 S1                 0.0000
@<TRIPOS>BOND
    1    1    2 1     
    2    1   20 1     
    3    1   21 1     
    4    1   22 1     
    5    2   19 1     
    6    2    3 2     
    7    3    4 1     
    8    3   23 1     
    9    4    5 1     
   10    5    6 1     
   11    5   19 2     
   12    6    7 am    
   13    6   24 1     
   14    7    8 2     
   15    7    9 am    
   16    9   10 1     
   17    9   25 1     
   18   10   11 1     
   19   10   26 1     
   20   10   27 1     
   21   11   18 1     
   22   11   12 1     
   23   11   13 1     
   24   12   28 1     
   25   13   14 1     
   26   13   29 1     
   27   13   30 1     
   28   14   15 1     
   29   14   31 1     
   30   14   32 1     
   31   15   16 1     
   32   15   17 1     
   33   15   40 1     
   34   16   33 1     
   35   16   34 1     
   36   16   35 1     
   37   17   18 1     
   38   17   36 1     
   39   17   37 1     
   40   18   38 1     
   41   18   39 1     
   42    8   41 1     
   43    8   42 1     
   44   12   43 1     
   45   12   44 1     
   46   19   45 1     
@<TRIPOS>SUBSTRUCTURE
      1 S1             1
@<TRIPOS>SET
LONE_PAIRS      STATIC     ATOMS    <user>   **** ""
5 41 42 43 44 45
DONOR_HYDROGENS      STATIC     ATOMS    <user>   **** ""
4 24 25 28 40
ATOM$BLUE        STATIC     ATOMS    COLORGROUP SYSTEM
5 41 42 43 44 45
ATOM$RED        STATIC     ATOMS    COLORGROUP SYSTEM
4 24 25 28 40
