#       Name:                AV-unprocessed.smi:1055
#       Creating user name   scv26
#       Creation time:       Fri Mar 27 03:13:23 2020


#       File generated by GOLD software.
#

@<TRIPOS>MOLECULE
AV-unprocessed.smi:1055
    54    55     1
SMALL
NO_CHARGES


@<TRIPOS>ATOM
      1 ****        -6.3935  -3.6525   0.4145 C.2            1 S1                 0.0000
      2 ****        -5.5961  -3.5108  -0.6569 C.2            1 S1                 0.0000
      3 ****        -4.9016  -4.6943  -1.3043 C.3            1 S1                 0.0000
      4 ****        -5.3560  -2.1556  -1.3063 C.3            1 S1                 0.0000
      5 ****        -3.9482  -1.7576  -1.3262 N.3            1 S1                 0.0000
      6 ****        -3.4086  -1.6182   0.0311 C.3            1 S1                 0.0000
      7 ****        -1.9127  -1.2624  -0.0190 C.3            1 S1                 0.0000
      8 ****        -1.6765   0.0354  -0.8103 C.3            1 S1                 0.0000
      9 ****        -0.2493   0.2944  -0.9751 N.am           1 S1                 0.0000
     10 ****         0.5441   0.8613  -0.0553 C.2            1 S1                 0.0000
     11 ****         0.1443   1.2403   1.0453 O.2            1 S1                 0.0000
     12 ****         1.8061   0.9701  -0.5049 N.am           1 S1                 0.0000
     13 ****         2.9442   1.4889   0.1694 C.ar           1 S1                 0.0000
     14 ****         4.0497   1.8857  -0.6064 C.ar           1 S1                 0.0000
     15 ****         5.1987   2.3872   0.0338 C.ar           1 S1                 0.0000
     16 ****         5.2208   2.4733   1.4480 C.ar           1 S1                 0.0000
     17 ****         6.3485   2.9720   2.1396 N.pl3          1 S1                 0.0000
     18 ****         7.5037   3.4659   1.4003 C.3            1 S1                 0.0000
     19 ****         6.3317   3.0466   3.5970 C.3            1 S1                 0.0000
     20 ****         4.1602   2.0751   2.1925 N.ar           1 S1                 0.0000
     21 ****         3.0597   1.5967   1.5750 C.ar           1 S1                 0.0000
     22 ****        -2.3482  -0.0879  -2.1856 C.3            1 S1                 0.0000
     23 ****        -3.8272  -0.4871  -2.0439 C.3            1 S1                 0.0000
     24 ****        -6.5641  -4.6202   0.8628 H              1 S1                 0.0000
     25 ****        -6.8878  -2.8020   0.8605 H              1 S1                 0.0000
     26 ****        -5.1969  -4.7787  -2.3501 H              1 S1                 0.0000
     27 ****        -5.1569  -5.6284  -0.8030 H              1 S1                 0.0000
     28 ****        -3.8188  -4.5743  -1.2618 H              1 S1                 0.0000
     29 ****        -5.7297  -2.2079  -2.3298 H              1 S1                 0.0000
     30 ****        -5.9458  -1.3939  -0.7935 H              1 S1                 0.0000
     31 ****        -3.9622  -0.8523   0.5764 H              1 S1                 0.0000
     32 ****        -3.5249  -2.5499   0.5845 H              1 S1                 0.0000
     33 ****        -1.5282  -1.1601   0.9964 H              1 S1                 0.0000
     34 ****        -1.3610  -2.0853  -0.4765 H              1 S1                 0.0000
     35 ****        -2.1366   0.8696  -0.2766 H              1 S1                 0.0000
     36 ****         0.1635   0.0171  -1.8537 H              1 S1                 0.0000
     37 ****         1.9614   0.6896  -1.4620 H              1 S1                 0.0000
     38 ****         4.0205   1.8122  -1.6838 H              1 S1                 0.0000
     39 ****         6.0379   2.6934  -0.5721 H              1 S1                 0.0000
     40 ****         7.9487   2.6665   0.8070 H              1 S1                 0.0000
     41 ****         8.2724   3.8478   2.0725 H              1 S1                 0.0000
     42 ****         7.2138   4.2779   0.7326 H              1 S1                 0.0000
     43 ****         6.1782   2.0574   4.0296 H              1 S1                 0.0000
     44 ****         5.5297   3.7023   3.9376 H              1 S1                 0.0000
     45 ****         7.2714   3.4377   3.9870 H              1 S1                 0.0000
     46 ****         2.2734   1.2791   2.2415 H              1 S1                 0.0000
     47 ****        -2.2725   0.8570  -2.7247 H              1 S1                 0.0000
     48 ****        -1.8295  -0.8330  -2.7912 H              1 S1                 0.0000
     49 ****        -4.2680  -0.5846  -3.0368 H              1 S1                 0.0000
     50 ****        -4.3826   0.2944  -1.5227 H              1 S1                 0.0000
     51 ****        -3.4203  -2.4699  -1.7888 LP             1 S1                 0.0000
     52 ****        -0.8186   1.1316   1.2920 LP             1 S1                 0.0000
     53 ****         0.7824   1.6570   1.6927 LP             1 S1                 0.0000
     54 ****         4.1930   2.1353   3.1901 LP             1 S1                 0.0000
@<TRIPOS>BOND
    1    1    2 2     
    2    1   24 1     
    3    1   25 1     
    4    2    3 1     
    5    2    4 1     
    6    3   26 1     
    7    3   27 1     
    8    3   28 1     
    9    4    5 1     
   10    4   29 1     
   11    4   30 1     
   12    5   23 1     
   13    5    6 1     
   14    6    7 1     
   15    6   31 1     
   16    6   32 1     
   17    7    8 1     
   18    7   33 1     
   19    7   34 1     
   20    8    9 1     
   21    8   22 1     
   22    8   35 1     
   23    9   10 am    
   24    9   36 1     
   25   10   11 2     
   26   10   12 am    
   27   12   13 1     
   28   12   37 1     
   29   13   21 ar    
   30   13   14 ar    
   31   14   15 ar    
   32   14   38 1     
   33   15   16 ar    
   34   15   39 1     
   35   16   17 1     
   36   16   20 ar    
   37   17   18 1     
   38   17   19 1     
   39   18   40 1     
   40   18   41 1     
   41   18   42 1     
   42   19   43 1     
   43   19   44 1     
   44   19   45 1     
   45   20   21 ar    
   46   21   46 1     
   47   22   23 1     
   48   22   47 1     
   49   22   48 1     
   50   23   49 1     
   51   23   50 1     
   52    5   51 1     
   53   11   52 1     
   54   11   53 1     
   55   20   54 1     
@<TRIPOS>SUBSTRUCTURE
      1 S1             1
@<TRIPOS>SET
LONE_PAIRS      STATIC     ATOMS    <user>   **** ""
4 51 52 53 54
DONOR_HYDROGENS      STATIC     ATOMS    <user>   **** ""
2 36 37
ATOM$BLUE        STATIC     ATOMS    COLORGROUP SYSTEM
4 51 52 53 54
ATOM$RED        STATIC     ATOMS    COLORGROUP SYSTEM
2 36 37
