AV-unprocessed.smi:2100|AV-procd|sdf|8577|dock10
  -GOLD-   2272011303D 1   1.00000     0.00000
 Structure written by MMmdl.
 40 41  0  0  0  0  0  0  0  0  2 V2000
  153.6497  141.7889  161.1727 C   0  0  0  0  0  0  0  0  0  0  0  0
  153.2437  142.1324  159.7353 C   0  0  1  0  0  0  0  0  0  0  0  0
  152.5492  140.9512  159.0333 C   0  0  0  0  0  0  0  0  0  0  0  0
  152.0403  141.3468  157.7092 N   0  0  0  0  0  0  0  0  0  0  0  0
  151.5649  140.0951  156.6035 S   0  0  0  0  0  0  0  0  0  0  0  0
  151.0010  140.7750  155.4257 O   0  0  0  0  0  0  0  0  0  0  0  0
  152.7516  139.2469  156.4050 O   0  0  0  0  0  0  0  0  0  0  0  0
  150.4395  139.4134  157.5505 N   0  5  0  0  0  0  0  0  0  0  0  0
  149.2191  140.1469  157.8365 C   0  0  0  0  0  0  0  0  0  0  0  0
  148.0569  139.5714  156.9987 C   0  0  0  0  0  0  0  0  0  0  0  0
  147.5799  140.4862  155.8749 C   0  0  0  0  0  0  0  0  0  0  0  0
  146.8745  141.6759  156.1678 C   0  0  0  0  0  0  0  0  0  0  0  0
  146.4396  142.4837  155.0996 C   0  0  0  0  0  0  0  0  0  0  0  0
  146.7191  142.0746  153.7819 C   0  0  0  0  0  0  0  0  0  0  0  0
  147.4237  140.8698  153.5902 C   0  0  0  0  0  0  0  0  0  0  0  0
  147.8449  140.0873  154.6065 N   0  0  0  0  0  0  0  0  0  0  0  0
  151.2686  142.6011  157.7176 C   0  0  0  0  0  0  0  0  0  0  0  0
  152.0222  143.7083  158.4770 C   0  0  1  0  0  0  0  0  0  0  0  0
  151.1798  144.9802  158.6257 C   0  0  0  0  0  0  0  0  0  0  0  0
  152.3641  143.2481  159.7774 O   0  0  0  0  0  0  0  0  0  0  0  0
  154.3373  140.9432  161.1944 H   0  0  0  0  0  0  0  0  0  0  0  0
  152.7802  141.5294  161.7771 H   0  0  0  0  0  0  0  0  0  0  0  0
  154.1469  142.6338  161.6497 H   0  0  0  0  0  0  0  0  0  0  0  0
  154.1432  142.4068  159.1810 H   0  0  0  0  0  0  0  0  0  0  0  0
  153.2479  140.1214  158.9273 H   0  0  0  0  0  0  0  0  0  0  0  0
  151.7148  140.5910  159.6365 H   0  0  0  0  0  0  0  0  0  0  0  0
  148.9575  140.0863  158.8935 H   0  0  0  0  0  0  0  0  0  0  0  0
  149.3292  141.2088  157.6148 H   0  0  0  0  0  0  0  0  0  0  0  0
  148.3540  138.6154  156.5646 H   0  0  0  0  0  0  0  0  0  0  0  0
  147.2079  139.3546  157.6486 H   0  0  0  0  0  0  0  0  0  0  0  0
  146.6749  141.9639  157.1896 H   0  0  0  0  0  0  0  0  0  0  0  0
  145.9006  143.4003  155.2880 H   0  0  0  0  0  0  0  0  0  0  0  0
  146.4002  142.6690  152.9385 H   0  0  0  0  0  0  0  0  0  0  0  0
  147.6533  140.5243  152.5931 H   0  0  0  0  0  0  0  0  0  0  0  0
  151.0744  142.9216  156.6943 H   0  0  0  0  0  0  0  0  0  0  0  0
  150.3004  142.4143  158.1836 H   0  0  0  0  0  0  0  0  0  0  0  0
  152.9353  143.9635  157.9362 H   0  0  0  0  0  0  0  0  0  0  0  0
  150.9008  145.3818  157.6513 H   0  0  0  0  0  0  0  0  0  0  0  0
  151.7334  145.7540  159.1579 H   0  0  0  0  0  0  0  0  0  0  0  0
  150.2630  144.7837  159.1823 H   0  0  0  0  0  0  0  0  0  0  0  0
  1  2  1  0  0  0  0
  1 21  1  0  0  0  0
  1 22  1  0  0  0  0
  1 23  1  0  0  0  0
  2 20  1  0  0  0  0
  2  3  1  0  0  0  0
  2 24  1  0  0  0  0
  3  4  1  0  0  0  0
  3 25  1  0  0  0  0
  3 26  1  0  0  0  0
  4  5  1  0  0  0  0
  4 17  1  0  0  0  0
  5  6  2  0  0  0  0
  5  7  2  0  0  0  0
  5  8  1  0  0  0  0
  8  9  1  0  0  0  0
  9 10  1  0  0  0  0
  9 27  1  0  0  0  0
  9 28  1  0  0  0  0
 10 11  1  0  0  0  0
 10 29  1  0  0  0  0
 10 30  1  0  0  0  0
 11 16  1  0  0  0  0
 11 12  2  0  0  0  0
 12 13  1  0  0  0  0
 12 31  1  0  0  0  0
 13 14  2  0  0  0  0
 13 32  1  0  0  0  0
 14 15  1  0  0  0  0
 14 33  1  0  0  0  0
 15 16  2  0  0  0  0
 15 34  1  0  0  0  0
 17 18  1  0  0  0  0
 17 35  1  0  0  0  0
 17 36  1  0  0  0  0
 18 19  1  0  0  0  0
 18 20  1  0  0  0  0
 18 37  1  0  0  0  0
 19 38  1  0  0  0  0
 19 39  1  0  0  0  0
 19 40  1  0  0  0  0
M  CHG  1   8  -1
M  END
> <s_m_source_file>
AV-unprocessed.smi

> <i_m_source_file_index>
2100

> <i_lp_mmshare_version>
43012

> <i_f3d_flags>
0

> <s_epik_input>
W0NIM11bQ0BASF0xW0NIMl1OKFtDSDJdW0NASF0oTzEpW0NIM10pUyg9TykoPU8pW05IXVtDSDJdW0NIMl1jMltjSF1bY0hdW2NIXVtjSF1uMg==

> <s_epik_cmdline>
J2VwaWtfcHl0aG9uJywgJy1waCcsICc3LjAnLCAnLXRuJywgJzgnLCAnLW1hJywgJzIwMCcsICctbWV0YWxfYmluZGluZycsICctaW1hZScsICc8aW5maWxlLm1hZT4nLCAnLW9tYWUnLCAnPG91dGZpbGUubWFlPic=

> <r_epik_Ionization_Penalty>
1.27779

> <r_epik_Ionization_Penalty_Charging>
1.20871

> <r_epik_Ionization_Penalty_Neutral>
0.0690773

> <r_epik_State_Penalty>
1.64557

> <r_epik_Charging_Adjusted_Penalty>
2.85428

> <i_epik_Tot_Q>
-1

> <i_epik_Tot_abs_Q>
1

> <r_epik_Metal_State_Penalty>
0.643506

> <b_epik_Metal_Only>
0

> <s_lp_Force_Field>
OPLS_2005

> <r_lp_Energy>
4.91885

> <b_lp_Chiralities_Consistent>
1

> <s_lp_Variant>
AV-unprocessed.smi:2100-5

> <Gold.Version>
5.8.1

> <Gold.Id.Protein>
6NUR|6NUR_protein|mol2

> <Gold.PLP.Fitness>
44.7613

> <Gold.PLP.PLP>
-37.5616

> <Gold.PLP.part.hbond>
-2.0000

> <Gold.PLP.part.metal>
0.0000

> <Gold.PLP.part.buried>
-6.1666

> <Gold.PLP.part.nonpolar>
-28.7080

> <Gold.PLP.part.repulsive>
0.1322

> <Gold.PLP.ligand.clash>
0.0000

> <Gold.PLP.ligand.torsion>
2.1189

> <Gold.PLP.Chemscore.Hbond>
1.7840

> <Gold.PLP.Chemscore.CHOScore>
1.0000

> <Gold.PLP.Chemscore.Metal>
0.0000

> <Gold.Chemscore.Hbonds>
donor molecule, donor type, donor heavy atom, donor atom, acceptor molecule, acceptor atom, score
      P1  H  7989  7998       L1     6  0.80
      P1  H  7997  8010       L1     7  1.00
      L1  C    15    34       P1  7957  1.00

> <Gold.PLP.Chemscore.Internal.Correction>
3.0856

> <Gold.Rescore>
     Score         DG    S(hbond)    S(metal)    S(lipo)     H(rot)  DE(clash)    DE(int)     intcor
     16.45     -18.58       1.69        0.00      92.17       1.30       0.14       1.99       ----

> <Gold.Chemscore.Fitness>
16.4534

> <Gold.Chemscore.DG>
-18.5847

> <Gold.Chemscore.ZeroCoef>
-5.4800

> <Gold.Chemscore.Hbond>
1.6944

> <Gold.Chemscore.Metal>
0.0000

> <Gold.Chemscore.Lipo>
92.1651

> <Gold.Chemscore.Internal_Hbond>
0.0000

> <Gold.Chemscore.DEClash>
0.1387

> <Gold.Chemscore.DEInternal>
1.9926

> <Gold.Chemscore.Rot>
1.3039

> <Gold.Chemscore.Internal.Correction>
   9.000000E+99

> <Gold.Chemscore.Hbonds>
donor molecule, donor type, donor heavy atom, donor atom, acceptor molecule, acceptor atom, score
      P1  H  7989  7998       L1     6  0.75
      P1  H  7997  8010       L1     7  0.93

> <Gold.Chemscore.Hbond.Weighted>
-5.6594

> <Gold.Chemscore.Metal.Weighted>
-0.0000

> <Gold.Chemscore.Lipo.Weighted>
-10.7833

> <Gold.Chemscore.Internal_Hbond.Weighted>
0.0000

> <Gold.Chemscore.DEClash.Weighted>
0.1387

> <Gold.Chemscore.DEInternal.Weighted>
1.9926

> <Gold.Chemscore.Rot.Weighted>
3.3379

> <Gold.Chemscore.Internal.Correction.Weighted>
   9.000000E+99

> <Gold.Protein.RotatedTorsions>
[ 6907 6896 6895 6894 ] final -151.30 input  -60.11 | X-H torsion
[ 7974 7965 7964 7962 ] final -176.95 input  175.53 | X-H torsion
[ 8008 7997 7996 7995 ] final   83.04 input   59.86 | X-H torsion
[ 10167 10162 10161 10158 ] final  155.37 input  -65.29 | X-H torsion
[ 10718 10713 10712 10709 ] final  124.57 input   66.30 | X-H torsion
[ 10763 10752 10751 10750 ] final   69.60 input  -60.55 | X-H torsion
[ 11005 11000 10999 10996 ] final  129.43 input  -57.11 | X-H torsion

> <Gold.Protein.ActiveResidues>
 VAL166  LYS551  ARG553  GLY616  TRP617  ASP618  TYR619  PRO620  LYS621  CYS622 
 ASP623  PHE694  ASN695  SER759  ASP760  ASP761  ALA762  ILE779  LEU786  VAL792 
 PHE793  MET794  SER795  GLU796  ALA797  LYS798  CYS799  TRP800  GLU811  SER814 

> <Gold.Protein.RotatedAtoms>
  151.2111  133.4555  159.2598 H   0  0  0  0  0  0  0  0  0  0  0  0  # atno 6907 bound_to 6896
  151.0975  134.9953  159.8443 H   0  0  0  0  0  0  0  0  0  0  0  0  # atno 6908 bound_to 6896
  152.5440  134.2040  159.8776 H   0  0  0  0  0  0  0  0  0  0  0  0  # atno 6909 bound_to 6896
  144.7127  140.1093  143.6412 H   0  0  0  0  0  0  0  0  0  0  0  0  # atno 7974 bound_to 7965
  155.9186  140.3423  155.6155 H   0  0  0  0  0  0  0  0  0  0  0  0  # atno 8008 bound_to 7997
  155.7301  140.0794  157.2311 H   0  0  0  0  0  0  0  0  0  0  0  0  # atno 8009 bound_to 7997
  154.4066  140.1589  156.2486 H   0  0  0  0  0  0  0  0  0  0  0  0  # atno 8010 bound_to 7997
  139.4821  144.5105  151.8032 H   0  0  0  0  0  0  0  0  0  0  0  0  # atno 10167 bound_to 10162
  157.5574  131.1091  150.8598 H   0  0  0  0  0  0  0  0  0  0  0  0  # atno 10718 bound_to 10713
  153.0296  135.5204  154.7313 H   0  0  0  0  0  0  0  0  0  0  0  0  # atno 10763 bound_to 10752
  154.6340  135.2904  155.0185 H   0  0  0  0  0  0  0  0  0  0  0  0  # atno 10764 bound_to 10752
  154.1127  135.6619  153.4940 H   0  0  0  0  0  0  0  0  0  0  0  0  # atno 10765 bound_to 10752
  139.9615  134.9601  156.9147 H   0  0  0  0  0  0  0  0  0  0  0  0  # atno 11005 bound_to 11000
  145.9469  139.2707  143.1235 LP  0  0  0  0  0  0  0  0  0  0  0  0  # atno 17320 bound_to 7965
  145.9364  140.9011  143.0330 LP  0  0  0  0  0  0  0  0  0  0  0  0  # atno 17321 bound_to 7965
  140.4607  144.1726  150.5906 LP  0  0  0  0  0  0  0  0  0  0  0  0  # atno 17342 bound_to 10162
  140.4487  143.2495  151.9376 LP  0  0  0  0  0  0  0  0  0  0  0  0  # atno 17343 bound_to 10162
  156.9105  130.5279  149.5280 LP  0  0  0  0  0  0  0  0  0  0  0  0  # atno 17370 bound_to 10713
  156.0631  130.5680  150.9233 LP  0  0  0  0  0  0  0  0  0  0  0  0  # atno 17371 bound_to 10713
  140.5490  134.0646  155.7363 LP  0  0  0  0  0  0  0  0  0  0  0  0  # atno 17394 bound_to 11000
  141.1292  133.9330  157.2571 LP  0  0  0  0  0  0  0  0  0  0  0  0  # atno 17395 bound_to 11000

$$$$
