AV-unprocessed.smi:252|AV-procd|sdf|1937|dock1
  -GOLD-   2262021 63D 1   1.00000     0.00000
 Structure written by MMmdl.
 56 59  0  0  0  0  0  0  0  0  1 V2000
  154.5965  130.3864  159.3928 C   0  0  0  0  0  0  0  0  0  0  0  0
  155.0137  131.1402  160.6652 C   0  0  0  0  0  0  0  0  0  0  0  0
  154.1854  132.4027  160.9247 C   0  0  0  0  0  0  0  0  0  0  0  0
  153.3127  132.7591  160.1319 O   0  0  0  0  0  0  0  0  0  0  0  0
  154.4797  133.0781  162.0465 N   0  0  0  0  0  0  0  0  0  0  0  0
  153.8260  134.3062  162.4873 C   0  0  1  0  0  0  0  0  0  0  0  0
  154.5132  134.8344  163.7598 C   0  0  0  0  0  0  0  0  0  0  0  0
  153.8961  136.1745  164.1902 C   0  0  0  0  0  0  0  0  0  0  0  0
  153.9252  137.1930  163.0391 C   0  0  0  0  0  0  0  0  0  0  0  0
  153.2964  136.6371  161.8402 N   0  0  0  0  0  0  0  0  0  0  0  0
  152.9373  137.4958  160.8525 C   0  0  0  0  0  0  0  0  0  0  0  0
  152.1830  137.0554  159.8100 N   0  0  0  0  0  0  0  0  0  0  0  0
  151.8119  137.8991  158.8423 C   0  0  0  0  0  0  0  0  0  0  0  0
  152.0803  139.2003  158.7207 N   0  0  0  0  0  0  0  0  0  0  0  0
  152.8431  139.6470  159.7592 C   0  0  0  0  0  0  0  0  0  0  0  0
  153.3149  138.8684  160.8536 C   0  0  0  0  0  0  0  0  0  0  0  0
  154.0784  139.6609  161.7028 N   0  0  0  0  0  0  0  0  0  0  0  0
  154.0482  140.8421  161.1496 C   0  0  0  0  0  0  0  0  0  0  0  0
  153.3199  140.9269  159.9843 N   0  0  0  0  0  0  0  0  0  0  0  0
  153.1145  142.1153  159.1699 C   0  0  0  0  0  0  0  0  0  0  0  0
  152.1028  143.1169  159.7867 C   0  0  1  0  0  0  0  0  0  0  0  0
  150.8403  142.4757  159.8566 O   0  0  0  0  0  0  0  0  0  0  0  0
  152.4736  143.5689  161.1966 C   0  0  0  0  0  0  0  0  0  0  0  0
  151.8469  144.9514  161.2882 C   0  0  0  0  0  0  0  0  0  0  0  0
  152.0979  145.4850  160.0003 O   0  0  0  0  0  0  0  0  0  0  0  0
  151.9077  144.4603  159.0276 C   0  0  1  0  0  0  0  0  0  0  0  0
  152.8686  144.7434  157.8624 C   0  0  0  0  0  0  0  0  0  0  0  0
  153.8647  135.3729  161.3742 C   0  0  0  0  0  0  0  0  0  0  0  0
  155.1845  129.4761  159.2751 H   0  0  0  0  0  0  0  0  0  0  0  0
  154.7512  130.9937  158.5001 H   0  0  0  0  0  0  0  0  0  0  0  0
  153.5453  130.0977  159.4276 H   0  0  0  0  0  0  0  0  0  0  0  0
  154.9231  130.4730  161.5235 H   0  0  0  0  0  0  0  0  0  0  0  0
  156.0643  131.4232  160.5974 H   0  0  0  0  0  0  0  0  0  0  0  0
  155.2123  132.7151  162.6391 H   0  0  0  0  0  0  0  0  0  0  0  0
  152.7844  134.0843  162.7284 H   0  0  0  0  0  0  0  0  0  0  0  0
  154.4238  134.1077  164.5682 H   0  0  0  0  0  0  0  0  0  0  0  0
  155.5802  134.9700  163.5773 H   0  0  0  0  0  0  0  0  0  0  0  0
  152.8650  136.0157  164.5081 H   0  0  0  0  0  0  0  0  0  0  0  0
  154.4291  136.5726  165.0540 H   0  0  0  0  0  0  0  0  0  0  0  0
  153.4085  138.1028  163.3480 H   0  0  0  0  0  0  0  0  0  0  0  0
  154.9557  137.4679  162.8099 H   0  0  0  0  0  0  0  0  0  0  0  0
  151.2119  137.4703  158.0531 H   0  0  0  0  0  0  0  0  0  0  0  0
  154.5572  141.6907  161.5827 H   0  0  0  0  0  0  0  0  0  0  0  0
  154.0870  142.5891  159.0346 H   0  0  0  0  0  0  0  0  0  0  0  0
  152.7838  141.7994  158.1798 H   0  0  0  0  0  0  0  0  0  0  0  0
  150.3019  142.7956  159.1491 H   0  0  0  0  0  0  0  0  0  0  0  0
  152.1371  142.8906  161.9821 H   0  0  0  0  0  0  0  0  0  0  0  0
  153.5560  143.6698  161.2856 H   0  0  0  0  0  0  0  0  0  0  0  0
  150.7714  144.8871  161.4601 H   0  0  0  0  0  0  0  0  0  0  0  0
  152.2888  145.5656  162.0728 H   0  0  0  0  0  0  0  0  0  0  0  0
  150.8845  144.5429  158.6557 H   0  0  0  0  0  0  0  0  0  0  0  0
  152.7625  144.0034  157.0691 H   0  0  0  0  0  0  0  0  0  0  0  0
  153.9079  144.7467  158.1911 H   0  0  0  0  0  0  0  0  0  0  0  0
  152.6631  145.7206  157.4250 H   0  0  0  0  0  0  0  0  0  0  0  0
  154.8956  135.5521  161.0656 H   0  0  0  0  0  0  0  0  0  0  0  0
  153.3400  135.0029  160.4942 H   0  0  0  0  0  0  0  0  0  0  0  0
  1  2  1  0  0  0  0
  1 29  1  0  0  0  0
  1 30  1  0  0  0  0
  1 31  1  0  0  0  0
  2  3  1  0  0  0  0
  2 32  1  0  0  0  0
  2 33  1  0  0  0  0
  3  4  2  0  0  0  0
  3  5  1  0  0  0  0
  5  6  1  0  0  0  0
  5 34  1  0  0  0  0
  6 28  1  0  0  0  0
  6  7  1  0  0  0  0
  6 35  1  0  0  0  0
  7  8  1  0  0  0  0
  7 36  1  0  0  0  0
  7 37  1  0  0  0  0
  8  9  1  0  0  0  0
  8 38  1  0  0  0  0
  8 39  1  0  0  0  0
  9 10  1  0  0  0  0
  9 40  1  0  0  0  0
  9 41  1  0  0  0  0
 10 11  1  0  0  0  0
 10 28  1  0  0  0  0
 11 16  1  0  0  0  0
 11 12  2  0  0  0  0
 12 13  1  0  0  0  0
 13 14  2  0  0  0  0
 13 42  1  0  0  0  0
 14 15  1  0  0  0  0
 15 19  1  0  0  0  0
 15 16  2  0  0  0  0
 16 17  1  0  0  0  0
 17 18  2  0  0  0  0
 18 19  1  0  0  0  0
 18 43  1  0  0  0  0
 19 20  1  0  0  0  0
 20 21  1  0  0  0  0
 20 44  1  0  0  0  0
 20 45  1  0  0  0  0
 21 26  1  0  0  0  0
 21 22  1  0  0  0  0
 21 23  1  0  0  0  0
 22 46  1  0  0  0  0
 23 24  1  0  0  0  0
 23 47  1  0  0  0  0
 23 48  1  0  0  0  0
 24 25  1  0  0  0  0
 24 49  1  0  0  0  0
 24 50  1  0  0  0  0
 25 26  1  0  0  0  0
 26 27  1  0  0  0  0
 26 51  1  0  0  0  0
 27 52  1  0  0  0  0
 27 53  1  0  0  0  0
 27 54  1  0  0  0  0
 28 55  1  0  0  0  0
 28 56  1  0  0  0  0
M  END
> <s_m_source_file>
AV-unprocessed.smi

> <i_m_source_file_index>
252

> <i_lp_mmshare_version>
43012

> <i_f3d_flags>
0

> <s_epik_input>
W0NIM11bQ0gyXUMoPU8pW05IXVtDQEBIXTFbQ0gyXVtDSDJdW0NIMl1OKFtDSDJdMSljKG5bY0hdbjIpYyhjMjMpbltjSF1uM1tDSDJdW0NAQF00KFtPSF0pW0NIMl1bQ0gyXU9bQ0BIXTRbQ0gzXQ==

> <s_epik_cmdline>
J2VwaWtfcHl0aG9uJywgJy1waCcsICc3LjAnLCAnLXRuJywgJzgnLCAnLW1hJywgJzIwMCcsICctbWV0YWxfYmluZGluZycsICctaW1hZScsICc8aW5maWxlLm1hZT4nLCAnLW9tYWUnLCAnPG91dGZpbGUubWFlPic=

> <r_lp_tautomer_probability>
1

> <r_epik_Ionization_Penalty>
0.00182575

> <r_epik_Ionization_Penalty_Charging>
0

> <r_epik_Ionization_Penalty_Neutral>
0.00182575

> <r_epik_State_Penalty>
0.00104524

> <r_epik_Charging_Adjusted_Penalty>
0.00104524

> <i_epik_Tot_Q>
0

> <i_epik_Tot_abs_Q>
0

> <r_epik_Metal_State_Penalty>
-0

> <b_epik_Metal_Only>
0

> <s_lp_Force_Field>
OPLS_2005

> <r_lp_Energy>
35.3243

> <b_lp_Chiralities_Consistent>
1

> <s_lp_Variant>
AV-unprocessed.smi:252-2

> <Gold.Version>
5.8.1

> <Gold.Id.Protein>
6NUR|6NUR_protein|mol2

> <Gold.PLP.Fitness>
52.4392

> <Gold.PLP.PLP>
-48.8238

> <Gold.PLP.part.hbond>
-2.8374

> <Gold.PLP.part.metal>
0.0000

> <Gold.PLP.part.buried>
-4.5359

> <Gold.PLP.part.nonpolar>
-42.0280

> <Gold.PLP.part.repulsive>
0.1534

> <Gold.PLP.ligand.clash>
0.0000

> <Gold.PLP.ligand.torsion>
0.4276

> <Gold.PLP.Chemscore.Hbond>
1.3338

> <Gold.PLP.Chemscore.CHOScore>
0.0000

> <Gold.PLP.Chemscore.Metal>
0.0000

> <Gold.Chemscore.Hbonds>
donor molecule, donor type, donor heavy atom, donor atom, acceptor molecule, acceptor atom, score
      P1  H  6896  6908       L1    12  1.00
      P1  H  6896  6909       L1     4  0.35

> <Gold.PLP.Chemscore.Internal.Correction>
0.4691

> <Gold.Rescore>
     Score         DG    S(hbond)    S(metal)    S(lipo)     H(rot)  DE(clash)    DE(int)     intcor
     12.74     -15.57       0.92        0.00     119.14       2.70       1.01       1.82       ----

> <Gold.Chemscore.Fitness>
12.7355

> <Gold.Chemscore.DG>
-15.5722

> <Gold.Chemscore.ZeroCoef>
-5.4800

> <Gold.Chemscore.Hbond>
0.9207

> <Gold.Chemscore.Metal>
0.0000

> <Gold.Chemscore.Lipo>
119.1408

> <Gold.Chemscore.Internal_Hbond>
0.0000

> <Gold.Chemscore.DEClash>
1.0137

> <Gold.Chemscore.DEInternal>
1.8230

> <Gold.Chemscore.Rot>
2.7041

> <Gold.Chemscore.Internal.Correction>
   9.000000E+99

> <Gold.Chemscore.Hbonds>
donor molecule, donor type, donor heavy atom, donor atom, acceptor molecule, acceptor atom, score
      P1  H  6896  6908       L1    12  0.69
      P1  H  6896  6909       L1     4  0.34

> <Gold.Chemscore.Hbond.Weighted>
-3.0752

> <Gold.Chemscore.Metal.Weighted>
-0.0000

> <Gold.Chemscore.Lipo.Weighted>
-13.9395

> <Gold.Chemscore.Internal_Hbond.Weighted>
0.0000

> <Gold.Chemscore.DEClash.Weighted>
1.0137

> <Gold.Chemscore.DEInternal.Weighted>
1.8230

> <Gold.Chemscore.Rot.Weighted>
6.9225

> <Gold.Chemscore.Internal.Correction.Weighted>
   9.000000E+99

> <Gold.Protein.RotatedTorsions>
[ 6907 6896 6895 6894 ] final -105.92 input  -60.11 | X-H torsion
[ 7974 7965 7964 7962 ] final  -81.34 input  175.53 | X-H torsion
[ 8008 7997 7996 7995 ] final  -73.15 input   59.86 | X-H torsion
[ 10167 10162 10161 10158 ] final  -19.36 input  -65.29 | X-H torsion
[ 10718 10713 10712 10709 ] final  174.32 input   66.30 | X-H torsion
[ 10763 10752 10751 10750 ] final    9.04 input  -60.55 | X-H torsion
[ 11005 11000 10999 10996 ] final -167.94 input  -57.11 | X-H torsion

> <Gold.Protein.ActiveResidues>
 VAL166  LYS551  ARG553  GLY616  TRP617  ASP618  TYR619  PRO620  LYS621  CYS622 
 ASP623  PHE694  ASN695  SER759  ASP760  ASP761  ALA762  ILE779  LEU786  VAL792 
 PHE793  MET794  SER795  GLU796  ALA797  LYS798  CYS799  TRP800  GLU811  SER814 

> <Gold.Protein.RotatedAtoms>
  150.7362  134.0054  159.3651 H   0  0  0  0  0  0  0  0  0  0  0  0  # atno 6907 bound_to 6896
  151.8010  135.0706  160.0409 H   0  0  0  0  0  0  0  0  0  0  0  0  # atno 6908 bound_to 6896
  152.3140  133.5747  159.5736 H   0  0  0  0  0  0  0  0  0  0  0  0  # atno 6909 bound_to 6896
  145.5480  140.9500  143.1515 H   0  0  0  0  0  0  0  0  0  0  0  0  # atno 7974 bound_to 7965
  154.5224  140.0784  156.8196 H   0  0  0  0  0  0  0  0  0  0  0  0  # atno 8008 bound_to 7997
  155.3547  140.3414  155.4221 H   0  0  0  0  0  0  0  0  0  0  0  0  # atno 8009 bound_to 7997
  156.1695  140.1615  156.8459 H   0  0  0  0  0  0  0  0  0  0  0  0  # atno 8010 bound_to 7997
  140.7267  143.4826  151.0097 H   0  0  0  0  0  0  0  0  0  0  0  0  # atno 10167 bound_to 10162
  156.9513  131.0032  151.2948 H   0  0  0  0  0  0  0  0  0  0  0  0  # atno 10718 bound_to 10713
  153.2184  135.6878  153.8029 H   0  0  0  0  0  0  0  0  0  0  0  0  # atno 10763 bound_to 10752
  153.7237  135.3263  155.3273 H   0  0  0  0  0  0  0  0  0  0  0  0  # atno 10764 bound_to 10752
  154.8257  135.4619  154.1021 H   0  0  0  0  0  0  0  0  0  0  0  0  # atno 10765 bound_to 10752
  140.5476  134.5460  157.5115 H   0  0  0  0  0  0  0  0  0  0  0  0  # atno 11005 bound_to 11000
  144.7544  139.7113  143.7260 LP  0  0  0  0  0  0  0  0  0  0  0  0  # atno 17320 bound_to 7965
  146.1936  139.5190  142.9789 LP  0  0  0  0  0  0  0  0  0  0  0  0  # atno 17321 bound_to 7965
  139.8526  143.7419  152.3177 LP  0  0  0  0  0  0  0  0  0  0  0  0  # atno 17342 bound_to 10162
  139.7606  144.7507  151.0370 LP  0  0  0  0  0  0  0  0  0  0  0  0  # atno 17343 bound_to 10162
  157.5720  130.8317  149.8404 LP  0  0  0  0  0  0  0  0  0  0  0  0  # atno 17370 bound_to 10713
  156.0361  130.3751  150.1556 LP  0  0  0  0  0  0  0  0  0  0  0  0  # atno 17371 bound_to 10713
  139.9472  134.7682  156.0535 LP  0  0  0  0  0  0  0  0  0  0  0  0  # atno 17394 bound_to 11000
  141.1190  133.6618  156.3168 LP  0  0  0  0  0  0  0  0  0  0  0  0  # atno 17395 bound_to 11000

$$$$
