AV-unprocessed.smi:1598|AV-procd|sdf|6422|dock1
  -GOLD-   22720 7 63D 1   1.00000     0.00000
 Structure written by MMmdl.
 39 39  0  0  0  0  0  0  0  0  1 V2000
  147.3190  142.1684  153.4263 C   0  0  0  0  0  0  0  0  0  0  0  0
  148.2467  141.1010  153.5100 O   0  0  0  0  0  0  0  0  0  0  0  0
  149.2924  141.3608  154.4319 C   0  0  0  0  0  0  0  0  0  0  0  0
  148.7064  141.5115  155.8444 C   0  0  1  0  0  0  0  0  0  0  0  0
  148.2758  140.1600  156.4387 C   0  0  0  0  0  0  0  0  0  0  0  0
  149.7013  142.1415  156.7056 N   0  0  0  0  0  0  0  0  0  0  0  0
  150.8007  141.5491  157.2032 C   0  0  0  0  0  0  0  0  0  0  0  0
  151.0924  140.3777  156.9658 O   0  0  0  0  0  0  0  0  0  0  0  0
  151.7317  142.3833  158.1042 C   0  0  0  0  0  0  0  0  0  0  0  0
  151.9365  141.8485  159.4765 N   0  0  0  0  0  0  0  0  0  0  0  0
  151.4630  142.5826  160.6094 C   0  0  0  0  0  0  0  0  0  0  0  0
  150.6906  143.8920  160.3919 C   0  0  0  0  0  0  0  0  0  0  0  0
  150.3368  144.4412  161.5548 F   0  0  0  0  0  0  0  0  0  0  0  0
  151.4457  144.7875  159.7551 F   0  0  0  0  0  0  0  0  0  0  0  0
  149.5640  143.6998  159.7065 F   0  0  0  0  0  0  0  0  0  0  0  0
  151.6658  142.1022  161.8501 C   0  0  0  0  0  0  0  0  0  0  0  0
  152.3627  140.8602  162.0401 C   0  0  0  0  0  0  0  0  0  0  0  0
  152.8120  140.1509  160.9802 C   0  0  0  0  0  0  0  0  0  0  0  0
  153.5317  138.8647  161.1251 C   0  0  0  0  0  0  0  0  0  0  0  0
  154.0088  138.6361  162.3552 N   0  0  0  0  0  0  0  0  0  0  0  0
  153.7208  138.0189  160.2511 O   0  0  0  0  0  0  0  0  0  0  0  0
  152.5993  140.6466  159.5958 C   0  0  0  0  0  0  0  0  0  0  0  0
  152.9718  140.0435  158.5848 O   0  0  0  0  0  0  0  0  0  0  0  0
  146.5370  141.9182  152.7096 H   0  0  0  0  0  0  0  0  0  0  0  0
  147.8033  143.0859  153.0893 H   0  0  0  0  0  0  0  0  0  0  0  0
  146.8443  142.3555  154.3904 H   0  0  0  0  0  0  0  0  0  0  0  0
  150.0271  140.5539  154.4092 H   0  0  0  0  0  0  0  0  0  0  0  0
  149.8073  142.2790  154.1430 H   0  0  0  0  0  0  0  0  0  0  0  0
  147.8334  142.1634  155.7781 H   0  0  0  0  0  0  0  0  0  0  0  0
  147.5233  139.6775  155.8147 H   0  0  0  0  0  0  0  0  0  0  0  0
  147.8438  140.2846  157.4321 H   0  0  0  0  0  0  0  0  0  0  0  0
  149.1218  139.4776  156.5268 H   0  0  0  0  0  0  0  0  0  0  0  0
  149.5370  143.1069  156.9502 H   0  0  0  0  0  0  0  0  0  0  0  0
  152.6900  142.4787  157.5899 H   0  0  0  0  0  0  0  0  0  0  0  0
  151.3676  143.4062  158.1045 H   0  0  0  0  0  0  0  0  0  0  0  0
  151.3077  142.6342  162.7190 H   0  0  0  0  0  0  0  0  0  0  0  0
  152.5063  140.5266  163.0571 H   0  0  0  0  0  0  0  0  0  0  0  0
  154.5144  137.7852  162.5528 H   0  0  0  0  0  0  0  0  0  0  0  0
  153.8594  139.3200  163.0829 H   0  0  0  0  0  0  0  0  0  0  0  0
  1  2  1  0  0  0  0
  1 24  1  0  0  0  0
  1 25  1  0  0  0  0
  1 26  1  0  0  0  0
  2  3  1  0  0  0  0
  3  4  1  0  0  0  0
  3 27  1  0  0  0  0
  3 28  1  0  0  0  0
  4  5  1  0  0  0  0
  4  6  1  0  0  0  0
  4 29  1  0  0  0  0
  5 30  1  0  0  0  0
  5 31  1  0  0  0  0
  5 32  1  0  0  0  0
  6  7  1  0  0  0  0
  6 33  1  0  0  0  0
  7  8  2  0  0  0  0
  7  9  1  0  0  0  0
  9 10  1  0  0  0  0
  9 34  1  0  0  0  0
  9 35  1  0  0  0  0
 10 22  1  0  0  0  0
 10 11  1  0  0  0  0
 11 12  1  0  0  0  0
 11 16  2  0  0  0  0
 12 13  1  0  0  0  0
 12 14  1  0  0  0  0
 12 15  1  0  0  0  0
 16 17  1  0  0  0  0
 16 36  1  0  0  0  0
 17 18  2  0  0  0  0
 17 37  1  0  0  0  0
 18 19  1  0  0  0  0
 18 22  1  0  0  0  0
 19 20  1  0  0  0  0
 19 21  2  0  0  0  0
 20 38  1  0  0  0  0
 20 39  1  0  0  0  0
 22 23  2  0  0  0  0
M  END
> <s_m_source_file>
AV-unprocessed.smi

> <i_m_source_file_index>
1598

> <i_lp_mmshare_version>
43012

> <i_f3d_flags>
0

> <s_epik_input>
W0NIM11PW0NIMl1bQ0BIXShbQ0gzXSlbTkhdQyg9TylbQ0gyXW4xYyhDKEYpKEYpRilbY0hdW2NIXWMoYzE9TylDKD1PKVtOSDJd

> <s_epik_cmdline>
J2VwaWtfcHl0aG9uJywgJy1waCcsICc3LjAnLCAnLXRuJywgJzgnLCAnLW1hJywgJzIwMCcsICctbWV0YWxfYmluZGluZycsICctaW1hZScsICc8aW5maWxlLm1hZT4nLCAnLW9tYWUnLCAnPG91dGZpbGUubWFlPic=

> <r_lp_tautomer_probability>
1

> <r_epik_Ionization_Penalty>
2.07884e-06

> <r_epik_Ionization_Penalty_Charging>
8.00383e-10

> <r_epik_Ionization_Penalty_Neutral>
2.07804e-06

> <r_epik_State_Penalty>
-0

> <r_epik_Charging_Adjusted_Penalty>
8.00383e-10

> <i_epik_Tot_Q>
0

> <i_epik_Tot_abs_Q>
0

> <r_epik_Metal_State_Penalty>
-0

> <b_epik_Metal_Only>
0

> <s_lp_Force_Field>
OPLS_2005

> <r_lp_Energy>
25.2492

> <b_lp_Chiralities_Consistent>
1

> <s_lp_Variant>
AV-unprocessed.smi:1598-2

> <Gold.Version>
5.8.1

> <Gold.Id.Protein>
6NUR|6NUR_protein|mol2

> <Gold.PLP.Fitness>
50.5564

> <Gold.PLP.PLP>
-46.3503

> <Gold.PLP.part.hbond>
-2.0000

> <Gold.PLP.part.metal>
0.0000

> <Gold.PLP.part.buried>
-4.5232

> <Gold.PLP.part.nonpolar>
-39.7882

> <Gold.PLP.part.repulsive>
0.1769

> <Gold.PLP.ligand.clash>
3.8730

> <Gold.PLP.ligand.torsion>
0.4262

> <Gold.PLP.Chemscore.Hbond>
1.5890

> <Gold.PLP.Chemscore.CHOScore>
0.0000

> <Gold.PLP.Chemscore.Metal>
0.0000

> <Gold.Chemscore.Hbonds>
donor molecule, donor type, donor heavy atom, donor atom, acceptor molecule, acceptor atom, score
      L1  H     6    33       P1  8028  0.38
      P1  H  7997  8008       L1    23  0.46

> <Gold.PLP.Chemscore.Internal.Correction>
4.1644

> <Gold.Rescore>
     Score         DG    S(hbond)    S(metal)    S(lipo)     H(rot)  DE(clash)    DE(int)     intcor
      1.95     -11.52       0.64        0.00      86.42       2.43       1.33       8.24       ----

> <Gold.Chemscore.Fitness>
1.9533

> <Gold.Chemscore.DG>
-11.5228

> <Gold.Chemscore.ZeroCoef>
-5.4800

> <Gold.Chemscore.Hbond>
0.6435

> <Gold.Chemscore.Metal>
0.0000

> <Gold.Chemscore.Lipo>
86.4245

> <Gold.Chemscore.Internal_Hbond>
0.0000

> <Gold.Chemscore.DEClash>
1.3332

> <Gold.Chemscore.DEInternal>
8.2363

> <Gold.Chemscore.Rot>
2.4289

> <Gold.Chemscore.Internal.Correction>
   9.000000E+99

> <Gold.Chemscore.Hbonds>
donor molecule, donor type, donor heavy atom, donor atom, acceptor molecule, acceptor atom, score
      L1  H     6    33       P1  8028  0.38
      P1  H  7997  8008       L1    23  0.44

> <Gold.Chemscore.Hbond.Weighted>
-2.1491

> <Gold.Chemscore.Metal.Weighted>
-0.0000

> <Gold.Chemscore.Lipo.Weighted>
-10.1117

> <Gold.Chemscore.Internal_Hbond.Weighted>
0.0000

> <Gold.Chemscore.DEClash.Weighted>
1.3332

> <Gold.Chemscore.DEInternal.Weighted>
8.2363

> <Gold.Chemscore.Rot.Weighted>
6.2180

> <Gold.Chemscore.Internal.Correction.Weighted>
   9.000000E+99

> <Gold.Protein.RotatedTorsions>
[ 6907 6896 6895 6894 ] final -145.54 input  -60.11 | X-H torsion
[ 7974 7965 7964 7962 ] final  -26.01 input  175.53 | X-H torsion
[ 8008 7997 7996 7995 ] final  -90.80 input   59.86 | X-H torsion
[ 10167 10162 10161 10158 ] final  128.58 input  -65.29 | X-H torsion
[ 10718 10713 10712 10709 ] final -123.80 input   66.30 | X-H torsion
[ 10763 10752 10751 10750 ] final  -16.06 input  -60.55 | X-H torsion
[ 11005 11000 10999 10996 ] final  -18.51 input  -57.11 | X-H torsion

> <Gold.Protein.ActiveResidues>
 VAL166  LYS551  ARG553  GLY616  TRP617  ASP618  TYR619  PRO620  LYS621  CYS622 
 ASP623  PHE694  ASN695  SER759  ASP760  ASP761  ALA762  ILE779  LEU786  VAL792 
 PHE793  MET794  SER795  GLU796  ALA797  LYS798  CYS799  TRP800  GLU811  SER814 

> <Gold.Protein.RotatedAtoms>
  151.1292  133.5048  159.2599 H   0  0  0  0  0  0  0  0  0  0  0  0  # atno 6907 bound_to 6896
  151.1776  135.0346  159.8788 H   0  0  0  0  0  0  0  0  0  0  0  0  # atno 6908 bound_to 6896
  152.5459  134.1148  159.8427 H   0  0  0  0  0  0  0  0  0  0  0  0  # atno 6909 bound_to 6896
  146.1453  140.4963  142.8634 H   0  0  0  0  0  0  0  0  0  0  0  0  # atno 7974 bound_to 7965
  154.7029  140.0526  157.0476 H   0  0  0  0  0  0  0  0  0  0  0  0  # atno 8008 bound_to 7997
  155.0660  140.3194  155.4626 H   0  0  0  0  0  0  0  0  0  0  0  0  # atno 8009 bound_to 7997
  156.2766  140.2090  156.5787 H   0  0  0  0  0  0  0  0  0  0  0  0  # atno 8010 bound_to 7997
  139.5520  144.6820  151.4295 H   0  0  0  0  0  0  0  0  0  0  0  0  # atno 10167 bound_to 10162
  156.1533  130.6550  150.9945 H   0  0  0  0  0  0  0  0  0  0  0  0  # atno 10718 bound_to 10713
  153.5527  135.7011  153.5583 H   0  0  0  0  0  0  0  0  0  0  0  0  # atno 10763 bound_to 10752
  153.3500  135.3998  155.1638 H   0  0  0  0  0  0  0  0  0  0  0  0  # atno 10764 bound_to 10752
  154.8659  135.3763  154.5040 H   0  0  0  0  0  0  0  0  0  0  0  0  # atno 10765 bound_to 10752
  140.8275  133.8022  155.9723 H   0  0  0  0  0  0  0  0  0  0  0  0  # atno 11005 bound_to 11000
  144.7840  140.5898  143.6586 LP  0  0  0  0  0  0  0  0  0  0  0  0  # atno 17320 bound_to 7965
  145.4951  139.1486  143.3688 LP  0  0  0  0  0  0  0  0  0  0  0  0  # atno 17321 bound_to 7965
  140.6785  143.8136  150.7090 LP  0  0  0  0  0  0  0  0  0  0  0  0  # atno 17342 bound_to 10162
  140.1582  143.4299  152.2085 LP  0  0  0  0  0  0  0  0  0  0  0  0  # atno 17343 bound_to 10162
  157.6675  131.0868  150.7694 LP  0  0  0  0  0  0  0  0  0  0  0  0  # atno 17370 bound_to 10713
  156.7760  130.4844  149.5409 LP  0  0  0  0  0  0  0  0  0  0  0  0  # atno 17371 bound_to 10713
  140.9034  134.2350  157.5028 LP  0  0  0  0  0  0  0  0  0  0  0  0  # atno 17394 bound_to 11000
  139.8706  134.9717  156.4746 LP  0  0  0  0  0  0  0  0  0  0  0  0  # atno 17395 bound_to 11000

$$$$
