AV-unprocessed.smi:1853|AV-procd|sdf|7528|dock9
  -GOLD-   22720 9243D 1   1.00000     0.00000
 Structure written by MMmdl.
 43 45  0  0  0  0  0  0  0  0  2 V2000
  155.4904  138.0001  164.1781 C   0  0  0  0  0  0  0  0  0  0  0  0
  154.9298  138.1730  162.7815 C   0  0  0  0  0  0  0  0  0  0  0  0
  154.3395  137.0843  162.1100 C   0  0  0  0  0  0  0  0  0  0  0  0
  153.8217  137.2531  160.8117 C   0  0  0  0  0  0  0  0  0  0  0  0
  153.8842  138.5043  160.1647 C   0  0  0  0  0  0  0  0  0  0  0  0
  153.3496  138.5804  158.8969 O   0  0  0  0  0  0  0  0  0  0  0  0
  153.0553  139.8659  158.3663 C   0  0  0  0  0  0  0  0  0  0  0  0
  151.5533  140.1440  158.5184 C   0  0  0  0  0  0  0  0  0  0  0  0
  151.2104  141.5397  158.2097 N   0  0  0  0  0  0  0  0  0  0  0  0
  150.4993  142.0692  157.1723 C   0  0  0  0  0  0  0  0  0  0  0  0
  149.8617  141.3102  156.0460 C   0  0  0  0  0  0  0  0  0  0  0  0
  149.0646  142.1354  155.1429 N   0  0  0  0  0  0  0  0  0  0  0  0
  148.3867  141.6776  154.0803 C   0  0  0  0  0  0  0  0  0  0  0  0
  148.3126  140.4918  153.7631 O   0  0  0  0  0  0  0  0  0  0  0  0
  150.4796  143.4221  157.3511 N   0  3  0  0  0  0  0  0  0  0  0  0
  151.1645  143.7572  158.5189 C   0  0  0  0  0  0  0  0  0  0  0  0
  151.4005  144.9921  159.1154 C   0  0  0  0  0  0  0  0  0  0  0  0
  152.1383  144.9831  160.3175 C   0  0  0  0  0  0  0  0  0  0  0  0
  152.6094  143.7792  160.8809 C   0  0  0  0  0  0  0  0  0  0  0  0
  152.3644  142.5336  160.2659 C   0  0  0  0  0  0  0  0  0  0  0  0
  151.6351  142.5518  159.0774 C   0  0  0  0  0  0  0  0  0  0  0  0
  154.4832  139.5946  160.8448 C   0  0  0  0  0  0  0  0  0  0  0  0
  155.0012  139.4270  162.1438 C   0  0  0  0  0  0  0  0  0  0  0  0
  155.1204  137.0850  164.6417 H   0  0  0  0  0  0  0  0  0  0  0  0
  155.2037  138.8397  164.8120 H   0  0  0  0  0  0  0  0  0  0  0  0
  156.5789  137.9516  164.1430 H   0  0  0  0  0  0  0  0  0  0  0  0
  154.2814  136.1163  162.5860 H   0  0  0  0  0  0  0  0  0  0  0  0
  153.3739  136.4107  160.3060 H   0  0  0  0  0  0  0  0  0  0  0  0
  153.6262  140.6331  158.8914 H   0  0  0  0  0  0  0  0  0  0  0  0
  153.3263  139.9071  157.3103 H   0  0  0  0  0  0  0  0  0  0  0  0
  150.9674  139.4865  157.8757 H   0  0  0  0  0  0  0  0  0  0  0  0
  151.2337  139.9377  159.5402 H   0  0  0  0  0  0  0  0  0  0  0  0
  150.6472  140.8242  155.4672 H   0  0  0  0  0  0  0  0  0  0  0  0
  149.2337  140.5147  156.4488 H   0  0  0  0  0  0  0  0  0  0  0  0
  149.0601  143.1303  155.3166 H   0  0  0  0  0  0  0  0  0  0  0  0
  147.9046  142.5038  153.5352 H   0  0  0  0  0  0  0  0  0  0  0  0
  151.0386  145.9150  158.6868 H   0  0  0  0  0  0  0  0  0  0  0  0
  152.3453  145.9178  160.8182 H   0  0  0  0  0  0  0  0  0  0  0  0
  153.1694  143.8115  161.8043 H   0  0  0  0  0  0  0  0  0  0  0  0
  152.7272  141.6170  160.7069 H   0  0  0  0  0  0  0  0  0  0  0  0
  154.5575  140.5717  160.3925 H   0  0  0  0  0  0  0  0  0  0  0  0
  155.4545  140.2666  162.6505 H   0  0  0  0  0  0  0  0  0  0  0  0
  150.0158  144.0652  156.7226 H   0  0  0  0  0  0  0  0  0  0  0  0
  1  2  1  0  0  0  0
  1 24  1  0  0  0  0
  1 25  1  0  0  0  0
  1 26  1  0  0  0  0
  2 23  1  0  0  0  0
  2  3  2  0  0  0  0
  3  4  1  0  0  0  0
  3 27  1  0  0  0  0
  4  5  2  0  0  0  0
  4 28  1  0  0  0  0
  5  6  1  0  0  0  0
  5 22  1  0  0  0  0
  6  7  1  0  0  0  0
  7  8  1  0  0  0  0
  7 29  1  0  0  0  0
  7 30  1  0  0  0  0
  8  9  1  0  0  0  0
  8 31  1  0  0  0  0
  8 32  1  0  0  0  0
  9 21  1  0  0  0  0
  9 10  1  0  0  0  0
 10 11  1  0  0  0  0
 10 15  2  0  0  0  0
 11 12  1  0  0  0  0
 11 33  1  0  0  0  0
 11 34  1  0  0  0  0
 12 13  1  0  0  0  0
 12 35  1  0  0  0  0
 13 14  2  0  0  0  0
 13 36  1  0  0  0  0
 15 16  1  0  0  0  0
 15 43  1  0  0  0  0
 16 21  2  0  0  0  0
 16 17  1  0  0  0  0
 17 18  2  0  0  0  0
 17 37  1  0  0  0  0
 18 19  1  0  0  0  0
 18 38  1  0  0  0  0
 19 20  2  0  0  0  0
 19 39  1  0  0  0  0
 20 21  1  0  0  0  0
 20 40  1  0  0  0  0
 22 23  2  0  0  0  0
 22 41  1  0  0  0  0
 23 42  1  0  0  0  0
M  CHG  1  15   1
M  END
> <s_m_source_file>
AV-unprocessed.smi

> <i_m_source_file_index>
1853

> <i_lp_mmshare_version>
43012

> <i_f3d_flags>
0

> <s_epik_input>
W0NIM11jMVtjSF1bY0hdYyhbY0hdW2NIXTEpT1tDSDJdW0NIMl1uKGMobjIpW0NIMl1bTkhdW0NIXT1PKWMoYzIzKVtjSF1bY0hdW2NIXVtjSF0z

> <s_epik_cmdline>
J2VwaWtfcHl0aG9uJywgJy1waCcsICc3LjAnLCAnLXRuJywgJzgnLCAnLW1hJywgJzIwMCcsICctbWV0YWxfYmluZGluZycsICctaW1hZScsICc8aW5maWxlLm1hZT4nLCAnLW9tYWUnLCAnPG91dGZpbGUubWFlPic=

> <r_lp_tautomer_probability>
1

> <r_epik_Ionization_Penalty>
1.39966

> <r_epik_Ionization_Penalty_Charging>
1.39966

> <r_epik_Ionization_Penalty_Neutral>
7.38905e-08

> <r_epik_State_Penalty>
1.4817

> <r_epik_Charging_Adjusted_Penalty>
2.88136

> <i_epik_Tot_Q>
1

> <i_epik_Tot_abs_Q>
1

> <r_epik_Metal_State_Penalty>
1.53574

> <b_epik_Metal_Only>
0

> <s_lp_Force_Field>
OPLS_2005

> <r_lp_Energy>
13.1997

> <b_lp_Chiralities_Consistent>
1

> <s_lp_Variant>
AV-unprocessed.smi:1853-2

> <Gold.Version>
5.8.1

> <Gold.Id.Protein>
6NUR|6NUR_protein|mol2

> <Gold.PLP.Fitness>
56.1040

> <Gold.PLP.PLP>
-48.3213

> <Gold.PLP.part.hbond>
-2.0000

> <Gold.PLP.part.metal>
0.0000

> <Gold.PLP.part.buried>
-6.4131

> <Gold.PLP.part.nonpolar>
-39.7724

> <Gold.PLP.part.repulsive>
0.8651

> <Gold.PLP.ligand.clash>
0.0000

> <Gold.PLP.ligand.torsion>
0.6343

> <Gold.PLP.Chemscore.Hbond>
3.0000

> <Gold.PLP.Chemscore.CHOScore>
0.0000

> <Gold.PLP.Chemscore.Metal>
0.0000

> <Gold.Chemscore.Hbonds>
donor molecule, donor type, donor heavy atom, donor atom, acceptor molecule, acceptor atom, score
      L1  H    12    35       P1  8028  1.00
      L1  H    15    43       P1  8028  2.00

> <Gold.PLP.Chemscore.Internal.Correction>
0.0513

> <Gold.Rescore>
     Score         DG    S(hbond)    S(metal)    S(lipo)     H(rot)  DE(clash)    DE(int)     intcor
     20.21     -21.01       1.98        0.00     129.94       2.46       0.16       0.64       ----

> <Gold.Chemscore.Fitness>
20.2072

> <Gold.Chemscore.DG>
-21.0111

> <Gold.Chemscore.ZeroCoef>
-5.4800

> <Gold.Chemscore.Hbond>
1.9841

> <Gold.Chemscore.Metal>
0.0000

> <Gold.Chemscore.Lipo>
129.9365

> <Gold.Chemscore.Internal_Hbond>
0.0000

> <Gold.Chemscore.DEClash>
0.1604

> <Gold.Chemscore.DEInternal>
0.6436

> <Gold.Chemscore.Rot>
2.4603

> <Gold.Chemscore.Internal.Correction>
   9.000000E+99

> <Gold.Chemscore.Hbonds>
donor molecule, donor type, donor heavy atom, donor atom, acceptor molecule, acceptor atom, score
      L1  H    12    35       P1  8028  0.99
      L1  H    15    43       P1  8028  0.99

> <Gold.Chemscore.Hbond.Weighted>
-6.6268

> <Gold.Chemscore.Metal.Weighted>
-0.0000

> <Gold.Chemscore.Lipo.Weighted>
-15.2026

> <Gold.Chemscore.Internal_Hbond.Weighted>
0.0000

> <Gold.Chemscore.DEClash.Weighted>
0.1604

> <Gold.Chemscore.DEInternal.Weighted>
0.6436

> <Gold.Chemscore.Rot.Weighted>
6.2983

> <Gold.Chemscore.Internal.Correction.Weighted>
   9.000000E+99

> <Gold.Protein.RotatedTorsions>
[ 6907 6896 6895 6894 ] final   29.12 input  -60.11 | X-H torsion
[ 7974 7965 7964 7962 ] final -135.02 input  175.53 | X-H torsion
[ 8008 7997 7996 7995 ] final   41.40 input   59.86 | X-H torsion
[ 10167 10162 10161 10158 ] final  -94.94 input  -65.29 | X-H torsion
[ 10718 10713 10712 10709 ] final -156.34 input   66.30 | X-H torsion
[ 10763 10752 10751 10750 ] final -139.58 input  -60.55 | X-H torsion
[ 11005 11000 10999 10996 ] final  -52.01 input  -57.11 | X-H torsion

> <Gold.Protein.ActiveResidues>
 VAL166  LYS551  ARG553  GLY616  TRP617  ASP618  TYR619  PRO620  LYS621  CYS622 
 ASP623  PHE694  ASN695  SER759  ASP760  ASP761  ALA762  ILE779  LEU786  VAL792 
 PHE793  MET794  SER795  GLU796  ALA797  LYS798  CYS799  TRP800  GLU811  SER814 

> <Gold.Protein.RotatedAtoms>
  152.0269  134.9790  160.0571 H   0  0  0  0  0  0  0  0  0  0  0  0  # atno 6907 bound_to 6896
  152.1283  133.4388  159.4716 H   0  0  0  0  0  0  0  0  0  0  0  0  # atno 6908 bound_to 6896
  150.6854  134.2370  159.4500 H   0  0  0  0  0  0  0  0  0  0  0  0  # atno 6909 bound_to 6896
  144.9050  140.6822  143.5061 H   0  0  0  0  0  0  0  0  0  0  0  0  # atno 7974 bound_to 7965
  155.2690  140.3364  155.4267 H   0  0  0  0  0  0  0  0  0  0  0  0  # atno 8008 bound_to 7997
  156.2141  140.1782  156.7670 H   0  0  0  0  0  0  0  0  0  0  0  0  # atno 8009 bound_to 7997
  154.5728  140.0667  156.8974 H   0  0  0  0  0  0  0  0  0  0  0  0  # atno 8010 bound_to 7997
  140.3093  143.3115  152.0166 H   0  0  0  0  0  0  0  0  0  0  0  0  # atno 10167 bound_to 10162
  156.5252  130.8496  151.2696 H   0  0  0  0  0  0  0  0  0  0  0  0  # atno 10718 bound_to 10713
  154.8605  135.3578  154.5569 H   0  0  0  0  0  0  0  0  0  0  0  0  # atno 10763 bound_to 10752
  153.6185  135.7007  153.5324 H   0  0  0  0  0  0  0  0  0  0  0  0  # atno 10764 bound_to 10752
  153.3149  135.4168  155.1327 H   0  0  0  0  0  0  0  0  0  0  0  0  # atno 10765 bound_to 10752
  141.0901  133.6634  156.3961 H   0  0  0  0  0  0  0  0  0  0  0  0  # atno 11005 bound_to 11000
  145.3550  139.1696  143.4414 LP  0  0  0  0  0  0  0  0  0  0  0  0  # atno 17320 bound_to 7965
  146.3129  140.3607  142.8664 LP  0  0  0  0  0  0  0  0  0  0  0  0  # atno 17321 bound_to 7965
  139.4897  144.6397  151.6902 LP  0  0  0  0  0  0  0  0  0  0  0  0  # atno 17342 bound_to 10162
  140.5583  144.0312  150.6157 LP  0  0  0  0  0  0  0  0  0  0  0  0  # atno 17343 bound_to 10162
  157.7430  130.9904  150.2563 LP  0  0  0  0  0  0  0  0  0  0  0  0  # atno 17370 bound_to 10713
  156.3112  130.3772  149.7660 LP  0  0  0  0  0  0  0  0  0  0  0  0  # atno 17371 bound_to 10713
  140.5271  134.6248  157.5338 LP  0  0  0  0  0  0  0  0  0  0  0  0  # atno 17394 bound_to 11000
  139.9726  134.7268  156.0012 LP  0  0  0  0  0  0  0  0  0  0  0  0  # atno 17395 bound_to 11000

$$$$
