AV-unprocessed.smi:2105|AV-procd|sdf|8592|dock5
  -GOLD-   2272011323D 1   1.00000     0.00000
 Structure written by MMmdl.
 43 44  0  0  0  0  0  0  0  0  2 V2000
  146.8071  145.6366  160.9893 C   0  0  0  0  0  0  0  0  0  0  0  0
  147.9651  144.6858  160.7065 C   0  0  0  0  0  0  0  0  0  0  0  0
  147.7659  143.4736  160.6361 O   0  0  0  0  0  0  0  0  0  0  0  0
  149.1715  145.2505  160.5467 N   0  0  0  0  0  0  0  0  0  0  0  0
  150.4069  144.5298  160.2559 C   0  0  0  0  0  0  0  0  0  0  0  0
  150.9873  144.9025  158.8773 C   0  0  0  0  0  0  0  0  0  0  0  0
  150.5006  144.0232  157.8189 N   0  0  0  0  0  0  0  0  0  0  0  0
  151.0904  142.8840  157.4301 C   0  0  0  0  0  0  0  0  0  0  0  0
  152.1218  142.4435  157.9373 O   0  0  0  0  0  0  0  0  0  0  0  0
  150.4221  142.3097  156.4157 N   0  0  0  0  0  0  0  0  0  0  0  0
  150.7470  141.1114  155.7181 C   0  0  0  0  0  0  0  0  0  0  0  0
  152.0124  140.4893  155.8757 C   0  0  0  0  0  0  0  0  0  0  0  0
  152.3148  139.3174  155.1573 C   0  0  0  0  0  0  0  0  0  0  0  0
  151.3452  138.7801  154.2940 C   0  0  0  0  0  0  0  0  0  0  0  0
  150.1434  139.3824  154.1814 N   0  3  0  0  0  0  0  0  0  0  0  0
  149.7868  140.5036  154.8571 C   0  0  0  0  0  0  0  0  0  0  0  0
  148.4846  141.0124  154.6468 N   0  0  0  0  0  0  0  0  0  0  0  0
  148.2871  142.4160  154.3038 C   0  0  0  0  0  0  0  0  0  0  0  0
  146.8415  142.5059  153.8233 C   0  0  0  0  0  0  0  0  0  0  0  0
  146.6481  141.1684  153.1152 C   0  0  0  0  0  0  0  0  0  0  0  0
  147.5095  140.1969  153.9296 C   0  0  0  0  0  0  0  0  0  0  0  0
  147.0351  146.2758  161.8426 H   0  0  0  0  0  0  0  0  0  0  0  0
  145.8957  145.0815  161.2135 H   0  0  0  0  0  0  0  0  0  0  0  0
  146.6164  146.2701  160.1227 H   0  0  0  0  0  0  0  0  0  0  0  0
  149.2370  146.2555  160.6194 H   0  0  0  0  0  0  0  0  0  0  0  0
  151.1396  144.7539  161.0328 H   0  0  0  0  0  0  0  0  0  0  0  0
  150.2173  143.4582  160.3235 H   0  0  0  0  0  0  0  0  0  0  0  0
  150.7489  145.9347  158.6190 H   0  0  0  0  0  0  0  0  0  0  0  0
  152.0765  144.8473  158.9129 H   0  0  0  0  0  0  0  0  0  0  0  0
  149.6574  144.3117  157.3448 H   0  0  0  0  0  0  0  0  0  0  0  0
  149.6520  142.8403  156.0360 H   0  0  0  0  0  0  0  0  0  0  0  0
  152.7584  140.8912  156.5442 H   0  0  0  0  0  0  0  0  0  0  0  0
  153.2775  138.8394  155.2672 H   0  0  0  0  0  0  0  0  0  0  0  0
  151.4886  137.8887  153.7009 H   0  0  0  0  0  0  0  0  0  0  0  0
  148.4704  143.0659  155.1599 H   0  0  0  0  0  0  0  0  0  0  0  0
  148.9593  142.7098  153.4966 H   0  0  0  0  0  0  0  0  0  0  0  0
  146.1671  142.5763  154.6781 H   0  0  0  0  0  0  0  0  0  0  0  0
  146.6604  143.3642  153.1756 H   0  0  0  0  0  0  0  0  0  0  0  0
  145.6027  140.8631  153.0585 H   0  0  0  0  0  0  0  0  0  0  0  0
  147.0337  141.2356  152.0970 H   0  0  0  0  0  0  0  0  0  0  0  0
  147.9868  139.4559  153.2865 H   0  0  0  0  0  0  0  0  0  0  0  0
  146.8900  139.6703  154.6562 H   0  0  0  0  0  0  0  0  0  0  0  0
  149.4573  138.9623  153.5544 H   0  0  0  0  0  0  0  0  0  0  0  0
  1  2  1  0  0  0  0
  1 22  1  0  0  0  0
  1 23  1  0  0  0  0
  1 24  1  0  0  0  0
  2  3  2  0  0  0  0
  2  4  1  0  0  0  0
  4  5  1  0  0  0  0
  4 25  1  0  0  0  0
  5  6  1  0  0  0  0
  5 26  1  0  0  0  0
  5 27  1  0  0  0  0
  6  7  1  0  0  0  0
  6 28  1  0  0  0  0
  6 29  1  0  0  0  0
  7  8  1  0  0  0  0
  7 30  1  0  0  0  0
  8  9  2  0  0  0  0
  8 10  1  0  0  0  0
 10 11  1  0  0  0  0
 10 31  1  0  0  0  0
 11 16  1  0  0  0  0
 11 12  2  0  0  0  0
 12 13  1  0  0  0  0
 12 32  1  0  0  0  0
 13 14  2  0  0  0  0
 13 33  1  0  0  0  0
 14 15  1  0  0  0  0
 14 34  1  0  0  0  0
 15 16  2  0  0  0  0
 15 43  1  0  0  0  0
 16 17  1  0  0  0  0
 17 21  1  0  0  0  0
 17 18  1  0  0  0  0
 18 19  1  0  0  0  0
 18 35  1  0  0  0  0
 18 36  1  0  0  0  0
 19 20  1  0  0  0  0
 19 37  1  0  0  0  0
 19 38  1  0  0  0  0
 20 21  1  0  0  0  0
 20 39  1  0  0  0  0
 20 40  1  0  0  0  0
 21 41  1  0  0  0  0
 21 42  1  0  0  0  0
M  CHG  1  15   1
M  END
> <s_m_source_file>
AV-unprocessed.smi

> <i_m_source_file_index>
2105

> <i_lp_mmshare_version>
43012

> <i_f3d_flags>
0

> <s_epik_input>
W0NIM11DKD1PKVtOSF1bQ0gyXVtDSDJdW05IXUMoPU8pW05IXWMxW2NIXVtjSF1bY0hdbmMxTjJbQ0gyXVtDSDJdW0NIMl1bQ0gyXTI=

> <s_epik_cmdline>
J2VwaWtfcHl0aG9uJywgJy1waCcsICc3LjAnLCAnLXRuJywgJzgnLCAnLW1hJywgJzIwMCcsICctbWV0YWxfYmluZGluZycsICctaW1hZScsICc8aW5maWxlLm1hZT4nLCAnLW9tYWUnLCAnPG91dGZpbGUubWFlPic=

> <r_lp_tautomer_probability>
0.999994

> <r_epik_Ionization_Penalty>
1.12691

> <r_epik_Ionization_Penalty_Charging>
1.12689

> <r_epik_Ionization_Penalty_Neutral>
1.95207e-05

> <r_epik_State_Penalty>
1.18624

> <r_epik_Charging_Adjusted_Penalty>
2.31313

> <i_epik_Tot_Q>
1

> <i_epik_Tot_abs_Q>
1

> <r_epik_Metal_State_Penalty>
1.26987

> <b_epik_Metal_Only>
0

> <s_lp_Force_Field>
OPLS_2005

> <r_lp_Energy>
38.5687

> <b_lp_Chiralities_Consistent>
1

> <s_lp_Variant>
AV-unprocessed.smi:2105-2

> <Gold.Version>
5.8.1

> <Gold.Id.Protein>
6NUR|6NUR_protein|mol2

> <Gold.PLP.Fitness>
45.1249

> <Gold.PLP.PLP>
-38.1553

> <Gold.PLP.part.hbond>
-3.2445

> <Gold.PLP.part.metal>
0.0000

> <Gold.PLP.part.buried>
-2.1392

> <Gold.PLP.part.nonpolar>
-33.6043

> <Gold.PLP.part.repulsive>
0.7436

> <Gold.PLP.ligand.clash>
0.0000

> <Gold.PLP.ligand.torsion>
0.6213

> <Gold.PLP.Chemscore.Hbond>
2.6097

> <Gold.PLP.Chemscore.CHOScore>
0.0000

> <Gold.PLP.Chemscore.Metal>
0.0000

> <Gold.Chemscore.Hbonds>
donor molecule, donor type, donor heavy atom, donor atom, acceptor molecule, acceptor atom, score
      L1  H     7    30       P1  8028  0.87
      L1  H    10    31       P1  8028  0.84
      P1  H  6933  6944       L1     3  1.00

> <Gold.PLP.Chemscore.Internal.Correction>
0.3831

> <Gold.Rescore>
     Score         DG    S(hbond)    S(metal)    S(lipo)     H(rot)  DE(clash)    DE(int)     intcor
     13.02     -15.15       1.62        0.00      79.63       1.98       0.14       1.99       ----

> <Gold.Chemscore.Fitness>
13.0223

> <Gold.Chemscore.DG>
-15.1478

> <Gold.Chemscore.ZeroCoef>
-5.4800

> <Gold.Chemscore.Hbond>
1.6195

> <Gold.Chemscore.Metal>
0.0000

> <Gold.Chemscore.Lipo>
79.6344

> <Gold.Chemscore.Internal_Hbond>
0.0000

> <Gold.Chemscore.DEClash>
0.1394

> <Gold.Chemscore.DEInternal>
1.9861

> <Gold.Chemscore.Rot>
1.9760

> <Gold.Chemscore.Internal.Correction>
   9.000000E+99

> <Gold.Chemscore.Hbonds>
donor molecule, donor type, donor heavy atom, donor atom, acceptor molecule, acceptor atom, score
      L1  H     7    30       P1  8028  0.19
      L1  H    10    31       P1  8028  0.79
      P1  H  6933  6944       L1     3  0.96

> <Gold.Chemscore.Hbond.Weighted>
-5.4091

> <Gold.Chemscore.Metal.Weighted>
-0.0000

> <Gold.Chemscore.Lipo.Weighted>
-9.3172

> <Gold.Chemscore.Internal_Hbond.Weighted>
0.0000

> <Gold.Chemscore.DEClash.Weighted>
0.1394

> <Gold.Chemscore.DEInternal.Weighted>
1.9861

> <Gold.Chemscore.Rot.Weighted>
5.0585

> <Gold.Chemscore.Internal.Correction.Weighted>
   9.000000E+99

> <Gold.Protein.RotatedTorsions>
[ 6907 6896 6895 6894 ] final  126.75 input  -60.11 | X-H torsion
[ 7974 7965 7964 7962 ] final   48.92 input  175.53 | X-H torsion
[ 8008 7997 7996 7995 ] final  172.23 input   59.86 | X-H torsion
[ 10167 10162 10161 10158 ] final  -87.45 input  -65.29 | X-H torsion
[ 10718 10713 10712 10709 ] final -153.28 input   66.30 | X-H torsion
[ 10763 10752 10751 10750 ] final -137.86 input  -60.55 | X-H torsion
[ 11005 11000 10999 10996 ] final   33.13 input  -57.11 | X-H torsion

> <Gold.Protein.ActiveResidues>
 VAL166  LYS551  ARG553  GLY616  TRP617  ASP618  TYR619  PRO620  LYS621  CYS622 
 ASP623  PHE694  ASN695  SER759  ASP760  ASP761  ALA762  ILE779  LEU786  VAL792 
 PHE793  MET794  SER795  GLU796  ALA797  LYS798  CYS799  TRP800  GLU811  SER814 

> <Gold.Protein.RotatedAtoms>
  152.3875  133.6632  159.6210 H   0  0  0  0  0  0  0  0  0  0  0  0  # atno 6907 bound_to 6896
  150.7791  133.9010  159.3350 H   0  0  0  0  0  0  0  0  0  0  0  0  # atno 6908 bound_to 6896
  151.6803  135.0964  160.0266 H   0  0  0  0  0  0  0  0  0  0  0  0  # atno 6909 bound_to 6896
  146.0158  139.4594  142.9928 H   0  0  0  0  0  0  0  0  0  0  0  0  # atno 7974 bound_to 7965
  156.1194  140.1491  156.9225 H   0  0  0  0  0  0  0  0  0  0  0  0  # atno 8008 bound_to 7997
  154.4825  140.0875  156.7452 H   0  0  0  0  0  0  0  0  0  0  0  0  # atno 8009 bound_to 7997
  155.4455  140.3432  155.4297 H   0  0  0  0  0  0  0  0  0  0  0  0  # atno 8010 bound_to 7997
  140.3843  143.2734  151.9345 H   0  0  0  0  0  0  0  0  0  0  0  0  # atno 10167 bound_to 10162
  156.4837  130.8315  151.2541 H   0  0  0  0  0  0  0  0  0  0  0  0  # atno 10718 bound_to 10713
  154.8651  135.3629  154.5291 H   0  0  0  0  0  0  0  0  0  0  0  0  # atno 10763 bound_to 10752
  153.5918  135.7015  153.5425 H   0  0  0  0  0  0  0  0  0  0  0  0  # atno 10764 bound_to 10752
  153.3367  135.4109  155.1501 H   0  0  0  0  0  0  0  0  0  0  0  0  # atno 10765 bound_to 10752
  140.2663  134.3133  155.7841 H   0  0  0  0  0  0  0  0  0  0  0  0  # atno 11005 bound_to 11000
  145.7271  141.0055  143.1371 LP  0  0  0  0  0  0  0  0  0  0  0  0  # atno 17320 bound_to 7965
  144.6970  139.8940  143.7455 LP  0  0  0  0  0  0  0  0  0  0  0  0  # atno 17321 bound_to 7965
  139.4793  144.5789  151.7966 LP  0  0  0  0  0  0  0  0  0  0  0  0  # atno 17342 bound_to 10162
  140.4906  144.1317  150.5949 LP  0  0  0  0  0  0  0  0  0  0  0  0  # atno 17343 bound_to 10162
  157.7481  131.0036  150.3046 LP  0  0  0  0  0  0  0  0  0  0  0  0  # atno 17370 bound_to 10713
  156.3496  130.3829  149.7340 LP  0  0  0  0  0  0  0  0  0  0  0  0  # atno 17371 bound_to 10713
  141.2183  133.7440  156.9266 LP  0  0  0  0  0  0  0  0  0  0  0  0  # atno 17394 bound_to 11000
  140.1416  134.9290  157.2474 LP  0  0  0  0  0  0  0  0  0  0  0  0  # atno 17395 bound_to 11000

$$$$
