AV-unprocessed.smi:1829|AV-procd|sdf|7428|dock6
  -GOLD-   22720 9113D 1   1.00000     0.00000
 Structure written by MMmdl.
 45 47  0  0  0  0  0  0  0  0  1 V2000
  152.0027  145.0890  158.8933 C   0  0  0  0  0  0  0  0  0  0  0  0
  151.4507  143.7923  159.5065 C   0  0  0  0  0  0  0  0  0  0  0  0
  152.1209  143.4708  160.8512 C   0  0  0  0  0  0  0  0  0  0  0  0
  151.5535  142.6198  158.5386 C   0  0  0  0  0  0  0  0  0  0  0  0
  150.9049  142.6777  157.2866 C   0  0  0  0  0  0  0  0  0  0  0  0
  150.9863  141.5930  156.3922 C   0  0  0  0  0  0  0  0  0  0  0  0
  151.7162  140.4365  156.7378 C   0  0  0  0  0  0  0  0  0  0  0  0
  151.8001  139.2754  155.7589 C   0  0  2  0  0  0  0  0  0  0  0  0
  153.1032  139.1033  155.2350 O   0  0  0  0  0  0  0  0  0  0  0  0
  150.7832  139.4411  154.6113 C   0  0  0  0  0  0  0  0  0  0  0  0
  149.7049  138.4624  154.6619 N   0  0  0  0  0  0  0  0  0  0  0  0
  148.4034  138.6307  154.3168 C   0  0  0  0  0  0  0  0  0  0  0  0
  147.8735  139.9330  153.7989 C   0  0  0  0  0  0  0  0  0  0  0  0
  147.3563  139.8287  152.4899 O   0  0  0  0  0  0  0  0  0  0  0  0
  147.6218  137.5597  154.4601 N   0  0  0  0  0  0  0  0  0  0  0  0
  148.4982  136.6062  154.9403 C   0  0  0  0  0  0  0  0  0  0  0  0
  148.2816  135.2546  155.2921 C   0  0  0  0  0  0  0  0  0  0  0  0
  149.3461  134.4613  155.7681 C   0  0  0  0  0  0  0  0  0  0  0  0
  150.6398  135.0065  155.8990 C   0  0  0  0  0  0  0  0  0  0  0  0
  150.8773  136.3507  155.5530 C   0  0  0  0  0  0  0  0  0  0  0  0
  149.8114  137.1384  155.0779 C   0  0  0  0  0  0  0  0  0  0  0  0
  152.3733  140.3813  157.9861 C   0  0  0  0  0  0  0  0  0  0  0  0
  152.2897  141.4648  158.8814 C   0  0  0  0  0  0  0  0  0  0  0  0
  151.4823  145.3363  157.9676 H   0  0  0  0  0  0  0  0  0  0  0  0
  153.0661  145.0076  158.6669 H   0  0  0  0  0  0  0  0  0  0  0  0
  151.8761  145.9297  159.5761 H   0  0  0  0  0  0  0  0  0  0  0  0
  150.3924  143.9624  159.7096 H   0  0  0  0  0  0  0  0  0  0  0  0
  151.6838  142.5799  161.3030 H   0  0  0  0  0  0  0  0  0  0  0  0
  151.9965  144.2918  161.5574 H   0  0  0  0  0  0  0  0  0  0  0  0
  153.1906  143.2948  160.7356 H   0  0  0  0  0  0  0  0  0  0  0  0
  150.3394  143.5542  157.0056 H   0  0  0  0  0  0  0  0  0  0  0  0
  150.4852  141.6529  155.4370 H   0  0  0  0  0  0  0  0  0  0  0  0
  151.5719  138.3610  156.3066 H   0  0  0  0  0  0  0  0  0  0  0  0
  153.0959  138.3580  154.6540 H   0  0  0  0  0  0  0  0  0  0  0  0
  150.3495  140.4412  154.6329 H   0  0  0  0  0  0  0  0  0  0  0  0
  151.2854  139.3541  153.6470 H   0  0  0  0  0  0  0  0  0  0  0  0
  147.0808  140.2867  154.4591 H   0  0  0  0  0  0  0  0  0  0  0  0
  148.6570  140.6896  153.8192 H   0  0  0  0  0  0  0  0  0  0  0  0
  148.0798  139.7854  151.8837 H   0  0  0  0  0  0  0  0  0  0  0  0
  147.2944  134.8278  155.1955 H   0  0  0  0  0  0  0  0  0  0  0  0
  149.1689  133.4296  156.0346 H   0  0  0  0  0  0  0  0  0  0  0  0
  151.4496  134.3930  156.2661 H   0  0  0  0  0  0  0  0  0  0  0  0
  151.8657  136.7734  155.6554 H   0  0  0  0  0  0  0  0  0  0  0  0
  152.9448  139.5076  158.2633 H   0  0  0  0  0  0  0  0  0  0  0  0
  152.7940  141.4036  159.8344 H   0  0  0  0  0  0  0  0  0  0  0  0
  1  2  1  0  0  0  0
  1 24  1  0  0  0  0
  1 25  1  0  0  0  0
  1 26  1  0  0  0  0
  2  3  1  0  0  0  0
  2  4  1  0  0  0  0
  2 27  1  0  0  0  0
  3 28  1  0  0  0  0
  3 29  1  0  0  0  0
  3 30  1  0  0  0  0
  4 23  1  0  0  0  0
  4  5  2  0  0  0  0
  5  6  1  0  0  0  0
  5 31  1  0  0  0  0
  6  7  2  0  0  0  0
  6 32  1  0  0  0  0
  7  8  1  0  0  0  0
  7 22  1  0  0  0  0
  8  9  1  0  0  0  0
  8 10  1  0  0  0  0
  8 33  1  0  0  0  0
  9 34  1  0  0  0  0
 10 11  1  0  0  0  0
 10 35  1  0  0  0  0
 10 36  1  0  0  0  0
 11 21  1  0  0  0  0
 11 12  1  0  0  0  0
 12 13  1  0  0  0  0
 12 15  2  0  0  0  0
 13 14  1  0  0  0  0
 13 37  1  0  0  0  0
 13 38  1  0  0  0  0
 14 39  1  0  0  0  0
 15 16  1  0  0  0  0
 16 21  2  0  0  0  0
 16 17  1  0  0  0  0
 17 18  2  0  0  0  0
 17 40  1  0  0  0  0
 18 19  1  0  0  0  0
 18 41  1  0  0  0  0
 19 20  2  0  0  0  0
 19 42  1  0  0  0  0
 20 21  1  0  0  0  0
 20 43  1  0  0  0  0
 22 23  2  0  0  0  0
 22 44  1  0  0  0  0
 23 45  1  0  0  0  0
M  END
> <s_m_source_file>
AV-unprocessed.smi

> <i_m_source_file_index>
1829

> <i_lp_mmshare_version>
43012

> <i_f3d_flags>
0

> <s_epik_input>
W0NIM11bQ0hdKFtDSDNdKWMxW2NIXVtjSF1jKFtjSF1bY0hdMSlbQ0BIXShbT0hdKVtDSDJdbihjKG4yKVtDSDJdW09IXSljKGMyMylbY0hdW2NIXVtjSF1bY0hdMw==

> <s_epik_cmdline>
J2VwaWtfcHl0aG9uJywgJy1waCcsICc3LjAnLCAnLXRuJywgJzgnLCAnLW1hJywgJzIwMCcsICctbWV0YWxfYmluZGluZycsICctaW1hZScsICc8aW5maWxlLm1hZT4nLCAnLW9tYWUnLCAnPG91dGZpbGUubWFlPic=

> <r_epik_Ionization_Penalty>
0.0634718

> <r_epik_Ionization_Penalty_Charging>
0

> <r_epik_Ionization_Penalty_Neutral>
0.0634718

> <r_epik_State_Penalty>
0.0551572

> <r_epik_Charging_Adjusted_Penalty>
0.0551572

> <i_epik_Tot_Q>
0

> <i_epik_Tot_abs_Q>
0

> <r_epik_Metal_State_Penalty>
5.78034e-05

> <b_epik_Metal_Only>
0

> <s_lp_Force_Field>
OPLS_2005

> <r_lp_Energy>
12.4565

> <b_lp_Chiralities_Consistent>
1

> <s_lp_Variant>
AV-unprocessed.smi:1829-1

> <Gold.Version>
5.8.1

> <Gold.Id.Protein>
6NUR|6NUR_protein|mol2

> <Gold.PLP.Fitness>
46.8796

> <Gold.PLP.PLP>
-43.3971

> <Gold.PLP.part.hbond>
-2.0000

> <Gold.PLP.part.metal>
0.0000

> <Gold.PLP.part.buried>
-3.8031

> <Gold.PLP.part.nonpolar>
-37.4796

> <Gold.PLP.part.repulsive>
0.1092

> <Gold.PLP.ligand.clash>
0.0000

> <Gold.PLP.ligand.torsion>
1.2915

> <Gold.PLP.Chemscore.Hbond>
2.0000

> <Gold.PLP.Chemscore.CHOScore>
0.0000

> <Gold.PLP.Chemscore.Metal>
0.0000

> <Gold.Chemscore.Hbonds>
donor molecule, donor type, donor heavy atom, donor atom, acceptor molecule, acceptor atom, score
      L1  H    14    39       P1  7957  1.00
      P1  H  7997  8008       L1     9  1.00

> <Gold.PLP.Chemscore.Internal.Correction>
0.0656

> <Gold.Rescore>
     Score         DG    S(hbond)    S(metal)    S(lipo)     H(rot)  DE(clash)    DE(int)     intcor
     17.95     -20.07       1.93        0.00     128.02       2.68       0.07       2.05       ----

> <Gold.Chemscore.Fitness>
17.9453

> <Gold.Chemscore.DG>
-20.0675

> <Gold.Chemscore.ZeroCoef>
-5.4800

> <Gold.Chemscore.Hbond>
1.9341

> <Gold.Chemscore.Metal>
0.0000

> <Gold.Chemscore.Lipo>
128.0189

> <Gold.Chemscore.Internal_Hbond>
0.0000

> <Gold.Chemscore.DEClash>
0.0682

> <Gold.Chemscore.DEInternal>
2.0540

> <Gold.Chemscore.Rot>
2.6761

> <Gold.Chemscore.Internal.Correction>
   9.000000E+99

> <Gold.Chemscore.Hbonds>
donor molecule, donor type, donor heavy atom, donor atom, acceptor molecule, acceptor atom, score
      L1  H    14    39       P1  7957  1.00
      P1  H  7997  8008       L1     9  0.94

> <Gold.Chemscore.Hbond.Weighted>
-6.4600

> <Gold.Chemscore.Metal.Weighted>
-0.0000

> <Gold.Chemscore.Lipo.Weighted>
-14.9782

> <Gold.Chemscore.Internal_Hbond.Weighted>
0.0000

> <Gold.Chemscore.DEClash.Weighted>
0.0682

> <Gold.Chemscore.DEInternal.Weighted>
2.0540

> <Gold.Chemscore.Rot.Weighted>
6.8507

> <Gold.Chemscore.Internal.Correction.Weighted>
   9.000000E+99

> <Gold.Protein.RotatedTorsions>
[ 6907 6896 6895 6894 ] final -120.57 input  -60.11 | X-H torsion
[ 7974 7965 7964 7962 ] final   70.94 input  175.53 | X-H torsion
[ 8008 7997 7996 7995 ] final  -18.70 input   59.86 | X-H torsion
[ 10167 10162 10161 10158 ] final -178.22 input  -65.29 | X-H torsion
[ 10718 10713 10712 10709 ] final  -78.73 input   66.30 | X-H torsion
[ 10763 10752 10751 10750 ] final  -18.46 input  -60.55 | X-H torsion
[ 11005 11000 10999 10996 ] final  127.10 input  -57.11 | X-H torsion

> <Gold.Protein.ActiveResidues>
 VAL166  LYS551  ARG553  GLY616  TRP617  ASP618  TYR619  PRO620  LYS621  CYS622 
 ASP623  PHE694  ASN695  SER759  ASP760  ASP761  ALA762  ILE779  LEU786  VAL792 
 PHE793  MET794  SER795  GLU796  ALA797  LYS798  CYS799  TRP800  GLU811  SER814 

> <Gold.Protein.RotatedAtoms>
  150.8405  133.7944  159.3062 H   0  0  0  0  0  0  0  0  0  0  0  0  # atno 6907 bound_to 6896
  151.5647  135.1063  159.9990 H   0  0  0  0  0  0  0  0  0  0  0  0  # atno 6908 bound_to 6896
  152.4469  133.7512  159.6751 H   0  0  0  0  0  0  0  0  0  0  0  0  # atno 6909 bound_to 6896
  145.7719  139.2847  143.1316 H   0  0  0  0  0  0  0  0  0  0  0  0  # atno 7974 bound_to 7965
  154.4887  140.2108  155.9596 H   0  0  0  0  0  0  0  0  0  0  0  0  # atno 8008 bound_to 7997
  156.1274  140.3203  155.8267 H   0  0  0  0  0  0  0  0  0  0  0  0  # atno 8009 bound_to 7997
  155.4358  140.0506  157.3005 H   0  0  0  0  0  0  0  0  0  0  0  0  # atno 8010 bound_to 7997
  139.5442  144.2279  152.0956 H   0  0  0  0  0  0  0  0  0  0  0  0  # atno 10167 bound_to 10162
  156.0110  130.4526  150.3541 H   0  0  0  0  0  0  0  0  0  0  0  0  # atno 10718 bound_to 10713
  153.5897  135.7003  153.5428 H   0  0  0  0  0  0  0  0  0  0  0  0  # atno 10763 bound_to 10752
  153.3189  135.4080  155.1399 H   0  0  0  0  0  0  0  0  0  0  0  0  # atno 10764 bound_to 10752
  154.8603  135.3690  154.5428 H   0  0  0  0  0  0  0  0  0  0  0  0  # atno 10765 bound_to 10752
  139.9490  134.9625  156.8804 H   0  0  0  0  0  0  0  0  0  0  0  0  # atno 11005 bound_to 11000
  146.0161  140.8391  142.9946 LP  0  0  0  0  0  0  0  0  0  0  0  0  # atno 17320 bound_to 7965
  144.6811  140.2560  143.7325 LP  0  0  0  0  0  0  0  0  0  0  0  0  # atno 17321 bound_to 7965
  140.1763  144.4887  150.6552 LP  0  0  0  0  0  0  0  0  0  0  0  0  # atno 17342 bound_to 10162
  140.6685  143.2276  151.5685 LP  0  0  0  0  0  0  0  0  0  0  0  0  # atno 17343 bound_to 10162
  157.1632  131.0350  151.2831 LP  0  0  0  0  0  0  0  0  0  0  0  0  # atno 17370 bound_to 10713
  157.4293  130.7481  149.6977 LP  0  0  0  0  0  0  0  0  0  0  0  0  # atno 17371 bound_to 10713
  140.5765  134.0393  155.7449 LP  0  0  0  0  0  0  0  0  0  0  0  0  # atno 17394 bound_to 11000
  141.1148  133.9558  157.2843 LP  0  0  0  0  0  0  0  0  0  0  0  0  # atno 17395 bound_to 11000

$$$$
