AV-unprocessed.smi:1496|AV-procd|sdf|6056|dock2
  -GOLD-   22720 6173D 1   1.00000     0.00000
 Structure written by MMmdl.
 43 44  0  0  0  0  0  0  0  0  2 V2000
  143.4979  140.9875  155.4583 C   0  0  0  0  0  0  0  0  0  0  0  0
  144.8590  141.4098  156.0524 C   0  0  0  0  0  0  0  0  0  0  0  0
  144.9276  140.9562  157.5198 C   0  0  0  0  0  0  0  0  0  0  0  0
  146.0484  140.8132  155.2631 C   0  0  0  0  0  0  0  0  0  0  0  0
  146.1847  141.4347  153.9234 N   0  3  2  0  0  0  0  0  0  0  0  0
  147.2743  140.8185  153.1257 C   0  0  0  0  0  0  0  0  0  0  0  0
  148.4449  140.3295  154.0004 C   0  0  0  0  0  0  0  0  0  0  0  0
  148.9895  141.4111  154.8131 N   0  0  0  0  0  0  0  0  0  0  0  0
  149.9730  141.2720  155.7134 C   0  0  0  0  0  0  0  0  0  0  0  0
  150.5289  140.1980  155.9407 O   0  0  0  0  0  0  0  0  0  0  0  0
  150.2572  142.4444  156.3067 N   0  0  0  0  0  0  0  0  0  0  0  0
  151.2049  142.7314  157.3283 C   0  0  0  0  0  0  0  0  0  0  0  0
  151.7546  141.7732  158.2153 C   0  0  0  0  0  0  0  0  0  0  0  0
  152.6772  142.1990  159.1903 C   0  0  0  0  0  0  0  0  0  0  0  0
  153.0138  143.5650  159.2483 C   0  0  0  0  0  0  0  0  0  0  0  0
  152.4924  144.4906  158.4162 N   0  0  0  0  0  0  0  0  0  0  0  0
  151.6089  144.0749  157.4839 C   0  0  0  0  0  0  0  0  0  0  0  0
  146.3002  142.9067  154.0517 C   0  0  0  0  0  0  0  0  0  0  0  0
  145.0965  143.4691  154.8210 C   0  0  0  0  0  0  0  0  0  0  0  0
  144.9853  142.8335  156.0908 O   0  0  0  0  0  0  0  0  0  0  0  0
  143.3538  139.9099  155.5413 H   0  0  0  0  0  0  0  0  0  0  0  0
  143.4066  141.2382  154.4020 H   0  0  0  0  0  0  0  0  0  0  0  0
  142.6737  141.4698  155.9847 H   0  0  0  0  0  0  0  0  0  0  0  0
  144.8615  139.8709  157.6037 H   0  0  0  0  0  0  0  0  0  0  0  0
  144.1120  141.3833  158.1043 H   0  0  0  0  0  0  0  0  0  0  0  0
  145.8620  141.2673  157.9880 H   0  0  0  0  0  0  0  0  0  0  0  0
  146.9787  140.9672  155.8129 H   0  0  0  0  0  0  0  0  0  0  0  0
  145.9197  139.7344  155.1627 H   0  0  0  0  0  0  0  0  0  0  0  0
  146.8753  140.0021  152.5215 H   0  0  0  0  0  0  0  0  0  0  0  0
  147.6557  141.5623  152.4246 H   0  0  0  0  0  0  0  0  0  0  0  0
  148.1271  139.5045  154.6404 H   0  0  0  0  0  0  0  0  0  0  0  0
  149.2585  139.9492  153.3839 H   0  0  0  0  0  0  0  0  0  0  0  0
  148.5879  142.3286  154.6836 H   0  0  0  0  0  0  0  0  0  0  0  0
  149.7427  143.2439  155.9673 H   0  0  0  0  0  0  0  0  0  0  0  0
  151.4885  140.7292  158.1815 H   0  0  0  0  0  0  0  0  0  0  0  0
  153.1151  141.4934  159.8807 H   0  0  0  0  0  0  0  0  0  0  0  0
  153.7173  143.9238  159.9851 H   0  0  0  0  0  0  0  0  0  0  0  0
  151.2112  144.8443  156.8382 H   0  0  0  0  0  0  0  0  0  0  0  0
  147.2265  143.1585  154.5704 H   0  0  0  0  0  0  0  0  0  0  0  0
  146.3452  143.3778  153.0708 H   0  0  0  0  0  0  0  0  0  0  0  0
  145.2260  144.5396  154.9811 H   0  0  0  0  0  0  0  0  0  0  0  0
  144.1770  143.3541  154.2470 H   0  0  0  0  0  0  0  0  0  0  0  0
  145.3228  141.2432  153.4327 H   0  0  0  0  0  0  0  0  0  0  0  0
  1  2  1  0  0  0  0
  1 21  1  0  0  0  0
  1 22  1  0  0  0  0
  1 23  1  0  0  0  0
  2 20  1  0  0  0  0
  2  3  1  0  0  0  0
  2  4  1  0  0  0  0
  3 24  1  0  0  0  0
  3 25  1  0  0  0  0
  3 26  1  0  0  0  0
  4  5  1  0  0  0  0
  4 27  1  0  0  0  0
  4 28  1  0  0  0  0
  5  6  1  0  0  0  0
  5 18  1  0  0  0  0
  5 43  1  0  0  0  0
  6  7  1  0  0  0  0
  6 29  1  0  0  0  0
  6 30  1  0  0  0  0
  7  8  1  0  0  0  0
  7 31  1  0  0  0  0
  7 32  1  0  0  0  0
  8  9  1  0  0  0  0
  8 33  1  0  0  0  0
  9 10  2  0  0  0  0
  9 11  1  0  0  0  0
 11 12  1  0  0  0  0
 11 34  1  0  0  0  0
 12 17  1  0  0  0  0
 12 13  2  0  0  0  0
 13 14  1  0  0  0  0
 13 35  1  0  0  0  0
 14 15  2  0  0  0  0
 14 36  1  0  0  0  0
 15 16  1  0  0  0  0
 15 37  1  0  0  0  0
 16 17  2  0  0  0  0
 17 38  1  0  0  0  0
 18 19  1  0  0  0  0
 18 39  1  0  0  0  0
 18 40  1  0  0  0  0
 19 20  1  0  0  0  0
 19 41  1  0  0  0  0
 19 42  1  0  0  0  0
M  CHG  1   5   1
M  END
> <s_m_source_file>
AV-unprocessed.smi

> <i_m_source_file_index>
1496

> <i_lp_mmshare_version>
43012

> <i_f3d_flags>
0

> <s_epik_input>
W0NIM11DMShbQ0gzXSlbQ0gyXU4oW0NIMl1bQ0gyXU8xKVtDSDJdW0NIMl1bTkhdQyg9TylbTkhdYzJbY0hdW2NIXVtjSF1uW2NIXTI=

> <s_epik_cmdline>
J2VwaWtfcHl0aG9uJywgJy1waCcsICc3LjAnLCAnLXRuJywgJzgnLCAnLW1hJywgJzIwMCcsICctbWV0YWxfYmluZGluZycsICctaW1hZScsICc8aW5maWxlLm1hZT4nLCAnLW9tYWUnLCAnPG91dGZpbGUubWFlPic=

> <r_epik_Ionization_Penalty>
0.606681

> <r_epik_Ionization_Penalty_Charging>
0.602531

> <r_epik_Ionization_Penalty_Neutral>
0.00415082

> <r_epik_State_Penalty>
0.607427

> <r_epik_Charging_Adjusted_Penalty>
1.20996

> <i_epik_Tot_Q>
1

> <i_epik_Tot_abs_Q>
1

> <r_epik_Metal_State_Penalty>
0.604583

> <b_epik_Metal_Only>
0

> <s_lp_Force_Field>
OPLS_2005

> <r_lp_Energy>
20.8776

> <b_lp_Chiralities_Consistent>
1

> <s_lp_Variant>
AV-unprocessed.smi:1496-2

> <Gold.Version>
5.8.1

> <Gold.Id.Protein>
6NUR|6NUR_protein|mol2

> <Gold.PLP.Fitness>
45.5488

> <Gold.PLP.PLP>
-34.6415

> <Gold.PLP.part.hbond>
-2.0000

> <Gold.PLP.part.metal>
0.0000

> <Gold.PLP.part.buried>
-7.1710

> <Gold.PLP.part.nonpolar>
-27.5183

> <Gold.PLP.part.repulsive>
0.3512

> <Gold.PLP.ligand.clash>
0.0000

> <Gold.PLP.ligand.torsion>
0.4849

> <Gold.PLP.Chemscore.Hbond>
2.9825

> <Gold.PLP.Chemscore.CHOScore>
0.9676

> <Gold.PLP.Chemscore.Metal>
0.0000

> <Gold.Chemscore.Hbonds>
donor molecule, donor type, donor heavy atom, donor atom, acceptor molecule, acceptor atom, score
      L1  H     5    43       P1 10175  1.98
      L1  H    11    34       P1  8028  1.00
      L1  C    17    38       P1  8028  0.83

> <Gold.PLP.Chemscore.Internal.Correction>
0.0267

> <Gold.Rescore>
     Score         DG    S(hbond)    S(metal)    S(lipo)     H(rot)  DE(clash)    DE(int)     intcor
     16.19     -17.57       1.83        0.00      83.87       1.50       0.01       1.36       ----

> <Gold.Chemscore.Fitness>
16.1918

> <Gold.Chemscore.DG>
-17.5683

> <Gold.Chemscore.ZeroCoef>
-5.4800

> <Gold.Chemscore.Hbond>
1.8317

> <Gold.Chemscore.Metal>
0.0000

> <Gold.Chemscore.Lipo>
83.8714

> <Gold.Chemscore.Internal_Hbond>
0.0000

> <Gold.Chemscore.DEClash>
0.0144

> <Gold.Chemscore.DEInternal>
1.3621

> <Gold.Chemscore.Rot>
1.5010

> <Gold.Chemscore.Internal.Correction>
   9.000000E+99

> <Gold.Chemscore.Hbonds>
donor molecule, donor type, donor heavy atom, donor atom, acceptor molecule, acceptor atom, score
      L1  H     5    43       P1 10175  0.28
      L1  H    11    34       P1  8028  1.00

> <Gold.Chemscore.Hbond.Weighted>
-6.1179

> <Gold.Chemscore.Metal.Weighted>
-0.0000

> <Gold.Chemscore.Lipo.Weighted>
-9.8130

> <Gold.Chemscore.Internal_Hbond.Weighted>
0.0000

> <Gold.Chemscore.DEClash.Weighted>
0.0144

> <Gold.Chemscore.DEInternal.Weighted>
1.3621

> <Gold.Chemscore.Rot.Weighted>
3.8426

> <Gold.Chemscore.Internal.Correction.Weighted>
   9.000000E+99

> <Gold.Protein.RotatedTorsions>
[ 6907 6896 6895 6894 ] final  -37.54 input  -60.11 | X-H torsion
[ 7974 7965 7964 7962 ] final -128.35 input  175.53 | X-H torsion
[ 8008 7997 7996 7995 ] final  166.22 input   59.86 | X-H torsion
[ 10167 10162 10161 10158 ] final -148.65 input  -65.29 | X-H torsion
[ 10718 10713 10712 10709 ] final   93.98 input   66.30 | X-H torsion
[ 10763 10752 10751 10750 ] final  115.05 input  -60.55 | X-H torsion
[ 11005 11000 10999 10996 ] final  -51.58 input  -57.11 | X-H torsion

> <Gold.Protein.ActiveResidues>
 VAL166  LYS551  ARG553  GLY616  TRP617  ASP618  TYR619  PRO620  LYS621  CYS622 
 ASP623  PHE694  ASN695  SER759  ASP760  ASP761  ALA762  ILE779  LEU786  VAL792 
 PHE793  MET794  SER795  GLU796  ALA797  LYS798  CYS799  TRP800  GLU811  SER814 

> <Gold.Protein.RotatedAtoms>
  151.0135  134.9415  159.8019 H   0  0  0  0  0  0  0  0  0  0  0  0  # atno 6907 bound_to 6896
  152.5308  134.2997  159.9084 H   0  0  0  0  0  0  0  0  0  0  0  0  # atno 6908 bound_to 6896
  151.3004  133.4083  159.2673 H   0  0  0  0  0  0  0  0  0  0  0  0  # atno 6909 bound_to 6896
  144.9679  140.7515  143.4689 H   0  0  0  0  0  0  0  0  0  0  0  0  # atno 7974 bound_to 7965
  156.1737  140.1649  156.8402 H   0  0  0  0  0  0  0  0  0  0  0  0  # atno 8008 bound_to 7997
  154.5283  140.0762  156.8333 H   0  0  0  0  0  0  0  0  0  0  0  0  # atno 8009 bound_to 7997
  155.3459  140.3387  155.4241 H   0  0  0  0  0  0  0  0  0  0  0  0  # atno 8010 bound_to 7997
  139.7513  143.8514  152.2587 H   0  0  0  0  0  0  0  0  0  0  0  0  # atno 10167 bound_to 10162
  157.6951  131.0497  150.4116 H   0  0  0  0  0  0  0  0  0  0  0  0  # atno 10718 bound_to 10713
  153.5163  135.3607  155.2611 H   0  0  0  0  0  0  0  0  0  0  0  0  # atno 10763 bound_to 10752
  154.8738  135.4035  154.3310 H   0  0  0  0  0  0  0  0  0  0  0  0  # atno 10764 bound_to 10752
  153.3973  135.7074  153.6518 H   0  0  0  0  0  0  0  0  0  0  0  0  # atno 10765 bound_to 10752
  141.0878  133.6638  156.3898 H   0  0  0  0  0  0  0  0  0  0  0  0  # atno 11005 bound_to 11000
  145.2602  139.1995  143.4896 LP  0  0  0  0  0  0  0  0  0  0  0  0  # atno 17320 bound_to 7965
  146.3373  140.2531  142.8599 LP  0  0  0  0  0  0  0  0  0  0  0  0  # atno 17321 bound_to 7965
  139.8493  144.7172  150.9233 LP  0  0  0  0  0  0  0  0  0  0  0  0  # atno 17342 bound_to 10162
  140.7798  143.3913  151.1305 LP  0  0  0  0  0  0  0  0  0  0  0  0  # atno 17343 bound_to 10162
  156.4500  130.4009  149.6642 LP  0  0  0  0  0  0  0  0  0  0  0  0  # atno 17370 bound_to 10713
  156.3795  130.7572  151.2563 LP  0  0  0  0  0  0  0  0  0  0  0  0  # atno 17371 bound_to 10713
  140.5321  134.6202  157.5353 LP  0  0  0  0  0  0  0  0  0  0  0  0  # atno 17394 bound_to 11000
  139.9699  134.7310  156.0062 LP  0  0  0  0  0  0  0  0  0  0  0  0  # atno 17395 bound_to 11000

$$$$
