AV-unprocessed.smi:3268|AV-procd|sdf|12508|dock3
  -GOLD-   2272018413D 1   1.00000     0.00000
 Structure written by MMmdl.
 40 41  0  0  0  0  0  0  0  0  2 V2000
  147.0635  132.9585  152.8221 C   0  0  0  0  0  0  0  0  0  0  0  0
  146.5094  133.9302  151.7609 C   0  0  2  0  0  0  0  0  0  0  0  0
  145.7675  135.1121  152.4023 C   0  0  0  0  0  0  0  0  0  0  0  0
  144.7208  134.9283  153.0246 O   0  0  0  0  0  0  0  0  0  0  0  0
  146.3199  136.3258  152.2446 N   0  0  0  0  0  0  0  0  0  0  0  0
  145.7722  137.5691  152.7756 C   0  0  0  0  0  0  0  0  0  0  0  0
  146.6829  138.7722  152.4593 C   0  0  0  0  0  0  0  0  0  0  0  0
  146.2991  139.9879  153.2202 N   0  3  0  0  0  0  0  0  0  0  0  0
  146.1471  139.7156  154.6740 C   0  0  0  0  0  0  0  0  0  0  0  0
  145.6244  140.9527  155.4236 C   0  0  0  0  0  0  0  0  0  0  0  0
  146.5365  142.1634  155.1898 C   0  0  0  0  0  0  0  0  0  0  0  0
  146.7019  142.4092  153.6848 C   0  0  0  0  0  0  0  0  0  0  0  0
  147.2040  141.1426  152.9711 C   0  0  0  0  0  0  0  0  0  0  0  0
  145.6498  133.2626  150.7904 N   0  0  0  0  0  0  0  0  0  0  0  0
  145.9154  132.2443  149.9690 C   0  0  0  0  0  0  0  0  0  0  0  0
  144.9060  131.9132  149.1761 N   0  0  0  0  0  0  0  0  0  0  0  0
  143.9867  132.8400  149.5783 C   0  0  0  0  0  0  0  0  0  0  0  0
  144.3845  133.6800  150.5336 N   0  0  0  0  0  0  0  0  0  0  0  0
  147.7465  133.4691  153.5020 H   0  0  0  0  0  0  0  0  0  0  0  0
  147.6189  132.1462  152.3524 H   0  0  0  0  0  0  0  0  0  0  0  0
  146.2726  132.5115  153.4259 H   0  0  0  0  0  0  0  0  0  0  0  0
  147.3637  134.3249  151.2079 H   0  0  0  0  0  0  0  0  0  0  0  0
  147.1791  136.3916  151.7176 H   0  0  0  0  0  0  0  0  0  0  0  0
  144.7850  137.7016  152.3342 H   0  0  0  0  0  0  0  0  0  0  0  0
  145.6212  137.4766  153.8525 H   0  0  0  0  0  0  0  0  0  0  0  0
  147.7079  138.5038  152.7186 H   0  0  0  0  0  0  0  0  0  0  0  0
  146.6857  138.9880  151.3897 H   0  0  0  0  0  0  0  0  0  0  0  0
  145.4497  138.8903  154.8243 H   0  0  0  0  0  0  0  0  0  0  0  0
  147.1060  139.4003  155.0888 H   0  0  0  0  0  0  0  0  0  0  0  0
  144.6131  141.1852  155.0872 H   0  0  0  0  0  0  0  0  0  0  0  0
  145.5537  140.7400  156.4909 H   0  0  0  0  0  0  0  0  0  0  0  0
  146.1224  143.0485  155.6738 H   0  0  0  0  0  0  0  0  0  0  0  0
  147.5117  141.9849  155.6448 H   0  0  0  0  0  0  0  0  0  0  0  0
  145.7476  142.7182  153.2560 H   0  0  0  0  0  0  0  0  0  0  0  0
  147.3978  143.2321  153.5170 H   0  0  0  0  0  0  0  0  0  0  0  0
  148.2109  140.8968  153.3125 H   0  0  0  0  0  0  0  0  0  0  0  0
  147.2751  141.3456  151.9034 H   0  0  0  0  0  0  0  0  0  0  0  0
  146.8680  131.7356  149.9490 H   0  0  0  0  0  0  0  0  0  0  0  0
  142.9968  132.9014  149.1505 H   0  0  0  0  0  0  0  0  0  0  0  0
  145.3820  140.2532  152.8898 H   0  0  0  0  0  0  0  0  0  0  0  0
  1  2  1  0  0  0  0
  1 19  1  0  0  0  0
  1 20  1  0  0  0  0
  1 21  1  0  0  0  0
  2  3  1  0  0  0  0
  2 14  1  0  0  0  0
  2 22  1  0  0  0  0
  3  4  2  0  0  0  0
  3  5  1  0  0  0  0
  5  6  1  0  0  0  0
  5 23  1  0  0  0  0
  6  7  1  0  0  0  0
  6 24  1  0  0  0  0
  6 25  1  0  0  0  0
  7  8  1  0  0  0  0
  7 26  1  0  0  0  0
  7 27  1  0  0  0  0
  8 13  1  0  0  0  0
  8  9  1  0  0  0  0
  8 40  1  0  0  0  0
  9 10  1  0  0  0  0
  9 28  1  0  0  0  0
  9 29  1  0  0  0  0
 10 11  1  0  0  0  0
 10 30  1  0  0  0  0
 10 31  1  0  0  0  0
 11 12  1  0  0  0  0
 11 32  1  0  0  0  0
 11 33  1  0  0  0  0
 12 13  1  0  0  0  0
 12 34  1  0  0  0  0
 12 35  1  0  0  0  0
 13 36  1  0  0  0  0
 13 37  1  0  0  0  0
 14 18  1  0  0  0  0
 14 15  1  0  0  0  0
 15 16  2  0  0  0  0
 15 38  1  0  0  0  0
 16 17  1  0  0  0  0
 17 18  2  0  0  0  0
 17 39  1  0  0  0  0
M  CHG  1   8   1
M  END
> <s_m_source_file>
AV-unprocessed.smi

> <i_m_source_file_index>
3268

> <i_lp_mmshare_version>
43012

> <i_f3d_flags>
0

> <s_epik_input>
bjFbY0hdbltjSF1uMVtDQEhdKFtDSDNdKUMoPU8pW05IXVtDSDJdW0NIMl1OMltDSDJdW0NIMl1bQ0gyXVtDSDJdW0NIMl0y

> <s_epik_cmdline>
J2VwaWtfcHl0aG9uJywgJy1waCcsICc3LjAnLCAnLXRuJywgJzgnLCAnLW1hJywgJzIwMCcsICctbWV0YWxfYmluZGluZycsICctaW1hZScsICc8aW5maWxlLm1hZT4nLCAnLW9tYWUnLCAnPG91dGZpbGUubWFlPic=

> <r_lp_tautomer_probability>
1

> <r_epik_Ionization_Penalty>
0.00266407

> <r_epik_Ionization_Penalty_Charging>
0.00265606

> <r_epik_Ionization_Penalty_Neutral>
8.01095e-06

> <r_epik_State_Penalty>
0.00184955

> <r_epik_Charging_Adjusted_Penalty>
0.00450561

> <i_epik_Tot_Q>
1

> <i_epik_Tot_abs_Q>
1

> <r_epik_Metal_State_Penalty>
-0

> <b_epik_Metal_Only>
0

> <s_lp_Force_Field>
OPLS_2005

> <r_lp_Energy>
22.0187

> <b_lp_Chiralities_Consistent>
1

> <s_lp_Variant>
AV-unprocessed.smi:3268-1

> <Gold.Version>
5.8.1

> <Gold.Id.Protein>
6NUR|6NUR_protein|mol2

> <Gold.PLP.Fitness>
46.4853

> <Gold.PLP.PLP>
-31.8034

> <Gold.PLP.part.hbond>
-3.0204

> <Gold.PLP.part.metal>
0.0000

> <Gold.PLP.part.buried>
-5.3628

> <Gold.PLP.part.nonpolar>
-23.8676

> <Gold.PLP.part.repulsive>
0.4821

> <Gold.PLP.ligand.clash>
0.0000

> <Gold.PLP.ligand.torsion>
0.1237

> <Gold.PLP.Chemscore.Hbond>
2.9280

> <Gold.PLP.Chemscore.CHOScore>
1.9963

> <Gold.PLP.Chemscore.Metal>
0.0000

> <Gold.Chemscore.Hbonds>
donor molecule, donor type, donor heavy atom, donor atom, acceptor molecule, acceptor atom, score
      L1  H     5    23       P1  7948  0.90
      L1  H     8    40       P1 10175  2.00
      L1  C    15    38       P1 10747  1.00
      L1  C    17    39       P1 10186  1.00

> <Gold.PLP.Chemscore.Internal.Correction>
0.1566

> <Gold.Rescore>
     Score         DG    S(hbond)    S(metal)    S(lipo)     H(rot)  DE(clash)    DE(int)     intcor
      9.35     -10.74       1.97        0.00      44.87       2.57       0.02       1.37       ----

> <Gold.Chemscore.Fitness>
9.3546

> <Gold.Chemscore.DG>
-10.7407

> <Gold.Chemscore.ZeroCoef>
-5.4800

> <Gold.Chemscore.Hbond>
1.9721

> <Gold.Chemscore.Metal>
0.0000

> <Gold.Chemscore.Lipo>
44.8741

> <Gold.Chemscore.Internal_Hbond>
0.0000

> <Gold.Chemscore.DEClash>
0.0178

> <Gold.Chemscore.DEInternal>
1.3682

> <Gold.Chemscore.Rot>
2.5690

> <Gold.Chemscore.Internal.Correction>
   9.000000E+99

> <Gold.Chemscore.Hbonds>
donor molecule, donor type, donor heavy atom, donor atom, acceptor molecule, acceptor atom, score
      L1  H     5    23       P1  7948  0.87
      L1  H     8    40       P1 10175  0.97

> <Gold.Chemscore.Hbond.Weighted>
-6.5870

> <Gold.Chemscore.Metal.Weighted>
-0.0000

> <Gold.Chemscore.Lipo.Weighted>
-5.2503

> <Gold.Chemscore.Internal_Hbond.Weighted>
0.0000

> <Gold.Chemscore.DEClash.Weighted>
0.0178

> <Gold.Chemscore.DEInternal.Weighted>
1.3682

> <Gold.Chemscore.Rot.Weighted>
6.5766

> <Gold.Chemscore.Internal.Correction.Weighted>
   9.000000E+99

> <Gold.Protein.RotatedTorsions>
[ 6907 6896 6895 6894 ] final  177.90 input  -60.11 | X-H torsion
[ 7974 7965 7964 7962 ] final  -18.90 input  175.53 | X-H torsion
[ 8008 7997 7996 7995 ] final  125.95 input   59.86 | X-H torsion
[ 10167 10162 10161 10158 ] final  -12.42 input  -65.29 | X-H torsion
[ 10718 10713 10712 10709 ] final -121.62 input   66.30 | X-H torsion
[ 10763 10752 10751 10750 ] final  115.39 input  -60.55 | X-H torsion
[ 11005 11000 10999 10996 ] final  -67.28 input  -57.11 | X-H torsion

> <Gold.Protein.ActiveResidues>
 VAL166  LYS551  ARG553  GLY616  TRP617  ASP618  TYR619  PRO620  LYS621  CYS622 
 ASP623  PHE694  ASN695  SER759  ASP760  ASP761  ALA762  ILE779  LEU786  VAL792 
 PHE793  MET794  SER795  GLU796  ALA797  LYS798  CYS799  TRP800  GLU811  SER814 

> <Gold.Protein.RotatedAtoms>
  151.6966  133.3311  159.3255 H   0  0  0  0  0  0  0  0  0  0  0  0  # atno 6907 bound_to 6896
  150.7755  134.6652  159.6371 H   0  0  0  0  0  0  0  0  0  0  0  0  # atno 6908 bound_to 6896
  152.3795  134.6615  160.0200 H   0  0  0  0  0  0  0  0  0  0  0  0  # atno 6909 bound_to 6896
  146.1869  140.3987  142.8473 H   0  0  0  0  0  0  0  0  0  0  0  0  # atno 7974 bound_to 7965
  156.2849  140.2704  156.2032 H   0  0  0  0  0  0  0  0  0  0  0  0  # atno 8008 bound_to 7997
  155.0340  140.0386  157.2502 H   0  0  0  0  0  0  0  0  0  0  0  0  # atno 8009 bound_to 7997
  154.7330  140.2710  155.6444 H   0  0  0  0  0  0  0  0  0  0  0  0  # atno 8010 bound_to 7997
  140.7161  143.5534  150.9275 H   0  0  0  0  0  0  0  0  0  0  0  0  # atno 10167 bound_to 10162
  156.1352  130.6425  150.9685 H   0  0  0  0  0  0  0  0  0  0  0  0  # atno 10718 bound_to 10713
  153.5215  135.3597  155.2634 H   0  0  0  0  0  0  0  0  0  0  0  0  # atno 10763 bound_to 10752
  154.8734  135.4046  154.3254 H   0  0  0  0  0  0  0  0  0  0  0  0  # atno 10764 bound_to 10752
  153.3926  135.7072  153.6551 H   0  0  0  0  0  0  0  0  0  0  0  0  # atno 10765 bound_to 10752
  141.1504  133.6716  156.6268 H   0  0  0  0  0  0  0  0  0  0  0  0  # atno 11005 bound_to 11000
  144.8413  140.6861  143.6227 LP  0  0  0  0  0  0  0  0  0  0  0  0  # atno 17320 bound_to 7965
  145.3912  139.1616  143.4228 LP  0  0  0  0  0  0  0  0  0  0  0  0  # atno 17321 bound_to 7965
  139.9259  143.6551  152.3087 LP  0  0  0  0  0  0  0  0  0  0  0  0  # atno 17342 bound_to 10162
  139.6984  144.7638  151.1316 LP  0  0  0  0  0  0  0  0  0  0  0  0  # atno 17343 bound_to 10162
  157.6526  131.0894  150.8018 LP  0  0  0  0  0  0  0  0  0  0  0  0  # atno 17370 bound_to 10713
  156.8099  130.4949  149.5357 LP  0  0  0  0  0  0  0  0  0  0  0  0  # atno 17371 bound_to 10713
  140.3498  134.7778  157.4458 LP  0  0  0  0  0  0  0  0  0  0  0  0  # atno 17394 bound_to 11000
  140.0870  134.5653  155.8482 LP  0  0  0  0  0  0  0  0  0  0  0  0  # atno 17395 bound_to 11000

$$$$
