#       Name:                AV-unprocessed.smi:1756
#       Creating user name   scv26
#       Creation time:       Fri Mar 27 08:29:29 2020


#       File generated by GOLD software.
#

@<TRIPOS>MOLECULE
AV-unprocessed.smi:1756
    44    45     1
SMALL
NO_CHARGES


@<TRIPOS>ATOM
      1 ****         0.2403   1.0548   0.9436 O.2            1 S1                 0.0000
      2 ****        -0.3148  -0.0310   1.1104 C.2            1 S1                 0.0000
      3 ****         0.3508  -1.1922   1.1870 N.am           1 S1                 0.0000
      4 ****         1.7986  -1.3491   1.0888 C.3            1 S1                 0.0000
      5 ****         2.2389  -1.8075  -0.3135 C.3            1 S1                 0.0000
      6 ****         1.9911  -0.7526  -1.4134 C.3            1 S1                 0.0000
      7 ****         2.5470  -1.2308  -2.7593 C.3            1 S1                 0.0000
      8 ****         4.0140  -1.6404  -2.5987 C.3            1 S1                 0.0000
      9 ****         4.1622  -2.6480  -1.4484 C.3            1 S1                 0.0000
     10 ****         3.6346  -2.0933  -0.2471 O.3            1 S1                 0.0000
     11 ****        -1.6399  -0.2355   1.2177 N.am           1 S1                 0.0000
     12 ****        -2.6957   0.6922   1.2017 C.2            1 S1                 0.0000
     13 ****        -2.5533   2.0406   1.3324 C.2            1 S1                 0.0000
     14 ****        -3.6921   2.9502   1.3213 C.2            1 S1                 0.0000
     15 ****        -3.5610   4.4625   1.3649 C.3            1 S1                 0.0000
     16 ****        -4.5251   5.0497   0.6553 F              1 S1                 0.0000
     17 ****        -3.6528   4.8894   2.6235 F              1 S1                 0.0000
     18 ****        -2.3829   4.8532   0.8784 F              1 S1                 0.0000
     19 ****        -4.8921   2.2862   1.1557 C.2            1 S1                 0.0000
     20 ****        -5.1218   0.9595   1.0456 N.pl3          1 S1                -1.0000
     21 ****        -4.0498   0.1181   1.0587 C.2            1 S1                 0.0000
     22 ****        -4.1879  -1.1014   0.9555 O.2            1 S1                 0.0000
     23 ****        -0.1874  -2.0359   1.3191 H              1 S1                 0.0000
     24 ****         2.3177  -0.4319   1.3723 H              1 S1                 0.0000
     25 ****         2.0919  -2.1006   1.8223 H              1 S1                 0.0000
     26 ****         1.7068  -2.7274  -0.5629 H              1 S1                 0.0000
     27 ****         0.9260  -0.5450  -1.5156 H              1 S1                 0.0000
     28 ****         2.4669   0.1881  -1.1336 H              1 S1                 0.0000
     29 ****         1.9641  -2.0816  -3.1146 H              1 S1                 0.0000
     30 ****         2.4494  -0.4471  -3.5108 H              1 S1                 0.0000
     31 ****         4.3909  -2.0684  -3.5279 H              1 S1                 0.0000
     32 ****         4.6205  -0.7583  -2.3901 H              1 S1                 0.0000
     33 ****         3.6555  -3.5853  -1.6829 H              1 S1                 0.0000
     34 ****         5.2145  -2.8864  -1.2927 H              1 S1                 0.0000
     35 ****        -1.9388  -1.1970   1.2911 H              1 S1                 0.0000
     36 ****        -1.5822   2.4860   1.4689 H              1 S1                 0.0000
     37 ****        -5.8053   2.9163   1.0981 H              1 S1                 0.0000
     38 ****         1.2357   1.0996   0.8581 LP             1 S1                 0.0000
     39 ****        -0.3040   1.8922   0.8935 LP             1 S1                 0.0000
     40 ****         3.7887  -2.7446   0.4959 LP             1 S1                 0.0000
     41 ****         4.1223  -1.2426  -0.0512 LP             1 S1                 0.0000
     42 ****        -6.0525   0.6047   0.9569 LP             1 S1                 0.0000
     43 ****        -3.3857  -1.6983   0.9687 LP             1 S1                 0.0000
     44 ****        -5.1022  -1.4946   0.8585 LP             1 S1                 0.0000
@<TRIPOS>BOND
    1    1    2 2     
    2    2    3 am    
    3    2   11 am    
    4    3    4 1     
    5    3   23 1     
    6    4    5 1     
    7    4   24 1     
    8    4   25 1     
    9    5   10 1     
   10    5    6 1     
   11    5   26 1     
   12    6    7 1     
   13    6   27 1     
   14    6   28 1     
   15    7    8 1     
   16    7   29 1     
   17    7   30 1     
   18    8    9 1     
   19    8   31 1     
   20    8   32 1     
   21    9   10 1     
   22    9   33 1     
   23    9   34 1     
   24   11   12 1     
   25   11   35 1     
   26   12   21 1     
   27   12   13 2     
   28   13   14 1     
   29   13   36 1     
   30   14   15 1     
   31   14   19 2     
   32   15   16 1     
   33   15   17 1     
   34   15   18 1     
   35   19   20 1     
   36   19   37 1     
   37   20   21 1     
   38   21   22 2     
   39    1   38 1     
   40    1   39 1     
   41   10   40 1     
   42   10   41 1     
   43   20   42 1     
   44   22   43 1     
   45   22   44 1     
@<TRIPOS>SUBSTRUCTURE
      1 S1             1
@<TRIPOS>SET
LONE_PAIRS      STATIC     ATOMS    <user>   **** ""
7 38 39 40 41 42 43 44
DONOR_HYDROGENS      STATIC     ATOMS    <user>   **** ""
2 23 35
ATOM$BLUE        STATIC     ATOMS    COLORGROUP SYSTEM
7 38 39 40 41 42 43 44
ATOM$RED        STATIC     ATOMS    COLORGROUP SYSTEM
2 23 35
