AV-unprocessed.smi:332|AV-procd|sdf|2354|dock7
  -GOLD-   2262022263D 1   1.00000     0.00000
 Structure written by MMmdl.
 42 44  0  0  0  0  0  0  0  0  1 V2000
  149.2204  141.7128  154.7326 C   0  0  0  0  0  0  0  0  0  0  0  0
  150.1380  140.9579  155.7066 C   0  0  2  0  0  0  0  0  0  0  0  0
  150.9739  141.9310  156.4085 N   0  0  0  0  0  0  0  0  0  0  0  0
  150.8411  142.3142  157.6882 C   0  0  0  0  0  0  0  0  0  0  0  0
  149.9822  141.8625  158.4469 O   0  0  0  0  0  0  0  0  0  0  0  0
  151.8585  143.3529  158.1813 C   0  0  0  0  0  0  0  0  0  0  0  0
  152.3345  143.1014  159.5518 N   0  0  0  0  0  0  0  0  0  0  0  0
  153.0668  141.9170  159.7690 C   0  0  0  0  0  0  0  0  0  0  0  0
  153.5456  141.5903  160.9799 C   0  0  0  0  0  0  0  0  0  0  0  0
  153.2929  142.4908  162.0796 C   0  0  0  0  0  0  0  0  0  0  0  0
  152.5902  143.6244  161.8837 C   0  0  0  0  0  0  0  0  0  0  0  0
  152.0635  143.9847  160.5620 C   0  0  0  0  0  0  0  0  0  0  0  0
  151.4196  145.0175  160.3747 O   0  0  0  0  0  0  0  0  0  0  0  0
  151.0340  139.9179  154.9904 C   0  0  1  0  0  0  0  0  0  0  0  0
  152.0638  139.2038  155.8972 C   0  0  0  0  0  0  0  0  0  0  0  0
  151.8587  137.7170  155.5535 C   0  0  1  0  0  0  0  0  0  0  0  0
  150.5441  137.2324  156.1915 C   0  0  0  0  0  0  0  0  0  0  0  0
  149.4750  137.9081  155.3140 C   0  0  0  0  0  0  0  0  0  0  0  0
  150.3182  138.7230  154.3114 C   0  0  2  0  0  0  0  0  0  0  0  0
  151.4899  137.7746  154.0758 C   0  0  0  0  0  0  0  0  0  0  0  0
  148.5271  141.0357  154.2338 H   0  0  0  0  0  0  0  0  0  0  0  0
  149.7949  142.2287  153.9627 H   0  0  0  0  0  0  0  0  0  0  0  0
  148.6218  142.4583  155.2574 H   0  0  0  0  0  0  0  0  0  0  0  0
  149.5004  140.4456  156.4274 H   0  0  0  0  0  0  0  0  0  0  0  0
  151.7162  142.3540  155.8702 H   0  0  0  0  0  0  0  0  0  0  0  0
  152.6959  143.3649  157.4824 H   0  0  0  0  0  0  0  0  0  0  0  0
  151.4184  144.3498  158.1152 H   0  0  0  0  0  0  0  0  0  0  0  0
  153.2060  141.2948  158.8968 H   0  0  0  0  0  0  0  0  0  0  0  0
  154.1018  140.6762  161.1279 H   0  0  0  0  0  0  0  0  0  0  0  0
  153.6675  142.2538  163.0644 H   0  0  0  0  0  0  0  0  0  0  0  0
  152.4094  144.2851  162.7187 H   0  0  0  0  0  0  0  0  0  0  0  0
  151.5874  140.4454  154.2107 H   0  0  0  0  0  0  0  0  0  0  0  0
  153.0763  139.5281  155.6537 H   0  0  0  0  0  0  0  0  0  0  0  0
  151.9047  139.3919  156.9596 H   0  0  0  0  0  0  0  0  0  0  0  0
  152.7179  137.0896  155.7923 H   0  0  0  0  0  0  0  0  0  0  0  0
  150.4582  136.1465  156.1332 H   0  0  0  0  0  0  0  0  0  0  0  0
  150.4625  137.5186  157.2409 H   0  0  0  0  0  0  0  0  0  0  0  0
  148.8887  137.1529  154.7886 H   0  0  0  0  0  0  0  0  0  0  0  0
  148.7754  138.5134  155.8887 H   0  0  0  0  0  0  0  0  0  0  0  0
  149.7752  138.9967  153.4065 H   0  0  0  0  0  0  0  0  0  0  0  0
  152.2765  138.1998  153.4496 H   0  0  0  0  0  0  0  0  0  0  0  0
  151.1913  136.8077  153.6664 H   0  0  0  0  0  0  0  0  0  0  0  0
  1  2  1  0  0  0  0
  1 21  1  0  0  0  0
  1 22  1  0  0  0  0
  1 23  1  0  0  0  0
  2  3  1  0  0  0  0
  2 14  1  0  0  0  0
  2 24  1  0  0  0  0
  3  4  1  0  0  0  0
  3 25  1  0  0  0  0
  4  5  2  0  0  0  0
  4  6  1  0  0  0  0
  6  7  1  0  0  0  0
  6 26  1  0  0  0  0
  6 27  1  0  0  0  0
  7 12  1  0  0  0  0
  7  8  1  0  0  0  0
  8  9  2  0  0  0  0
  8 28  1  0  0  0  0
  9 10  1  0  0  0  0
  9 29  1  0  0  0  0
 10 11  2  0  0  0  0
 10 30  1  0  0  0  0
 11 12  1  0  0  0  0
 11 31  1  0  0  0  0
 12 13  2  0  0  0  0
 14 19  1  0  0  0  0
 14 15  1  0  0  0  0
 14 32  1  0  0  0  0
 15 16  1  0  0  0  0
 15 33  1  0  0  0  0
 15 34  1  0  0  0  0
 16 20  1  0  0  0  0
 16 17  1  0  0  0  0
 16 35  1  0  0  0  0
 17 18  1  0  0  0  0
 17 36  1  0  0  0  0
 17 37  1  0  0  0  0
 18 19  1  0  0  0  0
 18 38  1  0  0  0  0
 18 39  1  0  0  0  0
 19 20  1  0  0  0  0
 19 40  1  0  0  0  0
 20 41  1  0  0  0  0
 20 42  1  0  0  0  0
M  END
> <s_m_source_file>
AV-unprocessed.smi

> <i_m_source_file_index>
332

> <i_lp_mmshare_version>
43012

> <i_f3d_flags>
0

> <s_epik_input>
W0NIMl0xW0NIMl1bQ0BIXShbQ0gyXTIpW0NAQEhdKFtDSDJdW0NAQEhdMTIpW0NASF0oW0NIM10pW05IXUMoPU8pW0NIMl1uM1tjSF1bY0hdW2NIXVtjSF1jMz1P

> <s_epik_cmdline>
J2VwaWtfcHl0aG9uJywgJy1waCcsICc3LjAnLCAnLXRuJywgJzgnLCAnLW1hJywgJzIwMCcsICctbWV0YWxfYmluZGluZycsICctaW1hZScsICc8aW5maWxlLm1hZT4nLCAnLW9tYWUnLCAnPG91dGZpbGUubWFlPic=

> <r_lp_tautomer_probability>
1

> <r_epik_Ionization_Penalty>
4.05802e-07

> <r_epik_Ionization_Penalty_Charging>
3.84175e-07

> <r_epik_Ionization_Penalty_Neutral>
2.16269e-08

> <r_epik_State_Penalty>
-0

> <r_epik_Charging_Adjusted_Penalty>
3.84175e-07

> <i_epik_Tot_Q>
0

> <i_epik_Tot_abs_Q>
0

> <r_epik_Metal_State_Penalty>
-0

> <b_epik_Metal_Only>
0

> <s_lp_Force_Field>
OPLS_2005

> <r_lp_Energy>
60.6012

> <b_lp_Chiralities_Consistent>
1

> <s_lp_Variant>
AV-unprocessed.smi:332-3

> <Gold.Version>
5.8.1

> <Gold.Id.Protein>
6NUR|6NUR_protein|mol2

> <Gold.PLP.Fitness>
47.8065

> <Gold.PLP.PLP>
-48.7341

> <Gold.PLP.part.hbond>
0.0000

> <Gold.PLP.part.metal>
0.0000

> <Gold.PLP.part.buried>
-2.1134

> <Gold.PLP.part.nonpolar>
-45.2148

> <Gold.PLP.part.repulsive>
0.3486

> <Gold.PLP.ligand.clash>
0.0000

> <Gold.PLP.ligand.torsion>
0.4711

> <Gold.PLP.Chemscore.Hbond>
0.0000

> <Gold.PLP.Chemscore.CHOScore>
0.0000

> <Gold.PLP.Chemscore.Metal>
0.0000

> <Gold.PLP.Chemscore.Internal.Correction>
0.0146

> <Gold.Rescore>
     Score         DG    S(hbond)    S(metal)    S(lipo)     H(rot)  DE(clash)    DE(int)     intcor
     14.00     -14.60       0.00        0.00     111.61       1.54       0.20       0.39       ----

> <Gold.Chemscore.Fitness>
14.0019

> <Gold.Chemscore.DG>
-14.5962

> <Gold.Chemscore.ZeroCoef>
-5.4800

> <Gold.Chemscore.Hbond>
0.0000

> <Gold.Chemscore.Metal>
0.0000

> <Gold.Chemscore.Lipo>
111.6075

> <Gold.Chemscore.Internal_Hbond>
0.0000

> <Gold.Chemscore.DEClash>
0.2047

> <Gold.Chemscore.DEInternal>
0.3896

> <Gold.Chemscore.Rot>
1.5398

> <Gold.Chemscore.Internal.Correction>
   9.000000E+99

> <Gold.Chemscore.Hbond.Weighted>
-0.0000

> <Gold.Chemscore.Metal.Weighted>
-0.0000

> <Gold.Chemscore.Lipo.Weighted>
-13.0581

> <Gold.Chemscore.Internal_Hbond.Weighted>
0.0000

> <Gold.Chemscore.DEClash.Weighted>
0.2047

> <Gold.Chemscore.DEInternal.Weighted>
0.3896

> <Gold.Chemscore.Rot.Weighted>
3.9419

> <Gold.Chemscore.Internal.Correction.Weighted>
   9.000000E+99

> <Gold.Protein.RotatedTorsions>
[ 6907 6896 6895 6894 ] final -160.63 input  -60.11 | X-H torsion
[ 7974 7965 7964 7962 ] final -117.79 input  175.53 | X-H torsion
[ 8008 7997 7996 7995 ] final  131.01 input   59.86 | X-H torsion
[ 10167 10162 10161 10158 ] final   26.91 input  -65.29 | X-H torsion
[ 10718 10713 10712 10709 ] final  173.19 input   66.30 | X-H torsion
[ 10763 10752 10751 10750 ] final   20.96 input  -60.55 | X-H torsion
[ 11005 11000 10999 10996 ] final  -59.10 input  -57.11 | X-H torsion

> <Gold.Protein.ActiveResidues>
 VAL166  LYS551  ARG553  GLY616  TRP617  ASP618  TYR619  PRO620  LYS621  CYS622 
 ASP623  PHE694  ASN695  SER759  ASP760  ASP761  ALA762  ILE779  LEU786  VAL792 
 PHE793  MET794  SER795  GLU796  ALA797  LYS798  CYS799  TRP800  GLU811  SER814 

> <Gold.Protein.RotatedAtoms>
  151.3521  133.3921  159.2680 H   0  0  0  0  0  0  0  0  0  0  0  0  # atno 6907 bound_to 6896
  150.9793  134.9152  159.7845 H   0  0  0  0  0  0  0  0  0  0  0  0  # atno 6908 bound_to 6896
  152.5211  134.3484  159.9294 H   0  0  0  0  0  0  0  0  0  0  0  0  # atno 6909 bound_to 6896
  145.0812  140.8426  143.4038 H   0  0  0  0  0  0  0  0  0  0  0  0  # atno 7974 bound_to 7965
  156.2963  140.2582  156.2856 H   0  0  0  0  0  0  0  0  0  0  0  0  # atno 8008 bound_to 7997
  154.9560  140.0393  157.2185 H   0  0  0  0  0  0  0  0  0  0  0  0  # atno 8009 bound_to 7997
  154.7992  140.2825  155.5939 H   0  0  0  0  0  0  0  0  0  0  0  0  # atno 8010 bound_to 7997
  140.4983  144.0356  150.6323 H   0  0  0  0  0  0  0  0  0  0  0  0  # atno 10167 bound_to 10162
  156.9679  131.0081  151.2912 H   0  0  0  0  0  0  0  0  0  0  0  0  # atno 10718 bound_to 10713
  153.1034  135.6678  153.9630 H   0  0  0  0  0  0  0  0  0  0  0  0  # atno 10763 bound_to 10752
  153.9194  135.3016  155.3449 H   0  0  0  0  0  0  0  0  0  0  0  0  # atno 10764 bound_to 10752
  154.7455  135.5059  153.9273 H   0  0  0  0  0  0  0  0  0  0  0  0  # atno 10765 bound_to 10752
  141.1234  133.6615  156.5021 H   0  0  0  0  0  0  0  0  0  0  0  0  # atno 11005 bound_to 11000
  145.1176  139.2715  143.5605 LP  0  0  0  0  0  0  0  0  0  0  0  0  # atno 17320 bound_to 7965
  146.3531  140.0791  142.8618 LP  0  0  0  0  0  0  0  0  0  0  0  0  # atno 17321 bound_to 7965
  140.3645  143.2889  152.0347 LP  0  0  0  0  0  0  0  0  0  0  0  0  # atno 17342 bound_to 10162
  139.4866  144.6277  151.7131 LP  0  0  0  0  0  0  0  0  0  0  0  0  # atno 17343 bound_to 10162
  157.5613  130.8247  149.8269 LP  0  0  0  0  0  0  0  0  0  0  0  0  # atno 17370 bound_to 10713
  156.0295  130.3769  150.1728 LP  0  0  0  0  0  0  0  0  0  0  0  0  # atno 17371 bound_to 10713
  140.4437  134.6992  157.5005 LP  0  0  0  0  0  0  0  0  0  0  0  0  # atno 17394 bound_to 11000
  140.0211  134.6545  155.9238 LP  0  0  0  0  0  0  0  0  0  0  0  0  # atno 17395 bound_to 11000

$$$$
