#       Name:                AV-unprocessed.smi:287
#       Creating user name   scv26
#       Creation time:       Thu Mar 26 21:56:52 2020


#       File generated by GOLD software.
#

@<TRIPOS>MOLECULE
AV-unprocessed.smi:287
    70    73     1
SMALL
NO_CHARGES


@<TRIPOS>ATOM
      1 ****        -1.4651   4.0931  -3.8285 C.3            1 S1                 0.0000
      2 ****        -2.0652   3.8529  -2.4858 C.2            1 S1                 0.0000
      3 ****        -2.6844   2.7847  -1.9055 C.2            1 S1                 0.0000
      4 ****        -3.0321   3.1642  -0.5746 C.2            1 S1                 0.0000
      5 ****        -3.7331   2.2825   0.4507 C.3            1 S1                 0.0000
      6 ****        -5.2132   2.1134   0.0698 C.3            1 S1                 0.0000
      7 ****        -3.7418   2.8470   1.7476 O.3            1 S1                 0.0000
      8 ****        -3.0575   0.8994   0.5939 C.3            1 S1                 0.0000
      9 ****        -1.6022   0.9868   0.6578 N.pl3          1 S1                 0.0000
     10 ****        -0.8505  -0.1326   0.6223 C.ar           1 S1                 0.0000
     11 ****        -1.4248  -1.3637   0.6348 N.ar           1 S1                 0.0000
     12 ****        -0.6578  -2.4572   0.5915 C.ar           1 S1                 0.0000
     13 ****         0.6732  -2.5408   0.5328 N.ar           1 S1                 0.0000
     14 ****         1.2543  -1.3063   0.5236 C.ar           1 S1                 0.0000
     15 ****         0.5650  -0.0627   0.5668 C.ar           1 S1                 0.0000
     16 ****         1.4775   0.9835   0.5395 N.2            1 S1                 0.0000
     17 ****         2.6381   0.3878   0.4800 C.2            1 S1                 0.0000
     18 ****         2.5961  -0.9889   0.4679 N.pl3          1 S1                 0.0000
     19 ****         3.7492  -1.9350   0.3955 C.3            1 S1                 0.0000
     20 ****         3.4628  -2.8898  -0.5760 O.3            1 S1                 0.0000
     21 ****         4.0412  -4.1232  -0.1797 C.3            1 S1                 0.0000
     22 ****         3.4474  -5.2960  -0.9801 C.3            1 S1                 0.0000
     23 ****         4.1328  -6.4922  -0.6758 O.3            1 S1                 0.0000
     24 ****         3.8456  -4.1416   1.3446 C.3            1 S1                 0.0000
     25 ****         2.5746  -4.6501   1.7026 O.3            1 S1                 0.0000
     26 ****         3.9595  -2.6680   1.7342 C.3            1 S1                 0.0000
     27 ****         5.2517  -2.4183   2.2503 O.3            1 S1                 0.0000
     28 ****        -2.6016   4.4641  -0.4573 C.2            1 S1                 0.0000
     29 ****        -2.6433   5.4768   0.6391 C.3            1 S1                 0.0000
     30 ****        -2.0119   4.8876  -1.6103 O.3            1 S1                 0.0000
     31 ****         4.6007  -1.3246   0.0898 H              1 S1                 0.0000
     32 ****         5.1095  -4.0517  -0.3938 H              1 S1                 0.0000
     33 ****         4.5958  -4.7653   1.8326 H              1 S1                 0.0000
     34 ****         3.2135  -2.3716   2.4737 H              1 S1                 0.0000
     35 ****        -1.4354   3.1724  -4.4116 H              1 S1                 0.0000
     36 ****        -0.4450   4.4660  -3.7353 H              1 S1                 0.0000
     37 ****        -2.0458   4.8282  -4.3856 H              1 S1                 0.0000
     38 ****        -2.8610   1.8303  -2.3790 H              1 S1                 0.0000
     39 ****        -5.3188   1.6496  -0.9116 H              1 S1                 0.0000
     40 ****        -5.7263   3.0754   0.0339 H              1 S1                 0.0000
     41 ****        -5.7415   1.4835   0.7868 H              1 S1                 0.0000
     42 ****        -4.1881   2.2518   2.3301 H              1 S1                 0.0000
     43 ****        -3.4451   0.3614   1.4604 H              1 S1                 0.0000
     44 ****        -3.3070   0.2995  -0.2828 H              1 S1                 0.0000
     45 ****        -1.2143   1.9195   0.6423 H              1 S1                 0.0000
     46 ****        -1.1856  -3.3993   0.6051 H              1 S1                 0.0000
     47 ****         3.5643   0.9424   0.4428 H              1 S1                 0.0000
     48 ****         2.3816  -5.4190  -0.7869 H              1 S1                 0.0000
     49 ****         3.5532  -5.1058  -2.0483 H              1 S1                 0.0000
     50 ****         3.7500  -7.1944  -1.1792 H              1 S1                 0.0000
     51 ****         1.9124  -4.1189   1.2852 H              1 S1                 0.0000
     52 ****         5.3100  -1.5044   2.4833 H              1 S1                 0.0000
     53 ****        -3.6657   5.6306   0.9842 H              1 S1                 0.0000
     54 ****        -2.2548   6.4389   0.3039 H              1 S1                 0.0000
     55 ****        -2.0433   5.1502   1.4884 H              1 S1                 0.0000
     56 ****        -4.2205   3.7248   1.7304 LP             1 S1                 0.0000
     57 ****        -2.8025   2.9857   2.0616 LP             1 S1                 0.0000
     58 ****        -2.4200  -1.4516   0.6763 LP             1 S1                 0.0000
     59 ****         1.1814  -3.4015   0.4997 LP             1 S1                 0.0000
     60 ****         1.2896   1.9654   0.5605 LP             1 S1                 0.0000
     61 ****         3.8471  -2.6037  -1.4538 LP             1 S1                 0.0000
     62 ****         2.4723  -2.9947  -0.6641 LP             1 S1                 0.0000
     63 ****         4.0465  -6.6913   0.3004 LP             1 S1                 0.0000
     64 ****         5.0998  -6.3962  -0.9121 LP             1 S1                 0.0000
     65 ****         2.4626  -4.6111   2.6955 LP             1 S1                 0.0000
     66 ****         2.4910  -5.5979   1.3947 LP             1 S1                 0.0000
     67 ****         5.9394  -2.6343   1.5571 LP             1 S1                 0.0000
     68 ****         5.4064  -2.9836   3.0606 LP             1 S1                 0.0000
     69 ****        -2.5051   5.6754  -1.9791 LP             1 S1                 0.0000
     70 ****        -1.0605   5.1416  -1.4363 LP             1 S1                 0.0000
@<TRIPOS>BOND
    1    1    2 1     
    2    1   35 1     
    3    1   36 1     
    4    1   37 1     
    5    2   30 1     
    6    2    3 2     
    7    3    4 1     
    8    3   38 1     
    9    4    5 1     
   10    4   28 2     
   11    5    6 1     
   12    5    7 1     
   13    5    8 1     
   14    6   39 1     
   15    6   40 1     
   16    6   41 1     
   17    7   42 1     
   18    8    9 1     
   19    8   43 1     
   20    8   44 1     
   21    9   10 1     
   22    9   45 1     
   23   10   15 ar    
   24   10   11 ar    
   25   11   12 ar    
   26   12   13 ar    
   27   12   46 1     
   28   13   14 ar    
   29   14   18 1     
   30   14   15 ar    
   31   15   16 1     
   32   16   17 2     
   33   17   18 1     
   34   17   47 1     
   35   18   19 1     
   36   19   31 1     
   37   19   26 1     
   38   19   20 1     
   39   20   21 1     
   40   21   32 1     
   41   21   22 1     
   42   21   24 1     
   43   22   23 1     
   44   22   48 1     
   45   22   49 1     
   46   23   50 1     
   47   24   33 1     
   48   24   25 1     
   49   24   26 1     
   50   25   51 1     
   51   26   34 1     
   52   26   27 1     
   53   27   52 1     
   54   28   29 1     
   55   28   30 1     
   56   29   53 1     
   57   29   54 1     
   58   29   55 1     
   59    7   56 1     
   60    7   57 1     
   61   11   58 1     
   62   13   59 1     
   63   16   60 1     
   64   20   61 1     
   65   20   62 1     
   66   23   63 1     
   67   23   64 1     
   68   25   65 1     
   69   25   66 1     
   70   27   67 1     
   71   27   68 1     
   72   30   69 1     
   73   30   70 1     
@<TRIPOS>SUBSTRUCTURE
      1 S1             1
@<TRIPOS>SET
LONE_PAIRS      STATIC     ATOMS    <user>   **** ""
15 56 57 58 59 60 61 62 63 64 65 66 67 68 69 70
DONOR_HYDROGENS      STATIC     ATOMS    <user>   **** ""
5 42 45 50 51 52
ATOM$BLUE        STATIC     ATOMS    COLORGROUP SYSTEM
15 56 57 58 59 60 61 62 63 64 65 66 67 68 69 70
ATOM$RED        STATIC     ATOMS    COLORGROUP SYSTEM
5 42 45 50 51 52
