AV-unprocessed.smi:765|AV-procd|sdf|3650|dock5
  -GOLD-   22720 1 53D 1   1.00000     0.00000
 Structure written by MMmdl.
 39 40  0  0  0  0  0  0  0  0  1 V2000
  147.6840  141.9510  154.2414 C   0  0  0  0  0  0  0  0  0  0  0  0
  148.6235  141.4723  155.3565 C   0  0  1  0  0  0  0  0  0  0  0  0
  147.9821  140.3482  156.1901 C   0  0  0  0  0  0  0  0  0  0  0  0
  148.9237  139.8569  157.2993 C   0  0  0  0  0  0  0  0  0  0  0  0
  150.2845  139.4218  156.7252 C   0  0  0  0  0  0  0  0  0  0  0  0
  150.9636  140.5333  155.8950 C   0  0  2  0  0  0  0  0  0  0  0  0
  152.1863  139.9816  155.2813 C   0  0  0  0  0  0  0  0  0  0  0  0
  153.1451  139.5496  154.7984 N   0  0  0  0  0  0  0  0  0  0  0  0
  151.2913  141.6399  156.7979 N   0  0  0  0  0  0  0  0  0  0  0  0
  152.0182  141.5815  157.9264 C   0  0  0  0  0  0  0  0  0  0  0  0
  152.4004  140.5254  158.4306 O   0  0  0  0  0  0  0  0  0  0  0  0
  152.3924  142.9367  158.5483 C   0  0  1  0  0  0  0  0  0  0  0  0
  151.2647  143.9839  158.4445 C   0  0  0  0  0  0  0  0  0  0  0  0
  152.8331  142.7445  159.9265 N   0  0  0  0  0  0  0  0  0  0  0  0
  152.3991  143.4059  161.0579 C   0  0  0  0  0  0  0  0  0  0  0  0
  153.1307  142.9403  162.1125 C   0  0  0  0  0  0  0  0  0  0  0  0
  154.0077  141.9892  161.5217 C   0  0  0  0  0  0  0  0  0  0  0  0
  153.8326  141.8783  160.2155 N   0  0  0  0  0  0  0  0  0  0  0  0
  149.9828  141.0060  154.7913 C   0  0  0  0  0  0  0  0  0  0  0  0
  147.4587  141.1482  153.5388 H   0  0  0  0  0  0  0  0  0  0  0  0
  148.1299  142.7717  153.6789 H   0  0  0  0  0  0  0  0  0  0  0  0
  146.7396  142.3093  154.6520 H   0  0  0  0  0  0  0  0  0  0  0  0
  148.7966  142.3245  156.0150 H   0  0  0  0  0  0  0  0  0  0  0  0
  147.0483  140.6971  156.6324 H   0  0  0  0  0  0  0  0  0  0  0  0
  147.7214  139.5112  155.5407 H   0  0  0  0  0  0  0  0  0  0  0  0
  149.0641  140.6478  158.0370 H   0  0  0  0  0  0  0  0  0  0  0  0
  148.4636  139.0234  157.8306 H   0  0  0  0  0  0  0  0  0  0  0  0
  150.9413  139.1039  157.5361 H   0  0  0  0  0  0  0  0  0  0  0  0
  150.1366  138.5421  156.0967 H   0  0  0  0  0  0  0  0  0  0  0  0
  151.0153  142.5578  156.4814 H   0  0  0  0  0  0  0  0  0  0  0  0
  153.2454  143.3206  157.9863 H   0  0  0  0  0  0  0  0  0  0  0  0
  150.9944  144.1697  157.4045 H   0  0  0  0  0  0  0  0  0  0  0  0
  151.5785  144.9355  158.8743 H   0  0  0  0  0  0  0  0  0  0  0  0
  150.3624  143.6668  158.9691 H   0  0  0  0  0  0  0  0  0  0  0  0
  151.6167  144.1492  161.0190 H   0  0  0  0  0  0  0  0  0  0  0  0
  153.0551  143.2376  163.1478 H   0  0  0  0  0  0  0  0  0  0  0  0
  154.7641  141.3833  161.9982 H   0  0  0  0  0  0  0  0  0  0  0  0
  149.8149  140.1869  154.0904 H   0  0  0  0  0  0  0  0  0  0  0  0
  150.4313  141.8066  154.2023 H   0  0  0  0  0  0  0  0  0  0  0  0
  1  2  1  0  0  0  0
  1 20  1  0  0  0  0
  1 21  1  0  0  0  0
  1 22  1  0  0  0  0
  2 19  1  0  0  0  0
  2  3  1  0  0  0  0
  2 23  1  0  0  0  0
  3  4  1  0  0  0  0
  3 24  1  0  0  0  0
  3 25  1  0  0  0  0
  4  5  1  0  0  0  0
  4 26  1  0  0  0  0
  4 27  1  0  0  0  0
  5  6  1  0  0  0  0
  5 28  1  0  0  0  0
  5 29  1  0  0  0  0
  6  7  1  0  0  0  0
  6  9  1  0  0  0  0
  6 19  1  0  0  0  0
  7  8  3  0  0  0  0
  9 10  1  0  0  0  0
  9 30  1  0  0  0  0
 10 11  2  0  0  0  0
 10 12  1  0  0  0  0
 12 13  1  0  0  0  0
 12 14  1  0  0  0  0
 12 31  1  0  0  0  0
 13 32  1  0  0  0  0
 13 33  1  0  0  0  0
 13 34  1  0  0  0  0
 14 18  1  0  0  0  0
 14 15  1  0  0  0  0
 15 16  2  0  0  0  0
 15 35  1  0  0  0  0
 16 17  1  0  0  0  0
 16 36  1  0  0  0  0
 17 18  2  0  0  0  0
 17 37  1  0  0  0  0
 19 38  1  0  0  0  0
 19 39  1  0  0  0  0
M  END
> <s_m_source_file>
AV-unprocessed.smi

> <i_m_source_file_index>
765

> <i_lp_mmshare_version>
43012

> <i_f3d_flags>
0

> <s_epik_input>
W0NIM11bQ0BASF0oW0NIMl0xKVtDSDJdW0NIMl1bQ0gyXVtDQEBdMShDI04pW05IXUMoPU8pW0NASF0oW0NIM10pbjJbY0hdW2NIXVtjSF1uMg==

> <s_epik_cmdline>
J2VwaWtfcHl0aG9uJywgJy1waCcsICc3LjAnLCAnLXRuJywgJzgnLCAnLW1hJywgJzIwMCcsICctbWV0YWxfYmluZGluZycsICctaW1hZScsICc8aW5maWxlLm1hZT4nLCAnLW9tYWUnLCAnPG91dGZpbGUubWFlPic=

> <r_lp_tautomer_probability>
1

> <r_epik_Ionization_Penalty>
2.71142e-05

> <r_epik_Ionization_Penalty_Charging>
0

> <r_epik_Ionization_Penalty_Neutral>
2.71142e-05

> <r_epik_State_Penalty>
-0

> <r_epik_Charging_Adjusted_Penalty>
0

> <i_epik_Tot_Q>
0

> <i_epik_Tot_abs_Q>
0

> <r_epik_Metal_State_Penalty>
-0

> <b_epik_Metal_Only>
0

> <s_lp_Force_Field>
OPLS_2005

> <r_lp_Energy>
11.0403

> <b_lp_Chiralities_Consistent>
1

> <s_lp_Variant>
AV-unprocessed.smi:765-8

> <Gold.Version>
5.8.1

> <Gold.Id.Protein>
6NUR|6NUR_protein|mol2

> <Gold.PLP.Fitness>
43.5998

> <Gold.PLP.PLP>
-41.7899

> <Gold.PLP.part.hbond>
-1.0000

> <Gold.PLP.part.metal>
0.0000

> <Gold.PLP.part.buried>
-5.5956

> <Gold.PLP.part.nonpolar>
-35.2792

> <Gold.PLP.part.repulsive>
0.0831

> <Gold.PLP.ligand.clash>
0.0000

> <Gold.PLP.ligand.torsion>
0.6451

> <Gold.PLP.Chemscore.Hbond>
1.0000

> <Gold.PLP.Chemscore.CHOScore>
0.0000

> <Gold.PLP.Chemscore.Metal>
0.0000

> <Gold.Chemscore.Hbonds>
donor molecule, donor type, donor heavy atom, donor atom, acceptor molecule, acceptor atom, score
      P1  H  7997  8009       L1     8  1.00

> <Gold.PLP.Chemscore.Internal.Correction>
0.1001

> <Gold.Rescore>
     Score         DG    S(hbond)    S(metal)    S(lipo)     H(rot)  DE(clash)    DE(int)     intcor
     12.35     -15.43       0.97        0.00      88.43       1.42       0.07       3.01       ----

> <Gold.Chemscore.Fitness>
12.3527

> <Gold.Chemscore.DG>
-15.4265

> <Gold.Chemscore.ZeroCoef>
-5.4800

> <Gold.Chemscore.Hbond>
0.9674

> <Gold.Chemscore.Metal>
0.0000

> <Gold.Chemscore.Lipo>
88.4305

> <Gold.Chemscore.Internal_Hbond>
0.0000

> <Gold.Chemscore.DEClash>
0.0686

> <Gold.Chemscore.DEInternal>
3.0052

> <Gold.Chemscore.Rot>
1.4183

> <Gold.Chemscore.Internal.Correction>
   9.000000E+99

> <Gold.Chemscore.Hbonds>
donor molecule, donor type, donor heavy atom, donor atom, acceptor molecule, acceptor atom, score
      P1  H  7997  8009       L1     8  0.50

> <Gold.Chemscore.Hbond.Weighted>
-3.2311

> <Gold.Chemscore.Metal.Weighted>
-0.0000

> <Gold.Chemscore.Lipo.Weighted>
-10.3464

> <Gold.Chemscore.Internal_Hbond.Weighted>
0.0000

> <Gold.Chemscore.DEClash.Weighted>
0.0686

> <Gold.Chemscore.DEInternal.Weighted>
3.0052

> <Gold.Chemscore.Rot.Weighted>
3.6309

> <Gold.Chemscore.Internal.Correction.Weighted>
   9.000000E+99

> <Gold.Protein.RotatedTorsions>
[ 6907 6896 6895 6894 ] final  122.49 input  -60.11 | X-H torsion
[ 7974 7965 7964 7962 ] final  148.77 input  175.53 | X-H torsion
[ 8008 7997 7996 7995 ] final -128.77 input   59.86 | X-H torsion
[ 10167 10162 10161 10158 ] final   30.31 input  -65.29 | X-H torsion
[ 10718 10713 10712 10709 ] final    8.45 input   66.30 | X-H torsion
[ 10763 10752 10751 10750 ] final  -27.22 input  -60.55 | X-H torsion
[ 11005 11000 10999 10996 ] final -101.76 input  -57.11 | X-H torsion

> <Gold.Protein.ActiveResidues>
 VAL166  LYS551  ARG553  GLY616  TRP617  ASP618  TYR619  PRO620  LYS621  CYS622 
 ASP623  PHE694  ASN695  SER759  ASP760  ASP761  ALA762  ILE779  LEU786  VAL792 
 PHE793  MET794  SER795  GLU796  ALA797  LYS798  CYS799  TRP800  GLU811  SER814 

> <Gold.Protein.RotatedAtoms>
  152.4239  133.7162  159.6506 H   0  0  0  0  0  0  0  0  0  0  0  0  # atno 6907 bound_to 6896
  150.8115  133.8403  159.3186 H   0  0  0  0  0  0  0  0  0  0  0  0  # atno 6908 bound_to 6896
  151.6112  135.1042  160.0133 H   0  0  0  0  0  0  0  0  0  0  0  0  # atno 6909 bound_to 6896
  144.8489  139.6196  143.5983 H   0  0  0  0  0  0  0  0  0  0  0  0  # atno 7974 bound_to 7965
  155.2682  140.0439  157.3004 H   0  0  0  0  0  0  0  0  0  0  0  0  # atno 8008 bound_to 7997
  154.5669  140.2362  155.8219 H   0  0  0  0  0  0  0  0  0  0  0  0  # atno 8009 bound_to 7997
  156.2092  140.3004  155.9702 H   0  0  0  0  0  0  0  0  0  0  0  0  # atno 8010 bound_to 7997
  140.4689  144.0793  150.6232 H   0  0  0  0  0  0  0  0  0  0  0  0  # atno 10167 bound_to 10162
  156.9518  130.5900  149.5657 H   0  0  0  0  0  0  0  0  0  0  0  0  # atno 10718 bound_to 10713
  153.7285  135.6940  153.4995 H   0  0  0  0  0  0  0  0  0  0  0  0  # atno 10763 bound_to 10752
  153.2152  135.4389  155.0425 H   0  0  0  0  0  0  0  0  0  0  0  0  # atno 10764 bound_to 10752
  154.8261  135.3447  154.6816 H   0  0  0  0  0  0  0  0  0  0  0  0  # atno 10765 bound_to 10752
  141.1218  133.8504  157.1273 H   0  0  0  0  0  0  0  0  0  0  0  0  # atno 11005 bound_to 11000
  146.2767  139.6772  142.9258 LP  0  0  0  0  0  0  0  0  0  0  0  0  # atno 17320 bound_to 7965
  145.4541  141.0430  143.2788 LP  0  0  0  0  0  0  0  0  0  0  0  0  # atno 17321 bound_to 7965
  140.4002  143.2708  151.9957 LP  0  0  0  0  0  0  0  0  0  0  0  0  # atno 17342 bound_to 10162
  139.4816  144.6004  151.7616 LP  0  0  0  0  0  0  0  0  0  0  0  0  # atno 17343 bound_to 10162
  156.0359  130.5447  150.8653 LP  0  0  0  0  0  0  0  0  0  0  0  0  # atno 17370 bound_to 10713
  157.5717  131.0946  150.9408 LP  0  0  0  0  0  0  0  0  0  0  0  0  # atno 17371 bound_to 10713
  140.0181  134.9958  157.0535 LP  0  0  0  0  0  0  0  0  0  0  0  0  # atno 17394 bound_to 11000
  140.4486  134.1606  155.7179 LP  0  0  0  0  0  0  0  0  0  0  0  0  # atno 17395 bound_to 11000

$$$$
