AV-unprocessed.smi:1701|AV-procd|sdf|6842|dock4
  -GOLD-   22720 8 23D 1   1.00000     0.00000
 Structure written by MMmdl.
 54 56  0  0  0  0  0  0  0  0  4 V2000
  153.2649  142.6327  160.3862 C   0  0  0  0  0  0  0  0  0  0  0  0
  153.2861  143.4218  159.0704 C   0  0  0  0  0  0  0  0  0  0  0  0
  151.9486  143.5882  158.5037 N   0  0  0  0  0  0  0  0  0  0  0  0
  151.3767  144.9295  158.4202 C   0  0  0  0  0  0  0  0  0  0  0  0
  151.2675  145.5974  159.7970 C   0  0  0  0  0  0  0  0  0  0  0  0
  151.2024  142.4614  158.0866 C   0  0  0  0  0  0  0  0  0  0  0  0
  151.5570  141.1281  158.4106 C   0  0  0  0  0  0  0  0  0  0  0  0
  150.7631  140.0575  157.9510 C   0  0  0  0  0  0  0  0  0  0  0  0
  149.6121  140.3185  157.1807 C   0  0  0  0  0  0  0  0  0  0  0  0
  148.8581  139.2084  156.7142 N   0  0  0  0  0  0  0  0  0  0  0  0
  148.7415  137.9659  157.2450 C   0  0  0  0  0  0  0  0  0  0  0  0
  149.4293  137.6679  158.2197 O   0  0  0  0  0  0  0  0  0  0  0  0
  147.8910  137.0594  156.6750 N   0  5  0  0  0  0  0  0  0  0  0  0
  147.8469  136.5728  155.2888 C   0  0  1  0  0  0  0  0  0  0  0  0
  146.9552  135.3247  155.1516 C   0  0  0  0  0  0  0  0  0  0  0  0
  146.2568  135.4650  153.7847 C   0  0  0  0  0  0  0  0  0  0  0  0
  146.7358  136.7439  153.2250 N   0  3  1  0  0  0  0  0  0  0  0  0
  145.8381  137.4532  152.2869 C   0  0  0  0  0  0  0  0  0  0  0  0
  146.5638  138.6956  151.7316 C   0  0  0  0  0  0  0  0  0  0  0  0
  147.1110  139.5939  152.8605 C   0  0  0  0  0  0  0  0  0  0  0  0
  147.9675  138.7833  153.8535 C   0  0  0  0  0  0  0  0  0  0  0  0
  147.1506  137.5782  154.3642 C   0  0  2  0  0  0  0  0  0  0  0  0
  149.3036  141.6638  156.8732 C   0  0  0  0  0  0  0  0  0  0  0  0
  150.0927  142.6583  157.3329 N   0  3  0  0  0  0  0  0  0  0  0  0
  154.2709  142.5394  160.7950 H   0  0  0  0  0  0  0  0  0  0  0  0
  152.8725  141.6259  160.2404 H   0  0  0  0  0  0  0  0  0  0  0  0
  152.6473  143.1274  161.1362 H   0  0  0  0  0  0  0  0  0  0  0  0
  153.7094  144.4098  159.2539 H   0  0  0  0  0  0  0  0  0  0  0  0
  153.9546  142.9465  158.3520 H   0  0  0  0  0  0  0  0  0  0  0  0
  151.9458  145.5532  157.7314 H   0  0  0  0  0  0  0  0  0  0  0  0
  150.3799  144.8537  157.9843 H   0  0  0  0  0  0  0  0  0  0  0  0
  150.8257  146.5903  159.7110 H   0  0  0  0  0  0  0  0  0  0  0  0
  152.2457  145.7099  160.2650 H   0  0  0  0  0  0  0  0  0  0  0  0
  150.6399  145.0136  160.4709 H   0  0  0  0  0  0  0  0  0  0  0  0
  152.4247  140.9028  159.0114 H   0  0  0  0  0  0  0  0  0  0  0  0
  151.0363  139.0415  158.1961 H   0  0  0  0  0  0  0  0  0  0  0  0
  148.3600  139.3562  155.8488 H   0  0  0  0  0  0  0  0  0  0  0  0
  148.8333  136.3500  154.8779 H   0  0  0  0  0  0  0  0  0  0  0  0
  147.5425  134.4086  155.2194 H   0  0  0  0  0  0  0  0  0  0  0  0
  146.1998  135.2854  155.9384 H   0  0  0  0  0  0  0  0  0  0  0  0
  146.4962  134.6425  153.1096 H   0  0  0  0  0  0  0  0  0  0  0  0
  145.1733  135.4873  153.9162 H   0  0  0  0  0  0  0  0  0  0  0  0
  145.5576  136.7851  151.4721 H   0  0  0  0  0  0  0  0  0  0  0  0
  144.9195  137.7428  152.7992 H   0  0  0  0  0  0  0  0  0  0  0  0
  147.3910  138.3743  151.0974 H   0  0  0  0  0  0  0  0  0  0  0  0
  145.8904  139.2670  151.0921 H   0  0  0  0  0  0  0  0  0  0  0  0
  147.6971  140.4115  152.4399 H   0  0  0  0  0  0  0  0  0  0  0  0
  146.2776  140.0533  153.3934 H   0  0  0  0  0  0  0  0  0  0  0  0
  148.8831  138.4543  153.3573 H   0  0  0  0  0  0  0  0  0  0  0  0
  148.2727  139.4246  154.6824 H   0  0  0  0  0  0  0  0  0  0  0  0
  146.2480  137.9458  154.8592 H   0  0  0  0  0  0  0  0  0  0  0  0
  148.4694  141.9862  156.2678 H   0  0  0  0  0  0  0  0  0  0  0  0
  147.5847  136.5280  152.7225 H   0  0  0  0  0  0  0  0  0  0  0  0
  149.8398  143.6164  157.0914 H   0  0  0  0  0  0  0  0  0  0  0  0
  1  2  1  0  0  0  0
  1 25  1  0  0  0  0
  1 26  1  0  0  0  0
  1 27  1  0  0  0  0
  2  3  1  0  0  0  0
  2 28  1  0  0  0  0
  2 29  1  0  0  0  0
  3  4  1  0  0  0  0
  3  6  1  0  0  0  0
  4  5  1  0  0  0  0
  4 30  1  0  0  0  0
  4 31  1  0  0  0  0
  5 32  1  0  0  0  0
  5 33  1  0  0  0  0
  5 34  1  0  0  0  0
  6 24  1  0  0  0  0
  6  7  2  0  0  0  0
  7  8  1  0  0  0  0
  7 35  1  0  0  0  0
  8  9  2  0  0  0  0
  8 36  1  0  0  0  0
  9 10  1  0  0  0  0
  9 23  1  0  0  0  0
 10 11  1  0  0  0  0
 10 37  1  0  0  0  0
 11 12  2  0  0  0  0
 11 13  1  0  0  0  0
 13 14  1  0  0  0  0
 14 22  1  0  0  0  0
 14 15  1  0  0  0  0
 14 38  1  0  0  0  0
 15 16  1  0  0  0  0
 15 39  1  0  0  0  0
 15 40  1  0  0  0  0
 16 17  1  0  0  0  0
 16 41  1  0  0  0  0
 16 42  1  0  0  0  0
 17 22  1  0  0  0  0
 17 18  1  0  0  0  0
 17 53  1  0  0  0  0
 18 19  1  0  0  0  0
 18 43  1  0  0  0  0
 18 44  1  0  0  0  0
 19 20  1  0  0  0  0
 19 45  1  0  0  0  0
 19 46  1  0  0  0  0
 20 21  1  0  0  0  0
 20 47  1  0  0  0  0
 20 48  1  0  0  0  0
 21 22  1  0  0  0  0
 21 49  1  0  0  0  0
 21 50  1  0  0  0  0
 22 51  1  0  0  0  0
 23 24  2  0  0  0  0
 23 52  1  0  0  0  0
 24 54  1  0  0  0  0
M  CHG  1  13  -1
M  CHG  1  17   1
M  CHG  1  24   1
M  END
> <s_m_source_file>
AV-unprocessed.smi

> <i_m_source_file_index>
1701

> <i_lp_mmshare_version>
43012

> <i_f3d_flags>
0

> <s_epik_input>
W0NIM11bQ0gyXU4oW0NIMl1bQ0gzXSljMVtjSF1bY0hdYyhbY0hdbjEpW05IXUMoPU8pW05IXVtDQEhdKFtDSDJdW0NIMl0yKVtDQEBIXShOMjMpW0NIMl1bQ0gyXVtDSDJdW0NIMl0z

> <s_epik_cmdline>
J2VwaWtfcHl0aG9uJywgJy1waCcsICc3LjAnLCAnLXRuJywgJzgnLCAnLW1hJywgJzIwMCcsICctbWV0YWxfYmluZGluZycsICctaW1hZScsICc8aW5maWxlLm1hZT4nLCAnLW9tYWUnLCAnPG91dGZpbGUubWFlPic=

> <r_lp_tautomer_probability>
0.999994

> <r_epik_Ionization_Penalty>
7.37095

> <r_epik_Ionization_Penalty_Charging>
7.37095

> <r_epik_Ionization_Penalty_Neutral>
3.78969e-06

> <r_epik_State_Penalty>
6.83842

> <r_epik_Charging_Adjusted_Penalty>
14.2094

> <i_epik_Tot_Q>
1

> <i_epik_Tot_abs_Q>
3

> <r_epik_Metal_State_Penalty>
2.78552

> <b_epik_Metal_Only>
1

> <s_lp_Force_Field>
OPLS_2005

> <r_lp_Energy>
47.735

> <b_lp_Chiralities_Consistent>
1

> <s_lp_Variant>
AV-unprocessed.smi:1701-22

> <Gold.Version>
5.8.1

> <Gold.Id.Protein>
6NUR|6NUR_protein|mol2

> <Gold.PLP.Fitness>
50.0205

> <Gold.PLP.PLP>
-40.7407

> <Gold.PLP.part.hbond>
-2.0000

> <Gold.PLP.part.metal>
0.0000

> <Gold.PLP.part.buried>
-3.7286

> <Gold.PLP.part.nonpolar>
-35.7130

> <Gold.PLP.part.repulsive>
0.0460

> <Gold.PLP.ligand.clash>
0.0068

> <Gold.PLP.ligand.torsion>
0.9902

> <Gold.PLP.Chemscore.Hbond>
3.7129

> <Gold.PLP.Chemscore.CHOScore>
0.0000

> <Gold.PLP.Chemscore.Metal>
0.0000

> <Gold.Chemscore.Hbonds>
donor molecule, donor type, donor heavy atom, donor atom, acceptor molecule, acceptor atom, score
      L1  H    17    53       P1  7948  2.00
      L1  H    24    54       P1  8028  1.71

> <Gold.PLP.Chemscore.Internal.Correction>
0.1285

> <Gold.Rescore>
     Score         DG    S(hbond)    S(metal)    S(lipo)     H(rot)  DE(clash)    DE(int)     intcor
     16.88     -20.55       1.85        0.00     104.24       1.28       0.24       3.43       ----

> <Gold.Chemscore.Fitness>
16.8847

> <Gold.Chemscore.DG>
-20.5541

> <Gold.Chemscore.ZeroCoef>
-5.4800

> <Gold.Chemscore.Hbond>
1.8455

> <Gold.Chemscore.Metal>
0.0000

> <Gold.Chemscore.Lipo>
104.2441

> <Gold.Chemscore.Internal_Hbond>
0.0000

> <Gold.Chemscore.DEClash>
0.2405

> <Gold.Chemscore.DEInternal>
3.4289

> <Gold.Chemscore.Rot>
1.2838

> <Gold.Chemscore.Internal.Correction>
   9.000000E+99

> <Gold.Chemscore.Hbonds>
donor molecule, donor type, donor heavy atom, donor atom, acceptor molecule, acceptor atom, score
      L1  H    17    53       P1  7948  1.00
      L1  H    24    54       P1  8028  0.75

> <Gold.Chemscore.Hbond.Weighted>
-6.1641

> <Gold.Chemscore.Metal.Weighted>
-0.0000

> <Gold.Chemscore.Lipo.Weighted>
-12.1966

> <Gold.Chemscore.Internal_Hbond.Weighted>
0.0000

> <Gold.Chemscore.DEClash.Weighted>
0.2405

> <Gold.Chemscore.DEInternal.Weighted>
3.4289

> <Gold.Chemscore.Rot.Weighted>
3.2865

> <Gold.Chemscore.Internal.Correction.Weighted>
   9.000000E+99

> <Gold.Protein.RotatedTorsions>
[ 6907 6896 6895 6894 ] final   71.92 input  -60.11 | X-H torsion
[ 7974 7965 7964 7962 ] final  108.42 input  175.53 | X-H torsion
[ 8008 7997 7996 7995 ] final    1.72 input   59.86 | X-H torsion
[ 10167 10162 10161 10158 ] final -147.76 input  -65.29 | X-H torsion
[ 10718 10713 10712 10709 ] final  -25.83 input   66.30 | X-H torsion
[ 10763 10752 10751 10750 ] final    9.78 input  -60.55 | X-H torsion
[ 11005 11000 10999 10996 ] final  176.89 input  -57.11 | X-H torsion

> <Gold.Protein.ActiveResidues>
 VAL166  LYS551  ARG553  GLY616  TRP617  ASP618  TYR619  PRO620  LYS621  CYS622 
 ASP623  PHE694  ASN695  SER759  ASP760  ASP761  ALA762  ILE779  LEU786  VAL792 
 PHE793  MET794  SER795  GLU796  ALA797  LYS798  CYS799  TRP800  GLU811  SER814 

> <Gold.Protein.RotatedAtoms>
  152.4838  134.4649  159.9616 H   0  0  0  0  0  0  0  0  0  0  0  0  # atno 6907 bound_to 6896
  151.4649  133.3577  159.2822 H   0  0  0  0  0  0  0  0  0  0  0  0  # atno 6908 bound_to 6896
  150.8931  134.8362  159.7368 H   0  0  0  0  0  0  0  0  0  0  0  0  # atno 6909 bound_to 6896
  145.2809  139.2633  143.3916 H   0  0  0  0  0  0  0  0  0  0  0  0  # atno 7974 bound_to 7965
  154.6831  140.2637  155.6888 H   0  0  0  0  0  0  0  0  0  0  0  0  # atno 8008 bound_to 7997
  156.2704  140.2806  156.1305 H   0  0  0  0  0  0  0  0  0  0  0  0  # atno 8009 bound_to 7997
  155.1003  140.0374  157.2685 H   0  0  0  0  0  0  0  0  0  0  0  0  # atno 8010 bound_to 7997
  139.7593  143.8401  152.2603 H   0  0  0  0  0  0  0  0  0  0  0  0  # atno 10167 bound_to 10162
  156.4592  130.4500  149.6939 H   0  0  0  0  0  0  0  0  0  0  0  0  # atno 10718 bound_to 10713
  153.2103  135.6868  153.8122 H   0  0  0  0  0  0  0  0  0  0  0  0  # atno 10763 bound_to 10752
  153.7357  135.3246  155.3295 H   0  0  0  0  0  0  0  0  0  0  0  0  # atno 10764 bound_to 10752
  154.8218  135.4646  154.0907 H   0  0  0  0  0  0  0  0  0  0  0  0  # atno 10765 bound_to 10752
  140.3780  134.6971  157.4434 H   0  0  0  0  0  0  0  0  0  0  0  0  # atno 11005 bound_to 11000
  146.3216  140.3276  142.8638 LP  0  0  0  0  0  0  0  0  0  0  0  0  # atno 17320 bound_to 7965
  144.9254  140.7915  143.5722 LP  0  0  0  0  0  0  0  0  0  0  0  0  # atno 17321 bound_to 7965
  139.8403  144.7213  150.9340 LP  0  0  0  0  0  0  0  0  0  0  0  0  # atno 17342 bound_to 10162
  140.7805  143.3990  151.1181 LP  0  0  0  0  0  0  0  0  0  0  0  0  # atno 17343 bound_to 10162
  156.3734  130.7542  151.2528 LP  0  0  0  0  0  0  0  0  0  0  0  0  # atno 17370 bound_to 10713
  157.7499  131.0316  150.4190 LP  0  0  0  0  0  0  0  0  0  0  0  0  # atno 17371 bound_to 10713
  140.0500  134.6144  155.8873 LP  0  0  0  0  0  0  0  0  0  0  0  0  # atno 17394 bound_to 11000
  141.1933  133.6578  156.5540 LP  0  0  0  0  0  0  0  0  0  0  0  0  # atno 17395 bound_to 11000

$$$$
