AV-unprocessed.smi:2736|AV-procd|sdf|10545|dock2
  -GOLD-   2272014593D 1   1.00000     0.00000
 Structure written by MMmdl.
 38 40  0  0  0  0  0  0  0  0  1 V2000
  146.0103  143.1434  160.3028 C   0  0  0  0  0  0  0  0  0  0  0  0
  146.6356  143.1351  158.9670 N   0  0  0  0  0  0  0  0  0  0  0  0
  147.7429  142.3513  158.7751 C   0  0  0  0  0  0  0  0  0  0  0  0
  148.2648  141.6437  159.6369 O   0  0  0  0  0  0  0  0  0  0  0  0
  148.2857  142.4148  157.4162 C   0  0  0  0  0  0  0  0  0  0  0  0
  147.7396  143.1765  156.4382 C   0  0  0  0  0  0  0  0  0  0  0  0
  148.4447  143.0529  155.2464 N   0  0  0  0  0  0  0  0  0  0  0  0
  149.4111  142.1973  155.5837 C   0  0  0  0  0  0  0  0  0  0  0  0
  149.3900  141.7699  156.8633 N   0  0  0  0  0  0  0  0  0  0  0  0
  150.3288  140.8452  157.4816 C   0  0  0  0  0  0  0  0  0  0  0  0
  151.7736  141.3854  157.5098 C   0  0  2  0  0  0  0  0  0  0  0  0
  152.6834  140.3221  157.2943 O   0  0  0  0  0  0  0  0  0  0  0  0
  152.0562  142.1303  158.8124 C   0  0  0  0  0  0  0  0  0  0  0  0
  151.4338  143.3794  159.0420 C   0  0  0  0  0  0  0  0  0  0  0  0
  151.6769  144.0978  160.2277 C   0  0  0  0  0  0  0  0  0  0  0  0
  152.5500  143.5756  161.1982 C   0  0  0  0  0  0  0  0  0  0  0  0
  153.1818  142.3381  160.9777 C   0  0  0  0  0  0  0  0  0  0  0  0
  152.9437  141.6144  159.7917 C   0  0  0  0  0  0  0  0  0  0  0  0
  153.7639  140.1077  159.5776 Cl  0  0  0  0  0  0  0  0  0  0  0  0
  146.5930  143.9520  156.7414 N   0  0  0  0  0  0  0  0  0  0  0  0
  146.0323  144.7675  155.6602 C   0  0  0  0  0  0  0  0  0  0  0  0
  146.0443  143.9328  158.0012 C   0  0  0  0  0  0  0  0  0  0  0  0
  145.0477  144.6114  158.2645 O   0  0  0  0  0  0  0  0  0  0  0  0
  146.4874  142.4943  161.0378 H   0  0  0  0  0  0  0  0  0  0  0  0
  144.9693  142.8223  160.2383 H   0  0  0  0  0  0  0  0  0  0  0  0
  146.0252  144.1504  160.7225 H   0  0  0  0  0  0  0  0  0  0  0  0
  150.1623  141.8746  154.8778 H   0  0  0  0  0  0  0  0  0  0  0  0
  149.9837  140.6190  158.4906 H   0  0  0  0  0  0  0  0  0  0  0  0
  150.2916  139.9033  156.9323 H   0  0  0  0  0  0  0  0  0  0  0  0
  151.9162  142.0568  156.6645 H   0  0  0  0  0  0  0  0  0  0  0  0
  152.4238  139.5922  157.8357 H   0  0  0  0  0  0  0  0  0  0  0  0
  150.7652  143.7972  158.3035 H   0  0  0  0  0  0  0  0  0  0  0  0
  151.1945  145.0504  160.3909 H   0  0  0  0  0  0  0  0  0  0  0  0
  152.7383  144.1248  162.1088 H   0  0  0  0  0  0  0  0  0  0  0  0
  153.8561  141.9429  161.7232 H   0  0  0  0  0  0  0  0  0  0  0  0
  145.1432  145.3349  155.9367 H   0  0  0  0  0  0  0  0  0  0  0  0
  145.7598  144.1302  154.8185 H   0  0  0  0  0  0  0  0  0  0  0  0
  146.7770  145.4829  155.3099 H   0  0  0  0  0  0  0  0  0  0  0  0
  1  2  1  0  0  0  0
  1 24  1  0  0  0  0
  1 25  1  0  0  0  0
  1 26  1  0  0  0  0
  2 22  1  0  0  0  0
  2  3  1  0  0  0  0
  3  4  2  0  0  0  0
  3  5  1  0  0  0  0
  5  9  1  0  0  0  0
  5  6  2  0  0  0  0
  6  7  1  0  0  0  0
  6 20  1  0  0  0  0
  7  8  2  0  0  0  0
  8  9  1  0  0  0  0
  8 27  1  0  0  0  0
  9 10  1  0  0  0  0
 10 11  1  0  0  0  0
 10 28  1  0  0  0  0
 10 29  1  0  0  0  0
 11 12  1  0  0  0  0
 11 13  1  0  0  0  0
 11 30  1  0  0  0  0
 12 31  1  0  0  0  0
 13 18  1  0  0  0  0
 13 14  2  0  0  0  0
 14 15  1  0  0  0  0
 14 32  1  0  0  0  0
 15 16  2  0  0  0  0
 15 33  1  0  0  0  0
 16 17  1  0  0  0  0
 16 34  1  0  0  0  0
 17 18  2  0  0  0  0
 17 35  1  0  0  0  0
 18 19  1  0  0  0  0
 20 21  1  0  0  0  0
 20 22  1  0  0  0  0
 21 36  1  0  0  0  0
 21 37  1  0  0  0  0
 21 38  1  0  0  0  0
 22 23  2  0  0  0  0
M  END
> <s_m_source_file>
AV-unprocessed.smi

> <i_m_source_file_index>
2736

> <i_lp_mmshare_version>
43012

> <i_f3d_flags>
0

> <s_epik_input>
Tz1jMW4oW0NIM10pYyg9TyluKFtDSDNdKWMoYzEyKW5bY0hdbjJbQ0gyXVtDQEhdKFtPSF0pYzNbY0hdW2NIXVtjSF1bY0hdYzNDbA==

> <s_epik_cmdline>
J2VwaWtfcHl0aG9uJywgJy1waCcsICc3LjAnLCAnLXRuJywgJzgnLCAnLW1hJywgJzIwMCcsICctbWV0YWxfYmluZGluZycsICctaW1hZScsICc8aW5maWxlLm1hZT4nLCAnLW9tYWUnLCAnPG91dGZpbGUubWFlPic=

> <r_lp_tautomer_probability>
1

> <r_epik_Ionization_Penalty>
1.63404e-06

> <r_epik_Ionization_Penalty_Charging>
3.74189e-09

> <r_epik_Ionization_Penalty_Neutral>
1.63029e-06

> <r_epik_State_Penalty>
-0

> <r_epik_Charging_Adjusted_Penalty>
3.74189e-09

> <i_epik_Tot_Q>
0

> <i_epik_Tot_abs_Q>
0

> <r_epik_Metal_State_Penalty>
-0

> <b_epik_Metal_Only>
0

> <s_lp_Force_Field>
OPLS_2005

> <r_lp_Energy>
36.4155

> <b_lp_Chiralities_Consistent>
1

> <s_lp_Variant>
AV-unprocessed.smi:2736-1

> <Gold.Version>
5.8.1

> <Gold.Id.Protein>
6NUR|6NUR_protein|mol2

> <Gold.PLP.Fitness>
47.2345

> <Gold.PLP.PLP>
-45.6176

> <Gold.PLP.part.hbond>
-2.6897

> <Gold.PLP.part.metal>
0.0000

> <Gold.PLP.part.buried>
-5.4681

> <Gold.PLP.part.nonpolar>
-35.2110

> <Gold.PLP.part.repulsive>
0.4069

> <Gold.PLP.ligand.clash>
0.0000

> <Gold.PLP.ligand.torsion>
0.7029

> <Gold.PLP.Chemscore.Hbond>
1.0000

> <Gold.PLP.Chemscore.CHOScore>
0.0000

> <Gold.PLP.Chemscore.Metal>
0.0000

> <Gold.Chemscore.Hbonds>
donor molecule, donor type, donor heavy atom, donor atom, acceptor molecule, acceptor atom, score
      P1  H  7997  8010       L1    12  0.74
      P1  H  8022  8030       L1     7  0.18

> <Gold.PLP.Chemscore.Internal.Correction>
0.0227

> <Gold.Rescore>
     Score         DG    S(hbond)    S(metal)    S(lipo)     H(rot)  DE(clash)    DE(int)     intcor
     12.19     -14.80       0.96        0.00      99.37       2.15       0.01       2.60       ----

> <Gold.Chemscore.Fitness>
12.1883

> <Gold.Chemscore.DG>
-14.7984

> <Gold.Chemscore.ZeroCoef>
-5.4800

> <Gold.Chemscore.Hbond>
0.9550

> <Gold.Chemscore.Metal>
0.0000

> <Gold.Chemscore.Lipo>
99.3670

> <Gold.Chemscore.Internal_Hbond>
0.0000

> <Gold.Chemscore.DEClash>
0.0139

> <Gold.Chemscore.DEInternal>
2.5962

> <Gold.Chemscore.Rot>
2.1474

> <Gold.Chemscore.Internal.Correction>
   9.000000E+99

> <Gold.Chemscore.Hbonds>
donor molecule, donor type, donor heavy atom, donor atom, acceptor molecule, acceptor atom, score
      P1  H  6933  6944       L1     4  0.02
      P1  H  6934  6946       L1     4  0.02
      P1  H  7997  8010       L1    12  0.37
      P1  H  8022  8030       L1     7  0.19

> <Gold.Chemscore.Hbond.Weighted>
-3.1898

> <Gold.Chemscore.Metal.Weighted>
-0.0000

> <Gold.Chemscore.Lipo.Weighted>
-11.6259

> <Gold.Chemscore.Internal_Hbond.Weighted>
0.0000

> <Gold.Chemscore.DEClash.Weighted>
0.0139

> <Gold.Chemscore.DEInternal.Weighted>
2.5962

> <Gold.Chemscore.Rot.Weighted>
5.4974

> <Gold.Chemscore.Internal.Correction.Weighted>
   9.000000E+99

> <Gold.Protein.RotatedTorsions>
[ 6907 6896 6895 6894 ] final   25.54 input  -60.11 | X-H torsion
[ 7974 7965 7964 7962 ] final -149.88 input  175.53 | X-H torsion
[ 8008 7997 7996 7995 ] final   37.35 input   59.86 | X-H torsion
[ 10167 10162 10161 10158 ] final  125.71 input  -65.29 | X-H torsion
[ 10718 10713 10712 10709 ] final -110.00 input   66.30 | X-H torsion
[ 10763 10752 10751 10750 ] final   -1.19 input  -60.55 | X-H torsion
[ 11005 11000 10999 10996 ] final    7.07 input  -57.11 | X-H torsion

> <Gold.Protein.ActiveResidues>
 VAL166  LYS551  ARG553  GLY616  TRP617  ASP618  TYR619  PRO620  LYS621  CYS622 
 ASP623  PHE694  ASN695  SER759  ASP760  ASP761  ALA762  ILE779  LEU786  VAL792 
 PHE793  MET794  SER795  GLU796  ALA797  LYS798  CYS799  TRP800  GLU811  SER814 

> <Gold.Protein.RotatedAtoms>
  151.9740  135.0062  160.0553 H   0  0  0  0  0  0  0  0  0  0  0  0  # atno 6907 bound_to 6896
  152.1757  133.4668  159.4940 H   0  0  0  0  0  0  0  0  0  0  0  0  # atno 6908 bound_to 6896
  150.6909  134.1815  159.4293 H   0  0  0  0  0  0  0  0  0  0  0  0  # atno 6909 bound_to 6896
  144.7940  140.5005  143.5753 H   0  0  0  0  0  0  0  0  0  0  0  0  # atno 7974 bound_to 7965
  155.2024  140.3317  155.4341 H   0  0  0  0  0  0  0  0  0  0  0  0  # atno 8008 bound_to 7997
  156.2402  140.1891  156.7060 H   0  0  0  0  0  0  0  0  0  0  0  0  # atno 8009 bound_to 7997
  154.6132  140.0606  156.9507 H   0  0  0  0  0  0  0  0  0  0  0  0  # atno 8010 bound_to 7997
  139.5670  144.6917  151.3882 H   0  0  0  0  0  0  0  0  0  0  0  0  # atno 10167 bound_to 10162
  156.0567  130.5793  150.8177 H   0  0  0  0  0  0  0  0  0  0  0  0  # atno 10718 bound_to 10713
  153.3417  135.6981  153.6862 H   0  0  0  0  0  0  0  0  0  0  0  0  # atno 10763 bound_to 10752
  153.5624  135.3532  155.2805 H   0  0  0  0  0  0  0  0  0  0  0  0  # atno 10764 bound_to 10752
  154.8638  135.4252  154.2631 H   0  0  0  0  0  0  0  0  0  0  0  0  # atno 10765 bound_to 10752
  140.5524  134.0270  155.7941 H   0  0  0  0  0  0  0  0  0  0  0  0  # atno 11005 bound_to 11000
  145.5720  139.1484  143.3283 LP  0  0  0  0  0  0  0  0  0  0  0  0  # atno 17320 bound_to 7965
  146.2203  140.5852  142.9020 LP  0  0  0  0  0  0  0  0  0  0  0  0  # atno 17321 bound_to 7965
  140.6954  143.7761  150.7319 LP  0  0  0  0  0  0  0  0  0  0  0  0  # atno 17342 bound_to 10162
  140.1256  143.4572  152.2286 LP  0  0  0  0  0  0  0  0  0  0  0  0  # atno 17343 bound_to 10162
  157.5543  131.0944  150.9651 LP  0  0  0  0  0  0  0  0  0  0  0  0  # atno 17370 bound_to 10713
  156.9904  130.5561  149.5303 LP  0  0  0  0  0  0  0  0  0  0  0  0  # atno 17371 bound_to 10713
  141.1164  133.9534  157.2815 LP  0  0  0  0  0  0  0  0  0  0  0  0  # atno 17394 bound_to 11000
  139.9448  135.0185  156.8820 LP  0  0  0  0  0  0  0  0  0  0  0  0  # atno 17395 bound_to 11000

$$$$
