AV-unprocessed.smi:1047|AV-procd|sdf|4568|dock3
  -GOLD-   22720 3 23D 1   1.00000     0.00000
 Structure written by MMmdl.
 56 58  0  0  0  0  0  0  0  0  2 V2000
  146.8218  144.3307  161.5426 C   0  0  0  0  0  0  0  0  0  0  0  0
  145.6825  143.3043  161.6208 C   0  0  0  0  0  0  0  0  0  0  0  0
  145.7394  142.2441  160.6157 N   0  0  0  0  0  0  0  0  0  0  0  0
  144.4611  141.5549  160.4560 C   0  0  0  0  0  0  0  0  0  0  0  0
  144.5285  140.4660  159.3716 C   0  0  0  0  0  0  0  0  0  0  0  0
  144.9703  141.0373  158.1443 O   0  0  0  0  0  0  0  0  0  0  0  0
  146.2457  141.6648  158.2502 C   0  0  1  0  0  0  0  0  0  0  0  0
  146.6219  142.2248  156.8720 C   0  0  0  0  0  0  0  0  0  0  0  0
  148.0575  142.5639  156.8114 N   0  3  0  0  0  0  0  0  0  0  0  0
  148.9465  141.3914  156.6907 C   0  0  0  0  0  0  0  0  0  0  0  0
  150.1141  141.6589  155.7196 C   0  0  2  0  0  0  0  0  0  0  0  0
  149.6706  141.4558  154.3927 O   0  0  0  0  0  0  0  0  0  0  0  0
  151.3264  140.7329  155.9434 C   0  0  0  0  0  0  0  0  0  0  0  0
  151.7595  140.6995  157.3286 N   0  0  0  0  0  0  0  0  0  0  0  0
  152.1843  139.6227  158.0168 C   0  0  0  0  0  0  0  0  0  0  0  0
  152.5432  139.8125  159.2830 N   0  0  0  0  0  0  0  0  0  0  0  0
  152.3187  141.1695  159.4371 C   0  0  0  0  0  0  0  0  0  0  0  0
  152.5043  142.0085  160.5576 C   0  0  0  0  0  0  0  0  0  0  0  0
  152.2115  143.3890  160.4858 C   0  0  0  0  0  0  0  0  0  0  0  0
  152.4286  144.2546  161.7147 C   0  0  0  0  0  0  0  0  0  0  0  0
  151.7233  143.9503  159.2785 C   0  0  0  0  0  0  0  0  0  0  0  0
  151.4027  145.4311  159.1785 C   0  0  0  0  0  0  0  0  0  0  0  0
  151.5297  143.1261  158.1503 C   0  0  0  0  0  0  0  0  0  0  0  0
  151.8260  141.7539  158.2338 C   0  0  0  0  0  0  0  0  0  0  0  0
  146.1594  142.7700  159.3216 C   0  0  0  0  0  0  0  0  0  0  0  0
  146.6532  145.1434  162.2494 H   0  0  0  0  0  0  0  0  0  0  0  0
  146.8889  144.7682  160.5460 H   0  0  0  0  0  0  0  0  0  0  0  0
  147.7879  143.8883  161.7843 H   0  0  0  0  0  0  0  0  0  0  0  0
  145.6532  142.8686  162.6206 H   0  0  0  0  0  0  0  0  0  0  0  0
  144.7450  143.8495  161.5041 H   0  0  0  0  0  0  0  0  0  0  0  0
  144.1607  141.0919  161.3956 H   0  0  0  0  0  0  0  0  0  0  0  0
  143.6821  142.2739  160.1980 H   0  0  0  0  0  0  0  0  0  0  0  0
  145.2054  139.6642  159.6710 H   0  0  0  0  0  0  0  0  0  0  0  0
  143.5462  140.0173  159.2232 H   0  0  0  0  0  0  0  0  0  0  0  0
  146.9895  140.9256  158.5541 H   0  0  0  0  0  0  0  0  0  0  0  0
  146.3783  141.5033  156.0908 H   0  0  0  0  0  0  0  0  0  0  0  0
  146.0432  143.1269  156.6699 H   0  0  0  0  0  0  0  0  0  0  0  0
  148.2116  143.1668  156.0160 H   0  0  0  0  0  0  0  0  0  0  0  0
  149.3282  141.1671  157.6866 H   0  0  0  0  0  0  0  0  0  0  0  0
  148.3727  140.5219  156.3663 H   0  0  0  0  0  0  0  0  0  0  0  0
  150.4401  142.6958  155.8138 H   0  0  0  0  0  0  0  0  0  0  0  0
  148.9826  142.0739  154.2000 H   0  0  0  0  0  0  0  0  0  0  0  0
  151.0952  139.7152  155.6261 H   0  0  0  0  0  0  0  0  0  0  0  0
  152.1693  141.0626  155.3340 H   0  0  0  0  0  0  0  0  0  0  0  0
  152.2373  138.6446  157.5607 H   0  0  0  0  0  0  0  0  0  0  0  0
  152.8768  141.5810  161.4771 H   0  0  0  0  0  0  0  0  0  0  0  0
  151.5010  144.7489  162.0042 H   0  0  0  0  0  0  0  0  0  0  0  0
  153.1813  145.0177  161.5153 H   0  0  0  0  0  0  0  0  0  0  0  0
  152.7697  143.6620  162.5642 H   0  0  0  0  0  0  0  0  0  0  0  0
  151.0747  145.7006  158.1742 H   0  0  0  0  0  0  0  0  0  0  0  0
  152.2820  146.0307  159.4150 H   0  0  0  0  0  0  0  0  0  0  0  0
  150.6055  145.6962  159.8733 H   0  0  0  0  0  0  0  0  0  0  0  0
  151.1587  143.5414  157.2252 H   0  0  0  0  0  0  0  0  0  0  0  0
  145.4620  143.5423  158.9931 H   0  0  0  0  0  0  0  0  0  0  0  0
  147.1330  143.2519  159.4205 H   0  0  0  0  0  0  0  0  0  0  0  0
  148.3009  143.0681  157.6523 H   0  0  0  0  0  0  0  0  0  0  0  0
  1  2  1  0  0  0  0
  1 26  1  0  0  0  0
  1 27  1  0  0  0  0
  1 28  1  0  0  0  0
  2  3  1  0  0  0  0
  2 29  1  0  0  0  0
  2 30  1  0  0  0  0
  3 25  1  0  0  0  0
  3  4  1  0  0  0  0
  4  5  1  0  0  0  0
  4 31  1  0  0  0  0
  4 32  1  0  0  0  0
  5  6  1  0  0  0  0
  5 33  1  0  0  0  0
  5 34  1  0  0  0  0
  6  7  1  0  0  0  0
  7  8  1  0  0  0  0
  7 25  1  0  0  0  0
  7 35  1  0  0  0  0
  8  9  1  0  0  0  0
  8 36  1  0  0  0  0
  8 37  1  0  0  0  0
  9 10  1  0  0  0  0
  9 38  1  0  0  0  0
  9 56  1  0  0  0  0
 10 11  1  0  0  0  0
 10 39  1  0  0  0  0
 10 40  1  0  0  0  0
 11 12  1  0  0  0  0
 11 13  1  0  0  0  0
 11 41  1  0  0  0  0
 12 42  1  0  0  0  0
 13 14  1  0  0  0  0
 13 43  1  0  0  0  0
 13 44  1  0  0  0  0
 14 24  1  0  0  0  0
 14 15  1  0  0  0  0
 15 16  2  0  0  0  0
 15 45  1  0  0  0  0
 16 17  1  0  0  0  0
 17 24  2  0  0  0  0
 17 18  1  0  0  0  0
 18 19  2  0  0  0  0
 18 46  1  0  0  0  0
 19 20  1  0  0  0  0
 19 21  1  0  0  0  0
 20 47  1  0  0  0  0
 20 48  1  0  0  0  0
 20 49  1  0  0  0  0
 21 22  1  0  0  0  0
 21 23  2  0  0  0  0
 22 50  1  0  0  0  0
 22 51  1  0  0  0  0
 22 52  1  0  0  0  0
 23 24  1  0  0  0  0
 23 53  1  0  0  0  0
 25 54  1  0  0  0  0
 25 55  1  0  0  0  0
M  CHG  1   9   1
M  END
> <s_m_source_file>
AV-unprocessed.smi

> <i_m_source_file_index>
1047

> <i_lp_mmshare_version>
43012

> <i_f3d_flags>
0

> <s_epik_input>
W0NIM11bQ0gyXU4xW0NIMl1bQ0gyXU9bQ0BIXShbQ0gyXTEpW0NIMl1bTkhdW0NIMl1bQ0BIXShbT0hdKVtDSDJdbihbY0hdbjIpYyhjMjMpW2NIXWMoW0NIM10pYyhbY0hdMylbQ0gzXQ==

> <s_epik_cmdline>
J2VwaWtfcHl0aG9uJywgJy1waCcsICc3LjAnLCAnLXRuJywgJzgnLCAnLW1hJywgJzIwMCcsICctbWV0YWxfYmluZGluZycsICctaW1hZScsICc8aW5maWxlLm1hZT4nLCAnLW9tYWUnLCAnPG91dGZpbGUubWFlPic=

> <r_epik_Ionization_Penalty>
0.692425

> <r_epik_Ionization_Penalty_Charging>
0.0243549

> <r_epik_Ionization_Penalty_Neutral>
0.66807

> <r_epik_State_Penalty>
0.592789

> <r_epik_Charging_Adjusted_Penalty>
0.617144

> <i_epik_Tot_Q>
1

> <i_epik_Tot_abs_Q>
1

> <r_epik_Metal_State_Penalty>
0.508021

> <b_epik_Metal_Only>
0

> <s_lp_Force_Field>
OPLS_2005

> <r_lp_Energy>
31.7658

> <b_lp_Chiralities_Consistent>
1

> <s_lp_Variant>
AV-unprocessed.smi:1047-9

> <Gold.Version>
5.8.1

> <Gold.Id.Protein>
6NUR|6NUR_protein|mol2

> <Gold.PLP.Fitness>
56.2983

> <Gold.PLP.PLP>
-49.9278

> <Gold.PLP.part.hbond>
-3.9435

> <Gold.PLP.part.metal>
0.0000

> <Gold.PLP.part.buried>
-5.0881

> <Gold.PLP.part.nonpolar>
-39.5923

> <Gold.PLP.part.repulsive>
0.0082

> <Gold.PLP.ligand.clash>
0.0000

> <Gold.PLP.ligand.torsion>
1.1795

> <Gold.PLP.Chemscore.Hbond>
2.8458

> <Gold.PLP.Chemscore.CHOScore>
0.0000

> <Gold.PLP.Chemscore.Metal>
0.0000

> <Gold.Chemscore.Hbonds>
donor molecule, donor type, donor heavy atom, donor atom, acceptor molecule, acceptor atom, score
      L1  H     9    38       P1  8028  1.60
      P1  H  6934  6946       L1     3  0.95
      P1  H  7989  7998       L1    12  0.19

> <Gold.PLP.Chemscore.Internal.Correction>
0.1921

> <Gold.Rescore>
     Score         DG    S(hbond)    S(metal)    S(lipo)     H(rot)  DE(clash)    DE(int)     intcor
     15.73     -17.05       1.20        0.00     121.66       2.60       0.31       1.01       ----

> <Gold.Chemscore.Fitness>
15.7292

> <Gold.Chemscore.DG>
-17.0454

> <Gold.Chemscore.ZeroCoef>
-5.4800

> <Gold.Chemscore.Hbond>
1.1976

> <Gold.Chemscore.Metal>
0.0000

> <Gold.Chemscore.Lipo>
121.6554

> <Gold.Chemscore.Internal_Hbond>
0.0000

> <Gold.Chemscore.DEClash>
0.3071

> <Gold.Chemscore.DEInternal>
1.0090

> <Gold.Chemscore.Rot>
2.6049

> <Gold.Chemscore.Internal.Correction>
   9.000000E+99

> <Gold.Chemscore.Hbonds>
donor molecule, donor type, donor heavy atom, donor atom, acceptor molecule, acceptor atom, score
      L1  H     9    38       P1  8028  0.59
      P1  H  6934  6946       L1     3  0.07
      P1  H  7989  7998       L1    12  0.04

> <Gold.Chemscore.Hbond.Weighted>
-4.0001

> <Gold.Chemscore.Metal.Weighted>
-0.0000

> <Gold.Chemscore.Lipo.Weighted>
-14.2337

> <Gold.Chemscore.Internal_Hbond.Weighted>
0.0000

> <Gold.Chemscore.DEClash.Weighted>
0.3071

> <Gold.Chemscore.DEInternal.Weighted>
1.0090

> <Gold.Chemscore.Rot.Weighted>
6.6685

> <Gold.Chemscore.Internal.Correction.Weighted>
   9.000000E+99

> <Gold.Protein.RotatedTorsions>
[ 6907 6896 6895 6894 ] final  160.57 input  -60.11 | X-H torsion
[ 7974 7965 7964 7962 ] final -159.08 input  175.53 | X-H torsion
[ 8008 7997 7996 7995 ] final -112.64 input   59.86 | X-H torsion
[ 10167 10162 10161 10158 ] final  123.51 input  -65.29 | X-H torsion
[ 10718 10713 10712 10709 ] final -115.58 input   66.30 | X-H torsion
[ 10763 10752 10751 10750 ] final  166.83 input  -60.55 | X-H torsion
[ 11005 11000 10999 10996 ] final  154.68 input  -57.11 | X-H torsion

> <Gold.Protein.ActiveResidues>
 VAL166  LYS551  ARG553  GLY616  TRP617  ASP618  TYR619  PRO620  LYS621  CYS622 
 ASP623  PHE694  ASN695  SER759  ASP760  ASP761  ALA762  ILE779  LEU786  VAL792 
 PHE793  MET794  SER795  GLU796  ALA797  LYS798  CYS799  TRP800  GLU811  SER814 

> <Gold.Protein.RotatedAtoms>
  151.9686  133.3718  159.4062 H   0  0  0  0  0  0  0  0  0  0  0  0  # atno 6907 bound_to 6896
  150.6952  134.4164  159.5194 H   0  0  0  0  0  0  0  0  0  0  0  0  # atno 6908 bound_to 6896
  152.1864  134.8710  160.0572 H   0  0  0  0  0  0  0  0  0  0  0  0  # atno 6909 bound_to 6896
  144.7479  140.3735  143.6070 H   0  0  0  0  0  0  0  0  0  0  0  0  # atno 7974 bound_to 7965
  155.0084  140.0394  157.2389 H   0  0  0  0  0  0  0  0  0  0  0  0  # atno 8008 bound_to 7997
  154.7482  140.2762  155.6292 H   0  0  0  0  0  0  0  0  0  0  0  0  # atno 8009 bound_to 7997
  156.2879  140.2652  156.2228 H   0  0  0  0  0  0  0  0  0  0  0  0  # atno 8010 bound_to 7997
  139.5795  144.6979  151.3565 H   0  0  0  0  0  0  0  0  0  0  0  0  # atno 10167 bound_to 10162
  156.0905  130.6088  150.8924 H   0  0  0  0  0  0  0  0  0  0  0  0  # atno 10718 bound_to 10713
  154.3449  135.2753  155.2403 H   0  0  0  0  0  0  0  0  0  0  0  0  # atno 10763 bound_to 10752
  154.4657  135.5895  153.6290 H   0  0  0  0  0  0  0  0  0  0  0  0  # atno 10764 bound_to 10752
  152.9854  135.6076  154.3654 H   0  0  0  0  0  0  0  0  0  0  0  0  # atno 10765 bound_to 10752
  140.1512  134.8673  157.2456 H   0  0  0  0  0  0  0  0  0  0  0  0  # atno 11005 bound_to 11000
  145.7052  139.1671  143.2570 LP  0  0  0  0  0  0  0  0  0  0  0  0  # atno 17320 bound_to 7965
  146.1387  140.7088  142.9377 LP  0  0  0  0  0  0  0  0  0  0  0  0  # atno 17321 bound_to 7965
  140.7075  143.7477  150.7507 LP  0  0  0  0  0  0  0  0  0  0  0  0  # atno 17342 bound_to 10162
  140.1006  143.4792  152.2427 LP  0  0  0  0  0  0  0  0  0  0  0  0  # atno 17343 bound_to 10162
  157.6053  131.0939  150.8890 LP  0  0  0  0  0  0  0  0  0  0  0  0  # atno 17370 bound_to 10713
  156.9040  130.5257  149.5282 LP  0  0  0  0  0  0  0  0  0  0  0  0  # atno 17371 bound_to 10713
  140.2603  134.3579  155.7409 LP  0  0  0  0  0  0  0  0  0  0  0  0  # atno 17394 bound_to 11000
  141.2199  133.7365  156.9069 LP  0  0  0  0  0  0  0  0  0  0  0  0  # atno 17395 bound_to 11000

$$$$
