AV-unprocessed.smi:20|AV-procd|sdf|120|dock8
  -GOLD-   2262015293D 1   1.00000     0.00000
 Structure written by MMmdl.
 57 61  0  0  0  0  0  0  0  0  1 V2000
  149.2529  130.9952  157.0779 O   0  0  0  0  0  0  0  0  0  0  0  0
  149.3957  131.8123  156.1715 C   0  0  0  0  0  0  0  0  0  0  0  0
  149.5224  133.3090  156.3964 C   0  0  0  0  0  0  0  0  0  0  0  0
  149.2963  133.9046  154.9856 C   0  0  1  0  0  0  0  0  0  0  0  0
  147.8132  134.3060  154.7625 C   0  0  0  0  0  0  0  0  0  0  0  0
  147.4296  135.5736  155.5467 C   0  0  0  0  0  0  0  0  0  0  0  0
  148.4050  136.7218  155.2532 C   0  0  0  0  0  0  0  0  0  0  0  0
  149.7844  136.2953  155.4758 N   0  0  0  0  0  0  0  0  0  0  0  0
  150.6755  137.3072  155.6232 C   0  0  0  0  0  0  0  0  0  0  0  0
  151.9018  137.2238  155.0408 N   0  0  0  0  0  0  0  0  0  0  0  0
  152.7843  138.2174  155.1800 C   0  0  0  0  0  0  0  0  0  0  0  0
  152.6516  139.3631  155.8509 N   0  0  0  0  0  0  0  0  0  0  0  0
  151.4253  139.4507  156.4405 C   0  0  0  0  0  0  0  0  0  0  0  0
  150.3872  138.4790  156.3776 C   0  0  0  0  0  0  0  0  0  0  0  0
  149.2897  138.9115  157.1133 N   0  0  0  0  0  0  0  0  0  0  0  0
  149.6557  140.0742  157.5798 C   0  0  0  0  0  0  0  0  0  0  0  0
  150.9269  140.4703  157.2320 N   0  0  0  0  0  0  0  0  0  0  0  0
  151.5866  141.7034  157.6227 C   0  0  0  0  0  0  0  0  0  0  0  0
  151.6954  141.8993  159.1582 C   0  0  1  0  0  0  0  0  0  0  0  0
  152.5659  140.8093  159.8354 C   0  0  0  0  0  0  0  0  0  0  0  0
  153.9433  140.9989  159.5846 O   0  0  0  0  0  0  0  0  0  0  0  0
  152.2345  143.3164  159.4855 C   0  0  1  0  0  0  0  0  0  0  0  0
  151.4375  144.4635  158.8864 C   0  0  0  0  0  0  0  0  0  0  0  0
  151.8907  145.6449  159.7339 C   0  0  0  0  0  0  0  0  0  0  0  0
  152.0823  145.1136  161.0381 O   0  0  0  0  0  0  0  0  0  0  0  0
  152.1924  143.6947  160.9733 C   0  0  0  0  0  0  0  0  0  0  0  0
  150.2031  135.1239  154.7044 C   0  0  0  0  0  0  0  0  0  0  0  0
  149.6596  132.7198  154.0589 C   0  0  0  0  0  0  0  0  0  0  0  0
  149.4625  131.5355  154.8717 N   0  0  0  0  0  0  0  0  0  0  0  0
  148.8091  133.6591  157.1416 H   0  0  0  0  0  0  0  0  0  0  0  0
  150.5269  133.5180  156.7665 H   0  0  0  0  0  0  0  0  0  0  0  0
  147.6459  134.4979  153.7019 H   0  0  0  0  0  0  0  0  0  0  0  0
  147.1447  133.4867  155.0305 H   0  0  0  0  0  0  0  0  0  0  0  0
  146.4145  135.8767  155.2892 H   0  0  0  0  0  0  0  0  0  0  0  0
  147.4216  135.3692  156.6172 H   0  0  0  0  0  0  0  0  0  0  0  0
  148.3024  137.0386  154.2144 H   0  0  0  0  0  0  0  0  0  0  0  0
  148.1455  137.5827  155.8685 H   0  0  0  0  0  0  0  0  0  0  0  0
  153.7325  138.0734  154.6835 H   0  0  0  0  0  0  0  0  0  0  0  0
  149.0090  140.6747  158.2033 H   0  0  0  0  0  0  0  0  0  0  0  0
  152.5795  141.7241  157.1716 H   0  0  0  0  0  0  0  0  0  0  0  0
  151.0282  142.5224  157.1693 H   0  0  0  0  0  0  0  0  0  0  0  0
  150.6899  141.8337  159.5775 H   0  0  0  0  0  0  0  0  0  0  0  0
  152.3881  140.7834  160.9109 H   0  0  0  0  0  0  0  0  0  0  0  0
  152.3243  139.8175  159.4565 H   0  0  0  0  0  0  0  0  0  0  0  0
  154.1141  140.7923  158.6784 H   0  0  0  0  0  0  0  0  0  0  0  0
  153.2651  143.3996  159.1361 H   0  0  0  0  0  0  0  0  0  0  0  0
  151.6344  144.6190  157.8255 H   0  0  0  0  0  0  0  0  0  0  0  0
  150.3672  144.2974  159.0173 H   0  0  0  0  0  0  0  0  0  0  0  0
  152.8438  146.0304  159.3695 H   0  0  0  0  0  0  0  0  0  0  0  0
  151.1702  146.4629  159.7355 H   0  0  0  0  0  0  0  0  0  0  0  0
  151.3163  143.2649  161.4603 H   0  0  0  0  0  0  0  0  0  0  0  0
  153.0768  143.3553  161.5126 H   0  0  0  0  0  0  0  0  0  0  0  0
  151.2392  134.8719  154.9365 H   0  0  0  0  0  0  0  0  0  0  0  0
  150.1686  135.3740  153.6429 H   0  0  0  0  0  0  0  0  0  0  0  0
  149.0537  132.6829  153.1528 H   0  0  0  0  0  0  0  0  0  0  0  0
  150.7072  132.7552  153.7561 H   0  0  0  0  0  0  0  0  0  0  0  0
  149.4012  130.6057  154.4821 H   0  0  0  0  0  0  0  0  0  0  0  0
  1  2  2  0  0  0  0
  2 29  1  0  0  0  0
  2  3  1  0  0  0  0
  3  4  1  0  0  0  0
  3 30  1  0  0  0  0
  3 31  1  0  0  0  0
  4 27  1  0  0  0  0
  4  5  1  0  0  0  0
  4 28  1  0  0  0  0
  5  6  1  0  0  0  0
  5 32  1  0  0  0  0
  5 33  1  0  0  0  0
  6  7  1  0  0  0  0
  6 34  1  0  0  0  0
  6 35  1  0  0  0  0
  7  8  1  0  0  0  0
  7 36  1  0  0  0  0
  7 37  1  0  0  0  0
  8  9  1  0  0  0  0
  8 27  1  0  0  0  0
  9 14  1  0  0  0  0
  9 10  2  0  0  0  0
 10 11  1  0  0  0  0
 11 12  2  0  0  0  0
 11 38  1  0  0  0  0
 12 13  1  0  0  0  0
 13 17  1  0  0  0  0
 13 14  2  0  0  0  0
 14 15  1  0  0  0  0
 15 16  2  0  0  0  0
 16 17  1  0  0  0  0
 16 39  1  0  0  0  0
 17 18  1  0  0  0  0
 18 19  1  0  0  0  0
 18 40  1  0  0  0  0
 18 41  1  0  0  0  0
 19 20  1  0  0  0  0
 19 22  1  0  0  0  0
 19 42  1  0  0  0  0
 20 21  1  0  0  0  0
 20 43  1  0  0  0  0
 20 44  1  0  0  0  0
 21 45  1  0  0  0  0
 22 26  1  0  0  0  0
 22 23  1  0  0  0  0
 22 46  1  0  0  0  0
 23 24  1  0  0  0  0
 23 47  1  0  0  0  0
 23 48  1  0  0  0  0
 24 25  1  0  0  0  0
 24 49  1  0  0  0  0
 24 50  1  0  0  0  0
 25 26  1  0  0  0  0
 26 51  1  0  0  0  0
 26 52  1  0  0  0  0
 27 53  1  0  0  0  0
 27 54  1  0  0  0  0
 28 29  1  0  0  0  0
 28 55  1  0  0  0  0
 28 56  1  0  0  0  0
 29 57  1  0  0  0  0
M  END
> <s_m_source_file>
AV-unprocessed.smi

> <i_m_source_file_index>
20

> <i_lp_mmshare_version>
43012

> <i_f3d_flags>
0

> <s_epik_input>
W0NIMl0xW05IXUMoPU8pW0NIMl1bQ0BAXTEyW0NIMl1bQ0gyXVtDSDJdTihbQ0gyXTIpYyhuW2NIXW4zKWMoYzM0KW5bY0hdbjRbQ0gyXVtDQEhdKFtDSDJdW09IXSlbQ0BASF01W0NIMl1bQ0gyXU9bQ0gyXTU=

> <s_epik_cmdline>
J2VwaWtfcHl0aG9uJywgJy1waCcsICc3LjAnLCAnLXRuJywgJzgnLCAnLW1hJywgJzIwMCcsICctbWV0YWxfYmluZGluZycsICctaW1hZScsICc8aW5maWxlLm1hZT4nLCAnLW9tYWUnLCAnPG91dGZpbGUubWFlPic=

> <r_lp_tautomer_probability>
1

> <r_epik_Ionization_Penalty>
0.0019697

> <r_epik_Ionization_Penalty_Charging>
0

> <r_epik_Ionization_Penalty_Neutral>
0.0019697

> <r_epik_State_Penalty>
0.00113613

> <r_epik_Charging_Adjusted_Penalty>
0.00113613

> <i_epik_Tot_Q>
0

> <i_epik_Tot_abs_Q>
0

> <r_epik_Metal_State_Penalty>
-0

> <b_epik_Metal_Only>
0

> <s_lp_Force_Field>
OPLS_2005

> <r_lp_Energy>
57.3449

> <b_lp_Chiralities_Consistent>
1

> <s_lp_Variant>
AV-unprocessed.smi:20-8

> <Gold.Version>
5.8.1

> <Gold.Id.Protein>
6NUR|6NUR_protein|mol2

> <Gold.PLP.Fitness>
47.3214

> <Gold.PLP.PLP>
-41.7498

> <Gold.PLP.part.hbond>
-2.1634

> <Gold.PLP.part.metal>
0.0000

> <Gold.PLP.part.buried>
-5.4293

> <Gold.PLP.part.nonpolar>
-35.1413

> <Gold.PLP.part.repulsive>
0.7494

> <Gold.PLP.ligand.clash>
0.0000

> <Gold.PLP.ligand.torsion>
0.3885

> <Gold.PLP.Chemscore.Hbond>
1.9600

> <Gold.PLP.Chemscore.CHOScore>
0.0000

> <Gold.PLP.Chemscore.Metal>
0.0000

> <Gold.Chemscore.Hbonds>
donor molecule, donor type, donor heavy atom, donor atom, acceptor molecule, acceptor atom, score
      P1  H  7997  8008       L1    12  1.00
      P1  H 10752 10764       L1    10  0.96

> <Gold.PLP.Chemscore.Internal.Correction>
0.4686

> <Gold.Rescore>
     Score         DG    S(hbond)    S(metal)    S(lipo)     H(rot)  DE(clash)    DE(int)     intcor
     14.13     -16.14       1.60        0.00     105.42       2.74       0.56       1.45       ----

> <Gold.Chemscore.Fitness>
14.1302

> <Gold.Chemscore.DG>
-16.1401

> <Gold.Chemscore.ZeroCoef>
-5.4800

> <Gold.Chemscore.Hbond>
1.6002

> <Gold.Chemscore.Metal>
0.0000

> <Gold.Chemscore.Lipo>
105.4169

> <Gold.Chemscore.Internal_Hbond>
0.0000

> <Gold.Chemscore.DEClash>
0.5599

> <Gold.Chemscore.DEInternal>
1.4500

> <Gold.Chemscore.Rot>
2.7415

> <Gold.Chemscore.Internal.Correction>
   9.000000E+99

> <Gold.Chemscore.Hbonds>
donor molecule, donor type, donor heavy atom, donor atom, acceptor molecule, acceptor atom, score
      P1  H  7997  8008       L1    12  0.85
      P1  H 10752 10764       L1    10  0.50

> <Gold.Chemscore.Hbond.Weighted>
-5.3445

> <Gold.Chemscore.Metal.Weighted>
-0.0000

> <Gold.Chemscore.Lipo.Weighted>
-12.3338

> <Gold.Chemscore.Internal_Hbond.Weighted>
0.0000

> <Gold.Chemscore.DEClash.Weighted>
0.5599

> <Gold.Chemscore.DEInternal.Weighted>
1.4500

> <Gold.Chemscore.Rot.Weighted>
7.0182

> <Gold.Chemscore.Internal.Correction.Weighted>
   9.000000E+99

> <Gold.Protein.RotatedTorsions>
[ 6907 6896 6895 6894 ] final  -57.00 input  -60.11 | X-H torsion
[ 7974 7965 7964 7962 ] final   33.83 input  175.53 | X-H torsion
[ 8008 7997 7996 7995 ] final  -45.39 input   59.86 | X-H torsion
[ 10167 10162 10161 10158 ] final  104.58 input  -65.29 | X-H torsion
[ 10718 10713 10712 10709 ] final   85.08 input   66.30 | X-H torsion
[ 10763 10752 10751 10750 ] final  -62.95 input  -60.55 | X-H torsion
[ 11005 11000 10999 10996 ] final -134.29 input  -57.11 | X-H torsion

> <Gold.Protein.ActiveResidues>
 VAL166  LYS551  ARG553  GLY616  TRP617  ASP618  TYR619  PRO620  LYS621  CYS622 
 ASP623  PHE694  ASN695  SER759  ASP760  ASP761  ALA762  ILE779  LEU786  VAL792 
 PHE793  MET794  SER795  GLU796  ALA797  LYS798  CYS799  TRP800  GLU811  SER814 

> <Gold.Protein.RotatedAtoms>
  150.8121  134.7282  159.6697 H   0  0  0  0  0  0  0  0  0  0  0  0  # atno 6907 bound_to 6896
  152.4241  134.5898  159.9981 H   0  0  0  0  0  0  0  0  0  0  0  0  # atno 6908 bound_to 6896
  151.6105  133.3310  159.3102 H   0  0  0  0  0  0  0  0  0  0  0  0  # atno 6909 bound_to 6896
  146.1394  139.6346  142.9173 H   0  0  0  0  0  0  0  0  0  0  0  0  # atno 7974 bound_to 7965
  154.4001  140.1398  156.3839 H   0  0  0  0  0  0  0  0  0  0  0  0  # atno 8008 bound_to 7997
  155.7978  140.3477  155.5365 H   0  0  0  0  0  0  0  0  0  0  0  0  # atno 8009 bound_to 7997
  155.8514  140.0942  157.1662 H   0  0  0  0  0  0  0  0  0  0  0  0  # atno 8010 bound_to 7997
  139.7165  144.7067  151.0941 H   0  0  0  0  0  0  0  0  0  0  0  0  # atno 10167 bound_to 10162
  157.6909  131.0160  150.2769 H   0  0  0  0  0  0  0  0  0  0  0  0  # atno 10718 bound_to 10713
  154.3076  135.6222  153.5451 H   0  0  0  0  0  0  0  0  0  0  0  0  # atno 10763 bound_to 10752
  152.9833  135.5693  154.5213 H   0  0  0  0  0  0  0  0  0  0  0  0  # atno 10764 bound_to 10752
  154.4857  135.2865  155.1513 H   0  0  0  0  0  0  0  0  0  0  0  0  # atno 10765 bound_to 10752
  140.9003  134.1699  157.4465 H   0  0  0  0  0  0  0  0  0  0  0  0  # atno 11005 bound_to 11000
  145.5082  141.0436  143.2503 LP  0  0  0  0  0  0  0  0  0  0  0  0  # atno 17320 bound_to 7965
  144.7775  139.6597  143.7168 LP  0  0  0  0  0  0  0  0  0  0  0  0  # atno 17321 bound_to 7965
  140.7745  143.5222  150.9522 LP  0  0  0  0  0  0  0  0  0  0  0  0  # atno 17342 bound_to 10162
  139.8909  143.6955  152.3145 LP  0  0  0  0  0  0  0  0  0  0  0  0  # atno 17343 bound_to 10162
  156.3322  130.3802  149.7481 LP  0  0  0  0  0  0  0  0  0  0  0  0  # atno 17370 bound_to 10713
  156.5016  130.8131  151.3135 LP  0  0  0  0  0  0  0  0  0  0  0  0  # atno 17371 bound_to 10713
  139.8741  134.9895  156.5460 LP  0  0  0  0  0  0  0  0  0  0  0  0  # atno 17394 bound_to 11000
  140.8238  133.8332  155.8920 LP  0  0  0  0  0  0  0  0  0  0  0  0  # atno 17395 bound_to 11000

$$$$
