#       Name:                AV-unprocessed.smi:2224
#       Creating user name   scv26
#       Creation time:       Fri Mar 27 12:20:44 2020


#       File generated by GOLD software.
#

@<TRIPOS>MOLECULE
AV-unprocessed.smi:2224
    49    51     1
SMALL
NO_CHARGES


@<TRIPOS>ATOM
      1 ****        -5.1051   3.0507   0.4515 C.3            1 S1                 0.0000
      2 ****        -4.4334   1.7028   0.2931 C.ar           1 S1                 0.0000
      3 ****        -5.1833   0.5116   0.3317 C.ar           1 S1                 0.0000
      4 ****        -4.4982  -0.7098   0.1790 C.ar           1 S1                 0.0000
      5 ****        -5.2415  -2.0287   0.2102 C.3            1 S1                 0.0000
      6 ****        -3.1620  -0.7884   0.0008 N.ar           1 S1                 0.0000
      7 ****        -2.4299   0.3525  -0.0375 C.ar           1 S1                 0.0000
      8 ****        -1.0226   0.3801  -0.2241 N.am           1 S1                 0.0000
      9 ****        -0.1780  -0.6597  -0.3388 C.2            1 S1                 0.0000
     10 ****        -0.4957  -1.8479  -0.2807 O.2            1 S1                 0.0000
     11 ****         1.0817  -0.2394  -0.5144 N.am           1 S1                 0.0000
     12 ****         2.2496  -1.1143  -0.6314 C.3            1 S1                 0.0000
     13 ****         3.4339  -0.4412  -1.3610 C.3            1 S1                 0.0000
     14 ****         3.3035   0.8663  -2.1035 C.3            1 S1                 0.0000
     15 ****         3.7952   1.8902  -1.0762 C.3            1 S1                 0.0000
     16 ****         3.6624   1.2357   0.1840 O.3            1 S1                 0.0000
     17 ****         4.0219  -0.1329   0.0062 C.3            1 S1                 0.0000
     18 ****         3.0982  -1.1780   0.6672 C.3            1 S1                 0.0000
     19 ****         2.4509  -0.7696   1.9977 C.3            1 S1                 0.0000
     20 ****         3.7630  -2.5357   0.9127 C.3            1 S1                 0.0000
     21 ****        -3.0391   1.6194   0.1053 C.ar           1 S1                 0.0000
     22 ****        -6.1905   2.9516   0.4887 H              1 S1                 0.0000
     23 ****        -4.8515   3.7009  -0.3860 H              1 S1                 0.0000
     24 ****        -4.7740   3.5306   1.3726 H              1 S1                 0.0000
     25 ****        -6.2539   0.5329   0.4747 H              1 S1                 0.0000
     26 ****        -6.3208  -1.8741   0.2092 H              1 S1                 0.0000
     27 ****        -4.9776  -2.5888   1.1075 H              1 S1                 0.0000
     28 ****        -4.9850  -2.6327  -0.6607 H              1 S1                 0.0000
     29 ****        -0.6097   1.2994  -0.2724 H              1 S1                 0.0000
     30 ****         1.2558   0.7545  -0.5418 H              1 S1                 0.0000
     31 ****         2.0226  -2.0987  -1.0450 H              1 S1                 0.0000
     32 ****         4.0365  -1.1842  -1.8857 H              1 S1                 0.0000
     33 ****         3.9161   0.8912  -3.0051 H              1 S1                 0.0000
     34 ****         2.2759   1.0678  -2.4052 H              1 S1                 0.0000
     35 ****         4.8473   2.1248  -1.2438 H              1 S1                 0.0000
     36 ****         3.2284   2.8210  -1.1060 H              1 S1                 0.0000
     37 ****         5.0945  -0.3176   0.0832 H              1 S1                 0.0000
     38 ****         3.1768  -0.7633   2.8112 H              1 S1                 0.0000
     39 ****         1.6501  -1.4550   2.2769 H              1 S1                 0.0000
     40 ****         2.0188   0.2304   1.9565 H              1 S1                 0.0000
     41 ****         4.5209  -2.4765   1.6944 H              1 S1                 0.0000
     42 ****         4.2567  -2.9102   0.0155 H              1 S1                 0.0000
     43 ****         3.0342  -3.2882   1.2153 H              1 S1                 0.0000
     44 ****        -2.4447   2.5212   0.0736 H              1 S1                 0.0000
     45 ****        -2.7172  -1.6781  -0.1018 LP             1 S1                 0.0000
     46 ****        -1.4518  -2.1034  -0.1373 LP             1 S1                 0.0000
     47 ****         0.2024  -2.5574  -0.3769 LP             1 S1                 0.0000
     48 ****         2.7167   1.3001   0.5025 LP             1 S1                 0.0000
     49 ****         4.2697   1.6623   0.8543 LP             1 S1                 0.0000
@<TRIPOS>BOND
    1    1    2 1     
    2    1   22 1     
    3    1   23 1     
    4    1   24 1     
    5    2   21 ar    
    6    2    3 ar    
    7    3    4 ar    
    8    3   25 1     
    9    4    5 1     
   10    4    6 ar    
   11    5   26 1     
   12    5   27 1     
   13    5   28 1     
   14    6    7 ar    
   15    7    8 1     
   16    7   21 ar    
   17    8    9 am    
   18    8   29 1     
   19    9   10 2     
   20    9   11 am    
   21   11   12 1     
   22   11   30 1     
   23   12   18 1     
   24   12   13 1     
   25   12   31 1     
   26   13   17 1     
   27   13   14 1     
   28   13   32 1     
   29   14   15 1     
   30   14   33 1     
   31   14   34 1     
   32   15   16 1     
   33   15   35 1     
   34   15   36 1     
   35   16   17 1     
   36   17   18 1     
   37   17   37 1     
   38   18   19 1     
   39   18   20 1     
   40   19   38 1     
   41   19   39 1     
   42   19   40 1     
   43   20   41 1     
   44   20   42 1     
   45   20   43 1     
   46   21   44 1     
   47    6   45 1     
   48   10   46 1     
   49   10   47 1     
   50   16   48 1     
   51   16   49 1     
@<TRIPOS>SUBSTRUCTURE
      1 S1             1
@<TRIPOS>SET
LONE_PAIRS      STATIC     ATOMS    <user>   **** ""
5 45 46 47 48 49
DONOR_HYDROGENS      STATIC     ATOMS    <user>   **** ""
2 29 30
ATOM$BLUE        STATIC     ATOMS    COLORGROUP SYSTEM
5 45 46 47 48 49
ATOM$RED        STATIC     ATOMS    COLORGROUP SYSTEM
2 29 30
