AV-unprocessed.smi:1412|AV-procd|sdf|5741|dock2
  -GOLD-   22720 5373D 1   1.00000     0.00000
 Structure written by MMmdl.
 41 42  0  0  0  0  0  0  0  0  1 V2000
  146.5304  142.6678  154.0816 C   0  0  0  0  0  0  0  0  0  0  0  0
  146.2274  141.3074  154.7346 C   0  0  0  0  0  0  0  0  0  0  0  0
  147.0467  140.0985  154.1765 C   0  0  2  0  0  0  0  0  0  0  0  0
  147.1154  140.2783  152.6369 C   0  0  0  0  0  0  0  0  0  0  0  0
  146.2542  138.7812  154.4771 C   0  0  0  0  0  0  0  0  0  0  0  0
  144.8376  138.8189  154.1086 N   0  0  0  0  0  0  0  0  0  0  0  0
  143.9267  137.8738  154.3851 C   0  0  0  0  0  0  0  0  0  0  0  0
  144.1855  136.8368  154.9965 O   0  0  0  0  0  0  0  0  0  0  0  0
  142.7173  138.2104  153.9030 N   0  0  0  0  0  0  0  0  0  0  0  0
  141.5045  137.4748  153.9762 C   0  0  0  0  0  0  0  0  0  0  0  0
  141.3767  136.3135  154.6370 N   0  0  0  0  0  0  0  0  0  0  0  0
  140.0876  135.8040  154.5479 N   0  0  0  0  0  0  0  0  0  0  0  0
  139.2950  136.5998  153.8242 C   0  0  0  0  0  0  0  0  0  0  0  0
  140.0456  138.0507  153.1820 S   0  0  0  0  0  0  0  0  0  0  0  0
  148.4069  140.0385  154.7935 N   0  0  0  0  0  0  0  0  0  0  0  0
  149.1412  141.3119  154.8211 C   0  0  0  0  0  0  0  0  0  0  0  0
  150.4737  141.2016  155.5810 C   0  0  0  0  0  0  0  0  0  0  0  0
  151.2752  140.1842  154.9953 O   0  0  0  0  0  0  0  0  0  0  0  0
  150.6301  138.9175  155.0093 C   0  0  0  0  0  0  0  0  0  0  0  0
  149.2958  139.0032  154.2482 C   0  0  0  0  0  0  0  0  0  0  0  0
  145.8931  143.4444  154.5043 H   0  0  0  0  0  0  0  0  0  0  0  0
  146.3509  142.6484  153.0067 H   0  0  0  0  0  0  0  0  0  0  0  0
  147.5635  142.9738  154.2440 H   0  0  0  0  0  0  0  0  0  0  0  0
  146.3813  141.4073  155.8092 H   0  0  0  0  0  0  0  0  0  0  0  0
  145.1586  141.1121  154.6560 H   0  0  0  0  0  0  0  0  0  0  0  0
  146.1223  140.3796  152.1997 H   0  0  0  0  0  0  0  0  0  0  0  0
  147.5884  139.4279  152.1461 H   0  0  0  0  0  0  0  0  0  0  0  0
  147.6631  141.1745  152.3478 H   0  0  0  0  0  0  0  0  0  0  0  0
  146.7136  137.9272  153.9792 H   0  0  0  0  0  0  0  0  0  0  0  0
  146.3024  138.5537  155.5424 H   0  0  0  0  0  0  0  0  0  0  0  0
  144.5311  139.6339  153.5978 H   0  0  0  0  0  0  0  0  0  0  0  0
  142.6572  139.0958  153.4223 H   0  0  0  0  0  0  0  0  0  0  0  0
  138.2608  136.3306  153.6682 H   0  0  0  0  0  0  0  0  0  0  0  0
  149.3483  141.6525  153.8067 H   0  0  0  0  0  0  0  0  0  0  0  0
  148.5582  142.0920  155.3056 H   0  0  0  0  0  0  0  0  0  0  0  0
  151.0131  142.1480  155.5373 H   0  0  0  0  0  0  0  0  0  0  0  0
  150.3011  140.9797  156.6353 H   0  0  0  0  0  0  0  0  0  0  0  0
  151.2846  138.1803  154.5443 H   0  0  0  0  0  0  0  0  0  0  0  0
  150.4667  138.5956  156.0390 H   0  0  0  0  0  0  0  0  0  0  0  0
  148.8348  138.0196  154.3037 H   0  0  0  0  0  0  0  0  0  0  0  0
  149.5026  139.1996  153.1962 H   0  0  0  0  0  0  0  0  0  0  0  0
  1  2  1  0  0  0  0
  1 21  1  0  0  0  0
  1 22  1  0  0  0  0
  1 23  1  0  0  0  0
  2  3  1  0  0  0  0
  2 24  1  0  0  0  0
  2 25  1  0  0  0  0
  3  4  1  0  0  0  0
  3  5  1  0  0  0  0
  3 15  1  0  0  0  0
  4 26  1  0  0  0  0
  4 27  1  0  0  0  0
  4 28  1  0  0  0  0
  5  6  1  0  0  0  0
  5 29  1  0  0  0  0
  5 30  1  0  0  0  0
  6  7  1  0  0  0  0
  6 31  1  0  0  0  0
  7  8  2  0  0  0  0
  7  9  1  0  0  0  0
  9 10  1  0  0  0  0
  9 32  1  0  0  0  0
 10 14  1  0  0  0  0
 10 11  2  0  0  0  0
 11 12  1  0  0  0  0
 12 13  2  0  0  0  0
 13 14  1  0  0  0  0
 13 33  1  0  0  0  0
 15 20  1  0  0  0  0
 15 16  1  0  0  0  0
 16 17  1  0  0  0  0
 16 34  1  0  0  0  0
 16 35  1  0  0  0  0
 17 18  1  0  0  0  0
 17 36  1  0  0  0  0
 17 37  1  0  0  0  0
 18 19  1  0  0  0  0
 19 20  1  0  0  0  0
 19 38  1  0  0  0  0
 19 39  1  0  0  0  0
 20 40  1  0  0  0  0
 20 41  1  0  0  0  0
M  END
> <s_m_source_file>
AV-unprocessed.smi

> <i_m_source_file_index>
1412

> <i_lp_mmshare_version>
43012

> <i_f3d_flags>
0

> <s_epik_input>
W0NIMl0xW0NIMl1PW0NIMl1bQ0gyXU4xW0NAQF0oW0NIM10pKFtDSDJdW0NIM10pW0NIMl1bTkhdQyg9TylbTkhdYzJubltjSF1zMg==

> <s_epik_cmdline>
J2VwaWtfcHl0aG9uJywgJy1waCcsICc3LjAnLCAnLXRuJywgJzgnLCAnLW1hJywgJzIwMCcsICctbWV0YWxfYmluZGluZycsICctaW1hZScsICc8aW5maWxlLm1hZT4nLCAnLW9tYWUnLCAnPG91dGZpbGUubWFlPic=

> <r_lp_tautomer_probability>
1

> <r_epik_Ionization_Penalty>
0.295854

> <r_epik_Ionization_Penalty_Charging>
0

> <r_epik_Ionization_Penalty_Neutral>
0.295854

> <r_epik_State_Penalty>
0.288723

> <r_epik_Charging_Adjusted_Penalty>
0.288723

> <i_epik_Tot_Q>
0

> <i_epik_Tot_abs_Q>
0

> <r_epik_Metal_State_Penalty>
0.510549

> <b_epik_Metal_Only>
0

> <s_lp_Force_Field>
OPLS_2005

> <r_lp_Energy>
41.7733

> <b_lp_Chiralities_Consistent>
1

> <s_lp_Variant>
AV-unprocessed.smi:1412-2

> <Gold.Version>
5.8.1

> <Gold.Id.Protein>
6NUR|6NUR_protein|mol2

> <Gold.PLP.Fitness>
44.8255

> <Gold.PLP.PLP>
-33.9615

> <Gold.PLP.part.hbond>
-4.7607

> <Gold.PLP.part.metal>
0.0000

> <Gold.PLP.part.buried>
-2.9764

> <Gold.PLP.part.nonpolar>
-25.6369

> <Gold.PLP.part.repulsive>
0.2935

> <Gold.PLP.ligand.clash>
0.0000

> <Gold.PLP.ligand.torsion>
0.5383

> <Gold.PLP.Chemscore.Hbond>
3.9280

> <Gold.PLP.Chemscore.CHOScore>
0.0000

> <Gold.PLP.Chemscore.Metal>
0.0000

> <Gold.Chemscore.Hbonds>
donor molecule, donor type, donor heavy atom, donor atom, acceptor molecule, acceptor atom, score
      L1  H     6    31       P1 10175  1.00
      L1  H     9    32       P1 10175  0.93
      P1  H  7989  7998       L1    18  1.00
      P1  H 11000 11005       L1    12  1.00

> <Gold.PLP.Chemscore.Internal.Correction>
0.1565

> <Gold.Rescore>
     Score         DG    S(hbond)    S(metal)    S(lipo)     H(rot)  DE(clash)    DE(int)     intcor
     17.22     -19.54       3.18        0.00      70.19       1.86       0.28       2.03       ----

> <Gold.Chemscore.Fitness>
17.2249

> <Gold.Chemscore.DG>
-19.5351

> <Gold.Chemscore.ZeroCoef>
-5.4800

> <Gold.Chemscore.Hbond>
3.1757

> <Gold.Chemscore.Metal>
0.0000

> <Gold.Chemscore.Lipo>
70.1876

> <Gold.Chemscore.Internal_Hbond>
0.0000

> <Gold.Chemscore.DEClash>
0.2808

> <Gold.Chemscore.DEInternal>
2.0294

> <Gold.Chemscore.Rot>
1.8609

> <Gold.Chemscore.Internal.Correction>
   9.000000E+99

> <Gold.Chemscore.Hbonds>
donor molecule, donor type, donor heavy atom, donor atom, acceptor molecule, acceptor atom, score
      L1  H     6    31       P1 10175  0.98
      L1  H     9    32       P1 10175  0.91
      P1  H  7989  7998       L1    18  0.28
      P1  H 11000 11005       L1    12  0.39

> <Gold.Chemscore.Hbond.Weighted>
-10.6070

> <Gold.Chemscore.Metal.Weighted>
-0.0000

> <Gold.Chemscore.Lipo.Weighted>
-8.2119

> <Gold.Chemscore.Internal_Hbond.Weighted>
0.0000

> <Gold.Chemscore.DEClash.Weighted>
0.2808

> <Gold.Chemscore.DEInternal.Weighted>
2.0294

> <Gold.Chemscore.Rot.Weighted>
4.7638

> <Gold.Chemscore.Internal.Correction.Weighted>
   9.000000E+99

> <Gold.Protein.RotatedTorsions>
[ 6907 6896 6895 6894 ] final   -8.04 input  -60.11 | X-H torsion
[ 7974 7965 7964 7962 ] final  179.07 input  175.53 | X-H torsion
[ 8008 7997 7996 7995 ] final   66.15 input   59.86 | X-H torsion
[ 10167 10162 10161 10158 ] final   47.25 input  -65.29 | X-H torsion
[ 10718 10713 10712 10709 ] final  -11.07 input   66.30 | X-H torsion
[ 10763 10752 10751 10750 ] final   80.28 input  -60.55 | X-H torsion
[ 11005 11000 10999 10996 ] final   65.42 input  -57.11 | X-H torsion

> <Gold.Protein.ActiveResidues>
 VAL166  LYS551  ARG553  GLY616  TRP617  ASP618  TYR619  PRO620  LYS621  CYS622 
 ASP623  PHE694  ASN695  SER759  ASP760  ASP761  ALA762  ILE779  LEU786  VAL792 
 PHE793  MET794  SER795  GLU796  ALA797  LYS798  CYS799  TRP800  GLU811  SER814 

> <Gold.Protein.RotatedAtoms>
  151.4399  135.1019  159.9666 H   0  0  0  0  0  0  0  0  0  0  0  0  # atno 6907 bound_to 6896
  152.4926  133.8538  159.7226 H   0  0  0  0  0  0  0  0  0  0  0  0  # atno 6908 bound_to 6896
  150.9095  133.6956  159.2886 H   0  0  0  0  0  0  0  0  0  0  0  0  # atno 6909 bound_to 6896
  144.7149  140.0492  143.6435 H   0  0  0  0  0  0  0  0  0  0  0  0  # atno 7974 bound_to 7965
  155.6728  140.3497  155.4825 H   0  0  0  0  0  0  0  0  0  0  0  0  # atno 8008 bound_to 7997
  155.9673  140.1149  157.0866 H   0  0  0  0  0  0  0  0  0  0  0  0  # atno 8009 bound_to 7997
  154.4157  140.1164  156.5245 H   0  0  0  0  0  0  0  0  0  0  0  0  # atno 8010 bound_to 7997
  140.3056  144.2882  150.6210 H   0  0  0  0  0  0  0  0  0  0  0  0  # atno 10167 bound_to 10162
  156.6643  130.4991  149.6020 H   0  0  0  0  0  0  0  0  0  0  0  0  # atno 10718 bound_to 10713
  153.1021  135.4808  154.8885 H   0  0  0  0  0  0  0  0  0  0  0  0  # atno 10763 bound_to 10752
  154.7390  135.3078  154.8764 H   0  0  0  0  0  0  0  0  0  0  0  0  # atno 10764 bound_to 10752
  153.9377  135.6837  153.4798 H   0  0  0  0  0  0  0  0  0  0  0  0  # atno 10765 bound_to 10752
  139.9896  134.6613  156.0115 H   0  0  0  0  0  0  0  0  0  0  0  0  # atno 11005 bound_to 11000
  145.9958  139.3051  143.0957 LP  0  0  0  0  0  0  0  0  0  0  0  0  # atno 17320 bound_to 7965
  145.8850  140.9339  143.0581 LP  0  0  0  0  0  0  0  0  0  0  0  0  # atno 17321 bound_to 7965
  140.5613  143.2192  151.7760 LP  0  0  0  0  0  0  0  0  0  0  0  0  # atno 17342 bound_to 10162
  139.4905  144.4344  151.9836 LP  0  0  0  0  0  0  0  0  0  0  0  0  # atno 17343 bound_to 10162
  156.1987  130.6606  151.1143 LP  0  0  0  0  0  0  0  0  0  0  0  0  # atno 17370 bound_to 10713
  157.7099  131.0739  150.6537 LP  0  0  0  0  0  0  0  0  0  0  0  0  # atno 17371 bound_to 10713
  141.1554  133.6543  156.4145 LP  0  0  0  0  0  0  0  0  0  0  0  0  # atno 17394 bound_to 11000
  140.4935  134.6553  157.5220 LP  0  0  0  0  0  0  0  0  0  0  0  0  # atno 17395 bound_to 11000

$$$$
