#       Name:                AV-unprocessed.smi:645
#       Creating user name   scv26
#       Creation time:       Fri Mar 27 00:08:32 2020


#       File generated by GOLD software.
#

@<TRIPOS>MOLECULE
AV-unprocessed.smi:645
    28    29     1
SMALL
NO_CHARGES


@<TRIPOS>ATOM
      1 ****        -2.0117  -0.4922  -0.6224 C.3            1 S1                 0.0000
      2 ****        -0.4715  -0.4325  -0.5737 C.3            1 S1                 0.0000
      3 ****         0.0452   0.4072   0.6052 C.ar           1 S1                 0.0000
      4 ****         0.9474  -0.1151   1.5639 C.ar           1 S1                 0.0000
      5 ****         1.3727   0.7120   2.6226 C.ar           1 S1                 0.0000
      6 ****         0.9643   1.9881   2.7794 N.ar           1 S1                 0.0000
      7 ****         0.1038   2.4873   1.8683 C.ar           1 S1                 0.0000
      8 ****        -0.3825   1.7448   0.7746 C.ar           1 S1                 0.0000
      9 ****         0.0763  -1.7826  -0.6155 N.am           1 S1                 0.0000
     10 ****         0.8622  -1.9982  -1.6786 C.2            1 S1                 0.0000
     11 ****         1.4639  -3.0386  -1.9335 O.2            1 S1                 0.0000
     12 ****         0.8673  -0.8849  -2.4165 N.am           1 S1                 0.0000
     13 ****         0.1135   0.0780  -1.8887 C.2            1 S1                 0.0000
     14 ****        -0.0938   1.1909  -2.3706 O.2            1 S1                 0.0000
     15 ****        -2.4563   0.4986  -0.7188 H              1 S1                 0.0000
     16 ****        -2.4127  -0.9453   0.2848 H              1 S1                 0.0000
     17 ****        -2.3631  -1.0864  -1.4674 H              1 S1                 0.0000
     18 ****         1.3189  -1.1271   1.5069 H              1 S1                 0.0000
     19 ****         2.0607   0.3360   3.3654 H              1 S1                 0.0000
     20 ****        -0.2078   3.5108   2.0143 H              1 S1                 0.0000
     21 ****        -1.0678   2.2034   0.0773 H              1 S1                 0.0000
     22 ****        -0.1015  -2.4646   0.1073 H              1 S1                 0.0000
     23 ****         1.3727  -0.7896  -3.2852 H              1 S1                 0.0000
     24 ****         1.2882   2.5447   3.5445 LP             1 S1                 0.0000
     25 ****         1.3890  -3.8232  -1.3180 LP             1 S1                 0.0000
     26 ****         2.0285  -3.1009  -2.7564 LP             1 S1                 0.0000
     27 ****        -0.6862   1.8400  -1.8933 LP             1 S1                 0.0000
     28 ****         0.3301   1.4464  -3.2395 LP             1 S1                 0.0000
@<TRIPOS>BOND
    1    1    2 1     
    2    1   15 1     
    3    1   16 1     
    4    1   17 1     
    5    2   13 1     
    6    2    3 1     
    7    2    9 1     
    8    3    8 ar    
    9    3    4 ar    
   10    4    5 ar    
   11    4   18 1     
   12    5    6 ar    
   13    5   19 1     
   14    6    7 ar    
   15    7    8 ar    
   16    7   20 1     
   17    8   21 1     
   18    9   10 am    
   19    9   22 1     
   20   10   11 2     
   21   10   12 am    
   22   12   13 am    
   23   12   23 1     
   24   13   14 2     
   25    6   24 1     
   26   11   25 1     
   27   11   26 1     
   28   14   27 1     
   29   14   28 1     
@<TRIPOS>SUBSTRUCTURE
      1 S1             1
@<TRIPOS>SET
LONE_PAIRS      STATIC     ATOMS    <user>   **** ""
5 24 25 26 27 28
DONOR_HYDROGENS      STATIC     ATOMS    <user>   **** ""
2 22 23
ATOM$BLUE        STATIC     ATOMS    COLORGROUP SYSTEM
5 24 25 26 27 28
ATOM$RED        STATIC     ATOMS    COLORGROUP SYSTEM
2 22 23
