AV-unprocessed.smi:828|AV-procd|sdf|3863|dock6
  -GOLD-   22720 1313D 1   1.00000     0.00000
 Structure written by MMmdl.
 34 35  0  0  0  0  0  0  0  0  3 V2000
  149.8751  141.5418  155.4639 C   0  0  0  0  0  0  0  0  0  0  0  0
  149.0740  140.5210  154.7312 C   0  0  0  0  0  0  0  0  0  0  0  0
  149.2629  139.2083  154.8862 N   0  0  0  0  0  0  0  0  0  0  0  0
  148.3969  138.4595  154.1026 N   0  0  0  0  0  0  0  0  0  0  0  0
  147.5724  139.2135  153.3620 C   0  0  0  0  0  0  0  0  0  0  0  0
  146.6545  138.6803  152.5387 N   0  5  0  0  0  0  0  0  0  0  0  0
  146.0173  137.5402  152.8850 C   0  0  0  0  0  0  0  0  0  0  0  0
  146.1587  136.9115  153.9360 O   0  0  0  0  0  0  0  0  0  0  0  0
  145.1727  137.0931  151.9459 N   0  0  0  0  0  0  0  0  0  0  0  0
  144.3899  135.8618  152.0088 C   0  0  0  0  0  0  0  0  0  0  0  0
  144.7109  134.8966  150.8438 C   0  0  1  0  0  0  0  0  0  0  0  0
  145.9899  134.0785  151.0152 C   0  0  0  0  0  0  0  0  0  0  0  0
  145.8305  132.9341  150.0095 C   0  0  0  0  0  0  0  0  0  0  0  0
  144.3374  132.9099  149.6387 C   0  0  0  0  0  0  0  0  0  0  0  0
  143.6618  133.9031  150.5040 N   0  3  1  0  0  0  0  0  0  0  0  0
  142.9831  133.2636  151.6588 C   0  0  0  0  0  0  0  0  0  0  0  0
  147.8002  140.9461  153.6001 S   0  0  0  0  0  0  0  0  0  0  0  0
  150.9361  141.2961  155.4122 H   0  0  0  0  0  0  0  0  0  0  0  0
  149.5710  141.5729  156.5102 H   0  0  0  0  0  0  0  0  0  0  0  0
  149.7243  142.5281  155.0253 H   0  0  0  0  0  0  0  0  0  0  0  0
  145.0758  137.6534  151.1114 H   0  0  0  0  0  0  0  0  0  0  0  0
  144.5664  135.3663  152.9647 H   0  0  0  0  0  0  0  0  0  0  0  0
  143.3337  136.1318  152.0020 H   0  0  0  0  0  0  0  0  0  0  0  0
  144.8437  135.4970  149.9421 H   0  0  0  0  0  0  0  0  0  0  0  0
  146.8898  134.6690  150.8401 H   0  0  0  0  0  0  0  0  0  0  0  0
  146.0480  133.6761  152.0274 H   0  0  0  0  0  0  0  0  0  0  0  0
  146.4370  133.1096  149.1202 H   0  0  0  0  0  0  0  0  0  0  0  0
  146.1521  131.9873  150.4446 H   0  0  0  0  0  0  0  0  0  0  0  0
  144.2154  133.2281  148.6025 H   0  0  0  0  0  0  0  0  0  0  0  0
  143.9053  131.9115  149.7200 H   0  0  0  0  0  0  0  0  0  0  0  0
  143.6984  132.7678  152.3158 H   0  0  0  0  0  0  0  0  0  0  0  0
  142.2696  132.5160  151.3107 H   0  0  0  0  0  0  0  0  0  0  0  0
  142.4181  133.9855  152.2472 H   0  0  0  0  0  0  0  0  0  0  0  0
  142.9444  134.3705  149.9675 H   0  0  0  0  0  0  0  0  0  0  0  0
  1  2  1  0  0  0  0
  1 18  1  0  0  0  0
  1 19  1  0  0  0  0
  1 20  1  0  0  0  0
  2 17  1  0  0  0  0
  2  3  2  0  0  0  0
  3  4  1  0  0  0  0
  4  5  2  0  0  0  0
  5  6  1  0  0  0  0
  5 17  1  0  0  0  0
  6  7  1  0  0  0  0
  7  8  2  0  0  0  0
  7  9  1  0  0  0  0
  9 10  1  0  0  0  0
  9 21  1  0  0  0  0
 10 11  1  0  0  0  0
 10 22  1  0  0  0  0
 10 23  1  0  0  0  0
 11 15  1  0  0  0  0
 11 12  1  0  0  0  0
 11 24  1  0  0  0  0
 12 13  1  0  0  0  0
 12 25  1  0  0  0  0
 12 26  1  0  0  0  0
 13 14  1  0  0  0  0
 13 27  1  0  0  0  0
 13 28  1  0  0  0  0
 14 15  1  0  0  0  0
 14 29  1  0  0  0  0
 14 30  1  0  0  0  0
 15 16  1  0  0  0  0
 15 34  1  0  0  0  0
 16 31  1  0  0  0  0
 16 32  1  0  0  0  0
 16 33  1  0  0  0  0
M  CHG  1   6  -1
M  CHG  1  15   1
M  END
> <s_m_source_file>
AV-unprocessed.smi

> <i_m_source_file_index>
828

> <i_lp_mmshare_version>
43012

> <i_f3d_flags>
0

> <s_epik_input>
W0NIM11jMW5uYyhzMSlbTkhdQyg9TylbTkhdW0NIMl1bQ0BASF0yW0NIMl1bQ0gyXVtDSDJdTjJbQ0gzXQ==

> <s_epik_cmdline>
J2VwaWtfcHl0aG9uJywgJy1waCcsICc3LjAnLCAnLXRuJywgJzgnLCAnLW1hJywgJzIwMCcsICctbWV0YWxfYmluZGluZycsICctaW1hZScsICc8aW5maWxlLm1hZT4nLCAnLW9tYWUnLCAnPG91dGZpbGUubWFlPic=

> <r_lp_tautomer_probability>
1

> <r_epik_Ionization_Penalty>
3.94379

> <r_epik_Ionization_Penalty_Charging>
3.83377

> <r_epik_Ionization_Penalty_Neutral>
0.110023

> <r_epik_State_Penalty>
3.83036

> <r_epik_Charging_Adjusted_Penalty>
7.66413

> <i_epik_Tot_Q>
0

> <i_epik_Tot_abs_Q>
2

> <r_epik_Metal_State_Penalty>
0.575095

> <b_epik_Metal_Only>
1

> <s_lp_Force_Field>
OPLS_2005

> <r_lp_Energy>
27.8836

> <b_lp_Chiralities_Consistent>
1

> <s_lp_Variant>
AV-unprocessed.smi:828-6

> <Gold.Version>
5.8.1

> <Gold.Id.Protein>
6NUR|6NUR_protein|mol2

> <Gold.PLP.Fitness>
36.1438

> <Gold.PLP.PLP>
-28.1265

> <Gold.PLP.part.hbond>
-2.0000

> <Gold.PLP.part.metal>
0.0000

> <Gold.PLP.part.buried>
-1.1145

> <Gold.PLP.part.nonpolar>
-24.6060

> <Gold.PLP.part.repulsive>
0.7457

> <Gold.PLP.ligand.clash>
0.0000

> <Gold.PLP.ligand.torsion>
0.4701

> <Gold.PLP.Chemscore.Hbond>
2.9840

> <Gold.PLP.Chemscore.CHOScore>
0.0000

> <Gold.PLP.Chemscore.Metal>
0.0000

> <Gold.Chemscore.Hbonds>
donor molecule, donor type, donor heavy atom, donor atom, acceptor molecule, acceptor atom, score
      L1  H     9    21       P1 10171  0.98
      L1  H    15    34       P1 10186  1.82

> <Gold.PLP.Chemscore.Internal.Correction>
0.0056

> <Gold.Rescore>
     Score         DG    S(hbond)    S(metal)    S(lipo)     H(rot)  DE(clash)    DE(int)     intcor
     13.58     -15.81       1.80        0.00      65.75       1.31       0.25       1.98       ----

> <Gold.Chemscore.Fitness>
13.5802

> <Gold.Chemscore.DG>
-15.8053

> <Gold.Chemscore.ZeroCoef>
-5.4800

> <Gold.Chemscore.Hbond>
1.7959

> <Gold.Chemscore.Metal>
0.0000

> <Gold.Chemscore.Lipo>
65.7539

> <Gold.Chemscore.Internal_Hbond>
0.0000

> <Gold.Chemscore.DEClash>
0.2500

> <Gold.Chemscore.DEInternal>
1.9750

> <Gold.Chemscore.Rot>
1.3149

> <Gold.Chemscore.Internal.Correction>
   9.000000E+99

> <Gold.Chemscore.Hbonds>
donor molecule, donor type, donor heavy atom, donor atom, acceptor molecule, acceptor atom, score
      L1  H     9    21       P1 10171  0.90
      L1  H    15    34       P1 10186  0.81

> <Gold.Chemscore.Hbond.Weighted>
-5.9982

> <Gold.Chemscore.Metal.Weighted>
-0.0000

> <Gold.Chemscore.Lipo.Weighted>
-7.6932

> <Gold.Chemscore.Internal_Hbond.Weighted>
0.0000

> <Gold.Chemscore.DEClash.Weighted>
0.2500

> <Gold.Chemscore.DEInternal.Weighted>
1.9750

> <Gold.Chemscore.Rot.Weighted>
3.3662

> <Gold.Chemscore.Internal.Correction.Weighted>
   9.000000E+99

> <Gold.Protein.RotatedTorsions>
[ 6907 6896 6895 6894 ] final  164.70 input  -60.11 | X-H torsion
[ 7974 7965 7964 7962 ] final   30.93 input  175.53 | X-H torsion
[ 8008 7997 7996 7995 ] final   -2.89 input   59.86 | X-H torsion
[ 10167 10162 10161 10158 ] final -118.61 input  -65.29 | X-H torsion
[ 10718 10713 10712 10709 ] final   56.15 input   66.30 | X-H torsion
[ 10763 10752 10751 10750 ] final    2.17 input  -60.55 | X-H torsion
[ 11005 11000 10999 10996 ] final -148.09 input  -57.11 | X-H torsion

> <Gold.Protein.ActiveResidues>
 VAL166  LYS551  ARG553  GLY616  TRP617  ASP618  TYR619  PRO620  LYS621  CYS622 
 ASP623  PHE694  ASN695  SER759  ASP760  ASP761  ALA762  ILE779  LEU786  VAL792 
 PHE793  MET794  SER795  GLU796  ALA797  LYS798  CYS799  TRP800  GLU811  SER814 

> <Gold.Protein.RotatedAtoms>
  151.9058  133.3549  159.3846 H   0  0  0  0  0  0  0  0  0  0  0  0  # atno 6907 bound_to 6896
  150.7069  134.4782  159.5467 H   0  0  0  0  0  0  0  0  0  0  0  0  # atno 6908 bound_to 6896
  152.2379  134.8258  160.0515 H   0  0  0  0  0  0  0  0  0  0  0  0  # atno 6909 bound_to 6896
  146.1581  139.6723  142.9052 H   0  0  0  0  0  0  0  0  0  0  0  0  # atno 7974 bound_to 7965
  154.6308  140.2523  155.7436 H   0  0  0  0  0  0  0  0  0  0  0  0  # atno 8008 bound_to 7997
  156.2478  140.2907  156.0578 H   0  0  0  0  0  0  0  0  0  0  0  0  # atno 8009 bound_to 7997
  155.1748  140.0387  157.2860 H   0  0  0  0  0  0  0  0  0  0  0  0  # atno 8010 bound_to 7997
  140.0557  143.5017  152.2059 H   0  0  0  0  0  0  0  0  0  0  0  0  # atno 10167 bound_to 10162
  157.5406  130.8694  149.8817 H   0  0  0  0  0  0  0  0  0  0  0  0  # atno 10718 bound_to 10713
  153.2989  135.6954  153.7222 H   0  0  0  0  0  0  0  0  0  0  0  0  # atno 10763 bound_to 10752
  153.6144  135.3438  155.2990 H   0  0  0  0  0  0  0  0  0  0  0  0  # atno 10764 bound_to 10752
  154.8545  135.4371  154.2094 H   0  0  0  0  0  0  0  0  0  0  0  0  # atno 10765 bound_to 10752
  140.7648  134.3257  157.5091 H   0  0  0  0  0  0  0  0  0  0  0  0  # atno 11005 bound_to 11000
  145.4656  141.0434  143.2727 LP  0  0  0  0  0  0  0  0  0  0  0  0  # atno 17320 bound_to 7965
  144.7991  139.6176  143.7080 LP  0  0  0  0  0  0  0  0  0  0  0  0  # atno 17321 bound_to 7965
  139.5925  144.7555  151.3365 LP  0  0  0  0  0  0  0  0  0  0  0  0  # atno 17342 bound_to 10162
  140.7196  143.7172  150.7723 LP  0  0  0  0  0  0  0  0  0  0  0  0  # atno 17343 bound_to 10162
  156.0494  130.3721  150.1239 LP  0  0  0  0  0  0  0  0  0  0  0  0  # atno 17370 bound_to 10713
  156.9419  130.9747  151.3514 LP  0  0  0  0  0  0  0  0  0  0  0  0  # atno 17371 bound_to 10713
  139.8765  134.9224  156.3300 LP  0  0  0  0  0  0  0  0  0  0  0  0  # atno 17394 bound_to 11000
  140.9629  133.7377  156.0426 LP  0  0  0  0  0  0  0  0  0  0  0  0  # atno 17395 bound_to 11000

$$$$
