AV-unprocessed.smi:1207|AV-procd|sdf|5056|dock10
  -GOLD-   22720 4 93D 1   1.00000     0.00000
 Structure written by MMmdl.
 52 54  0  0  0  0  0  0  0  0  2 V2000
  153.5713  142.8986  163.2889 C   0  0  0  0  0  0  0  0  0  0  0  0
  153.1057  142.6810  161.8591 C   0  0  0  0  0  0  0  0  0  0  0  0
  152.3613  143.7042  161.2290 C   0  0  0  0  0  0  0  0  0  0  0  0
  151.9443  143.4729  159.9235 C   0  0  0  0  0  0  0  0  0  0  0  0
  151.2039  144.2660  159.0439 N   0  3  0  0  0  0  0  0  0  0  0  0
  151.0414  143.6058  157.8637 C   0  0  0  0  0  0  0  0  0  0  0  0
  151.6691  142.4040  157.9774 N   0  0  0  0  0  0  0  0  0  0  0  0
  151.7963  141.3088  157.0075 C   0  0  0  0  0  0  0  0  0  0  0  0
  150.7112  141.3511  155.9144 C   0  0  1  0  0  0  0  0  0  0  0  0
  150.8125  140.1849  155.1206 O   0  0  0  0  0  0  0  0  0  0  0  0
  149.2965  141.4087  156.5244 C   0  0  0  0  0  0  0  0  0  0  0  0
  148.7793  140.1409  157.0460 N   0  0  0  0  0  0  0  0  0  0  0  0
  147.3200  140.1547  157.1569 C   0  0  0  0  0  0  0  0  0  0  0  0
  149.3986  139.8280  158.3348 C   0  0  0  0  0  0  0  0  0  0  0  0
  149.5782  138.3479  158.5581 C   0  0  0  0  0  0  0  0  0  0  0  0
  150.7772  137.6450  158.8685 C   0  0  0  0  0  0  0  0  0  0  0  0
  152.1609  138.1980  159.0539 C   0  0  0  0  0  0  0  0  0  0  0  0
  150.5686  136.3455  158.9990 N   0  0  0  0  0  0  0  0  0  0  0  0
  149.2014  136.1528  158.7770 O   0  0  0  0  0  0  0  0  0  0  0  0
  148.6349  137.3583  158.5165 C   0  0  0  0  0  0  0  0  0  0  0  0
  147.1668  137.3655  158.2550 C   0  0  0  0  0  0  0  0  0  0  0  0
  152.2463  142.2767  159.2445 C   0  0  0  0  0  0  0  0  0  0  0  0
  152.9810  141.2597  159.8484 C   0  0  0  0  0  0  0  0  0  0  0  0
  153.4114  141.4746  161.1773 C   0  0  0  0  0  0  0  0  0  0  0  0
  154.2110  140.3809  161.8645 C   0  0  0  0  0  0  0  0  0  0  0  0
  153.2835  143.8839  163.6569 H   0  0  0  0  0  0  0  0  0  0  0  0
  154.6568  142.8231  163.3564 H   0  0  0  0  0  0  0  0  0  0  0  0
  153.1297  142.1537  163.9513 H   0  0  0  0  0  0  0  0  0  0  0  0
  152.1244  144.6249  161.7417 H   0  0  0  0  0  0  0  0  0  0  0  0
  150.5078  143.9671  156.9964 H   0  0  0  0  0  0  0  0  0  0  0  0
  152.7892  141.3800  156.5610 H   0  0  0  0  0  0  0  0  0  0  0  0
  151.7682  140.3635  157.5507 H   0  0  0  0  0  0  0  0  0  0  0  0
  150.8950  142.2156  155.2789 H   0  0  0  0  0  0  0  0  0  0  0  0
  149.9755  139.7453  155.1326 H   0  0  0  0  0  0  0  0  0  0  0  0
  149.3128  142.1508  157.3242 H   0  0  0  0  0  0  0  0  0  0  0  0
  148.5996  141.7959  155.7794 H   0  0  0  0  0  0  0  0  0  0  0  0
  146.9442  139.2106  157.5516 H   0  0  0  0  0  0  0  0  0  0  0  0
  146.8449  140.2928  156.1873 H   0  0  0  0  0  0  0  0  0  0  0  0
  146.9831  140.9527  157.8196 H   0  0  0  0  0  0  0  0  0  0  0  0
  150.3759  140.3095  158.3876 H   0  0  0  0  0  0  0  0  0  0  0  0
  148.8140  140.2771  159.1387 H   0  0  0  0  0  0  0  0  0  0  0  0
  152.1458  139.0777  159.6976 H   0  0  0  0  0  0  0  0  0  0  0  0
  152.5929  138.4931  158.0976 H   0  0  0  0  0  0  0  0  0  0  0  0
  152.8307  137.4678  159.5105 H   0  0  0  0  0  0  0  0  0  0  0  0
  146.8774  138.2471  157.6828 H   0  0  0  0  0  0  0  0  0  0  0  0
  146.6104  137.3736  159.1921 H   0  0  0  0  0  0  0  0  0  0  0  0
  146.8670  136.4834  157.6891 H   0  0  0  0  0  0  0  0  0  0  0  0
  153.2124  140.3418  159.3285 H   0  0  0  0  0  0  0  0  0  0  0  0
  154.3473  139.5167  161.2136 H   0  0  0  0  0  0  0  0  0  0  0  0
  153.7001  140.0414  162.7659 H   0  0  0  0  0  0  0  0  0  0  0  0
  155.1993  140.7475  162.1426 H   0  0  0  0  0  0  0  0  0  0  0  0
  150.8337  145.1887  159.2324 H   0  0  0  0  0  0  0  0  0  0  0  0
  1  2  1  0  0  0  0
  1 26  1  0  0  0  0
  1 27  1  0  0  0  0
  1 28  1  0  0  0  0
  2 24  1  0  0  0  0
  2  3  2  0  0  0  0
  3  4  1  0  0  0  0
  3 29  1  0  0  0  0
  4 22  2  0  0  0  0
  4  5  1  0  0  0  0
  5  6  2  0  0  0  0
  5 52  1  0  0  0  0
  6  7  1  0  0  0  0
  6 30  1  0  0  0  0
  7  8  1  0  0  0  0
  7 22  1  0  0  0  0
  8  9  1  0  0  0  0
  8 31  1  0  0  0  0
  8 32  1  0  0  0  0
  9 10  1  0  0  0  0
  9 11  1  0  0  0  0
  9 33  1  0  0  0  0
 10 34  1  0  0  0  0
 11 12  1  0  0  0  0
 11 35  1  0  0  0  0
 11 36  1  0  0  0  0
 12 13  1  0  0  0  0
 12 14  1  0  0  0  0
 13 37  1  0  0  0  0
 13 38  1  0  0  0  0
 13 39  1  0  0  0  0
 14 15  1  0  0  0  0
 14 40  1  0  0  0  0
 14 41  1  0  0  0  0
 15 20  2  0  0  0  0
 15 16  1  0  0  0  0
 16 17  1  0  0  0  0
 16 18  2  0  0  0  0
 17 42  1  0  0  0  0
 17 43  1  0  0  0  0
 17 44  1  0  0  0  0
 18 19  1  0  0  0  0
 19 20  1  0  0  0  0
 20 21  1  0  0  0  0
 21 45  1  0  0  0  0
 21 46  1  0  0  0  0
 21 47  1  0  0  0  0
 22 23  1  0  0  0  0
 23 24  2  0  0  0  0
 23 48  1  0  0  0  0
 24 25  1  0  0  0  0
 25 49  1  0  0  0  0
 25 50  1  0  0  0  0
 25 51  1  0  0  0  0
M  CHG  1   5   1
M  END
> <s_m_source_file>
AV-unprocessed.smi

> <i_m_source_file_index>
1207

> <i_lp_mmshare_version>
43012

> <i_f3d_flags>
0

> <s_epik_input>
W0NIM11jKFtjSF0xKWMoW0NIM10pW2NIXWMoYzEyKW4oW2NIXW4yKVtDSDJdW0NASF0oW09IXSlbQ0gyXU4oW0NIM10pW0NIMl1jM2MoW0NIM10pbm9jM1tDSDNd

> <s_epik_cmdline>
J2VwaWtfcHl0aG9uJywgJy1waCcsICc3LjAnLCAnLXRuJywgJzgnLCAnLW1hJywgJzIwMCcsICctbWV0YWxfYmluZGluZycsICctaW1hZScsICc8aW5maWxlLm1hZT4nLCAnLW9tYWUnLCAnPG91dGZpbGUubWFlPic=

> <r_epik_Ionization_Penalty>
1.48114

> <r_epik_Ionization_Penalty_Charging>
1.21121

> <r_epik_Ionization_Penalty_Neutral>
0.269933

> <r_epik_State_Penalty>
1.53013

> <r_epik_Charging_Adjusted_Penalty>
2.74134

> <i_epik_Tot_Q>
1

> <i_epik_Tot_abs_Q>
1

> <r_epik_Metal_State_Penalty>
1.60462

> <b_epik_Metal_Only>
0

> <s_lp_Force_Field>
OPLS_2005

> <r_lp_Energy>
20.0432

> <b_lp_Chiralities_Consistent>
1

> <s_lp_Variant>
AV-unprocessed.smi:1207-8

> <Gold.Version>
5.8.1

> <Gold.Id.Protein>
6NUR|6NUR_protein|mol2

> <Gold.PLP.Fitness>
53.1158

> <Gold.PLP.PLP>
-46.0683

> <Gold.PLP.part.hbond>
-2.5720

> <Gold.PLP.part.metal>
0.0000

> <Gold.PLP.part.buried>
-7.6464

> <Gold.PLP.part.nonpolar>
-35.7677

> <Gold.PLP.part.repulsive>
0.0992

> <Gold.PLP.ligand.clash>
0.0000

> <Gold.PLP.ligand.torsion>
1.0388

> <Gold.PLP.Chemscore.Hbond>
1.9920

> <Gold.PLP.Chemscore.CHOScore>
1.0000

> <Gold.PLP.Chemscore.Metal>
0.0000

> <Gold.Chemscore.Hbonds>
donor molecule, donor type, donor heavy atom, donor atom, acceptor molecule, acceptor atom, score
      P1  H  6896  6908       L1    18  1.00
      P1  H  7989  7998       L1    10  1.00
      L1  C     6    30       P1  8028  1.00

> <Gold.PLP.Chemscore.Internal.Correction>
0.1491

> <Gold.Rescore>
     Score         DG    S(hbond)    S(metal)    S(lipo)     H(rot)  DE(clash)    DE(int)     intcor
     16.04     -18.49       1.60        0.00     119.25       2.46       0.31       2.15       ----

> <Gold.Chemscore.Fitness>
16.0366

> <Gold.Chemscore.DG>
-18.4891

> <Gold.Chemscore.ZeroCoef>
-5.4800

> <Gold.Chemscore.Hbond>
1.5998

> <Gold.Chemscore.Metal>
0.0000

> <Gold.Chemscore.Lipo>
119.2456

> <Gold.Chemscore.Internal_Hbond>
0.0000

> <Gold.Chemscore.DEClash>
0.3052

> <Gold.Chemscore.DEInternal>
2.1473

> <Gold.Chemscore.Rot>
2.4555

> <Gold.Chemscore.Internal.Correction>
   9.000000E+99

> <Gold.Chemscore.Hbonds>
donor molecule, donor type, donor heavy atom, donor atom, acceptor molecule, acceptor atom, score
      P1  H  6896  6908       L1    18  0.54
      P1  H  7989  7998       L1    10  0.34

> <Gold.Chemscore.Hbond.Weighted>
-5.3435

> <Gold.Chemscore.Metal.Weighted>
-0.0000

> <Gold.Chemscore.Lipo.Weighted>
-13.9517

> <Gold.Chemscore.Internal_Hbond.Weighted>
0.0000

> <Gold.Chemscore.DEClash.Weighted>
0.3052

> <Gold.Chemscore.DEInternal.Weighted>
2.1473

> <Gold.Chemscore.Rot.Weighted>
6.2861

> <Gold.Chemscore.Internal.Correction.Weighted>
   9.000000E+99

> <Gold.Protein.RotatedTorsions>
[ 6907 6896 6895 6894 ] final -151.60 input  -60.11 | X-H torsion
[ 7974 7965 7964 7962 ] final  -63.98 input  175.53 | X-H torsion
[ 8008 7997 7996 7995 ] final  -67.02 input   59.86 | X-H torsion
[ 10167 10162 10161 10158 ] final -125.96 input  -65.29 | X-H torsion
[ 10718 10713 10712 10709 ] final   74.56 input   66.30 | X-H torsion
[ 10763 10752 10751 10750 ] final -119.09 input  -60.55 | X-H torsion
[ 11005 11000 10999 10996 ] final -164.72 input  -57.11 | X-H torsion

> <Gold.Protein.ActiveResidues>
 VAL166  LYS551  ARG553  GLY616  TRP617  ASP618  TYR619  PRO620  LYS621  CYS622 
 ASP623  PHE694  ASN695  SER759  ASP760  ASP761  ALA762  ILE779  LEU786  VAL792 
 PHE793  MET794  SER795  GLU796  ALA797  LYS798  CYS799  TRP800  GLU811  SER814 

> <Gold.Protein.RotatedAtoms>
  151.2154  133.4532  159.2599 H   0  0  0  0  0  0  0  0  0  0  0  0  # atno 6907 bound_to 6896
  151.0936  134.9931  159.8425 H   0  0  0  0  0  0  0  0  0  0  0  0  # atno 6908 bound_to 6896
  152.5437  134.2086  159.8794 H   0  0  0  0  0  0  0  0  0  0  0  0  # atno 6909 bound_to 6896
  145.7723  140.8806  143.0373 H   0  0  0  0  0  0  0  0  0  0  0  0  # atno 7974 bound_to 7965
  154.4772  140.0901  156.7291 H   0  0  0  0  0  0  0  0  0  0  0  0  # atno 8008 bound_to 7997
  155.4565  140.3459  155.4289 H   0  0  0  0  0  0  0  0  0  0  0  0  # atno 8009 bound_to 7997
  156.1135  140.1454  156.9293 H   0  0  0  0  0  0  0  0  0  0  0  0  # atno 8010 bound_to 7997
  139.9765  143.5788  152.2394 H   0  0  0  0  0  0  0  0  0  0  0  0  # atno 10167 bound_to 10162
  157.6597  130.9684  150.1228 H   0  0  0  0  0  0  0  0  0  0  0  0  # atno 10718 bound_to 10713
  154.8607  135.4250  154.2244 H   0  0  0  0  0  0  0  0  0  0  0  0  # atno 10763 bound_to 10752
  153.3242  135.6984  153.7010 H   0  0  0  0  0  0  0  0  0  0  0  0  # atno 10764 bound_to 10752
  153.6052  135.3529  155.2933 H   0  0  0  0  0  0  0  0  0  0  0  0  # atno 10765 bound_to 10752
  140.5838  134.5115  157.5182 H   0  0  0  0  0  0  0  0  0  0  0  0  # atno 11005 bound_to 11000
  144.6810  139.9873  143.7484 LP  0  0  0  0  0  0  0  0  0  0  0  0  # atno 17320 bound_to 7965
  146.0157  139.3208  143.0843 LP  0  0  0  0  0  0  0  0  0  0  0  0  # atno 17321 bound_to 7965
  139.6442  144.7657  151.2278 LP  0  0  0  0  0  0  0  0  0  0  0  0  # atno 17342 bound_to 10162
  140.7504  143.6267  150.8461 LP  0  0  0  0  0  0  0  0  0  0  0  0  # atno 17343 bound_to 10162
  156.2095  130.3665  149.8688 LP  0  0  0  0  0  0  0  0  0  0  0  0  # atno 17370 bound_to 10713
  156.6570  130.8767  151.3541 LP  0  0  0  0  0  0  0  0  0  0  0  0  # atno 17371 bound_to 10713
  139.9305  134.7973  156.0944 LP  0  0  0  0  0  0  0  0  0  0  0  0  # atno 17394 bound_to 11000
  141.0979  133.6688  156.2687 LP  0  0  0  0  0  0  0  0  0  0  0  0  # atno 17395 bound_to 11000

$$$$
