AV-unprocessed.smi:2176|AV-procd|sdf|8846|dock5
  -GOLD-   2272012 33D 1   1.00000     0.00000
 Structure written by MMmdl.
 29 30  0  0  0  0  0  0  0  0  1 V2000
  150.4278  140.5072  156.7541 O   0  0  0  0  0  0  0  0  0  0  0  0
  150.1126  141.6418  156.3924 C   0  0  0  0  0  0  0  0  0  0  0  0
  149.7101  141.9177  154.9360 C   0  0  0  0  0  0  0  0  0  0  0  0
  148.8625  140.8630  154.3604 N   0  0  0  0  0  0  0  0  0  0  0  0
  147.5354  141.1232  154.0487 C   0  0  0  0  0  0  0  0  0  0  0  0
  146.7021  140.2027  153.5083 C   0  0  0  0  0  0  0  0  0  0  0  0
  147.1781  138.8539  153.2209 C   0  0  0  0  0  0  0  0  0  0  0  0
  146.5002  137.9506  152.7362 O   0  0  0  0  0  0  0  0  0  0  0  0
  148.5191  138.6322  153.5451 N   0  0  0  0  0  0  0  0  0  0  0  0
  149.3839  139.5768  154.1002 C   0  0  0  0  0  0  0  0  0  0  0  0
  150.5521  139.2776  154.3441 O   0  0  0  0  0  0  0  0  0  0  0  0
  150.1139  142.7055  157.2105 N   0  0  0  0  0  0  0  0  0  0  0  0
  150.4758  142.6974  158.6230 C   0  0  0  0  0  0  0  0  0  0  0  0
  151.6960  143.5338  158.9470 C   0  0  0  0  0  0  0  0  0  0  0  0
  151.5497  144.9957  159.2985 C   0  0  0  0  0  0  0  0  0  0  0  0
  152.1917  144.5948  157.9921 C   0  0  0  0  0  0  0  0  0  0  0  0
  148.8940  137.7130  153.3609 H   0  0  0  0  0  0  0  0  0  0  0  0
  149.2058  142.8841  154.8686 H   0  0  0  0  0  0  0  0  0  0  0  0
  150.6229  142.0294  154.3490 H   0  0  0  0  0  0  0  0  0  0  0  0
  147.1402  142.1107  154.2405 H   0  0  0  0  0  0  0  0  0  0  0  0
  145.6780  140.4661  153.2864 H   0  0  0  0  0  0  0  0  0  0  0  0
  149.8451  143.5971  156.8203 H   0  0  0  0  0  0  0  0  0  0  0  0
  149.6238  143.0657  159.1956 H   0  0  0  0  0  0  0  0  0  0  0  0
  150.6643  141.6828  158.9766 H   0  0  0  0  0  0  0  0  0  0  0  0
  152.4590  142.9950  159.5062 H   0  0  0  0  0  0  0  0  0  0  0  0
  150.5534  145.4313  159.2542 H   0  0  0  0  0  0  0  0  0  0  0  0
  152.1984  145.3934  160.0764 H   0  0  0  0  0  0  0  0  0  0  0  0
  153.2685  144.7230  157.8998 H   0  0  0  0  0  0  0  0  0  0  0  0
  151.6223  144.7642  157.0804 H   0  0  0  0  0  0  0  0  0  0  0  0
  1  2  2  0  0  0  0
  2  3  1  0  0  0  0
  2 12  1  0  0  0  0
  3  4  1  0  0  0  0
  3 18  1  0  0  0  0
  3 19  1  0  0  0  0
  4 10  1  0  0  0  0
  4  5  1  0  0  0  0
  5  6  2  0  0  0  0
  5 20  1  0  0  0  0
  6  7  1  0  0  0  0
  6 21  1  0  0  0  0
  7  8  2  0  0  0  0
  7  9  1  0  0  0  0
  9 17  1  0  0  0  0
  9 10  1  0  0  0  0
 10 11  2  0  0  0  0
 12 13  1  0  0  0  0
 12 22  1  0  0  0  0
 13 14  1  0  0  0  0
 13 23  1  0  0  0  0
 13 24  1  0  0  0  0
 14 16  1  0  0  0  0
 14 15  1  0  0  0  0
 14 25  1  0  0  0  0
 15 16  1  0  0  0  0
 15 26  1  0  0  0  0
 15 27  1  0  0  0  0
 16 28  1  0  0  0  0
 16 29  1  0  0  0  0
M  END
> <s_m_source_file>
AV-unprocessed.smi

> <i_m_source_file_index>
2176

> <i_lp_mmshare_version>
43012

> <i_f3d_flags>
0

> <s_epik_input>
W0NIMl0xW0NIMl1bQ0hdMVtDSDJdW05IXUMoPU8pW0NIMl1uMltjSF1bY0hdYyg9TylbbkhdYzI9Tw==

> <s_epik_cmdline>
J2VwaWtfcHl0aG9uJywgJy1waCcsICc3LjAnLCAnLXRuJywgJzgnLCAnLW1hJywgJzIwMCcsICctbWV0YWxfYmluZGluZycsICctaW1hZScsICc8aW5maWxlLm1hZT4nLCAnLW9tYWUnLCAnPG91dGZpbGUubWFlPic=

> <r_lp_tautomer_probability>
0.999537

> <r_epik_Ionization_Penalty>
0.00328917

> <r_epik_Ionization_Penalty_Charging>
0.00328916

> <r_epik_Ionization_Penalty_Neutral>
1.93017e-08

> <r_epik_State_Penalty>
0.00232387

> <r_epik_Charging_Adjusted_Penalty>
0.00561303

> <i_epik_Tot_Q>
0

> <i_epik_Tot_abs_Q>
0

> <r_epik_Metal_State_Penalty>
0.365274

> <b_epik_Metal_Only>
0

> <s_lp_Force_Field>
OPLS_2005

> <r_lp_Energy>
12.7002

> <b_lp_Chiralities_Consistent>
1

> <s_lp_Variant>
AV-unprocessed.smi:2176-1

> <Gold.Version>
5.8.1

> <Gold.Id.Protein>
6NUR|6NUR_protein|mol2

> <Gold.PLP.Fitness>
39.4517

> <Gold.PLP.PLP>
-31.7040

> <Gold.PLP.part.hbond>
-4.0000

> <Gold.PLP.part.metal>
0.0000

> <Gold.PLP.part.buried>
1.6418

> <Gold.PLP.part.nonpolar>
-29.5965

> <Gold.PLP.part.repulsive>
0.5403

> <Gold.PLP.ligand.clash>
0.0000

> <Gold.PLP.ligand.torsion>
0.8274

> <Gold.PLP.Chemscore.Hbond>
2.9516

> <Gold.PLP.Chemscore.CHOScore>
0.0000

> <Gold.PLP.Chemscore.Metal>
0.0000

> <Gold.Chemscore.Hbonds>
donor molecule, donor type, donor heavy atom, donor atom, acceptor molecule, acceptor atom, score
      L1  H     9    17       P1  7948  0.72
      L1  H    12    22       P1  8028  1.00
      P1  H  7989  7998       L1    11  0.84

> <Gold.PLP.Chemscore.Internal.Correction>
0.5478

> <Gold.Rescore>
     Score         DG    S(hbond)    S(metal)    S(lipo)     H(rot)  DE(clash)    DE(int)     intcor
     11.83     -17.38       2.83        0.00      65.35       2.04       2.12       3.43       ----

> <Gold.Chemscore.Fitness>
11.8336

> <Gold.Chemscore.DG>
-17.3850

> <Gold.Chemscore.ZeroCoef>
-5.4800

> <Gold.Chemscore.Hbond>
2.8348

> <Gold.Chemscore.Metal>
0.0000

> <Gold.Chemscore.Lipo>
65.3547

> <Gold.Chemscore.Internal_Hbond>
0.0000

> <Gold.Chemscore.DEClash>
2.1244

> <Gold.Chemscore.DEInternal>
3.4269

> <Gold.Chemscore.Rot>
2.0351

> <Gold.Chemscore.Internal.Correction>
   9.000000E+99

> <Gold.Chemscore.Hbonds>
donor molecule, donor type, donor heavy atom, donor atom, acceptor molecule, acceptor atom, score
      L1  H     9    17       P1  7948  0.68
      L1  H    12    22       P1  8028  0.98
      P1  H  7989  7998       L1    11  0.33

> <Gold.Chemscore.Hbond.Weighted>
-9.4682

> <Gold.Chemscore.Metal.Weighted>
-0.0000

> <Gold.Chemscore.Lipo.Weighted>
-7.6465

> <Gold.Chemscore.Internal_Hbond.Weighted>
0.0000

> <Gold.Chemscore.DEClash.Weighted>
2.1244

> <Gold.Chemscore.DEInternal.Weighted>
3.4269

> <Gold.Chemscore.Rot.Weighted>
5.2098

> <Gold.Chemscore.Internal.Correction.Weighted>
   9.000000E+99

> <Gold.Protein.RotatedTorsions>
[ 6907 6896 6895 6894 ] final  -12.56 input  -60.11 | X-H torsion
[ 7974 7965 7964 7962 ] final  132.21 input  175.53 | X-H torsion
[ 8008 7997 7996 7995 ] final  -36.28 input   59.86 | X-H torsion
[ 10167 10162 10161 10158 ] final  154.71 input  -65.29 | X-H torsion
[ 10718 10713 10712 10709 ] final  -67.31 input   66.30 | X-H torsion
[ 10763 10752 10751 10750 ] final  -69.50 input  -60.55 | X-H torsion
[ 11005 11000 10999 10996 ] final -137.37 input  -57.11 | X-H torsion

> <Gold.Protein.ActiveResidues>
 VAL166  LYS551  ARG553  GLY616  TRP617  ASP618  TYR619  PRO620  LYS621  CYS622 
 ASP623  PHE694  ASN695  SER759  ASP760  ASP761  ALA762  ILE779  LEU786  VAL792 
 PHE793  MET794  SER795  GLU796  ALA797  LYS798  CYS799  TRP800  GLU811  SER814 

> <Gold.Protein.RotatedAtoms>
  151.3686  135.0918  159.9457 H   0  0  0  0  0  0  0  0  0  0  0  0  # atno 6907 bound_to 6896
  152.5142  133.9187  159.7534 H   0  0  0  0  0  0  0  0  0  0  0  0  # atno 6908 bound_to 6896
  150.9596  133.6405  159.2786 H   0  0  0  0  0  0  0  0  0  0  0  0  # atno 6909 bound_to 6896
  144.9992  139.4328  143.5300 H   0  0  0  0  0  0  0  0  0  0  0  0  # atno 7974 bound_to 7965
  154.4076  140.1635  156.2349 H   0  0  0  0  0  0  0  0  0  0  0  0  # atno 8008 bound_to 7997
  155.9251  140.3418  155.6181 H   0  0  0  0  0  0  0  0  0  0  0  0  # atno 8009 bound_to 7997
  155.7175  140.0764  157.2335 H   0  0  0  0  0  0  0  0  0  0  0  0  # atno 8010 bound_to 7997
  139.4822  144.5162  151.7947 H   0  0  0  0  0  0  0  0  0  0  0  0  # atno 10167 bound_to 10162
  156.0564  130.4276  150.1836 H   0  0  0  0  0  0  0  0  0  0  0  0  # atno 10718 bound_to 10713
  154.4043  135.6024  153.5915 H   0  0  0  0  0  0  0  0  0  0  0  0  # atno 10763 bound_to 10752
  152.9789  135.5914  154.4147 H   0  0  0  0  0  0  0  0  0  0  0  0  # atno 10764 bound_to 10752
  154.3950  135.2842  155.2110 H   0  0  0  0  0  0  0  0  0  0  0  0  # atno 10765 bound_to 10752
  140.8718  134.2042  157.4646 H   0  0  0  0  0  0  0  0  0  0  0  0  # atno 11005 bound_to 11000
  146.3448  139.9371  142.8746 LP  0  0  0  0  0  0  0  0  0  0  0  0  # atno 17320 bound_to 7965
  145.2176  140.9922  143.4064 LP  0  0  0  0  0  0  0  0  0  0  0  0  # atno 17321 bound_to 7965
  140.4671  144.1639  150.5913 LP  0  0  0  0  0  0  0  0  0  0  0  0  # atno 17342 bound_to 10162
  140.4422  143.2521  151.9458 LP  0  0  0  0  0  0  0  0  0  0  0  0  # atno 17343 bound_to 10162
  156.9911  130.9894  151.3414 LP  0  0  0  0  0  0  0  0  0  0  0  0  # atno 17370 bound_to 10713
  157.5538  130.8200  149.8178 LP  0  0  0  0  0  0  0  0  0  0  0  0  # atno 17371 bound_to 10713
  139.8712  134.9777  156.4970 LP  0  0  0  0  0  0  0  0  0  0  0  0  # atno 17394 bound_to 11000
  140.8565  133.8092  155.9221 LP  0  0  0  0  0  0  0  0  0  0  0  0  # atno 17395 bound_to 11000

$$$$
