AV-unprocessed.smi:2193|AV-procd|sdf|8900|dock7
  -GOLD-   2272012113D 1   1.00000     0.00000
 Structure written by MMmdl.
 41 43  0  0  0  0  0  0  0  0  2 V2000
  150.5002  140.1762  154.5041 O   0  0  0  0  0  0  0  0  0  0  0  0
  149.7054  140.9163  155.4035 C   0  0  0  0  0  0  0  0  0  0  0  0
  150.4970  141.4497  156.5511 C   0  0  0  0  0  0  0  0  0  0  0  0
  150.7267  142.7659  156.8185 N   0  3  0  0  0  0  0  0  0  0  0  0
  151.5151  142.8848  157.9637 C   0  0  0  0  0  0  0  0  0  0  0  0
  152.0032  144.0106  158.6197 C   0  0  0  0  0  0  0  0  0  0  0  0
  152.7825  143.7827  159.7729 C   0  0  0  0  0  0  0  0  0  0  0  0
  153.0495  142.4767  160.2321 C   0  0  0  0  0  0  0  0  0  0  0  0
  152.5501  141.3429  159.5578 C   0  0  0  0  0  0  0  0  0  0  0  0
  151.7808  141.5762  158.4178 C   0  0  0  0  0  0  0  0  0  0  0  0
  151.1332  140.7237  157.5150 N   0  0  0  0  0  0  0  0  0  0  0  0
  151.2180  139.2656  157.6945 C   0  0  0  0  0  0  0  0  0  0  0  0
  152.6690  138.7642  157.8367 C   0  0  2  0  0  0  0  0  0  0  0  0
  153.3705  138.9620  156.6259 O   0  0  0  0  0  0  0  0  0  0  0  0
  152.7412  137.2761  158.2079 C   0  0  0  0  0  0  0  0  0  0  0  0
  152.3875  137.1281  159.5769 O   0  0  0  0  0  0  0  0  0  0  0  0
  153.3079  137.4980  160.5335 C   0  0  0  0  0  0  0  0  0  0  0  0
  153.2608  136.8121  161.7650 C   0  0  0  0  0  0  0  0  0  0  0  0
  154.1636  137.1241  162.7997 C   0  0  0  0  0  0  0  0  0  0  0  0
  155.1273  138.1317  162.6115 C   0  0  0  0  0  0  0  0  0  0  0  0
  155.9968  138.4337  163.6046 F   0  0  0  0  0  0  0  0  0  0  0  0
  155.1854  138.8253  161.3884 C   0  0  0  0  0  0  0  0  0  0  0  0
  154.2824  138.5125  160.3534 C   0  0  0  0  0  0  0  0  0  0  0  0
  150.0587  139.3631  154.3105 H   0  0  0  0  0  0  0  0  0  0  0  0
  149.2386  141.7438  154.8689 H   0  0  0  0  0  0  0  0  0  0  0  0
  148.9013  140.2814  155.7754 H   0  0  0  0  0  0  0  0  0  0  0  0
  151.7995  145.0123  158.2703 H   0  0  0  0  0  0  0  0  0  0  0  0
  153.1828  144.6264  160.3164 H   0  0  0  0  0  0  0  0  0  0  0  0
  153.6495  142.3409  161.1205 H   0  0  0  0  0  0  0  0  0  0  0  0
  152.7588  140.3481  159.9226 H   0  0  0  0  0  0  0  0  0  0  0  0
  150.6494  139.0212  158.5924 H   0  0  0  0  0  0  0  0  0  0  0  0
  150.7049  138.7676  156.8717 H   0  0  0  0  0  0  0  0  0  0  0  0
  153.1827  139.3426  158.6055 H   0  0  0  0  0  0  0  0  0  0  0  0
  153.8783  138.1860  156.4446 H   0  0  0  0  0  0  0  0  0  0  0  0
  152.0731  136.6956  157.5691 H   0  0  0  0  0  0  0  0  0  0  0  0
  153.7584  136.9104  158.0559 H   0  0  0  0  0  0  0  0  0  0  0  0
  152.5244  136.0370  161.9183 H   0  0  0  0  0  0  0  0  0  0  0  0
  154.1160  136.5901  163.7372 H   0  0  0  0  0  0  0  0  0  0  0  0
  155.9241  139.5997  161.2429 H   0  0  0  0  0  0  0  0  0  0  0  0
  154.3579  139.0669  159.4305 H   0  0  0  0  0  0  0  0  0  0  0  0
  150.3722  143.5258  156.2520 H   0  0  0  0  0  0  0  0  0  0  0  0
  1  2  1  0  0  0  0
  1 24  1  0  0  0  0
  2  3  1  0  0  0  0
  2 25  1  0  0  0  0
  2 26  1  0  0  0  0
  3 11  1  0  0  0  0
  3  4  2  0  0  0  0
  4  5  1  0  0  0  0
  4 41  1  0  0  0  0
  5 10  2  0  0  0  0
  5  6  1  0  0  0  0
  6  7  2  0  0  0  0
  6 27  1  0  0  0  0
  7  8  1  0  0  0  0
  7 28  1  0  0  0  0
  8  9  2  0  0  0  0
  8 29  1  0  0  0  0
  9 10  1  0  0  0  0
  9 30  1  0  0  0  0
 10 11  1  0  0  0  0
 11 12  1  0  0  0  0
 12 13  1  0  0  0  0
 12 31  1  0  0  0  0
 12 32  1  0  0  0  0
 13 14  1  0  0  0  0
 13 15  1  0  0  0  0
 13 33  1  0  0  0  0
 14 34  1  0  0  0  0
 15 16  1  0  0  0  0
 15 35  1  0  0  0  0
 15 36  1  0  0  0  0
 16 17  1  0  0  0  0
 17 23  1  0  0  0  0
 17 18  2  0  0  0  0
 18 19  1  0  0  0  0
 18 37  1  0  0  0  0
 19 20  2  0  0  0  0
 19 38  1  0  0  0  0
 20 21  1  0  0  0  0
 20 22  1  0  0  0  0
 22 23  2  0  0  0  0
 22 39  1  0  0  0  0
 23 40  1  0  0  0  0
M  CHG  1   4   1
M  END
> <s_m_source_file>
AV-unprocessed.smi

> <i_m_source_file_index>
2193

> <i_lp_mmshare_version>
43012

> <i_f3d_flags>
0

> <s_epik_input>
W2NIXTFbY0hdW2NIXVtjSF1jKGMxMiluKGMobjIpW0NIMl1bT0hdKVtDSDJdW0NASF0oW09IXSlbQ0gyXU9jM1tjSF1bY0hdYyhGKVtjSF1bY0hdMw==

> <s_epik_cmdline>
J2VwaWtfcHl0aG9uJywgJy1waCcsICc3LjAnLCAnLXRuJywgJzgnLCAnLW1hJywgJzIwMCcsICctbWV0YWxfYmluZGluZycsICctaW1hZScsICc8aW5maWxlLm1hZT4nLCAnLW9tYWUnLCAnPG91dGZpbGUubWFlPic=

> <r_lp_tautomer_probability>
1

> <r_epik_Ionization_Penalty>
1.43752

> <r_epik_Ionization_Penalty_Charging>
1.43666

> <r_epik_Ionization_Penalty_Neutral>
0.000858184

> <r_epik_State_Penalty>
1.52171

> <r_epik_Charging_Adjusted_Penalty>
2.95837

> <i_epik_Tot_Q>
1

> <i_epik_Tot_abs_Q>
1

> <r_epik_Metal_State_Penalty>
5.56725

> <b_epik_Metal_Only>
0

> <s_lp_Force_Field>
OPLS_2005

> <r_lp_Energy>
17.6251

> <b_lp_Chiralities_Consistent>
1

> <s_lp_Variant>
AV-unprocessed.smi:2193-3

> <Gold.Version>
5.8.1

> <Gold.Id.Protein>
6NUR|6NUR_protein|mol2

> <Gold.PLP.Fitness>
57.8585

> <Gold.PLP.PLP>
-44.4417

> <Gold.PLP.part.hbond>
-3.6289

> <Gold.PLP.part.metal>
0.0000

> <Gold.PLP.part.buried>
-7.1135

> <Gold.PLP.part.nonpolar>
-35.1369

> <Gold.PLP.part.repulsive>
0.0415

> <Gold.PLP.ligand.clash>
0.0019

> <Gold.PLP.ligand.torsion>
0.6514

> <Gold.PLP.Chemscore.Hbond>
4.8775

> <Gold.PLP.Chemscore.CHOScore>
0.0000

> <Gold.PLP.Chemscore.Metal>
0.0000

> <Gold.Chemscore.Hbonds>
donor molecule, donor type, donor heavy atom, donor atom, acceptor molecule, acceptor atom, score
      L1  H     4    41       P1  8028  2.00
      P1  H  6896  6907       L1    16  0.78
      P1  H  7989  7998       L1     1  1.00
      P1  H  7997  8010       L1    14  0.94

> <Gold.PLP.Chemscore.Internal.Correction>
0.0890

> <Gold.Rescore>
     Score         DG    S(hbond)    S(metal)    S(lipo)     H(rot)  DE(clash)    DE(int)     intcor
     20.37     -22.00       3.43        0.00     115.85       3.31       0.00       1.63       ----

> <Gold.Chemscore.Fitness>
20.3704

> <Gold.Chemscore.DG>
-21.9973

> <Gold.Chemscore.ZeroCoef>
-5.4800

> <Gold.Chemscore.Hbond>
3.4267

> <Gold.Chemscore.Metal>
0.0000

> <Gold.Chemscore.Lipo>
115.8497

> <Gold.Chemscore.Internal_Hbond>
0.0000

> <Gold.Chemscore.DEClash>
0.0015

> <Gold.Chemscore.DEInternal>
1.6254

> <Gold.Chemscore.Rot>
3.3134

> <Gold.Chemscore.Internal.Correction>
   9.000000E+99

> <Gold.Chemscore.Hbonds>
donor molecule, donor type, donor heavy atom, donor atom, acceptor molecule, acceptor atom, score
      L1  H     4    41       P1  8028  0.94
      P1  H  6896  6907       L1    16  0.38
      P1  H  7989  7998       L1     1  0.98
      P1  H  7997  8010       L1    14  0.34

> <Gold.Chemscore.Hbond.Weighted>
-11.4452

> <Gold.Chemscore.Metal.Weighted>
-0.0000

> <Gold.Chemscore.Lipo.Weighted>
-13.5544

> <Gold.Chemscore.Internal_Hbond.Weighted>
0.0000

> <Gold.Chemscore.DEClash.Weighted>
0.0015

> <Gold.Chemscore.DEInternal.Weighted>
1.6254

> <Gold.Chemscore.Rot.Weighted>
8.4823

> <Gold.Chemscore.Internal.Correction.Weighted>
   9.000000E+99

> <Gold.Protein.RotatedTorsions>
[ 6907 6896 6895 6894 ] final   12.98 input  -60.11 | X-H torsion
[ 7974 7965 7964 7962 ] final  103.18 input  175.53 | X-H torsion
[ 8008 7997 7996 7995 ] final   74.16 input   59.86 | X-H torsion
[ 10167 10162 10161 10158 ] final  -78.24 input  -65.29 | X-H torsion
[ 10718 10713 10712 10709 ] final  132.64 input   66.30 | X-H torsion
[ 10763 10752 10751 10750 ] final  -48.07 input  -60.55 | X-H torsion
[ 11005 11000 10999 10996 ] final  -13.14 input  -57.11 | X-H torsion

> <Gold.Protein.ActiveResidues>
 VAL166  LYS551  ARG553  GLY616  TRP617  ASP618  TYR619  PRO620  LYS621  CYS622 
 ASP623  PHE694  ASN695  SER759  ASP760  ASP761  ALA762  ILE779  LEU786  VAL792 
 PHE793  MET794  SER795  GLU796  ALA797  LYS798  CYS799  TRP800  GLU811  SER814 

> <Gold.Protein.RotatedAtoms>
  151.7790  135.0766  160.0370 H   0  0  0  0  0  0  0  0  0  0  0  0  # atno 6907 bound_to 6896
  152.3236  133.5876  159.5769 H   0  0  0  0  0  0  0  0  0  0  0  0  # atno 6908 bound_to 6896
  150.7383  133.9890  159.3643 H   0  0  0  0  0  0  0  0  0  0  0  0  # atno 6909 bound_to 6896
  145.3493  139.2443  143.3567 H   0  0  0  0  0  0  0  0  0  0  0  0  # atno 7974 bound_to 7965
  155.7943  140.3478  155.5367 H   0  0  0  0  0  0  0  0  0  0  0  0  # atno 8008 bound_to 7997
  155.8602  140.0970  157.1639 H   0  0  0  0  0  0  0  0  0  0  0  0  # atno 8009 bound_to 7997
  154.4011  140.1360  156.3938 H   0  0  0  0  0  0  0  0  0  0  0  0  # atno 8010 bound_to 7997
  140.4700  143.2429  151.8220 H   0  0  0  0  0  0  0  0  0  0  0  0  # atno 10167 bound_to 10162
  157.4851  131.1088  150.9631 H   0  0  0  0  0  0  0  0  0  0  0  0  # atno 10718 bound_to 10713
  154.0718  135.6603  153.4825 H   0  0  0  0  0  0  0  0  0  0  0  0  # atno 10763 bound_to 10752
  153.0388  135.5159  154.7559 H   0  0  0  0  0  0  0  0  0  0  0  0  # atno 10764 bound_to 10752
  154.6627  135.3017  154.9813 H   0  0  0  0  0  0  0  0  0  0  0  0  # atno 10765 bound_to 10752
  140.7730  133.8423  155.9223 H   0  0  0  0  0  0  0  0  0  0  0  0  # atno 11005 bound_to 11000
  146.2975  140.4105  142.8716 LP  0  0  0  0  0  0  0  0  0  0  0  0  # atno 17320 bound_to 7965
  144.8730  140.7298  143.6035 LP  0  0  0  0  0  0  0  0  0  0  0  0  # atno 17321 bound_to 7965
  139.4817  144.4904  151.9193 LP  0  0  0  0  0  0  0  0  0  0  0  0  # atno 17342 bound_to 10162
  140.3989  144.2519  150.5894 LP  0  0  0  0  0  0  0  0  0  0  0  0  # atno 17343 bound_to 10162
  157.0351  130.5727  149.5348 LP  0  0  0  0  0  0  0  0  0  0  0  0  # atno 17370 bound_to 10713
  156.0142  130.5236  150.8084 LP  0  0  0  0  0  0  0  0  0  0  0  0  # atno 17371 bound_to 10713
  140.9556  134.1722  157.4694 LP  0  0  0  0  0  0  0  0  0  0  0  0  # atno 17394 bound_to 11000
  139.8753  134.9925  156.5602 LP  0  0  0  0  0  0  0  0  0  0  0  0  # atno 17395 bound_to 11000

$$$$
