AV-unprocessed.smi:1824|AV-procd|sdf|7400|dock5
  -GOLD-   22720 9 73D 1   1.00000     0.00000
 Structure written by MMmdl.
 45 47  0  0  0  0  0  0  0  0  2 V2000
  150.2098  131.4445  154.3175 C   0  0  0  0  0  0  0  0  0  0  0  0
  149.6566  132.7640  154.8668 C   0  0  1  0  0  0  0  0  0  0  0  0
  149.8633  133.9330  153.8828 C   0  0  0  0  0  0  0  0  0  0  0  0
  149.2482  135.1820  154.3937 N   0  3  2  0  0  0  0  0  0  0  0  0
  150.0525  135.8580  155.4475 C   0  0  0  0  0  0  0  0  0  0  0  0
  150.8556  137.0547  154.9002 C   0  0  2  0  0  0  0  0  0  0  0  0
  151.7966  136.5759  153.9582 O   0  0  0  0  0  0  0  0  0  0  0  0
  151.5960  137.8067  156.0232 C   0  0  0  0  0  0  0  0  0  0  0  0
  151.2395  139.2138  156.0765 N   0  0  0  0  0  0  0  0  0  0  0  0
  150.4210  139.8722  155.2333 C   0  0  0  0  0  0  0  0  0  0  0  0
  150.2303  141.1687  155.4574 N   0  0  0  0  0  0  0  0  0  0  0  0
  151.0124  141.3769  156.5805 C   0  0  0  0  0  0  0  0  0  0  0  0
  151.2467  142.5520  157.3295 C   0  0  0  0  0  0  0  0  0  0  0  0
  152.0971  142.5254  158.4544 C   0  0  0  0  0  0  0  0  0  0  0  0
  152.3099  143.6607  159.1613 F   0  0  0  0  0  0  0  0  0  0  0  0
  152.7265  141.3248  158.8456 C   0  0  0  0  0  0  0  0  0  0  0  0
  153.5430  141.3082  159.9256 F   0  0  0  0  0  0  0  0  0  0  0  0
  152.5081  140.1410  158.1148 C   0  0  0  0  0  0  0  0  0  0  0  0
  151.6575  140.1722  156.9942 C   0  0  0  0  0  0  0  0  0  0  0  0
  147.8235  134.9522  154.7449 C   0  0  0  0  0  0  0  0  0  0  0  0
  147.6553  133.7401  155.6871 C   0  0  1  0  0  0  0  0  0  0  0  0
  146.1806  133.4141  155.9464 C   0  0  0  0  0  0  0  0  0  0  0  0
  148.2615  132.5964  155.0948 O   0  0  0  0  0  0  0  0  0  0  0  0
  151.2811  131.5164  154.1275 H   0  0  0  0  0  0  0  0  0  0  0  0
  149.7217  131.1699  153.3818 H   0  0  0  0  0  0  0  0  0  0  0  0
  150.0524  130.6306  155.0257 H   0  0  0  0  0  0  0  0  0  0  0  0
  150.1545  132.9784  155.8140 H   0  0  0  0  0  0  0  0  0  0  0  0
  150.9226  134.0862  153.6730 H   0  0  0  0  0  0  0  0  0  0  0  0
  149.3960  133.6909  152.9272 H   0  0  0  0  0  0  0  0  0  0  0  0
  149.4051  136.1792  156.2634 H   0  0  0  0  0  0  0  0  0  0  0  0
  150.7543  135.1469  155.8861 H   0  0  0  0  0  0  0  0  0  0  0  0
  150.1938  137.7563  154.3930 H   0  0  0  0  0  0  0  0  0  0  0  0
  151.4838  136.7798  153.0893 H   0  0  0  0  0  0  0  0  0  0  0  0
  151.3621  137.3609  156.9911 H   0  0  0  0  0  0  0  0  0  0  0  0
  152.6762  137.7227  155.8964 H   0  0  0  0  0  0  0  0  0  0  0  0
  149.9399  139.3712  154.4058 H   0  0  0  0  0  0  0  0  0  0  0  0
  150.7713  143.4770  157.0384 H   0  0  0  0  0  0  0  0  0  0  0  0
  152.9899  139.2219  158.4131 H   0  0  0  0  0  0  0  0  0  0  0  0
  147.3782  135.8444  155.1831 H   0  0  0  0  0  0  0  0  0  0  0  0
  147.2775  134.7663  153.8187 H   0  0  0  0  0  0  0  0  0  0  0  0
  148.1313  133.9380  156.6482 H   0  0  0  0  0  0  0  0  0  0  0  0
  145.6670  134.2571  156.4092 H   0  0  0  0  0  0  0  0  0  0  0  0
  146.0830  132.5587  156.6153 H   0  0  0  0  0  0  0  0  0  0  0  0
  145.6602  133.1724  155.0191 H   0  0  0  0  0  0  0  0  0  0  0  0
  149.2547  135.8268  153.6156 H   0  0  0  0  0  0  0  0  0  0  0  0
  1  2  1  0  0  0  0
  1 24  1  0  0  0  0
  1 25  1  0  0  0  0
  1 26  1  0  0  0  0
  2 23  1  0  0  0  0
  2  3  1  0  0  0  0
  2 27  1  0  0  0  0
  3  4  1  0  0  0  0
  3 28  1  0  0  0  0
  3 29  1  0  0  0  0
  4  5  1  0  0  0  0
  4 20  1  0  0  0  0
  4 45  1  0  0  0  0
  5  6  1  0  0  0  0
  5 30  1  0  0  0  0
  5 31  1  0  0  0  0
  6  7  1  0  0  0  0
  6  8  1  0  0  0  0
  6 32  1  0  0  0  0
  7 33  1  0  0  0  0
  8  9  1  0  0  0  0
  8 34  1  0  0  0  0
  8 35  1  0  0  0  0
  9 19  1  0  0  0  0
  9 10  1  0  0  0  0
 10 11  2  0  0  0  0
 10 36  1  0  0  0  0
 11 12  1  0  0  0  0
 12 19  2  0  0  0  0
 12 13  1  0  0  0  0
 13 14  2  0  0  0  0
 13 37  1  0  0  0  0
 14 15  1  0  0  0  0
 14 16  1  0  0  0  0
 16 17  1  0  0  0  0
 16 18  2  0  0  0  0
 18 19  1  0  0  0  0
 18 38  1  0  0  0  0
 20 21  1  0  0  0  0
 20 39  1  0  0  0  0
 20 40  1  0  0  0  0
 21 22  1  0  0  0  0
 21 23  1  0  0  0  0
 21 41  1  0  0  0  0
 22 42  1  0  0  0  0
 22 43  1  0  0  0  0
 22 44  1  0  0  0  0
M  CHG  1   4   1
M  END
> <s_m_source_file>
AV-unprocessed.smi

> <i_m_source_file_index>
1824

> <i_lp_mmshare_version>
43012

> <i_f3d_flags>
0

> <s_epik_input>
W0NIM11bQ0BASF0xW0NIMl1OKFtDSDJdW0NASF0oTzEpW0NIM10pW0NIMl1bQ0BIXShbT0hdKVtDSDJdbihbY0hdbjIpYyhjMjMpW2NIXWMoRiljKEYpW2NIXTM=

> <s_epik_cmdline>
J2VwaWtfcHl0aG9uJywgJy1waCcsICc3LjAnLCAnLXRuJywgJzgnLCAnLW1hJywgJzIwMCcsICctbWV0YWxfYmluZGluZycsICctaW1hZScsICc8aW5maWxlLm1hZT4nLCAnLW9tYWUnLCAnPG91dGZpbGUubWFlPic=

> <r_epik_Ionization_Penalty>
0.61967

> <r_epik_Ionization_Penalty_Charging>
0.608065

> <r_epik_Ionization_Penalty_Neutral>
0.0116057

> <r_epik_State_Penalty>
0.664205

> <r_epik_Charging_Adjusted_Penalty>
1.27227

> <i_epik_Tot_Q>
1

> <i_epik_Tot_abs_Q>
1

> <r_epik_Metal_State_Penalty>
0.654947

> <b_epik_Metal_Only>
0

> <s_lp_Force_Field>
OPLS_2005

> <r_lp_Energy>
21.7037

> <b_lp_Chiralities_Consistent>
1

> <s_lp_Variant>
AV-unprocessed.smi:1824-8

> <Gold.Version>
5.8.1

> <Gold.Id.Protein>
6NUR|6NUR_protein|mol2

> <Gold.PLP.Fitness>
49.2209

> <Gold.PLP.PLP>
-40.0630

> <Gold.PLP.part.hbond>
-4.0000

> <Gold.PLP.part.metal>
0.0000

> <Gold.PLP.part.buried>
-2.5509

> <Gold.PLP.part.nonpolar>
-32.8019

> <Gold.PLP.part.repulsive>
0.1330

> <Gold.PLP.ligand.clash>
0.0000

> <Gold.PLP.ligand.torsion>
1.4029

> <Gold.PLP.Chemscore.Hbond>
3.9760

> <Gold.PLP.Chemscore.CHOScore>
0.0000

> <Gold.PLP.Chemscore.Metal>
0.0000

> <Gold.Chemscore.Hbonds>
donor molecule, donor type, donor heavy atom, donor atom, acceptor molecule, acceptor atom, score
      L1  H     4    45       P1  7948  2.00
      L1  H     7    33       P1  7949  0.82
      P1  H 10752 10765       L1     7  0.96

> <Gold.PLP.Chemscore.Internal.Correction>
0.0357

> <Gold.Rescore>
     Score         DG    S(hbond)    S(metal)    S(lipo)     H(rot)  DE(clash)    DE(int)     intcor
     16.15     -17.59       2.45        0.00      84.33       2.33       0.11       1.32       ----

> <Gold.Chemscore.Fitness>
16.1503

> <Gold.Chemscore.DG>
-17.5850

> <Gold.Chemscore.ZeroCoef>
-5.4800

> <Gold.Chemscore.Hbond>
2.4524

> <Gold.Chemscore.Metal>
0.0000

> <Gold.Chemscore.Lipo>
84.3280

> <Gold.Chemscore.Internal_Hbond>
0.0000

> <Gold.Chemscore.DEClash>
0.1135

> <Gold.Chemscore.DEInternal>
1.3213

> <Gold.Chemscore.Rot>
2.3251

> <Gold.Chemscore.Internal.Correction>
   9.000000E+99

> <Gold.Chemscore.Hbonds>
donor molecule, donor type, donor heavy atom, donor atom, acceptor molecule, acceptor atom, score
      L1  H     4    45       P1  7948  0.67
      L1  H     7    33       P1  7949  0.74
      P1  H 10752 10765       L1     7  0.90

> <Gold.Chemscore.Hbond.Weighted>
-8.1910

> <Gold.Chemscore.Metal.Weighted>
-0.0000

> <Gold.Chemscore.Lipo.Weighted>
-9.8664

> <Gold.Chemscore.Internal_Hbond.Weighted>
0.0000

> <Gold.Chemscore.DEClash.Weighted>
0.1135

> <Gold.Chemscore.DEInternal.Weighted>
1.3213

> <Gold.Chemscore.Rot.Weighted>
5.9523

> <Gold.Chemscore.Internal.Correction.Weighted>
   9.000000E+99

> <Gold.Protein.RotatedTorsions>
[ 6907 6896 6895 6894 ] final -152.64 input  -60.11 | X-H torsion
[ 7974 7965 7964 7962 ] final  122.14 input  175.53 | X-H torsion
[ 8008 7997 7996 7995 ] final  -55.49 input   59.86 | X-H torsion
[ 10167 10162 10161 10158 ] final    4.50 input  -65.29 | X-H torsion
[ 10718 10713 10712 10709 ] final  147.45 input   66.30 | X-H torsion
[ 10763 10752 10751 10750 ] final  166.13 input  -60.55 | X-H torsion
[ 11005 11000 10999 10996 ] final  147.19 input  -57.11 | X-H torsion

> <Gold.Protein.ActiveResidues>
 VAL166  LYS551  ARG553  GLY616  TRP617  ASP618  TYR619  PRO620  LYS621  CYS622 
 ASP623  PHE694  ASN695  SER759  ASP760  ASP761  ALA762  ILE779  LEU786  VAL792 
 PHE793  MET794  SER795  GLU796  ALA797  LYS798  CYS799  TRP800  GLU811  SER814 

> <Gold.Protein.RotatedAtoms>
  151.2307  133.4452  159.2603 H   0  0  0  0  0  0  0  0  0  0  0  0  # atno 6907 bound_to 6896
  151.0797  134.9850  159.8360 H   0  0  0  0  0  0  0  0  0  0  0  0  # atno 6908 bound_to 6896
  152.5422  134.2247  159.8854 H   0  0  0  0  0  0  0  0  0  0  0  0  # atno 6909 bound_to 6896
  145.1110  139.3453  143.4763 H   0  0  0  0  0  0  0  0  0  0  0  0  # atno 7974 bound_to 7965
  154.4197  140.1152  156.5485 H   0  0  0  0  0  0  0  0  0  0  0  0  # atno 8008 bound_to 7997
  155.6435  140.3496  155.4704 H   0  0  0  0  0  0  0  0  0  0  0  0  # atno 8009 bound_to 7997
  155.9852  140.1168  157.0680 H   0  0  0  0  0  0  0  0  0  0  0  0  # atno 8010 bound_to 7997
  140.6531  143.7495  150.7608 H   0  0  0  0  0  0  0  0  0  0  0  0  # atno 10167 bound_to 10162
  157.3208  131.0904  151.1242 H   0  0  0  0  0  0  0  0  0  0  0  0  # atno 10718 bound_to 10713
  154.3344  135.2754  155.2455 H   0  0  0  0  0  0  0  0  0  0  0  0  # atno 10763 bound_to 10752
  154.4753  135.5872  153.6354 H   0  0  0  0  0  0  0  0  0  0  0  0  # atno 10764 bound_to 10752
  152.9863  135.6098  154.3539 H   0  0  0  0  0  0  0  0  0  0  0  0  # atno 10765 bound_to 10752
  140.0855  134.9072  157.1569 H   0  0  0  0  0  0  0  0  0  0  0  0  # atno 11005 bound_to 11000
  146.3526  140.1029  142.8607 LP  0  0  0  0  0  0  0  0  0  0  0  0  # atno 17320 bound_to 7965
  145.0847  140.9244  143.4804 LP  0  0  0  0  0  0  0  0  0  0  0  0  # atno 17321 bound_to 7965
  140.1149  143.4665  152.2348 LP  0  0  0  0  0  0  0  0  0  0  0  0  # atno 17342 bound_to 10162
  139.5749  144.7482  151.3791 LP  0  0  0  0  0  0  0  0  0  0  0  0  # atno 17343 bound_to 10162
  157.2527  130.6621  149.5939 LP  0  0  0  0  0  0  0  0  0  0  0  0  # atno 17370 bound_to 10713
  155.9686  130.4533  150.5807 LP  0  0  0  0  0  0  0  0  0  0  0  0  # atno 17371 bound_to 10713
  140.3426  134.2687  155.7210 LP  0  0  0  0  0  0  0  0  0  0  0  0  # atno 17394 bound_to 11000
  141.2061  133.7842  157.0195 LP  0  0  0  0  0  0  0  0  0  0  0  0  # atno 17395 bound_to 11000

$$$$
