AV-unprocessed.smi:1797|AV-procd|sdf|7255|dock2
  -GOLD-   22720 8503D 1   1.00000     0.00000
 Structure written by MMmdl.
 30 31  0  0  0  0  0  0  0  0  1 V2000
  146.7362  142.3728  154.7762 C   0  0  0  0  0  0  0  0  0  0  0  0
  146.6466  140.9044  154.5362 C   0  0  0  0  0  0  0  0  0  0  0  0
  146.2099  140.0419  155.4614 N   0  0  0  0  0  0  0  0  0  0  0  0
  146.2178  138.7321  155.0041 N   0  0  0  0  0  0  0  0  0  0  0  0
  146.6670  138.6406  153.7440 C   0  0  0  0  0  0  0  0  0  0  0  0
  146.7807  137.4246  153.0086 N   0  0  0  0  0  0  0  0  0  0  0  0
  145.8590  136.5147  152.6258 C   0  0  0  0  0  0  0  0  0  0  0  0
  144.6699  136.6662  152.9007 O   0  0  0  0  0  0  0  0  0  0  0  0
  146.3126  135.4599  151.9288 N   0  0  0  0  0  0  0  0  0  0  0  0
  145.4912  134.3748  151.4030 C   0  0  2  0  0  0  0  0  0  0  0  0
  146.3637  133.4135  150.5863 C   0  0  0  0  0  0  0  0  0  0  0  0
  145.5310  132.2461  150.0330 C   0  0  0  0  0  0  0  0  0  0  0  0
  144.2052  132.6891  149.3963 C   0  0  0  0  0  0  0  0  0  0  0  0
  143.6115  131.9225  148.6413 O   0  0  0  0  0  0  0  0  0  0  0  0
  143.7032  133.8970  149.7078 N   0  0  0  0  0  0  0  0  0  0  0  0
  144.3538  134.9253  150.5190 C   0  0  0  0  0  0  0  0  0  0  0  0
  147.1080  140.1716  153.0057 S   0  0  0  0  0  0  0  0  0  0  0  0
  146.4146  142.6189  155.7888 H   0  0  0  0  0  0  0  0  0  0  0  0
  146.1005  142.9050  154.0685 H   0  0  0  0  0  0  0  0  0  0  0  0
  147.7648  142.7094  154.6455 H   0  0  0  0  0  0  0  0  0  0  0  0
  147.7241  137.1990  152.7288 H   0  0  0  0  0  0  0  0  0  0  0  0
  147.3048  135.4088  151.7458 H   0  0  0  0  0  0  0  0  0  0  0  0
  145.0603  133.8176  152.2374 H   0  0  0  0  0  0  0  0  0  0  0  0
  146.8373  133.9484  149.7615 H   0  0  0  0  0  0  0  0  0  0  0  0
  147.1724  133.0226  151.2049 H   0  0  0  0  0  0  0  0  0  0  0  0
  146.1151  131.6833  149.3040 H   0  0  0  0  0  0  0  0  0  0  0  0
  145.2926  131.5546  150.8419 H   0  0  0  0  0  0  0  0  0  0  0  0
  142.8143  134.1468  149.2988 H   0  0  0  0  0  0  0  0  0  0  0  0
  143.6003  135.4210  151.1317 H   0  0  0  0  0  0  0  0  0  0  0  0
  144.7451  135.6786  149.8338 H   0  0  0  0  0  0  0  0  0  0  0  0
  1  2  1  0  0  0  0
  1 18  1  0  0  0  0
  1 19  1  0  0  0  0
  1 20  1  0  0  0  0
  2 17  1  0  0  0  0
  2  3  2  0  0  0  0
  3  4  1  0  0  0  0
  4  5  2  0  0  0  0
  5  6  1  0  0  0  0
  5 17  1  0  0  0  0
  6  7  1  0  0  0  0
  6 21  1  0  0  0  0
  7  8  2  0  0  0  0
  7  9  1  0  0  0  0
  9 10  1  0  0  0  0
  9 22  1  0  0  0  0
 10 16  1  0  0  0  0
 10 11  1  0  0  0  0
 10 23  1  0  0  0  0
 11 12  1  0  0  0  0
 11 24  1  0  0  0  0
 11 25  1  0  0  0  0
 12 13  1  0  0  0  0
 12 26  1  0  0  0  0
 12 27  1  0  0  0  0
 13 14  2  0  0  0  0
 13 15  1  0  0  0  0
 15 16  1  0  0  0  0
 15 28  1  0  0  0  0
 16 29  1  0  0  0  0
 16 30  1  0  0  0  0
M  END
> <s_m_source_file>
AV-unprocessed.smi

> <i_m_source_file_index>
1797

> <i_lp_mmshare_version>
43012

> <i_f3d_flags>
0

> <s_epik_input>
W0NIM11jMW5uYyhzMSlbTkhdQyg9TylbTkhdW0NAQEhdMltDSDJdW0NIMl1DKD1PKVtOSF1bQ0gyXTI=

> <s_epik_cmdline>
J2VwaWtfcHl0aG9uJywgJy1waCcsICc3LjAnLCAnLXRuJywgJzgnLCAnLW1hJywgJzIwMCcsICctbWV0YWxfYmluZGluZycsICctaW1hZScsICc8aW5maWxlLm1hZT4nLCAnLW9tYWUnLCAnPG91dGZpbGUubWFlPic=

> <r_lp_tautomer_probability>
1

> <r_epik_Ionization_Penalty>
0.00282347

> <r_epik_Ionization_Penalty_Charging>
0

> <r_epik_Ionization_Penalty_Neutral>
0.00282347

> <r_epik_State_Penalty>
-0

> <r_epik_Charging_Adjusted_Penalty>
0

> <i_epik_Tot_Q>
0

> <i_epik_Tot_abs_Q>
0

> <r_epik_Metal_State_Penalty>
0.357935

> <b_epik_Metal_Only>
0

> <s_lp_Force_Field>
OPLS_2005

> <r_lp_Energy>
10.7628

> <b_lp_Chiralities_Consistent>
1

> <s_lp_Variant>
AV-unprocessed.smi:1797-1

> <Gold.Version>
5.8.1

> <Gold.Id.Protein>
6NUR|6NUR_protein|mol2

> <Gold.PLP.Fitness>
37.2834

> <Gold.PLP.PLP>
-27.3502

> <Gold.PLP.part.hbond>
-4.0000

> <Gold.PLP.part.metal>
0.0000

> <Gold.PLP.part.buried>
-4.3904

> <Gold.PLP.part.nonpolar>
-19.6568

> <Gold.PLP.part.repulsive>
0.6504

> <Gold.PLP.ligand.clash>
0.0000

> <Gold.PLP.ligand.torsion>
0.6021

> <Gold.PLP.Chemscore.Hbond>
3.7120

> <Gold.PLP.Chemscore.CHOScore>
0.0000

> <Gold.PLP.Chemscore.Metal>
0.0000

> <Gold.Chemscore.Hbonds>
donor molecule, donor type, donor heavy atom, donor atom, acceptor molecule, acceptor atom, score
      L1  H     6    21       P1  7948  1.00
      L1  H     9    22       P1  7948  0.98
      L1  H    15    28       P1 10186  0.96
      P1  H 10785 10796       L1    14  0.70

> <Gold.PLP.Chemscore.Internal.Correction>
0.0015

> <Gold.Rescore>
     Score         DG    S(hbond)    S(metal)    S(lipo)     H(rot)  DE(clash)    DE(int)     intcor
     19.55     -20.77       3.77        0.00      45.04       1.00       0.03       1.20       ----

> <Gold.Chemscore.Fitness>
19.5464

> <Gold.Chemscore.DG>
-20.7681

> <Gold.Chemscore.ZeroCoef>
-5.4800

> <Gold.Chemscore.Hbond>
3.7660

> <Gold.Chemscore.Metal>
0.0000

> <Gold.Chemscore.Lipo>
45.0385

> <Gold.Chemscore.Internal_Hbond>
0.0000

> <Gold.Chemscore.DEClash>
0.0255

> <Gold.Chemscore.DEInternal>
1.1962

> <Gold.Chemscore.Rot>
1.0000

> <Gold.Chemscore.Internal.Correction>
   9.000000E+99

> <Gold.Chemscore.Hbonds>
donor molecule, donor type, donor heavy atom, donor atom, acceptor molecule, acceptor atom, score
      L1  H     6    21       P1  7948  0.98
      L1  H     9    22       P1  7948  0.92
      L1  H    15    28       P1 10186  0.92
      P1  H 10785 10796       L1    14  0.70

> <Gold.Chemscore.Hbond.Weighted>
-12.5786

> <Gold.Chemscore.Metal.Weighted>
-0.0000

> <Gold.Chemscore.Lipo.Weighted>
-5.2695

> <Gold.Chemscore.Internal_Hbond.Weighted>
0.0000

> <Gold.Chemscore.DEClash.Weighted>
0.0255

> <Gold.Chemscore.DEInternal.Weighted>
1.1962

> <Gold.Chemscore.Rot.Weighted>
2.5600

> <Gold.Chemscore.Internal.Correction.Weighted>
   9.000000E+99

> <Gold.Protein.RotatedTorsions>
[ 6907 6896 6895 6894 ] final  -30.26 input  -60.11 | X-H torsion
[ 7974 7965 7964 7962 ] final -114.23 input  175.53 | X-H torsion
[ 8008 7997 7996 7995 ] final -133.98 input   59.86 | X-H torsion
[ 10167 10162 10161 10158 ] final   82.86 input  -65.29 | X-H torsion
[ 10718 10713 10712 10709 ] final  109.29 input   66.30 | X-H torsion
[ 10763 10752 10751 10750 ] final   35.92 input  -60.55 | X-H torsion
[ 11005 11000 10999 10996 ] final  142.03 input  -57.11 | X-H torsion

> <Gold.Protein.ActiveResidues>
 VAL166  LYS551  ARG553  GLY616  TRP617  ASP618  TYR619  PRO620  LYS621  CYS622 
 ASP623  PHE694  ASN695  SER759  ASP760  ASP761  ALA762  ILE779  LEU786  VAL792 
 PHE793  MET794  SER795  GLU796  ALA797  LYS798  CYS799  TRP800  GLU811  SER814 

> <Gold.Protein.RotatedAtoms>
  151.1080  135.0010  159.8479 H   0  0  0  0  0  0  0  0  0  0  0  0  # atno 6907 bound_to 6896
  152.5441  134.1871  159.8669 H   0  0  0  0  0  0  0  0  0  0  0  0  # atno 6908 bound_to 6896
  151.1919  133.4618  159.2628 H   0  0  0  0  0  0  0  0  0  0  0  0  # atno 6909 bound_to 6896
  145.1226  140.8678  143.3805 H   0  0  0  0  0  0  0  0  0  0  0  0  # atno 7974 bound_to 7965
  155.3545  140.0479  157.3046 H   0  0  0  0  0  0  0  0  0  0  0  0  # atno 8008 bound_to 7997
  154.5210  140.2225  155.8940 H   0  0  0  0  0  0  0  0  0  0  0  0  # atno 8009 bound_to 7997
  156.1689  140.3100  155.8944 H   0  0  0  0  0  0  0  0  0  0  0  0  # atno 8010 bound_to 7997
  139.9244  144.6192  150.8408 H   0  0  0  0  0  0  0  0  0  0  0  0  # atno 10167 bound_to 10162
  157.6548  131.0911  150.6432 H   0  0  0  0  0  0  0  0  0  0  0  0  # atno 10718 bound_to 10713
  153.0099  135.6320  154.1903 H   0  0  0  0  0  0  0  0  0  0  0  0  # atno 10763 bound_to 10752
  154.1645  135.2821  155.3101 H   0  0  0  0  0  0  0  0  0  0  0  0  # atno 10764 bound_to 10752
  154.5956  135.5604  153.7382 H   0  0  0  0  0  0  0  0  0  0  0  0  # atno 10765 bound_to 10752
  140.0446  134.9287  157.0906 H   0  0  0  0  0  0  0  0  0  0  0  0  # atno 11005 bound_to 11000
  145.0723  139.3022  143.5826 LP  0  0  0  0  0  0  0  0  0  0  0  0  # atno 17320 bound_to 7965
  146.3520  140.0202  142.8659 LP  0  0  0  0  0  0  0  0  0  0  0  0  # atno 17321 bound_to 7965
  140.7654  143.3274  151.2485 LP  0  0  0  0  0  0  0  0  0  0  0  0  # atno 17342 bound_to 10162
  139.6835  143.9814  152.2821 LP  0  0  0  0  0  0  0  0  0  0  0  0  # atno 17343 bound_to 10162
  156.6740  130.4548  149.5648 LP  0  0  0  0  0  0  0  0  0  0  0  0  # atno 17370 bound_to 10713
  156.1977  130.6600  151.1132 LP  0  0  0  0  0  0  0  0  0  0  0  0  # atno 17371 bound_to 10713
  140.4014  134.2078  155.7163 LP  0  0  0  0  0  0  0  0  0  0  0  0  # atno 17394 bound_to 11000
  141.1900  133.8225  157.0934 LP  0  0  0  0  0  0  0  0  0  0  0  0  # atno 17395 bound_to 11000

$$$$
