AV-unprocessed.smi:160|AV-procd|sdf|1361|dock7
  -GOLD-   2262019 73D 1   1.00000     0.00000
 Structure written by MMmdl.
 28 29  0  0  0  0  0  0  0  0  2 V2000
  153.7841  135.8049  159.1795 N   0  5  0  0  0  0  0  0  0  0  0  0
  153.9409  137.1205  159.4433 C   0  0  0  0  0  0  0  0  0  0  0  0
  154.5654  137.6042  160.3871 O   0  0  0  0  0  0  0  0  0  0  0  0
  153.2690  138.0422  158.4533 C   0  0  0  0  0  0  0  0  0  0  0  0
  152.9036  139.3092  158.8165 N   0  0  0  0  0  0  0  0  0  0  0  0
  152.3812  139.7166  157.6675 C   0  0  0  0  0  0  0  0  0  0  0  0
  152.4309  138.8094  156.6880 N   0  0  0  0  0  0  0  0  0  0  0  0
  151.9161  138.8967  155.2828 C   0  0  2  0  0  0  0  0  0  0  0  0
  151.2076  140.0937  155.1638 O   0  0  0  0  0  0  0  0  0  0  0  0
  149.8122  139.8437  155.2979 C   0  0  1  0  0  0  0  0  0  0  0  0
  148.9798  141.0085  154.7324 C   0  0  0  0  0  0  0  0  0  0  0  0
  149.3771  141.2934  153.4082 O   0  0  0  0  0  0  0  0  0  0  0  0
  149.6567  138.5009  154.5703 C   0  0  1  0  0  0  0  0  0  0  0  0
  149.5506  138.7030  153.1695 O   0  0  0  0  0  0  0  0  0  0  0  0
  150.9334  137.7520  154.9603 C   0  0  1  0  0  0  0  0  0  0  0  0
  151.3963  136.8925  153.9343 O   0  0  0  0  0  0  0  0  0  0  0  0
  152.9984  137.6857  157.1941 N   0  0  0  0  0  0  0  0  0  0  0  0
  152.8099  138.9120  154.6577 H   0  0  0  0  0  0  0  0  0  0  0  0
  149.5685  139.6946  156.3509 H   0  0  0  0  0  0  0  0  0  0  0  0
  148.7651  137.9671  154.9009 H   0  0  0  0  0  0  0  0  0  0  0  0
  150.7486  137.1502  155.8504 H   0  0  0  0  0  0  0  0  0  0  0  0
  153.6718  135.5125  158.2014 H   0  0  0  0  0  0  0  0  0  0  0  0
  151.9532  140.6997  157.5373 H   0  0  0  0  0  0  0  0  0  0  0  0
  147.9120  140.7893  154.7661 H   0  0  0  0  0  0  0  0  0  0  0  0
  149.1472  141.9098  155.3229 H   0  0  0  0  0  0  0  0  0  0  0  0
  149.4372  140.4803  152.9309 H   0  0  0  0  0  0  0  0  0  0  0  0
  149.4590  137.8580  152.7560 H   0  0  0  0  0  0  0  0  0  0  0  0
  150.6772  136.7138  153.3478 H   0  0  0  0  0  0  0  0  0  0  0  0
  1  2  1  0  0  0  0
  1 22  1  0  0  0  0
  2  3  2  0  0  0  0
  2  4  1  0  0  0  0
  4 17  2  0  0  0  0
  4  5  1  0  0  0  0
  5  6  2  0  0  0  0
  6  7  1  0  0  0  0
  6 23  1  0  0  0  0
  7  8  1  0  0  0  0
  7 17  1  0  0  0  0
  8 18  1  0  0  0  0
  8 15  1  0  0  0  0
  8  9  1  0  0  0  0
  9 10  1  0  0  0  0
 10 19  1  0  0  0  0
 10 11  1  0  0  0  0
 10 13  1  0  0  0  0
 11 12  1  0  0  0  0
 11 24  1  0  0  0  0
 11 25  1  0  0  0  0
 12 26  1  0  0  0  0
 13 20  1  0  0  0  0
 13 14  1  0  0  0  0
 13 15  1  0  0  0  0
 14 27  1  0  0  0  0
 15 21  1  0  0  0  0
 15 16  1  0  0  0  0
 16 28  1  0  0  0  0
M  CHG  1   1  -1
M  END
> <s_m_source_file>
AV-unprocessed.smi

> <i_m_source_file_index>
160

> <i_lp_mmshare_version>
43012

> <i_f3d_flags>
0

> <s_epik_input>
W05IMl1DKD1PKWMxbltjSF1uKG4xKVtDQEBIXTJPW0NASF0oW0NIMl1bT0hdKVtDQEBIXShbT0hdKVtDQEhdMltPSF0=

> <s_epik_cmdline>
J2VwaWtfcHl0aG9uJywgJy1waCcsICc3LjAnLCAnLXRuJywgJzgnLCAnLW1hJywgJzIwMCcsICctbWV0YWxfYmluZGluZycsICctaW1hZScsICc8aW5maWxlLm1hZT4nLCAnLW9tYWUnLCAnPG91dGZpbGUubWFlPic=

> <r_lp_tautomer_probability>
1

> <r_epik_Ionization_Penalty>
6.6993

> <r_epik_Ionization_Penalty_Charging>
6.6993

> <r_epik_Ionization_Penalty_Neutral>
6.01698e-06

> <r_epik_State_Penalty>
6.69929

> <r_epik_Charging_Adjusted_Penalty>
13.3986

> <i_epik_Tot_Q>
-1

> <i_epik_Tot_abs_Q>
1

> <r_epik_Metal_State_Penalty>
2.62798

> <b_epik_Metal_Only>
1

> <s_epik_Chemistry_Notes>
This compound contains an acetal/aminal-like group ( X-CH(R)-Y where X, Y are N, S, or O) that may be acid/base labile, releasing an aldehyde.

> <s_lp_Force_Field>
OPLS_2005

> <r_lp_Energy>
44.8838

> <b_lp_Chiralities_Consistent>
1

> <s_lp_Variant>
AV-unprocessed.smi:160-19

> <Gold.Version>
5.8.1

> <Gold.Id.Protein>
6NUR|6NUR_protein|mol2

> <Gold.PLP.Fitness>
46.7677

> <Gold.PLP.PLP>
-27.0337

> <Gold.PLP.part.hbond>
-9.2007

> <Gold.PLP.part.metal>
0.0000

> <Gold.PLP.part.buried>
-3.3053

> <Gold.PLP.part.nonpolar>
-14.0173

> <Gold.PLP.part.repulsive>
0.0352

> <Gold.PLP.ligand.clash>
0.0000

> <Gold.PLP.ligand.torsion>
0.3684

> <Gold.PLP.Chemscore.Hbond>
6.8157

> <Gold.PLP.Chemscore.CHOScore>
0.0000

> <Gold.PLP.Chemscore.Metal>
0.0000

> <Gold.Chemscore.Hbonds>
donor molecule, donor type, donor heavy atom, donor atom, acceptor molecule, acceptor atom, score
      L1  H    12    26       P1  7957  0.67
      L1  H    14    27       P1  7948  1.00
      L1  H    16    28       P1  7949  0.19
      P1  H  6896  6907       L1     1  1.90
      P1  H  7989  7998       L1     9  1.00
      P1  H  8011  8017       L1    12  1.00
      P1  H 10752 10765       L1    16  1.00

> <Gold.PLP.Chemscore.Internal.Correction>
0.0237

> <Gold.Rescore>
     Score         DG    S(hbond)    S(metal)    S(lipo)     H(rot)  DE(clash)    DE(int)     intcor
     13.81     -14.14       4.77        0.00      26.18       4.04       0.09       0.24       ----

> <Gold.Chemscore.Fitness>
13.8055

> <Gold.Chemscore.DG>
-14.1377

> <Gold.Chemscore.ZeroCoef>
-5.4800

> <Gold.Chemscore.Hbond>
4.7717

> <Gold.Chemscore.Metal>
0.0000

> <Gold.Chemscore.Lipo>
26.1830

> <Gold.Chemscore.Internal_Hbond>
0.0000

> <Gold.Chemscore.DEClash>
0.0934

> <Gold.Chemscore.DEInternal>
0.2388

> <Gold.Chemscore.Rot>
4.0403

> <Gold.Chemscore.Internal.Correction>
   9.000000E+99

> <Gold.Chemscore.Hbonds>
donor molecule, donor type, donor heavy atom, donor atom, acceptor molecule, acceptor atom, score
      L1  H    12    26       P1  7957  0.68
      L1  H    14    27       P1  7948  0.82
      L1  H    16    28       P1  7949  0.01
      P1  H  6896  6907       L1     1  0.21
      P1  H  7989  7998       L1     9  0.55
      P1  H  8011  8017       L1    12  0.42
      P1  H 10752 10765       L1    16  0.95

> <Gold.Chemscore.Hbond.Weighted>
-15.9374

> <Gold.Chemscore.Metal.Weighted>
-0.0000

> <Gold.Chemscore.Lipo.Weighted>
-3.0634

> <Gold.Chemscore.Internal_Hbond.Weighted>
0.0000

> <Gold.Chemscore.DEClash.Weighted>
0.0934

> <Gold.Chemscore.DEInternal.Weighted>
0.2388

> <Gold.Chemscore.Rot.Weighted>
10.3431

> <Gold.Chemscore.Internal.Correction.Weighted>
   9.000000E+99

> <Gold.Protein.RotatedTorsions>
[ 6907 6896 6895 6894 ] final   60.79 input  -60.11 | X-H torsion
[ 7974 7965 7964 7962 ] final   39.73 input  175.53 | X-H torsion
[ 8008 7997 7996 7995 ] final   41.73 input   59.86 | X-H torsion
[ 10167 10162 10161 10158 ] final -132.28 input  -65.29 | X-H torsion
[ 10718 10713 10712 10709 ] final  107.80 input   66.30 | X-H torsion
[ 10763 10752 10751 10750 ] final  147.98 input  -60.55 | X-H torsion
[ 11005 11000 10999 10996 ] final   23.62 input  -57.11 | X-H torsion

> <Gold.Protein.ActiveResidues>
 VAL166  LYS551  ARG553  GLY616  TRP617  ASP618  TYR619  PRO620  LYS621  CYS622 
 ASP623  PHE694  ASN695  SER759  ASP760  ASP761  ALA762  ILE779  LEU786  VAL792 
 PHE793  MET794  SER795  GLU796  ALA797  LYS798  CYS799  TRP800  GLU811  SER814 

> <Gold.Protein.RotatedAtoms>
  152.4033  134.6249  160.0060 H   0  0  0  0  0  0  0  0  0  0  0  0  # atno 6907 bound_to 6896
  151.6447  133.3318  159.3146 H   0  0  0  0  0  0  0  0  0  0  0  0  # atno 6908 bound_to 6896
  150.7931  134.7012  159.6596 H   0  0  0  0  0  0  0  0  0  0  0  0  # atno 6909 bound_to 6896
  146.0961  139.5617  142.9444 H   0  0  0  0  0  0  0  0  0  0  0  0  # atno 7974 bound_to 7965
  155.2744  140.3368  155.4263 H   0  0  0  0  0  0  0  0  0  0  0  0  # atno 8008 bound_to 7997
  156.2118  140.1773  156.7719 H   0  0  0  0  0  0  0  0  0  0  0  0  # atno 8009 bound_to 7997
  154.5697  140.0672  156.8930 H   0  0  0  0  0  0  0  0  0  0  0  0  # atno 8010 bound_to 7997
  139.9102  143.6503  152.2577 H   0  0  0  0  0  0  0  0  0  0  0  0  # atno 10167 bound_to 10162
  157.6613  131.0880  150.6210 H   0  0  0  0  0  0  0  0  0  0  0  0  # atno 10718 bound_to 10713
  154.0473  135.2884  155.3346 H   0  0  0  0  0  0  0  0  0  0  0  0  # atno 10763 bound_to 10752
  154.6891  135.5233  153.8371 H   0  0  0  0  0  0  0  0  0  0  0  0  # atno 10764 bound_to 10752
  153.0575  135.6601  154.0672 H   0  0  0  0  0  0  0  0  0  0  0  0  # atno 10765 bound_to 10752
  140.3676  134.2057  155.7668 H   0  0  0  0  0  0  0  0  0  0  0  0  # atno 11005 bound_to 11000
  145.5945  141.0364  143.2052 LP  0  0  0  0  0  0  0  0  0  0  0  0  # atno 17320 bound_to 7965
  144.7396  139.7485  143.7316 LP  0  0  0  0  0  0  0  0  0  0  0  0  # atno 17321 bound_to 7965
  139.6949  144.7642  151.1373 LP  0  0  0  0  0  0  0  0  0  0  0  0  # atno 17342 bound_to 10162
  140.7687  143.5537  150.9176 LP  0  0  0  0  0  0  0  0  0  0  0  0  # atno 17343 bound_to 10162
  156.6513  130.4486  149.5718 LP  0  0  0  0  0  0  0  0  0  0  0  0  # atno 17370 bound_to 10713
  156.2135  130.6694  151.1295 LP  0  0  0  0  0  0  0  0  0  0  0  0  # atno 17371 bound_to 10713
  141.1964  133.8082  157.0671 LP  0  0  0  0  0  0  0  0  0  0  0  0  # atno 17394 bound_to 11000
  140.0577  134.9772  157.1249 LP  0  0  0  0  0  0  0  0  0  0  0  0  # atno 17395 bound_to 11000

$$$$
