AV-unprocessed.smi:922|AV-procd|sdf|4175|dock8
  -GOLD-   22720 2 83D 1   1.00000     0.00000
 Structure written by MMmdl.
 33 34  0  0  0  0  0  0  0  0  1 V2000
  153.0349  137.9237  156.0060 C   0  0  0  0  0  0  0  0  0  0  0  0
  151.8616  138.8666  156.2903 C   0  0  2  0  0  0  0  0  0  0  0  0
  151.2844  139.4695  154.9960 C   0  0  0  0  0  0  0  0  0  0  0  0
  150.2503  140.4475  155.3078 N   0  0  0  0  0  0  0  0  0  0  0  0
  148.9551  140.4437  154.7873 C   0  0  0  0  0  0  0  0  0  0  0  0
  148.3045  141.7076  154.4570 C   0  0  0  0  0  0  0  0  0  0  0  0
  147.1131  141.7844  153.9722 N   0  0  0  0  0  0  0  0  0  0  0  0
  146.4233  140.6194  153.7542 N   0  0  0  0  0  0  0  0  0  0  0  0
  146.8622  139.3642  154.0037 C   0  0  0  0  0  0  0  0  0  0  0  0
  146.1564  138.3839  153.7741 O   0  0  0  0  0  0  0  0  0  0  0  0
  148.2227  139.3108  154.5598 C   0  0  0  0  0  0  0  0  0  0  0  0
  148.8207  137.7356  154.9618 Cl  0  0  0  0  0  0  0  0  0  0  0  0
  150.7791  141.5074  156.1593 C   0  0  0  0  0  0  0  0  0  0  0  0
  151.3727  140.9283  157.4643 C   0  0  0  0  0  0  0  0  0  0  0  0
  152.1628  142.0191  158.2037 C   0  0  0  0  0  0  0  0  0  0  0  0
  150.2793  140.3706  158.4006 C   0  0  0  0  0  0  0  0  0  0  0  0
  152.3336  139.9183  157.1335 O   0  0  0  0  0  0  0  0  0  0  0  0
  145.4985  140.7515  153.3704 H   0  0  0  0  0  0  0  0  0  0  0  0
  152.7242  137.0911  155.3744 H   0  0  0  0  0  0  0  0  0  0  0  0
  153.4330  137.5077  156.9318 H   0  0  0  0  0  0  0  0  0  0  0  0
  153.8469  138.4452  155.4984 H   0  0  0  0  0  0  0  0  0  0  0  0
  151.0952  138.2971  156.8143 H   0  0  0  0  0  0  0  0  0  0  0  0
  152.0740  139.9696  154.4336 H   0  0  0  0  0  0  0  0  0  0  0  0
  150.8953  138.6881  154.3435 H   0  0  0  0  0  0  0  0  0  0  0  0
  148.8960  142.6044  154.6419 H   0  0  0  0  0  0  0  0  0  0  0  0
  151.5456  142.0460  155.6006 H   0  0  0  0  0  0  0  0  0  0  0  0
  150.0016  142.2327  156.4016 H   0  0  0  0  0  0  0  0  0  0  0  0
  151.5192  142.8523  158.4878 H   0  0  0  0  0  0  0  0  0  0  0  0
  152.9642  142.4176  157.5805 H   0  0  0  0  0  0  0  0  0  0  0  0
  152.6197  141.6276  159.1132 H   0  0  0  0  0  0  0  0  0  0  0  0
  149.6147  141.1659  158.7391 H   0  0  0  0  0  0  0  0  0  0  0  0
  150.7184  139.9090  159.2854 H   0  0  0  0  0  0  0  0  0  0  0  0
  149.6534  139.6231  157.9147 H   0  0  0  0  0  0  0  0  0  0  0  0
  1  2  1  0  0  0  0
  1 19  1  0  0  0  0
  1 20  1  0  0  0  0
  1 21  1  0  0  0  0
  2 17  1  0  0  0  0
  2  3  1  0  0  0  0
  2 22  1  0  0  0  0
  3  4  1  0  0  0  0
  3 23  1  0  0  0  0
  3 24  1  0  0  0  0
  4  5  1  0  0  0  0
  4 13  1  0  0  0  0
  5 11  2  0  0  0  0
  5  6  1  0  0  0  0
  6  7  2  0  0  0  0
  6 25  1  0  0  0  0
  7  8  1  0  0  0  0
  8 18  1  0  0  0  0
  8  9  1  0  0  0  0
  9 10  2  0  0  0  0
  9 11  1  0  0  0  0
 11 12  1  0  0  0  0
 13 14  1  0  0  0  0
 13 26  1  0  0  0  0
 13 27  1  0  0  0  0
 14 15  1  0  0  0  0
 14 16  1  0  0  0  0
 14 17  1  0  0  0  0
 15 28  1  0  0  0  0
 15 29  1  0  0  0  0
 15 30  1  0  0  0  0
 16 31  1  0  0  0  0
 16 32  1  0  0  0  0
 16 33  1  0  0  0  0
M  END
> <s_m_source_file>
AV-unprocessed.smi

> <i_m_source_file_index>
922

> <i_lp_mmshare_version>
43012

> <i_f3d_flags>
0

> <s_epik_input>
W0NIM11bQ0BASF0oTzEpW0NIMl1OKFtDSDJdQzEoW0NIM10pW0NIM10pYzJbY0hdbltuSF1jKD1PKWMyQ2w=

> <s_epik_cmdline>
J2VwaWtfcHl0aG9uJywgJy1waCcsICc3LjAnLCAnLXRuJywgJzgnLCAnLW1hJywgJzIwMCcsICctbWV0YWxfYmluZGluZycsICctaW1hZScsICc8aW5maWxlLm1hZT4nLCAnLW9tYWUnLCAnPG91dGZpbGUubWFlPic=

> <r_lp_tautomer_probability>
0.986175

> <r_epik_Ionization_Penalty>
0.00909695

> <r_epik_Ionization_Penalty_Charging>
0.00909694

> <r_epik_Ionization_Penalty_Neutral>
4.87729e-09

> <r_epik_State_Penalty>
1.54226

> <r_epik_Charging_Adjusted_Penalty>
1.55136

> <i_epik_Tot_Q>
0

> <i_epik_Tot_abs_Q>
0

> <r_epik_Metal_State_Penalty>
3.93934

> <b_epik_Metal_Only>
0

> <s_lp_Force_Field>
OPLS_2005

> <r_lp_Energy>
35.5656

> <b_lp_Chiralities_Consistent>
1

> <s_lp_Variant>
AV-unprocessed.smi:922-3

> <Gold.Version>
5.8.1

> <Gold.Id.Protein>
6NUR|6NUR_protein|mol2

> <Gold.PLP.Fitness>
33.9348

> <Gold.PLP.PLP>
-24.9882

> <Gold.PLP.part.hbond>
-2.0000

> <Gold.PLP.part.metal>
0.0000

> <Gold.PLP.part.buried>
0.6997

> <Gold.PLP.part.nonpolar>
-23.8689

> <Gold.PLP.part.repulsive>
0.3739

> <Gold.PLP.ligand.clash>
0.0000

> <Gold.PLP.ligand.torsion>
0.4923

> <Gold.PLP.Chemscore.Hbond>
2.0000

> <Gold.PLP.Chemscore.CHOScore>
1.0000

> <Gold.PLP.Chemscore.Metal>
0.0000

> <Gold.Chemscore.Hbonds>
donor molecule, donor type, donor heavy atom, donor atom, acceptor molecule, acceptor atom, score
      L1  H     8    18       P1 10175  0.99
      P1  H  7997  8008       L1    17  0.70
      L1  C     6    25       P1  8028  1.00

> <Gold.PLP.Chemscore.Internal.Correction>
0.9312

> <Gold.Rescore>
     Score         DG    S(hbond)    S(metal)    S(lipo)     H(rot)  DE(clash)    DE(int)     intcor
     16.21     -19.18       1.62        0.00      70.81       0.00       2.29       0.68       ----

> <Gold.Chemscore.Fitness>
16.2089

> <Gold.Chemscore.DG>
-19.1809

> <Gold.Chemscore.ZeroCoef>
-5.4800

> <Gold.Chemscore.Hbond>
1.6215

> <Gold.Chemscore.Metal>
0.0000

> <Gold.Chemscore.Lipo>
70.8137

> <Gold.Chemscore.Internal_Hbond>
0.0000

> <Gold.Chemscore.DEClash>
2.2947

> <Gold.Chemscore.DEInternal>
0.6773

> <Gold.Chemscore.Rot>
0.0000

> <Gold.Chemscore.Internal.Correction>
   9.000000E+99

> <Gold.Chemscore.Hbonds>
donor molecule, donor type, donor heavy atom, donor atom, acceptor molecule, acceptor atom, score
      L1  H     8    18       P1 10175  0.76
      P1  H  7997  8008       L1    17  0.17

> <Gold.Chemscore.Hbond.Weighted>
-5.4157

> <Gold.Chemscore.Metal.Weighted>
-0.0000

> <Gold.Chemscore.Lipo.Weighted>
-8.2852

> <Gold.Chemscore.Internal_Hbond.Weighted>
0.0000

> <Gold.Chemscore.DEClash.Weighted>
2.2947

> <Gold.Chemscore.DEInternal.Weighted>
0.6773

> <Gold.Chemscore.Rot.Weighted>
0.0000

> <Gold.Chemscore.Internal.Correction.Weighted>
   9.000000E+99

> <Gold.Protein.RotatedTorsions>
[ 6907 6896 6895 6894 ] final  -50.54 input  -60.11 | X-H torsion
[ 7974 7965 7964 7962 ] final  -17.83 input  175.53 | X-H torsion
[ 8008 7997 7996 7995 ] final  -42.97 input   59.86 | X-H torsion
[ 10167 10162 10161 10158 ] final   79.13 input  -65.29 | X-H torsion
[ 10718 10713 10712 10709 ] final  -63.00 input   66.30 | X-H torsion
[ 10763 10752 10751 10750 ] final  129.44 input  -60.55 | X-H torsion
[ 11005 11000 10999 10996 ] final   88.63 input  -57.11 | X-H torsion

> <Gold.Protein.ActiveResidues>
 VAL166  LYS551  ARG553  GLY616  TRP617  ASP618  TYR619  PRO620  LYS621  CYS622 
 ASP623  PHE694  ASN695  SER759  ASP760  ASP761  ALA762  ILE779  LEU786  VAL792 
 PHE793  MET794  SER795  GLU796  ALA797  LYS798  CYS799  TRP800  GLU811  SER814 

> <Gold.Protein.RotatedAtoms>
  150.8697  134.8068  159.7145 H   0  0  0  0  0  0  0  0  0  0  0  0  # atno 6907 bound_to 6896
  152.4706  134.4966  159.9721 H   0  0  0  0  0  0  0  0  0  0  0  0  # atno 6908 bound_to 6896
  151.5056  133.3457  159.2912 H   0  0  0  0  0  0  0  0  0  0  0  0  # atno 6909 bound_to 6896
  146.1922  140.3835  142.8454 H   0  0  0  0  0  0  0  0  0  0  0  0  # atno 7974 bound_to 7965
  154.3997  140.1460  156.3443 H   0  0  0  0  0  0  0  0  0  0  0  0  # atno 8008 bound_to 7997
  155.8328  140.3465  155.5562 H   0  0  0  0  0  0  0  0  0  0  0  0  # atno 8009 bound_to 7997
  155.8170  140.0892  157.1861 H   0  0  0  0  0  0  0  0  0  0  0  0  # atno 8010 bound_to 7997
  139.9636  144.5944  150.8049 H   0  0  0  0  0  0  0  0  0  0  0  0  # atno 10167 bound_to 10162
  156.0818  130.4215  150.1215 H   0  0  0  0  0  0  0  0  0  0  0  0  # atno 10718 bound_to 10713
  153.7418  135.3223  155.3305 H   0  0  0  0  0  0  0  0  0  0  0  0  # atno 10763 bound_to 10752
  154.8292  135.4546  154.1018 H   0  0  0  0  0  0  0  0  0  0  0  0  # atno 10764 bound_to 10752
  153.2196  135.6946  153.8098 H   0  0  0  0  0  0  0  0  0  0  0  0  # atno 10765 bound_to 10752
  139.8892  134.8500  156.3027 H   0  0  0  0  0  0  0  0  0  0  0  0  # atno 11005 bound_to 11000
  144.8509  140.6999  143.6169 LP  0  0  0  0  0  0  0  0  0  0  0  0  # atno 17320 bound_to 7965
  145.3757  139.1648  143.4308 LP  0  0  0  0  0  0  0  0  0  0  0  0  # atno 17321 bound_to 7965
  140.7545  143.3028  151.3037 LP  0  0  0  0  0  0  0  0  0  0  0  0  # atno 17342 bound_to 10162
  139.6535  144.0319  152.2643 LP  0  0  0  0  0  0  0  0  0  0  0  0  # atno 17343 bound_to 10162
  156.9245  130.9694  151.3543 LP  0  0  0  0  0  0  0  0  0  0  0  0  # atno 17370 bound_to 10713
  157.5938  130.8463  149.8699 LP  0  0  0  0  0  0  0  0  0  0  0  0  # atno 17371 bound_to 10713
  140.9902  133.7213  156.0803 LP  0  0  0  0  0  0  0  0  0  0  0  0  # atno 17394 bound_to 11000
  140.7634  134.3913  157.5521 LP  0  0  0  0  0  0  0  0  0  0  0  0  # atno 17395 bound_to 11000

$$$$
