AV-unprocessed.smi:1599|AV-procd|sdf|6425|dock6
  -GOLD-   22720 7 63D 1   1.00000     0.00000
 Structure written by MMmdl.
 39 40  0  0  0  0  0  0  0  0  1 V2000
  152.4572  138.1143  154.1553 C   0  0  0  0  0  0  0  0  0  0  0  0
  151.0415  138.0540  154.7474 C   0  0  2  0  0  0  0  0  0  0  0  0
  150.3787  136.8474  154.2544 N   0  0  0  0  0  0  0  0  0  0  0  0
  150.5510  135.6056  154.7303 C   0  0  0  0  0  0  0  0  0  0  0  0
  151.3049  135.3289  155.6633 O   0  0  0  0  0  0  0  0  0  0  0  0
  149.7930  134.7199  154.0634 N   0  0  0  0  0  0  0  0  0  0  0  0
  149.6931  133.3252  154.2980 C   0  0  0  0  0  0  0  0  0  0  0  0
  150.5062  132.5947  155.2030 C   0  0  0  0  0  0  0  0  0  0  0  0
  150.1844  131.3100  155.2060 N   0  0  0  0  0  0  0  0  0  0  0  0
  149.1697  131.1980  154.3121 N   0  0  0  0  0  0  0  0  0  0  0  0
  148.5710  129.8987  154.0599 C   0  0  0  0  0  0  0  0  0  0  0  0
  147.1805  129.7892  154.6901 C   0  0  0  0  0  0  0  0  0  0  0  0
  146.1370  129.6960  153.8608 N   0  0  0  0  0  0  0  0  0  0  0  0
  147.0482  129.7976  155.9120 O   0  0  0  0  0  0  0  0  0  0  0  0
  148.8433  132.4124  153.7405 C   0  0  0  0  0  0  0  0  0  0  0  0
  150.2180  139.3095  154.3910 C   0  0  1  0  0  0  0  0  0  0  0  0
  148.8298  139.3817  155.0308 C   0  0  0  0  0  0  0  0  0  0  0  0
  148.5531  140.8665  154.9879 C   0  0  0  0  0  0  0  0  0  0  0  0
  149.9271  141.4474  155.3068 C   0  0  0  0  0  0  0  0  0  0  0  0
  150.8773  140.4885  154.8477 O   0  0  0  0  0  0  0  0  0  0  0  0
  153.0024  138.9837  154.5236 H   0  0  0  0  0  0  0  0  0  0  0  0
  152.4311  138.1758  153.0668 H   0  0  0  0  0  0  0  0  0  0  0  0
  153.0341  137.2292  154.4257 H   0  0  0  0  0  0  0  0  0  0  0  0
  151.1425  138.0032  155.8330 H   0  0  0  0  0  0  0  0  0  0  0  0
  149.7344  136.9721  153.4871 H   0  0  0  0  0  0  0  0  0  0  0  0
  149.2181  135.0830  153.3175 H   0  0  0  0  0  0  0  0  0  0  0  0
  151.3029  132.9445  155.8427 H   0  0  0  0  0  0  0  0  0  0  0  0
  148.5086  129.7328  152.9833 H   0  0  0  0  0  0  0  0  0  0  0  0
  149.2239  129.1243  154.4644 H   0  0  0  0  0  0  0  0  0  0  0  0
  145.2004  129.6269  154.2313 H   0  0  0  0  0  0  0  0  0  0  0  0
  146.2902  129.7002  152.8627 H   0  0  0  0  0  0  0  0  0  0  0  0
  148.0569  132.5061  153.0064 H   0  0  0  0  0  0  0  0  0  0  0  0
  150.1109  139.3909  153.3078 H   0  0  0  0  0  0  0  0  0  0  0  0
  148.0821  138.7921  154.4996 H   0  0  0  0  0  0  0  0  0  0  0  0
  148.8641  139.0399  156.0663 H   0  0  0  0  0  0  0  0  0  0  0  0
  148.2440  141.1602  153.9839 H   0  0  0  0  0  0  0  0  0  0  0  0
  147.7818  141.1824  155.6908 H   0  0  0  0  0  0  0  0  0  0  0  0
  150.0839  142.4194  154.8388 H   0  0  0  0  0  0  0  0  0  0  0  0
  150.0512  141.5660  156.3838 H   0  0  0  0  0  0  0  0  0  0  0  0
  1  2  1  0  0  0  0
  1 21  1  0  0  0  0
  1 22  1  0  0  0  0
  1 23  1  0  0  0  0
  2  3  1  0  0  0  0
  2 16  1  0  0  0  0
  2 24  1  0  0  0  0
  3  4  1  0  0  0  0
  3 25  1  0  0  0  0
  4  5  2  0  0  0  0
  4  6  1  0  0  0  0
  6  7  1  0  0  0  0
  6 26  1  0  0  0  0
  7 15  2  0  0  0  0
  7  8  1  0  0  0  0
  8  9  2  0  0  0  0
  8 27  1  0  0  0  0
  9 10  1  0  0  0  0
 10 11  1  0  0  0  0
 10 15  1  0  0  0  0
 11 12  1  0  0  0  0
 11 28  1  0  0  0  0
 11 29  1  0  0  0  0
 12 13  1  0  0  0  0
 12 14  2  0  0  0  0
 13 30  1  0  0  0  0
 13 31  1  0  0  0  0
 15 32  1  0  0  0  0
 16 20  1  0  0  0  0
 16 17  1  0  0  0  0
 16 33  1  0  0  0  0
 17 18  1  0  0  0  0
 17 34  1  0  0  0  0
 17 35  1  0  0  0  0
 18 19  1  0  0  0  0
 18 36  1  0  0  0  0
 18 37  1  0  0  0  0
 19 20  1  0  0  0  0
 19 38  1  0  0  0  0
 19 39  1  0  0  0  0
M  END
> <s_m_source_file>
AV-unprocessed.smi

> <i_m_source_file_index>
1599

> <i_lp_mmshare_version>
43012

> <i_f3d_flags>
0

> <s_epik_input>
TzFbQ0gyXVtDSDJdW0NIMl1bQ0BIXTFbQ0BIXShbQ0gzXSlbTkhdQyg9TylbTkhdYzJbY0hdbm4oW2NIXTIpW0NIMl1DKD1PKVtOSDJd

> <s_epik_cmdline>
J2VwaWtfcHl0aG9uJywgJy1waCcsICc3LjAnLCAnLXRuJywgJzgnLCAnLW1hJywgJzIwMCcsICctbWV0YWxfYmluZGluZycsICctaW1hZScsICc8aW5maWxlLm1hZT4nLCAnLW9tYWUnLCAnPG91dGZpbGUubWFlPic=

> <r_lp_tautomer_probability>
1

> <r_epik_Ionization_Penalty>
4.15391e-05

> <r_epik_Ionization_Penalty_Charging>
0

> <r_epik_Ionization_Penalty_Neutral>
4.15391e-05

> <r_epik_State_Penalty>
-0

> <r_epik_Charging_Adjusted_Penalty>
0

> <i_epik_Tot_Q>
0

> <i_epik_Tot_abs_Q>
0

> <r_epik_Metal_State_Penalty>
-0

> <b_epik_Metal_Only>
0

> <s_lp_Force_Field>
OPLS_2005

> <r_lp_Energy>
20.4971

> <b_lp_Chiralities_Consistent>
1

> <s_lp_Variant>
AV-unprocessed.smi:1599-3

> <Gold.Version>
5.8.1

> <Gold.Id.Protein>
6NUR|6NUR_protein|mol2

> <Gold.PLP.Fitness>
46.3376

> <Gold.PLP.PLP>
-33.0245

> <Gold.PLP.part.hbond>
-6.2714

> <Gold.PLP.part.metal>
0.0000

> <Gold.PLP.part.buried>
-3.1298

> <Gold.PLP.part.nonpolar>
-24.7169

> <Gold.PLP.part.repulsive>
0.3025

> <Gold.PLP.ligand.clash>
0.0000

> <Gold.PLP.ligand.torsion>
0.5304

> <Gold.PLP.Chemscore.Hbond>
4.7833

> <Gold.PLP.Chemscore.CHOScore>
0.0000

> <Gold.PLP.Chemscore.Metal>
0.0000

> <Gold.Chemscore.Hbonds>
donor molecule, donor type, donor heavy atom, donor atom, acceptor molecule, acceptor atom, score
      L1  H     3    25       P1  7948  0.93
      L1  H     6    26       P1  7948  0.80
      L1  H    13    30       P1 10956  1.00
      P1  H  7989  7998       L1    20  0.95
      P1  H 10752 10765       L1     5  1.00

> <Gold.PLP.Chemscore.Internal.Correction>
0.0243

> <Gold.Rescore>
     Score         DG    S(hbond)    S(metal)    S(lipo)     H(rot)  DE(clash)    DE(int)     intcor
     15.53     -18.36       3.50        0.00      60.15       2.28       0.90       1.94       ----

> <Gold.Chemscore.Fitness>
15.5284

> <Gold.Chemscore.DG>
-18.3639

> <Gold.Chemscore.ZeroCoef>
-5.4800

> <Gold.Chemscore.Hbond>
3.4997

> <Gold.Chemscore.Metal>
0.0000

> <Gold.Chemscore.Lipo>
60.1499

> <Gold.Chemscore.Internal_Hbond>
0.0000

> <Gold.Chemscore.DEClash>
0.8977

> <Gold.Chemscore.DEInternal>
1.9378

> <Gold.Chemscore.Rot>
2.2823

> <Gold.Chemscore.Internal.Correction>
   9.000000E+99

> <Gold.Chemscore.Hbonds>
donor molecule, donor type, donor heavy atom, donor atom, acceptor molecule, acceptor atom, score
      L1  H     3    25       P1  7948  0.54
      L1  H     6    26       P1  7948  0.11
      L1  H    13    30       P1 10956  0.82
      P1  H  7989  7998       L1    20  0.19
      P1  H 10752 10765       L1     5  0.48

> <Gold.Chemscore.Hbond.Weighted>
-11.6890

> <Gold.Chemscore.Metal.Weighted>
-0.0000

> <Gold.Chemscore.Lipo.Weighted>
-7.0375

> <Gold.Chemscore.Internal_Hbond.Weighted>
0.0000

> <Gold.Chemscore.DEClash.Weighted>
0.8977

> <Gold.Chemscore.DEInternal.Weighted>
1.9378

> <Gold.Chemscore.Rot.Weighted>
5.8427

> <Gold.Chemscore.Internal.Correction.Weighted>
   9.000000E+99

> <Gold.Protein.RotatedTorsions>
[ 6907 6896 6895 6894 ] final -121.32 input  -60.11 | X-H torsion
[ 7974 7965 7964 7962 ] final   88.23 input  175.53 | X-H torsion
[ 8008 7997 7996 7995 ] final    8.69 input   59.86 | X-H torsion
[ 10167 10162 10161 10158 ] final   87.28 input  -65.29 | X-H torsion
[ 10718 10713 10712 10709 ] final   63.71 input   66.30 | X-H torsion
[ 10763 10752 10751 10750 ] final -156.75 input  -60.55 | X-H torsion
[ 11005 11000 10999 10996 ] final  -90.74 input  -57.11 | X-H torsion

> <Gold.Protein.ActiveResidues>
 VAL166  LYS551  ARG553  GLY616  TRP617  ASP618  TYR619  PRO620  LYS621  CYS622 
 ASP623  PHE694  ASN695  SER759  ASP760  ASP761  ALA762  ILE779  LEU786  VAL792 
 PHE793  MET794  SER795  GLU796  ALA797  LYS798  CYS799  TRP800  GLU811  SER814 

> <Gold.Protein.RotatedAtoms>
  150.8473  133.7842  159.3038 H   0  0  0  0  0  0  0  0  0  0  0  0  # atno 6907 bound_to 6896
  151.5524  135.1065  159.9962 H   0  0  0  0  0  0  0  0  0  0  0  0  # atno 6908 bound_to 6896
  152.4524  133.7612  159.6804 H   0  0  0  0  0  0  0  0  0  0  0  0  # atno 6909 bound_to 6896
  145.5485  139.2293  143.2526 H   0  0  0  0  0  0  0  0  0  0  0  0  # atno 7974 bound_to 7965
  154.7702  140.2800  155.6144 H   0  0  0  0  0  0  0  0  0  0  0  0  # atno 8008 bound_to 7997
  156.2932  140.2643  156.2430 H   0  0  0  0  0  0  0  0  0  0  0  0  # atno 8009 bound_to 7997
  154.9910  140.0373  157.2309 H   0  0  0  0  0  0  0  0  0  0  0  0  # atno 8010 bound_to 7997
  139.8789  144.6451  150.8865 H   0  0  0  0  0  0  0  0  0  0  0  0  # atno 10167 bound_to 10162
  157.5990  130.9120  149.9750 H   0  0  0  0  0  0  0  0  0  0  0  0  # atno 10718 bound_to 10713
  154.7689  135.3139  154.8231 H   0  0  0  0  0  0  0  0  0  0  0  0  # atno 10763 bound_to 10752
  153.8971  135.6819  153.4761 H   0  0  0  0  0  0  0  0  0  0  0  0  # atno 10764 bound_to 10752
  153.1299  135.4785  154.9266 H   0  0  0  0  0  0  0  0  0  0  0  0  # atno 10765 bound_to 10752
  141.1559  133.7711  156.9781 H   0  0  0  0  0  0  0  0  0  0  0  0  # atno 11005 bound_to 11000
  146.1933  140.6307  142.9135 LP  0  0  0  0  0  0  0  0  0  0  0  0  # atno 17320 bound_to 7965
  144.7541  140.5264  143.6781 LP  0  0  0  0  0  0  0  0  0  0  0  0  # atno 17321 bound_to 7965
  140.7748  143.3602  151.1843 LP  0  0  0  0  0  0  0  0  0  0  0  0  # atno 17342 bound_to 10162
  139.7214  143.9217  152.2987 LP  0  0  0  0  0  0  0  0  0  0  0  0  # atno 17343 bound_to 10162
  156.1058  130.3653  150.0136 LP  0  0  0  0  0  0  0  0  0  0  0  0  # atno 17370 bound_to 10713
  156.8243  130.9370  151.3640 LP  0  0  0  0  0  0  0  0  0  0  0  0  # atno 17371 bound_to 10713
  140.1084  134.9492  157.2029 LP  0  0  0  0  0  0  0  0  0  0  0  0  # atno 17394 bound_to 11000
  140.3226  134.2899  155.7243 LP  0  0  0  0  0  0  0  0  0  0  0  0  # atno 17395 bound_to 11000

$$$$
