AV-unprocessed.smi:740|AV-procd|sdf|3549|dock1
  -GOLD-   22720 0543D 1   1.00000     0.00000
 Structure written by MMmdl.
 44 46  0  0  0  0  0  0  0  0  1 V2000
  152.8167  143.1113  161.2042 C   0  0  0  0  0  0  0  0  0  0  0  0
  152.2968  142.6190  159.8651 C   0  0  0  0  0  0  0  0  0  0  0  0
  152.7807  141.3964  159.3477 C   0  0  0  0  0  0  0  0  0  0  0  0
  152.3199  140.9011  158.1085 C   0  0  0  0  0  0  0  0  0  0  0  0
  152.6514  139.7439  157.4248 N   0  0  0  0  0  0  0  0  0  0  0  0
  151.8862  139.8446  156.3419 C   0  0  0  0  0  0  0  0  0  0  0  0
  151.0982  140.9321  156.2423 N   0  0  0  0  0  0  0  0  0  0  0  0
  150.1817  141.2462  155.1611 C   0  0  0  0  0  0  0  0  0  0  0  0
  149.2454  140.0694  154.8258 C   0  0  1  0  0  0  0  0  0  0  0  0
  148.2698  140.5165  153.9037 O   0  0  0  0  0  0  0  0  0  0  0  0
  150.0157  138.8881  154.2004 C   0  0  0  0  0  0  0  0  0  0  0  0
  149.7580  137.6286  154.9082 N   0  0  0  0  0  0  0  0  0  0  0  0
  150.7185  136.7943  155.3293 C   0  0  0  0  0  0  0  0  0  0  0  0
  151.9308  136.9461  155.1825 O   0  0  0  0  0  0  0  0  0  0  0  0
  150.1216  135.5921  156.0474 C   0  0  0  0  0  0  0  0  0  0  0  0
  148.6097  135.8538  155.9772 C   0  0  2  0  0  0  0  0  0  0  0  0
  147.8222  134.7449  155.2599 C   0  0  0  0  0  0  0  0  0  0  0  0
  148.5348  137.1816  155.2258 C   0  0  0  0  0  0  0  0  0  0  0  0
  147.4682  137.7389  154.9659 O   0  0  0  0  0  0  0  0  0  0  0  0
  151.3532  141.6681  157.3946 C   0  0  0  0  0  0  0  0  0  0  0  0
  150.8654  142.8872  157.8979 C   0  0  0  0  0  0  0  0  0  0  0  0
  151.3367  143.3677  159.1378 C   0  0  0  0  0  0  0  0  0  0  0  0
  150.8024  144.6840  159.6739 C   0  0  0  0  0  0  0  0  0  0  0  0
  153.5727  142.4382  161.6098 H   0  0  0  0  0  0  0  0  0  0  0  0
  152.0037  143.1765  161.9276 H   0  0  0  0  0  0  0  0  0  0  0  0
  153.2693  144.0978  161.1011 H   0  0  0  0  0  0  0  0  0  0  0  0
  153.5112  140.8250  159.9012 H   0  0  0  0  0  0  0  0  0  0  0  0
  151.8956  139.0822  155.5767 H   0  0  0  0  0  0  0  0  0  0  0  0
  149.6070  142.1329  155.4319 H   0  0  0  0  0  0  0  0  0  0  0  0
  150.7742  141.5158  154.2856 H   0  0  0  0  0  0  0  0  0  0  0  0
  148.7415  139.7497  155.7391 H   0  0  0  0  0  0  0  0  0  0  0  0
  148.5787  140.3396  153.0284 H   0  0  0  0  0  0  0  0  0  0  0  0
  149.7914  138.8011  153.1356 H   0  0  0  0  0  0  0  0  0  0  0  0
  151.0877  139.0873  154.2488 H   0  0  0  0  0  0  0  0  0  0  0  0
  150.4114  134.6702  155.5418 H   0  0  0  0  0  0  0  0  0  0  0  0
  150.4773  135.5501  157.0774 H   0  0  0  0  0  0  0  0  0  0  0  0
  148.2096  135.9988  156.9815 H   0  0  0  0  0  0  0  0  0  0  0  0
  146.7554  134.9701  155.2361 H   0  0  0  0  0  0  0  0  0  0  0  0
  147.9437  133.7901  155.7720 H   0  0  0  0  0  0  0  0  0  0  0  0
  148.1592  134.6139  154.2308 H   0  0  0  0  0  0  0  0  0  0  0  0
  150.1319  143.4455  157.3355 H   0  0  0  0  0  0  0  0  0  0  0  0
  150.0658  145.1197  158.9982 H   0  0  0  0  0  0  0  0  0  0  0  0
  151.6124  145.4036  159.7945 H   0  0  0  0  0  0  0  0  0  0  0  0
  150.3226  144.5363  160.6415 H   0  0  0  0  0  0  0  0  0  0  0  0
  1  2  1  0  0  0  0
  1 24  1  0  0  0  0
  1 25  1  0  0  0  0
  1 26  1  0  0  0  0
  2 22  1  0  0  0  0
  2  3  2  0  0  0  0
  3  4  1  0  0  0  0
  3 27  1  0  0  0  0
  4 20  2  0  0  0  0
  4  5  1  0  0  0  0
  5  6  2  0  0  0  0
  6  7  1  0  0  0  0
  6 28  1  0  0  0  0
  7  8  1  0  0  0  0
  7 20  1  0  0  0  0
  8  9  1  0  0  0  0
  8 29  1  0  0  0  0
  8 30  1  0  0  0  0
  9 10  1  0  0  0  0
  9 11  1  0  0  0  0
  9 31  1  0  0  0  0
 10 32  1  0  0  0  0
 11 12  1  0  0  0  0
 11 33  1  0  0  0  0
 11 34  1  0  0  0  0
 12 18  1  0  0  0  0
 12 13  1  0  0  0  0
 13 14  2  0  0  0  0
 13 15  1  0  0  0  0
 15 16  1  0  0  0  0
 15 35  1  0  0  0  0
 15 36  1  0  0  0  0
 16 17  1  0  0  0  0
 16 18  1  0  0  0  0
 16 37  1  0  0  0  0
 17 38  1  0  0  0  0
 17 39  1  0  0  0  0
 17 40  1  0  0  0  0
 18 19  2  0  0  0  0
 20 21  1  0  0  0  0
 21 22  2  0  0  0  0
 21 41  1  0  0  0  0
 22 23  1  0  0  0  0
 23 42  1  0  0  0  0
 23 43  1  0  0  0  0
 23 44  1  0  0  0  0
M  END
> <s_m_source_file>
AV-unprocessed.smi

> <i_m_source_file_index>
740

> <i_lp_mmshare_version>
43012

> <i_f3d_flags>
0

> <s_epik_input>
W0NIM11jKFtjSF0xKWMoW0NIM10pW2NIXWMoYzEyKW4oW2NIXW4yKVtDSDJdW0NASF0oW09IXSlbQ0gyXU4zQyg9TylbQ0gyXVtDQEBIXShbQ0gzXSlDMz1P

> <s_epik_cmdline>
J2VwaWtfcHl0aG9uJywgJy1waCcsICc3LjAnLCAnLXRuJywgJzgnLCAnLW1hJywgJzIwMCcsICctbWV0YWxfYmluZGluZycsICctaW1hZScsICc8aW5maWxlLm1hZT4nLCAnLW9tYWUnLCAnPG91dGZpbGUubWFlPic=

> <r_lp_tautomer_probability>
1

> <r_epik_Ionization_Penalty>
0.104021

> <r_epik_Ionization_Penalty_Charging>
0

> <r_epik_Ionization_Penalty_Neutral>
0.104021

> <r_epik_State_Penalty>
0.0939354

> <r_epik_Charging_Adjusted_Penalty>
0.0939354

> <i_epik_Tot_Q>
0

> <i_epik_Tot_abs_Q>
0

> <r_epik_Metal_State_Penalty>
0.000101783

> <b_epik_Metal_Only>
0

> <s_lp_Force_Field>
OPLS_2005

> <r_lp_Energy>
16.4677

> <b_lp_Chiralities_Consistent>
1

> <s_lp_Variant>
AV-unprocessed.smi:740-4

> <Gold.Version>
5.8.1

> <Gold.Id.Protein>
6NUR|6NUR_protein|mol2

> <Gold.PLP.Fitness>
48.0924

> <Gold.PLP.PLP>
-40.9516

> <Gold.PLP.part.hbond>
-3.0000

> <Gold.PLP.part.metal>
0.0000

> <Gold.PLP.part.buried>
-3.8396

> <Gold.PLP.part.nonpolar>
-34.2166

> <Gold.PLP.part.repulsive>
0.1790

> <Gold.PLP.ligand.clash>
0.0005

> <Gold.PLP.ligand.torsion>
0.9515

> <Gold.PLP.Chemscore.Hbond>
2.9920

> <Gold.PLP.Chemscore.CHOScore>
0.0000

> <Gold.PLP.Chemscore.Metal>
0.0000

> <Gold.Chemscore.Hbonds>
donor molecule, donor type, donor heavy atom, donor atom, acceptor molecule, acceptor atom, score
      L1  H    10    32       P1  7957  0.70
      P1  H  7997  8010       L1     5  1.00
      P1  H 10752 10763       L1    14  1.00

> <Gold.PLP.Chemscore.Internal.Correction>
0.0684

> <Gold.Rescore>
     Score         DG    S(hbond)    S(metal)    S(lipo)     H(rot)  DE(clash)    DE(int)     intcor
     14.46     -18.41       1.93        0.00     106.00       2.31       1.67       2.28       ----

> <Gold.Chemscore.Fitness>
14.4553

> <Gold.Chemscore.DG>
-18.4083

> <Gold.Chemscore.ZeroCoef>
-5.4800

> <Gold.Chemscore.Hbond>
1.9317

> <Gold.Chemscore.Metal>
0.0000

> <Gold.Chemscore.Lipo>
106.0011

> <Gold.Chemscore.Internal_Hbond>
0.0000

> <Gold.Chemscore.DEClash>
1.6734

> <Gold.Chemscore.DEInternal>
2.2797

> <Gold.Chemscore.Rot>
2.3147

> <Gold.Chemscore.Internal.Correction>
   9.000000E+99

> <Gold.Chemscore.Hbonds>
donor molecule, donor type, donor heavy atom, donor atom, acceptor molecule, acceptor atom, score
      L1  H    10    32       P1  7957  0.69
      P1  H  7997  8010       L1     5  0.15
      P1  H 10752 10763       L1    14  0.93

> <Gold.Chemscore.Hbond.Weighted>
-6.4517

> <Gold.Chemscore.Metal.Weighted>
-0.0000

> <Gold.Chemscore.Lipo.Weighted>
-12.4021

> <Gold.Chemscore.Internal_Hbond.Weighted>
0.0000

> <Gold.Chemscore.DEClash.Weighted>
1.6734

> <Gold.Chemscore.DEInternal.Weighted>
2.2797

> <Gold.Chemscore.Rot.Weighted>
5.9256

> <Gold.Chemscore.Internal.Correction.Weighted>
   9.000000E+99

> <Gold.Protein.RotatedTorsions>
[ 6907 6896 6895 6894 ] final  127.66 input  -60.11 | X-H torsion
[ 7974 7965 7964 7962 ] final   92.27 input  175.53 | X-H torsion
[ 8008 7997 7996 7995 ] final   57.02 input   59.86 | X-H torsion
[ 10167 10162 10161 10158 ] final  162.90 input  -65.29 | X-H torsion
[ 10718 10713 10712 10709 ] final  152.02 input   66.30 | X-H torsion
[ 10763 10752 10751 10750 ] final   56.52 input  -60.55 | X-H torsion
[ 11005 11000 10999 10996 ] final  -53.36 input  -57.11 | X-H torsion

> <Gold.Protein.ActiveResidues>
 VAL166  LYS551  ARG553  GLY616  TRP617  ASP618  TYR619  PRO620  LYS621  CYS622 
 ASP623  PHE694  ASN695  SER759  ASP760  ASP761  ALA762  ILE779  LEU786  VAL792 
 PHE793  MET794  SER795  GLU796  ALA797  LYS798  CYS799  TRP800  GLU811  SER814 

> <Gold.Protein.RotatedAtoms>
  152.3792  133.6522  159.6147 H   0  0  0  0  0  0  0  0  0  0  0  0  # atno 6907 bound_to 6896
  150.7727  133.9142  159.3387 H   0  0  0  0  0  0  0  0  0  0  0  0  # atno 6908 bound_to 6896
  151.6951  135.0941  160.0292 H   0  0  0  0  0  0  0  0  0  0  0  0  # atno 6909 bound_to 6896
  145.4946  139.2276  143.2811 H   0  0  0  0  0  0  0  0  0  0  0  0  # atno 7974 bound_to 7965
  155.5270  140.3481  155.4418 H   0  0  0  0  0  0  0  0  0  0  0  0  # atno 8008 bound_to 7997
  156.0745  140.1371  156.9815 H   0  0  0  0  0  0  0  0  0  0  0  0  # atno 8009 bound_to 7997
  154.4545  140.0959  156.6694 H   0  0  0  0  0  0  0  0  0  0  0  0  # atno 8010 bound_to 7997
  139.4866  144.4391  151.8975 H   0  0  0  0  0  0  0  0  0  0  0  0  # atno 10167 bound_to 10162
  157.2631  131.0802  151.1651 H   0  0  0  0  0  0  0  0  0  0  0  0  # atno 10718 bound_to 10713
  152.9833  135.5673  154.5243 H   0  0  0  0  0  0  0  0  0  0  0  0  # atno 10763 bound_to 10752
  154.4725  135.2785  155.1634 H   0  0  0  0  0  0  0  0  0  0  0  0  # atno 10764 bound_to 10752
  154.3176  135.6275  153.5546 H   0  0  0  0  0  0  0  0  0  0  0  0  # atno 10765 bound_to 10752
  141.0972  133.6623  156.4161 H   0  0  0  0  0  0  0  0  0  0  0  0  # atno 11005 bound_to 11000
  146.2263  140.5742  142.8995 LP  0  0  0  0  0  0  0  0  0  0  0  0  # atno 17320 bound_to 7965
  144.7814  140.5849  143.6603 LP  0  0  0  0  0  0  0  0  0  0  0  0  # atno 17321 bound_to 7965
  140.3842  144.2698  150.5905 LP  0  0  0  0  0  0  0  0  0  0  0  0  # atno 17342 bound_to 10162
  140.5206  143.2267  151.8395 LP  0  0  0  0  0  0  0  0  0  0  0  0  # atno 17343 bound_to 10162
  157.3153  130.6910  149.6238 LP  0  0  0  0  0  0  0  0  0  0  0  0  # atno 17370 bound_to 10713
  155.9664  130.4351  150.5078 LP  0  0  0  0  0  0  0  0  0  0  0  0  # atno 17371 bound_to 10713
  140.5111  134.6394  157.5284 LP  0  0  0  0  0  0  0  0  0  0  0  0  # atno 17394 bound_to 11000
  139.9812  134.7134  155.9856 LP  0  0  0  0  0  0  0  0  0  0  0  0  # atno 17395 bound_to 11000

$$$$
