AV-unprocessed.smi:1491|AV-procd|sdf|6034|dock7
  -GOLD-   22720 6133D 1   1.00000     0.00000
 Structure written by MMmdl.
 38 39  0  0  0  0  0  0  0  0  1 V2000
  146.9532  133.8113  154.9423 O   0  0  0  0  0  0  0  0  0  0  0  0
  147.4295  134.4835  154.0275 C   0  0  0  0  0  0  0  0  0  0  0  0
  148.4785  135.3066  154.1683 N   0  0  0  0  0  0  0  0  0  0  0  0
  149.2317  135.5073  155.4026 C   0  0  0  0  0  0  0  0  0  0  0  0
  150.7236  135.7763  155.1303 C   0  0  0  0  0  0  0  0  0  0  0  0
  151.0346  137.1924  155.0662 N   0  0  0  0  0  0  0  0  0  0  0  0
  151.9149  137.8958  155.8783 C   0  0  0  0  0  0  0  0  0  0  0  0
  151.8790  139.2051  155.4551 C   0  0  0  0  0  0  0  0  0  0  0  0
  150.9949  139.3285  154.3861 N   0  0  0  0  0  0  0  0  0  0  0  0
  150.5350  138.0962  154.2122 C   0  0  0  0  0  0  0  0  0  0  0  0
  146.9749  134.4748  152.7668 N   0  0  0  0  0  0  0  0  0  0  0  0
  145.8646  133.6702  152.2651 C   0  0  2  0  0  0  0  0  0  0  0  0
  146.3728  132.7045  151.1771 C   0  0  0  0  0  0  0  0  0  0  0  0
  145.2198  131.9004  150.5549 C   0  0  0  0  0  0  0  0  0  0  0  0
  144.1293  132.8336  150.0012 C   0  0  1  0  0  0  0  0  0  0  0  0
  143.0577  132.0623  149.5012 O   0  0  0  0  0  0  0  0  0  0  0  0
  143.6114  133.7881  151.0907 C   0  0  0  0  0  0  0  0  0  0  0  0
  144.7624  134.5943  151.7135 C   0  0  0  0  0  0  0  0  0  0  0  0
  148.7924  135.8183  153.3566 H   0  0  0  0  0  0  0  0  0  0  0  0
  148.8001  136.3696  155.9111 H   0  0  0  0  0  0  0  0  0  0  0  0
  149.1082  134.6630  156.0834 H   0  0  0  0  0  0  0  0  0  0  0  0
  151.3430  135.3116  155.8987 H   0  0  0  0  0  0  0  0  0  0  0  0
  151.0123  135.3249  154.1807 H   0  0  0  0  0  0  0  0  0  0  0  0
  152.4729  137.4215  156.6718 H   0  0  0  0  0  0  0  0  0  0  0  0
  152.4175  140.0610  155.8343 H   0  0  0  0  0  0  0  0  0  0  0  0
  149.8120  137.8456  153.4497 H   0  0  0  0  0  0  0  0  0  0  0  0
  147.4437  135.0628  152.0935 H   0  0  0  0  0  0  0  0  0  0  0  0
  145.4324  133.0744  153.0716 H   0  0  0  0  0  0  0  0  0  0  0  0
  146.8833  133.2660  150.3931 H   0  0  0  0  0  0  0  0  0  0  0  0
  147.1111  132.0212  151.5991 H   0  0  0  0  0  0  0  0  0  0  0  0
  145.6043  131.2599  149.7604 H   0  0  0  0  0  0  0  0  0  0  0  0
  144.7937  131.2374  151.3093 H   0  0  0  0  0  0  0  0  0  0  0  0
  144.5377  133.4163  149.1743 H   0  0  0  0  0  0  0  0  0  0  0  0
  142.3010  132.6215  149.4121 H   0  0  0  0  0  0  0  0  0  0  0  0
  142.8695  134.4691  150.6716 H   0  0  0  0  0  0  0  0  0  0  0  0
  143.1042  133.2200  151.8720 H   0  0  0  0  0  0  0  0  0  0  0  0
  144.3753  135.2302  152.5106 H   0  0  0  0  0  0  0  0  0  0  0  0
  145.1818  135.2632  150.9607 H   0  0  0  0  0  0  0  0  0  0  0  0
  1  2  2  0  0  0  0
  2  3  1  0  0  0  0
  2 11  1  0  0  0  0
  3  4  1  0  0  0  0
  3 19  1  0  0  0  0
  4  5  1  0  0  0  0
  4 20  1  0  0  0  0
  4 21  1  0  0  0  0
  5  6  1  0  0  0  0
  5 22  1  0  0  0  0
  5 23  1  0  0  0  0
  6 10  1  0  0  0  0
  6  7  1  0  0  0  0
  7  8  2  0  0  0  0
  7 24  1  0  0  0  0
  8  9  1  0  0  0  0
  8 25  1  0  0  0  0
  9 10  2  0  0  0  0
 10 26  1  0  0  0  0
 11 12  1  0  0  0  0
 11 27  1  0  0  0  0
 12 18  1  0  0  0  0
 12 13  1  0  0  0  0
 12 28  1  0  0  0  0
 13 14  1  0  0  0  0
 13 29  1  0  0  0  0
 13 30  1  0  0  0  0
 14 15  1  0  0  0  0
 14 31  1  0  0  0  0
 14 32  1  0  0  0  0
 15 16  1  0  0  0  0
 15 17  1  0  0  0  0
 15 33  1  0  0  0  0
 16 34  1  0  0  0  0
 17 18  1  0  0  0  0
 17 35  1  0  0  0  0
 17 36  1  0  0  0  0
 18 37  1  0  0  0  0
 18 38  1  0  0  0  0
M  END
> <s_m_source_file>
AV-unprocessed.smi

> <i_m_source_file_index>
1491

> <i_lp_mmshare_version>
43012

> <i_f3d_flags>
0

> <s_epik_input>
W0NIMl0xW0NIMl1bQ0BIXShbT0hdKVtDSDJdW0NIMl1bQ0BIXTFbTkhdQyg9TylbTkhdW0NIMl1bQ0gyXW4yW2NIXVtjSF1uW2NIXTI=

> <s_epik_cmdline>
J2VwaWtfcHl0aG9uJywgJy1waCcsICc3LjAnLCAnLXRuJywgJzgnLCAnLW1hJywgJzIwMCcsICctbWV0YWxfYmluZGluZycsICctaW1hZScsICc8aW5maWxlLm1hZT4nLCAnLW9tYWUnLCAnPG91dGZpbGUubWFlPic=

> <r_lp_tautomer_probability>
1

> <r_epik_Ionization_Penalty>
0.623245

> <r_epik_Ionization_Penalty_Charging>
0.623187

> <r_epik_Ionization_Penalty_Neutral>
5.75214e-05

> <r_epik_State_Penalty>
0.639392

> <r_epik_Charging_Adjusted_Penalty>
1.26258

> <i_epik_Tot_Q>
0

> <i_epik_Tot_abs_Q>
0

> <r_epik_Metal_State_Penalty>
0.307266

> <b_epik_Metal_Only>
0

> <s_lp_Force_Field>
OPLS_2005

> <r_lp_Energy>
7.54437

> <b_lp_Chiralities_Consistent>
1

> <s_lp_Variant>
AV-unprocessed.smi:1491-3

> <Gold.Version>
5.8.1

> <Gold.Id.Protein>
6NUR|6NUR_protein|mol2

> <Gold.PLP.Fitness>
47.8757

> <Gold.PLP.PLP>
-32.6384

> <Gold.PLP.part.hbond>
-5.5495

> <Gold.PLP.part.metal>
0.0000

> <Gold.PLP.part.buried>
-3.3483

> <Gold.PLP.part.nonpolar>
-24.1101

> <Gold.PLP.part.repulsive>
0.1797

> <Gold.PLP.ligand.clash>
0.0000

> <Gold.PLP.ligand.torsion>
0.4110

> <Gold.PLP.Chemscore.Hbond>
4.3503

> <Gold.PLP.Chemscore.CHOScore>
1.0000

> <Gold.PLP.Chemscore.Metal>
0.0000

> <Gold.Chemscore.Hbonds>
donor molecule, donor type, donor heavy atom, donor atom, acceptor molecule, acceptor atom, score
      L1  H     3    19       P1  7948  1.00
      L1  H    11    27       P1  7948  0.88
      L1  H    16    34       P1 10186  0.55
      P1  H  7989  7998       L1     9  1.00
      P1  H 10785 10796       L1    16  0.89
      L1  C    10    26       P1  7948  1.00

> <Gold.PLP.Chemscore.Internal.Correction>
0.0084

> <Gold.Rescore>
     Score         DG    S(hbond)    S(metal)    S(lipo)     H(rot)  DE(clash)    DE(int)     intcor
     19.53     -20.11       4.17        0.00      62.40       2.57       0.10       0.47       ----

> <Gold.Chemscore.Fitness>
19.5340

> <Gold.Chemscore.DG>
-20.1089

> <Gold.Chemscore.ZeroCoef>
-5.4800

> <Gold.Chemscore.Hbond>
4.1668

> <Gold.Chemscore.Metal>
0.0000

> <Gold.Chemscore.Lipo>
62.4001

> <Gold.Chemscore.Internal_Hbond>
0.0000

> <Gold.Chemscore.DEClash>
0.1035

> <Gold.Chemscore.DEInternal>
0.4713

> <Gold.Chemscore.Rot>
2.5738

> <Gold.Chemscore.Internal.Correction>
   9.000000E+99

> <Gold.Chemscore.Hbonds>
donor molecule, donor type, donor heavy atom, donor atom, acceptor molecule, acceptor atom, score
      L1  H     3    19       P1  7948  0.92
      L1  H    11    27       P1  7948  0.83
      L1  H    16    34       P1 10186  0.54
      P1  H  7989  7998       L1     9  0.40
      P1  H 10785 10796       L1    16  0.87

> <Gold.Chemscore.Hbond.Weighted>
-13.9170

> <Gold.Chemscore.Metal.Weighted>
-0.0000

> <Gold.Chemscore.Lipo.Weighted>
-7.3008

> <Gold.Chemscore.Internal_Hbond.Weighted>
0.0000

> <Gold.Chemscore.DEClash.Weighted>
0.1035

> <Gold.Chemscore.DEInternal.Weighted>
0.4713

> <Gold.Chemscore.Rot.Weighted>
6.5890

> <Gold.Chemscore.Internal.Correction.Weighted>
   9.000000E+99

> <Gold.Protein.RotatedTorsions>
[ 6907 6896 6895 6894 ] final   78.06 input  -60.11 | X-H torsion
[ 7974 7965 7964 7962 ] final   98.61 input  175.53 | X-H torsion
[ 8008 7997 7996 7995 ] final   36.86 input   59.86 | X-H torsion
[ 10167 10162 10161 10158 ] final  -30.92 input  -65.29 | X-H torsion
[ 10718 10713 10712 10709 ] final   19.36 input   66.30 | X-H torsion
[ 10763 10752 10751 10750 ] final    1.14 input  -60.55 | X-H torsion
[ 11005 11000 10999 10996 ] final   91.41 input  -57.11 | X-H torsion

> <Gold.Protein.ActiveResidues>
 VAL166  LYS551  ARG553  GLY616  TRP617  ASP618  TYR619  PRO620  LYS621  CYS622 
 ASP623  PHE694  ASN695  SER759  ASP760  ASP761  ALA762  ILE779  LEU786  VAL792 
 PHE793  MET794  SER795  GLU796  ALA797  LYS798  CYS799  TRP800  GLU811  SER814 

> <Gold.Protein.RotatedAtoms>
  152.5144  134.3722  159.9321 H   0  0  0  0  0  0  0  0  0  0  0  0  # atno 6907 bound_to 6896
  151.3677  133.3860  159.2704 H   0  0  0  0  0  0  0  0  0  0  0  0  # atno 6908 bound_to 6896
  150.9602  134.9010  159.7784 H   0  0  0  0  0  0  0  0  0  0  0  0  # atno 6909 bound_to 6896
  145.4099  139.2335  143.3254 H   0  0  0  0  0  0  0  0  0  0  0  0  # atno 7974 bound_to 7965
  155.1944  140.3310  155.4353 H   0  0  0  0  0  0  0  0  0  0  0  0  # atno 8008 bound_to 7997
  156.2430  140.1904  156.6984 H   0  0  0  0  0  0  0  0  0  0  0  0  # atno 8009 bound_to 7997
  154.6184  140.0599  156.9569 H   0  0  0  0  0  0  0  0  0  0  0  0  # atno 8010 bound_to 7997
  140.7243  143.3811  151.1599 H   0  0  0  0  0  0  0  0  0  0  0  0  # atno 10167 bound_to 10162
  157.1094  130.6502  149.5893 H   0  0  0  0  0  0  0  0  0  0  0  0  # atno 10718 bound_to 10713
  153.3118  135.6963  153.7109 H   0  0  0  0  0  0  0  0  0  0  0  0  # atno 10763 bound_to 10752
  153.5983  135.3467  155.2937 H   0  0  0  0  0  0  0  0  0  0  0  0  # atno 10764 bound_to 10752
  154.8577  135.4334  154.2258 H   0  0  0  0  0  0  0  0  0  0  0  0  # atno 10765 bound_to 10752
  139.8839  134.8672  156.3425 H   0  0  0  0  0  0  0  0  0  0  0  0  # atno 11005 bound_to 11000
  146.2710  140.4809  142.8814 LP  0  0  0  0  0  0  0  0  0  0  0  0  # atno 17320 bound_to 7965
  144.8316  140.6716  143.6287 LP  0  0  0  0  0  0  0  0  0  0  0  0  # atno 17321 bound_to 7965
  139.7400  143.8939  152.3047 LP  0  0  0  0  0  0  0  0  0  0  0  0  # atno 17342 bound_to 10162
  139.8757  144.7044  150.8936 LP  0  0  0  0  0  0  0  0  0  0  0  0  # atno 17343 bound_to 10162
  155.9854  130.4884  150.7030 LP  0  0  0  0  0  0  0  0  0  0  0  0  # atno 17370 bound_to 10713
  157.4572  131.0879  151.0783 LP  0  0  0  0  0  0  0  0  0  0  0  0  # atno 17371 bound_to 10713
  140.9649  133.7364  156.0453 LP  0  0  0  0  0  0  0  0  0  0  0  0  # atno 17394 bound_to 11000
  140.7943  134.3581  157.5456 LP  0  0  0  0  0  0  0  0  0  0  0  0  # atno 17395 bound_to 11000

$$$$
