#       Name:                AV-unprocessed.smi:1021
#       Creating user name   scv26
#       Creation time:       Fri Mar 27 02:42:26 2020


#       File generated by GOLD software.
#

@<TRIPOS>MOLECULE
AV-unprocessed.smi:1021
    47    49     1
SMALL
NO_CHARGES


@<TRIPOS>ATOM
      1 ****        -3.8361  -0.3381  -1.3970 O.3            1 S1                 0.0000
      2 ****        -3.4021   0.9881  -1.6148 C.3            1 S1                 0.0000
      3 ****        -1.9367   1.1521  -1.1885 C.3            1 S1                 0.0000
      4 ****        -0.9489   0.3934  -2.0883 C.3            1 S1                 0.0000
      5 ****         0.4716   0.5139  -1.6167 C.2            1 S1                 0.0000
      6 ****         1.1619   1.6334  -1.8389 N.2            1 S1                 0.0000
      7 ****         2.3926   1.3538  -1.2830 C.ar           1 S1                 0.0000
      8 ****         3.5627   2.1422  -1.2017 C.ar           1 S1                 0.0000
      9 ****         4.7248   1.6335  -0.5862 C.ar           1 S1                 0.0000
     10 ****         4.7335   0.3313  -0.0467 C.ar           1 S1                 0.0000
     11 ****         3.5771  -0.4691  -0.1155 C.ar           1 S1                 0.0000
     12 ****         2.4166   0.0450  -0.7261 C.ar           1 S1                 0.0000
     13 ****         1.1392  -0.4664  -0.9470 N.pl3          1 S1                 0.0000
     14 ****         0.6913  -1.7978  -0.5449 C.3            1 S1                 0.0000
     15 ****         0.5697  -1.9585   0.9848 C.3            1 S1                 0.0000
     16 ****         0.3943  -3.3317   1.2697 O.3            1 S1                 0.0000
     17 ****        -0.5365  -1.1017   1.5829 C.ar           1 S1                 0.0000
     18 ****        -0.2152   0.1175   2.2176 C.ar           1 S1                 0.0000
     19 ****        -1.2316   0.9165   2.7766 C.ar           1 S1                 0.0000
     20 ****        -2.5753   0.5012   2.7040 C.ar           1 S1                 0.0000
     21 ****        -3.5523   1.2706   3.2395 F              1 S1                 0.0000
     22 ****        -2.9024  -0.7130   2.0704 C.ar           1 S1                 0.0000
     23 ****        -1.8866  -1.5114   1.5093 C.ar           1 S1                 0.0000
     24 ****        -4.7423  -0.4042  -1.6572 H              1 S1                 0.0000
     25 ****        -3.5334   1.2488  -2.6653 H              1 S1                 0.0000
     26 ****        -4.0372   1.6571  -1.0335 H              1 S1                 0.0000
     27 ****        -1.6823   2.2125  -1.2008 H              1 S1                 0.0000
     28 ****        -1.8222   0.8307  -0.1560 H              1 S1                 0.0000
     29 ****        -1.2409  -0.6485  -2.1885 H              1 S1                 0.0000
     30 ****        -1.0037   0.8001  -3.0988 H              1 S1                 0.0000
     31 ****         3.5664   3.1392  -1.6169 H              1 S1                 0.0000
     32 ****         5.6142   2.2439  -0.5308 H              1 S1                 0.0000
     33 ****         5.6288  -0.0528   0.4198 H              1 S1                 0.0000
     34 ****         3.5847  -1.4675   0.2956 H              1 S1                 0.0000
     35 ****        -0.2463  -2.0635  -1.0266 H              1 S1                 0.0000
     36 ****         1.4282  -2.5063  -0.9260 H              1 S1                 0.0000
     37 ****         1.5111  -1.6765   1.4564 H              1 S1                 0.0000
     38 ****         0.4141  -3.4470   2.2076 H              1 S1                 0.0000
     39 ****         0.8123   0.4461   2.2746 H              1 S1                 0.0000
     40 ****        -0.9799   1.8490   3.2596 H              1 S1                 0.0000
     41 ****        -3.9329  -1.0300   2.0092 H              1 S1                 0.0000
     42 ****        -2.1490  -2.4372   1.0187 H              1 S1                 0.0000
     43 ****        -3.7460  -0.5675  -0.4279 LP             1 S1                 0.0000
     44 ****        -3.2822  -0.9679  -1.9415 LP             1 S1                 0.0000
     45 ****         0.8608   2.4702  -2.2964 LP             1 S1                 0.0000
     46 ****         1.1312  -3.8606   0.8488 LP             1 S1                 0.0000
     47 ****        -0.4859  -3.6414   0.9099 LP             1 S1                 0.0000
@<TRIPOS>BOND
    1    1    2 1     
    2    1   24 1     
    3    2    3 1     
    4    2   25 1     
    5    2   26 1     
    6    3    4 1     
    7    3   27 1     
    8    3   28 1     
    9    4    5 1     
   10    4   29 1     
   11    4   30 1     
   12    5   13 1     
   13    5    6 2     
   14    6    7 1     
   15    7   12 ar    
   16    7    8 ar    
   17    8    9 ar    
   18    8   31 1     
   19    9   10 ar    
   20    9   32 1     
   21   10   11 ar    
   22   10   33 1     
   23   11   12 ar    
   24   11   34 1     
   25   12   13 1     
   26   13   14 1     
   27   14   15 1     
   28   14   35 1     
   29   14   36 1     
   30   15   16 1     
   31   15   17 1     
   32   15   37 1     
   33   16   38 1     
   34   17   23 ar    
   35   17   18 ar    
   36   18   19 ar    
   37   18   39 1     
   38   19   20 ar    
   39   19   40 1     
   40   20   21 1     
   41   20   22 ar    
   42   22   23 ar    
   43   22   41 1     
   44   23   42 1     
   45    1   43 1     
   46    1   44 1     
   47    6   45 1     
   48   16   46 1     
   49   16   47 1     
@<TRIPOS>SUBSTRUCTURE
      1 S1             1
@<TRIPOS>SET
LONE_PAIRS      STATIC     ATOMS    <user>   **** ""
5 43 44 45 46 47
DONOR_HYDROGENS      STATIC     ATOMS    <user>   **** ""
2 24 38
ATOM$BLUE        STATIC     ATOMS    COLORGROUP SYSTEM
5 43 44 45 46 47
ATOM$RED        STATIC     ATOMS    COLORGROUP SYSTEM
2 24 38
