#       Name:                AV-unprocessed.smi:1486
#       Creating user name   scv26
#       Creation time:       Fri Mar 27 06:10:17 2020


#       File generated by GOLD software.
#

@<TRIPOS>MOLECULE
AV-unprocessed.smi:1486
    46    47     1
SMALL
NO_CHARGES


@<TRIPOS>ATOM
      1 ****        -2.9683   0.7736  -4.5915 C.3            1 S1                 0.0000
      2 ****        -2.6552   1.4754  -3.4013 O.3            1 S1                 0.0000
      3 ****        -3.1573   0.8297  -2.2421 C.3            1 S1                 0.0000
      4 ****        -2.7898   1.6530  -0.9983 C.3            1 S1                 0.0000
      5 ****        -3.4547   1.0890   0.2675 C.3            1 S1                 0.0000
      6 ****        -1.3388   1.6734  -0.8339 N.am           1 S1                 0.0000
      7 ****        -0.6406   2.6447  -0.2247 C.2            1 S1                 0.0000
      8 ****        -1.1584   3.6466   0.2688 O.2            1 S1                 0.0000
      9 ****         0.8752   2.4564  -0.1562 C.3            1 S1                 0.0000
     10 ****         1.2391   1.5897   1.0148 C.2            1 S1                 0.0000
     11 ****         1.1768   1.9312   2.3442 C.2            1 S1                 0.0000
     12 ****         1.6953   0.6300   3.3793 S.3            1 S1                 0.0000
     13 ****         1.9936  -0.3504   1.9408 C.2            1 S1                 0.0000
     14 ****         2.4954  -1.6861   1.9169 N.am           1 S1                 0.0000
     15 ****         2.7854  -2.3762   0.6635 C.3            1 S1                 0.0000
     16 ****         3.5172  -3.6651   1.0527 C.3            1 S1                 0.0000
     17 ****         3.2632  -3.8364   2.5488 C.3            1 S1                 0.0000
     18 ****         2.7389  -2.4759   2.9781 C.2            1 S1                 0.0000
     19 ****         2.5755  -2.1965   4.1648 O.2            1 S1                 0.0000
     20 ****         1.7077   0.2887   0.8008 N.2            1 S1                 0.0000
     21 ****        -2.5635   1.3090  -5.4503 H              1 S1                 0.0000
     22 ****        -4.0472   0.6882  -4.7267 H              1 S1                 0.0000
     23 ****        -2.5361  -0.2279  -4.5842 H              1 S1                 0.0000
     24 ****        -4.2424   0.7427  -2.3200 H              1 S1                 0.0000
     25 ****        -2.7536  -0.1814  -2.1647 H              1 S1                 0.0000
     26 ****        -3.1507   2.6717  -1.1521 H              1 S1                 0.0000
     27 ****        -4.5401   1.0749   0.1663 H              1 S1                 0.0000
     28 ****        -3.2165   1.6935   1.1434 H              1 S1                 0.0000
     29 ****        -3.1257   0.0687   0.4677 H              1 S1                 0.0000
     30 ****        -0.8274   0.8896  -1.2133 H              1 S1                 0.0000
     31 ****         1.2300   2.0233  -1.0927 H              1 S1                 0.0000
     32 ****         1.3535   3.4327  -0.0697 H              1 S1                 0.0000
     33 ****         0.8533   2.8675   2.7747 H              1 S1                 0.0000
     34 ****         1.8469  -2.6031   0.1556 H              1 S1                 0.0000
     35 ****         3.3933  -1.7632  -0.0034 H              1 S1                 0.0000
     36 ****         3.1678  -4.5215   0.4751 H              1 S1                 0.0000
     37 ****         4.5875  -3.5588   0.8698 H              1 S1                 0.0000
     38 ****         2.5013  -4.5932   2.7386 H              1 S1                 0.0000
     39 ****         4.1689  -4.1066   3.0926 H              1 S1                 0.0000
     40 ****        -3.0521   2.3916  -3.4554 LP             1 S1                 0.0000
     41 ****        -1.6608   1.5469  -3.3233 LP             1 S1                 0.0000
     42 ****        -2.1501   3.7686   0.2278 LP             1 S1                 0.0000
     43 ****        -0.5873   4.3384   0.7107 LP             1 S1                 0.0000
     44 ****         2.2253  -1.2961   4.4229 LP             1 S1                 0.0000
     45 ****         2.7929  -2.8698   4.8715 LP             1 S1                 0.0000
     46 ****         1.8170  -0.1191  -0.1057 LP             1 S1                 0.0000
@<TRIPOS>BOND
    1    1    2 1     
    2    1   21 1     
    3    1   22 1     
    4    1   23 1     
    5    2    3 1     
    6    3    4 1     
    7    3   24 1     
    8    3   25 1     
    9    4    5 1     
   10    4    6 1     
   11    4   26 1     
   12    5   27 1     
   13    5   28 1     
   14    5   29 1     
   15    6    7 am    
   16    6   30 1     
   17    7    8 2     
   18    7    9 1     
   19    9   10 1     
   20    9   31 1     
   21    9   32 1     
   22   10   20 1     
   23   10   11 2     
   24   11   12 1     
   25   11   33 1     
   26   12   13 1     
   27   13   14 1     
   28   13   20 2     
   29   14   18 am    
   30   14   15 1     
   31   15   16 1     
   32   15   34 1     
   33   15   35 1     
   34   16   17 1     
   35   16   36 1     
   36   16   37 1     
   37   17   18 1     
   38   17   38 1     
   39   17   39 1     
   40   18   19 2     
   41    2   40 1     
   42    2   41 1     
   43    8   42 1     
   44    8   43 1     
   45   19   44 1     
   46   19   45 1     
   47   20   46 1     
@<TRIPOS>SUBSTRUCTURE
      1 S1             1
@<TRIPOS>SET
LONE_PAIRS      STATIC     ATOMS    <user>   **** ""
7 40 41 42 43 44 45 46
DONOR_HYDROGENS      STATIC     ATOMS    <user>   **** ""
1 30
ATOM$BLUE        STATIC     ATOMS    COLORGROUP SYSTEM
7 40 41 42 43 44 45 46
ATOM$RED        STATIC     ATOMS    COLORGROUP SYSTEM
1 30
