AV-unprocessed.smi:1715|AV-procd|sdf|6914|dock2
  -GOLD-   22720 8113D 1   1.00000     0.00000
 Structure written by MMmdl.
 41 42  0  0  0  0  0  0  0  0  2 V2000
  152.9429  138.8539  154.7826 C   0  0  0  0  0  0  0  0  0  0  0  0
  151.4318  138.7825  155.0276 C   0  0  2  0  0  0  0  0  0  0  0  0
  150.7455  137.7403  154.1218 C   0  0  0  0  0  0  0  0  0  0  0  0
  149.2758  137.7391  154.3220 N   0  3  1  0  0  0  0  0  0  0  0  0
  148.8445  137.0418  155.5623 C   0  0  0  0  0  0  0  0  0  0  0  0
  148.6517  135.5288  155.3452 C   0  0  0  0  0  0  0  0  0  0  0  0
  148.1218  135.2431  154.0167 N   0  0  0  0  0  0  0  0  0  0  0  0
  146.8961  134.7594  153.7684 C   0  0  0  0  0  0  0  0  0  0  0  0
  146.0794  134.4970  154.6517 O   0  0  0  0  0  0  0  0  0  0  0  0
  146.6843  134.6124  152.4505 N   0  0  0  0  0  0  0  0  0  0  0  0
  145.5049  134.1467  151.8159 C   0  0  0  0  0  0  0  0  0  0  0  0
  144.5852  133.2281  152.3911 C   0  0  0  0  0  0  0  0  0  0  0  0
  143.5764  132.9753  151.5696 N   0  0  0  0  0  0  0  0  0  0  0  0
  143.8422  133.7251  150.4762 N   0  0  0  0  0  0  0  0  0  0  0  0
  145.0057  134.4549  150.5813 C   0  0  0  0  0  0  0  0  0  0  0  0
  148.7300  139.1106  154.1561 C   0  0  0  0  0  0  0  0  0  0  0  0
  149.4821  140.1348  155.0341 C   0  0  2  0  0  0  0  0  0  0  0  0
  149.0168  141.5705  154.7670 C   0  0  0  0  0  0  0  0  0  0  0  0
  150.8761  140.0641  154.7526 O   0  0  0  0  0  0  0  0  0  0  0  0
  143.2266  133.7285  149.6752 H   0  0  0  0  0  0  0  0  0  0  0  0
  153.4195  137.8955  154.9902 H   0  0  0  0  0  0  0  0  0  0  0  0
  153.4068  139.6011  155.4270 H   0  0  0  0  0  0  0  0  0  0  0  0
  153.1643  139.1217  153.7492 H   0  0  0  0  0  0  0  0  0  0  0  0
  151.2671  138.5347  156.0775 H   0  0  0  0  0  0  0  0  0  0  0  0
  150.9463  137.9782  153.0761 H   0  0  0  0  0  0  0  0  0  0  0  0
  151.1561  136.7438  154.2907 H   0  0  0  0  0  0  0  0  0  0  0  0
  149.6115  137.1817  156.3251 H   0  0  0  0  0  0  0  0  0  0  0  0
  147.9353  137.4902  155.9628 H   0  0  0  0  0  0  0  0  0  0  0  0
  149.5992  134.9995  155.4368 H   0  0  0  0  0  0  0  0  0  0  0  0
  147.9889  135.1139  156.1066 H   0  0  0  0  0  0  0  0  0  0  0  0
  148.7298  135.4261  153.2316 H   0  0  0  0  0  0  0  0  0  0  0  0
  147.4409  134.8713  151.8342 H   0  0  0  0  0  0  0  0  0  0  0  0
  144.6162  132.7449  153.3567 H   0  0  0  0  0  0  0  0  0  0  0  0
  145.3539  135.1040  149.7915 H   0  0  0  0  0  0  0  0  0  0  0  0
  148.8388  139.3876  153.1065 H   0  0  0  0  0  0  0  0  0  0  0  0
  147.6610  139.1353  154.3651 H   0  0  0  0  0  0  0  0  0  0  0  0
  149.3205  139.9182  156.0908 H   0  0  0  0  0  0  0  0  0  0  0  0
  147.9542  141.6854  154.9826 H   0  0  0  0  0  0  0  0  0  0  0  0
  149.1800  141.8521  153.7262 H   0  0  0  0  0  0  0  0  0  0  0  0
  149.5610  142.2789  155.3922 H   0  0  0  0  0  0  0  0  0  0  0  0
  148.8987  137.1842  153.5666 H   0  0  0  0  0  0  0  0  0  0  0  0
  1  2  1  0  0  0  0
  1 21  1  0  0  0  0
  1 22  1  0  0  0  0
  1 23  1  0  0  0  0
  2 19  1  0  0  0  0
  2  3  1  0  0  0  0
  2 24  1  0  0  0  0
  3  4  1  0  0  0  0
  3 25  1  0  0  0  0
  3 26  1  0  0  0  0
  4  5  1  0  0  0  0
  4 16  1  0  0  0  0
  4 41  1  0  0  0  0
  5  6  1  0  0  0  0
  5 27  1  0  0  0  0
  5 28  1  0  0  0  0
  6  7  1  0  0  0  0
  6 29  1  0  0  0  0
  6 30  1  0  0  0  0
  7  8  1  0  0  0  0
  7 31  1  0  0  0  0
  8  9  2  0  0  0  0
  8 10  1  0  0  0  0
 10 11  1  0  0  0  0
 10 32  1  0  0  0  0
 11 15  2  0  0  0  0
 11 12  1  0  0  0  0
 12 13  2  0  0  0  0
 12 33  1  0  0  0  0
 13 14  1  0  0  0  0
 14 20  1  0  0  0  0
 14 15  1  0  0  0  0
 15 34  1  0  0  0  0
 16 17  1  0  0  0  0
 16 35  1  0  0  0  0
 16 36  1  0  0  0  0
 17 18  1  0  0  0  0
 17 19  1  0  0  0  0
 17 37  1  0  0  0  0
 18 38  1  0  0  0  0
 18 39  1  0  0  0  0
 18 40  1  0  0  0  0
M  CHG  1   4   1
M  END
> <s_m_source_file>
AV-unprocessed.smi

> <i_m_source_file_index>
1715

> <i_lp_mmshare_version>
43012

> <i_f3d_flags>
0

> <s_epik_input>
W0NIM11bQ0BASF0xW0NIMl1OKFtDSDJdW0NASF0oTzEpW0NIM10pW0NIMl1bQ0gyXVtOSF1DKD1PKVtOSF1jMltjSF1uW25IXVtjSF0y

> <s_epik_cmdline>
J2VwaWtfcHl0aG9uJywgJy1waCcsICc3LjAnLCAnLXRuJywgJzgnLCAnLW1hJywgJzIwMCcsICctbWV0YWxfYmluZGluZycsICctaW1hZScsICc8aW5maWxlLm1hZT4nLCAnLW9tYWUnLCAnPG91dGZpbGUubWFlPic=

> <r_lp_tautomer_probability>
0.5

> <r_epik_Ionization_Penalty>
0.646007

> <r_epik_Ionization_Penalty_Charging>
0.645968

> <r_epik_Ionization_Penalty_Neutral>
3.91671e-05

> <r_epik_State_Penalty>
0.664063

> <r_epik_Charging_Adjusted_Penalty>
1.31003

> <i_epik_Tot_Q>
1

> <i_epik_Tot_abs_Q>
1

> <r_epik_Metal_State_Penalty>
0.664064

> <b_epik_Metal_Only>
0

> <s_lp_Force_Field>
OPLS_2005

> <r_lp_Energy>
19.3555

> <b_lp_Chiralities_Consistent>
1

> <s_lp_Variant>
AV-unprocessed.smi:1715-6

> <Gold.Version>
5.8.1

> <Gold.Id.Protein>
6NUR|6NUR_protein|mol2

> <Gold.PLP.Fitness>
48.8311

> <Gold.PLP.PLP>
-28.4852

> <Gold.PLP.part.hbond>
-4.9776

> <Gold.PLP.part.metal>
0.0000

> <Gold.PLP.part.buried>
-1.5854

> <Gold.PLP.part.nonpolar>
-23.0995

> <Gold.PLP.part.repulsive>
0.3749

> <Gold.PLP.ligand.clash>
0.0000

> <Gold.PLP.ligand.torsion>
0.7437

> <Gold.PLP.Chemscore.Hbond>
5.2922

> <Gold.PLP.Chemscore.CHOScore>
1.9700

> <Gold.PLP.Chemscore.Metal>
0.0000

> <Gold.Chemscore.Hbonds>
donor molecule, donor type, donor heavy atom, donor atom, acceptor molecule, acceptor atom, score
      L1  H     4    41       P1  7948  2.00
      L1  H     7    31       P1  7948  0.98
      L1  H    10    32       P1  7948  0.75
      L1  H    14    20       P1 10186  0.15
      P1  H  7989  7998       L1    19  1.00
      L1  C    12    33       P1 10957  0.83
      L1  C    15    34       P1  7921  1.00

> <Gold.PLP.Chemscore.Internal.Correction>
0.0469

> <Gold.Rescore>
     Score         DG    S(hbond)    S(metal)    S(lipo)     H(rot)  DE(clash)    DE(int)     intcor
     20.75     -22.60       4.17        0.00      63.67       1.67       0.00       1.85       ----

> <Gold.Chemscore.Fitness>
20.7498

> <Gold.Chemscore.DG>
-22.5975

> <Gold.Chemscore.ZeroCoef>
-5.4800

> <Gold.Chemscore.Hbond>
4.1723

> <Gold.Chemscore.Metal>
0.0000

> <Gold.Chemscore.Lipo>
63.6714

> <Gold.Chemscore.Internal_Hbond>
0.0000

> <Gold.Chemscore.DEClash>
0.0000

> <Gold.Chemscore.DEInternal>
1.8476

> <Gold.Chemscore.Rot>
1.6671

> <Gold.Chemscore.Internal.Correction>
   9.000000E+99

> <Gold.Chemscore.Hbonds>
donor molecule, donor type, donor heavy atom, donor atom, acceptor molecule, acceptor atom, score
      L1  H     4    41       P1  7948  0.97
      L1  H     7    31       P1  7948  0.78
      L1  H    10    32       P1  7948  0.58
      L1  H    14    20       P1 10186  0.16
      P1  H  7989  7998       L1    19  0.88

> <Gold.Chemscore.Hbond.Weighted>
-13.9356

> <Gold.Chemscore.Metal.Weighted>
-0.0000

> <Gold.Chemscore.Lipo.Weighted>
-7.4496

> <Gold.Chemscore.Internal_Hbond.Weighted>
0.0000

> <Gold.Chemscore.DEClash.Weighted>
0.0000

> <Gold.Chemscore.DEInternal.Weighted>
1.8476

> <Gold.Chemscore.Rot.Weighted>
4.2677

> <Gold.Chemscore.Internal.Correction.Weighted>
   9.000000E+99

> <Gold.Protein.RotatedTorsions>
[ 6907 6896 6895 6894 ] final  111.03 input  -60.11 | X-H torsion
[ 7974 7965 7964 7962 ] final -159.24 input  175.53 | X-H torsion
[ 8008 7997 7996 7995 ] final  121.45 input   59.86 | X-H torsion
[ 10167 10162 10161 10158 ] final -166.47 input  -65.29 | X-H torsion
[ 10718 10713 10712 10709 ] final -151.51 input   66.30 | X-H torsion
[ 10763 10752 10751 10750 ] final  120.12 input  -60.55 | X-H torsion
[ 11005 11000 10999 10996 ] final   15.80 input  -57.11 | X-H torsion

> <Gold.Protein.ActiveResidues>
 VAL166  LYS551  ARG553  GLY616  TRP617  ASP618  TYR619  PRO620  LYS621  CYS622 
 ASP623  PHE694  ASN695  SER759  ASP760  ASP761  ALA762  ILE779  LEU786  VAL792 
 PHE793  MET794  SER795  GLU796  ALA797  LYS798  CYS799  TRP800  GLU811  SER814 

> <Gold.Protein.RotatedAtoms>
  152.4990  133.8716  159.7300 H   0  0  0  0  0  0  0  0  0  0  0  0  # atno 6907 bound_to 6896
  150.9201  133.6882  159.2841 H   0  0  0  0  0  0  0  0  0  0  0  0  # atno 6908 bound_to 6896
  151.4261  135.1008  159.9681 H   0  0  0  0  0  0  0  0  0  0  0  0  # atno 6909 bound_to 6896
  144.7473  140.3713  143.6075 H   0  0  0  0  0  0  0  0  0  0  0  0  # atno 7974 bound_to 7965
  156.2687  140.2808  156.1311 H   0  0  0  0  0  0  0  0  0  0  0  0  # atno 8008 bound_to 7997
  155.1053  140.0390  157.2726 H   0  0  0  0  0  0  0  0  0  0  0  0  # atno 8009 bound_to 7997
  154.6784  140.2603  155.6940 H   0  0  0  0  0  0  0  0  0  0  0  0  # atno 8010 bound_to 7997
  139.6113  144.0809  152.1844 H   0  0  0  0  0  0  0  0  0  0  0  0  # atno 10167 bound_to 10162
  156.4602  130.8210  151.2440 H   0  0  0  0  0  0  0  0  0  0  0  0  # atno 10718 bound_to 10713
  153.5936  135.3461  155.2920 H   0  0  0  0  0  0  0  0  0  0  0  0  # atno 10763 bound_to 10752
  154.8648  135.4211  154.2489 H   0  0  0  0  0  0  0  0  0  0  0  0  # atno 10764 bound_to 10752
  153.3302  135.7044  153.7026 H   0  0  0  0  0  0  0  0  0  0  0  0  # atno 10765 bound_to 10752
  140.4542  134.1193  155.7707 H   0  0  0  0  0  0  0  0  0  0  0  0  # atno 11005 bound_to 11000
  145.7074  139.1676  143.2558 LP  0  0  0  0  0  0  0  0  0  0  0  0  # atno 17320 bound_to 7965
  146.1371  140.7107  142.9384 LP  0  0  0  0  0  0  0  0  0  0  0  0  # atno 17321 bound_to 7965
  140.0429  144.5993  150.7397 LP  0  0  0  0  0  0  0  0  0  0  0  0  # atno 17342 bound_to 10162
  140.7321  143.2701  151.3915 LP  0  0  0  0  0  0  0  0  0  0  0  0  # atno 17343 bound_to 10162
  157.7498  131.0109  150.3326 LP  0  0  0  0  0  0  0  0  0  0  0  0  # atno 17370 bound_to 10713
  156.3724  130.3866  149.7165 LP  0  0  0  0  0  0  0  0  0  0  0  0  # atno 17371 bound_to 10713
  141.1650  133.8720  157.1739 LP  0  0  0  0  0  0  0  0  0  0  0  0  # atno 17394 bound_to 11000
  139.9987  135.0036  157.0141 LP  0  0  0  0  0  0  0  0  0  0  0  0  # atno 17395 bound_to 11000

$$$$
