AV-unprocessed.smi:1433|AV-procd|sdf|5844|dock7
  -GOLD-   22720 5513D 1   1.00000     0.00000
 Structure written by MMmdl.
 45 46  0  0  0  0  0  0  0  0  2 V2000
  148.3521  141.7367  153.9970 C   0  0  0  0  0  0  0  0  0  0  0  0
  148.8197  140.3671  154.5015 C   0  0  1  0  0  0  0  0  0  0  0  0
  148.5338  139.2466  153.4762 C   0  0  0  0  0  0  0  0  0  0  0  0
  149.0915  137.9388  153.9184 N   0  3  2  0  0  0  0  0  0  0  0  0
  148.2646  137.2312  154.9551 C   0  0  1  0  0  0  0  0  0  0  0  0
  146.7908  137.1568  154.4929 C   0  0  0  0  0  0  0  0  0  0  0  0
  148.7965  135.8146  155.3072 C   0  0  0  0  0  0  0  0  0  0  0  0
  148.6652  134.8656  154.2043 N   0  0  0  0  0  0  0  0  0  0  0  0
  148.2672  133.5873  154.3171 C   0  0  0  0  0  0  0  0  0  0  0  0
  147.9987  133.0556  155.3937 O   0  0  0  0  0  0  0  0  0  0  0  0
  148.1791  132.7732  153.0228 C   0  0  0  0  0  0  0  0  0  0  0  0
  146.9766  133.0787  152.2657 N   0  0  0  0  0  0  0  0  0  0  0  0
  146.5141  134.3112  151.8534 C   0  0  0  0  0  0  0  0  0  0  0  0
  145.3464  134.1020  151.1770 C   0  0  0  0  0  0  0  0  0  0  0  0
  145.1763  132.6901  151.2243 C   0  0  0  0  0  0  0  0  0  0  0  0
  146.1535  132.0806  151.8756 N   0  0  0  0  0  0  0  0  0  0  0  0
  150.5404  138.1184  154.2084 C   0  0  0  0  0  0  0  0  0  0  0  0
  150.7653  139.2305  155.2526 C   0  0  1  0  0  0  0  0  0  0  0  0
  152.2529  139.4621  155.5381 C   0  0  0  0  0  0  0  0  0  0  0  0
  150.2207  140.4430  154.7432 O   0  0  0  0  0  0  0  0  0  0  0  0
  147.2792  141.7384  153.8028 H   0  0  0  0  0  0  0  0  0  0  0  0
  148.8598  142.0121  153.0720 H   0  0  0  0  0  0  0  0  0  0  0  0
  148.5569  142.5143  154.7332 H   0  0  0  0  0  0  0  0  0  0  0  0
  148.3083  140.1620  155.4427 H   0  0  0  0  0  0  0  0  0  0  0  0
  147.4676  139.1876  153.2686 H   0  0  0  0  0  0  0  0  0  0  0  0
  149.0019  139.5048  152.5251 H   0  0  0  0  0  0  0  0  0  0  0  0
  148.2967  137.8139  155.8754 H   0  0  0  0  0  0  0  0  0  0  0  0
  146.1494  136.7180  155.2566 H   0  0  0  0  0  0  0  0  0  0  0  0
  146.6929  136.5489  153.5930 H   0  0  0  0  0  0  0  0  0  0  0  0
  146.3624  138.1335  154.2778 H   0  0  0  0  0  0  0  0  0  0  0  0
  149.8296  135.8727  155.6546 H   0  0  0  0  0  0  0  0  0  0  0  0
  148.2194  135.3793  156.1223 H   0  0  0  0  0  0  0  0  0  0  0  0
  148.8689  135.2130  153.2782 H   0  0  0  0  0  0  0  0  0  0  0  0
  149.0518  132.9826  152.4031 H   0  0  0  0  0  0  0  0  0  0  0  0
  148.1943  131.7055  153.2474 H   0  0  0  0  0  0  0  0  0  0  0  0
  147.0475  135.2240  152.0747 H   0  0  0  0  0  0  0  0  0  0  0  0
  144.7112  134.8440  150.7164 H   0  0  0  0  0  0  0  0  0  0  0  0
  144.3776  132.0944  150.8075 H   0  0  0  0  0  0  0  0  0  0  0  0
  151.0269  137.1874  154.4943 H   0  0  0  0  0  0  0  0  0  0  0  0
  151.0313  138.4076  153.2777 H   0  0  0  0  0  0  0  0  0  0  0  0
  150.2691  138.9764  156.1907 H   0  0  0  0  0  0  0  0  0  0  0  0
  152.7204  138.5640  155.9424 H   0  0  0  0  0  0  0  0  0  0  0  0
  152.3898  140.2627  156.2654 H   0  0  0  0  0  0  0  0  0  0  0  0
  152.7908  139.7408  154.6316 H   0  0  0  0  0  0  0  0  0  0  0  0
  149.0588  137.3296  153.1132 H   0  0  0  0  0  0  0  0  0  0  0  0
  1  2  1  0  0  0  0
  1 21  1  0  0  0  0
  1 22  1  0  0  0  0
  1 23  1  0  0  0  0
  2 20  1  0  0  0  0
  2  3  1  0  0  0  0
  2 24  1  0  0  0  0
  3  4  1  0  0  0  0
  3 25  1  0  0  0  0
  3 26  1  0  0  0  0
  4  5  1  0  0  0  0
  4 17  1  0  0  0  0
  4 45  1  0  0  0  0
  5  6  1  0  0  0  0
  5  7  1  0  0  0  0
  5 27  1  0  0  0  0
  6 28  1  0  0  0  0
  6 29  1  0  0  0  0
  6 30  1  0  0  0  0
  7  8  1  0  0  0  0
  7 31  1  0  0  0  0
  7 32  1  0  0  0  0
  8  9  1  0  0  0  0
  8 33  1  0  0  0  0
  9 10  2  0  0  0  0
  9 11  1  0  0  0  0
 11 12  1  0  0  0  0
 11 34  1  0  0  0  0
 11 35  1  0  0  0  0
 12 16  1  0  0  0  0
 12 13  1  0  0  0  0
 13 14  2  0  0  0  0
 13 36  1  0  0  0  0
 14 15  1  0  0  0  0
 14 37  1  0  0  0  0
 15 16  2  0  0  0  0
 15 38  1  0  0  0  0
 17 18  1  0  0  0  0
 17 39  1  0  0  0  0
 17 40  1  0  0  0  0
 18 19  1  0  0  0  0
 18 20  1  0  0  0  0
 18 41  1  0  0  0  0
 19 42  1  0  0  0  0
 19 43  1  0  0  0  0
 19 44  1  0  0  0  0
M  CHG  1   4   1
M  END
> <s_m_source_file>
AV-unprocessed.smi

> <i_m_source_file_index>
1433

> <i_lp_mmshare_version>
43012

> <i_f3d_flags>
0

> <s_epik_input>
W0NIM11bQ0BASF0xW0NIMl1OKFtDSDJdW0NASF0oTzEpW0NIM10pW0NASF0oW0NIM10pW0NIMl1bTkhdQyg9TylbQ0gyXW4yW2NIXVtjSF1bY0hdbjI=

> <s_epik_cmdline>
J2VwaWtfcHl0aG9uJywgJy1waCcsICc3LjAnLCAnLXRuJywgJzgnLCAnLW1hJywgJzIwMCcsICctbWV0YWxfYmluZGluZycsICctaW1hZScsICc8aW5maWxlLm1hZT4nLCAnLW9tYWUnLCAnPG91dGZpbGUubWFlPic=

> <r_lp_tautomer_probability>
1

> <r_epik_Ionization_Penalty>
0.748405

> <r_epik_Ionization_Penalty_Charging>
0.748396

> <r_epik_Ionization_Penalty_Neutral>
8.54426e-06

> <r_epik_State_Penalty>
0.775162

> <r_epik_Charging_Adjusted_Penalty>
1.52356

> <i_epik_Tot_Q>
1

> <i_epik_Tot_abs_Q>
1

> <r_epik_Metal_State_Penalty>
0.775167

> <b_epik_Metal_Only>
0

> <s_lp_Force_Field>
OPLS_2005

> <r_lp_Energy>
22.8293

> <b_lp_Chiralities_Consistent>
1

> <s_lp_Variant>
AV-unprocessed.smi:1433-10

> <Gold.Version>
5.8.1

> <Gold.Id.Protein>
6NUR|6NUR_protein|mol2

> <Gold.PLP.Fitness>
47.0555

> <Gold.PLP.PLP>
-32.9081

> <Gold.PLP.part.hbond>
-3.0000

> <Gold.PLP.part.metal>
0.0000

> <Gold.PLP.part.buried>
-0.4010

> <Gold.PLP.part.nonpolar>
-29.6931

> <Gold.PLP.part.repulsive>
0.2091

> <Gold.PLP.ligand.clash>
0.0000

> <Gold.PLP.ligand.torsion>
0.4659

> <Gold.PLP.Chemscore.Hbond>
4.0000

> <Gold.PLP.Chemscore.CHOScore>
1.0000

> <Gold.PLP.Chemscore.Metal>
0.0000

> <Gold.Chemscore.Hbonds>
donor molecule, donor type, donor heavy atom, donor atom, acceptor molecule, acceptor atom, score
      L1  H     4    45       P1  7948  2.00
      L1  H     8    33       P1  7948  1.00
      P1  H  7989  7998       L1    20  0.93
      L1  C    13    36       P1  7948  1.00

> <Gold.PLP.Chemscore.Internal.Correction>
0.0791

> <Gold.Rescore>
     Score         DG    S(hbond)    S(metal)    S(lipo)     H(rot)  DE(clash)    DE(int)     intcor
     14.98     -17.36       2.47        0.00      72.00       1.87       1.51       0.86       ----

> <Gold.Chemscore.Fitness>
14.9835

> <Gold.Chemscore.DG>
-17.3624

> <Gold.Chemscore.ZeroCoef>
-5.4800

> <Gold.Chemscore.Hbond>
2.4653

> <Gold.Chemscore.Metal>
0.0000

> <Gold.Chemscore.Lipo>
72.0040

> <Gold.Chemscore.Internal_Hbond>
0.0000

> <Gold.Chemscore.DEClash>
1.5141

> <Gold.Chemscore.DEInternal>
0.8647

> <Gold.Chemscore.Rot>
1.8657

> <Gold.Chemscore.Internal.Correction>
   9.000000E+99

> <Gold.Chemscore.Hbonds>
donor molecule, donor type, donor heavy atom, donor atom, acceptor molecule, acceptor atom, score
      L1  H     4    45       P1  7948  1.00
      L1  H     8    33       P1  7948  0.55
      P1  H  7989  7998       L1    20  0.20

> <Gold.Chemscore.Hbond.Weighted>
-8.2341

> <Gold.Chemscore.Metal.Weighted>
-0.0000

> <Gold.Chemscore.Lipo.Weighted>
-8.4245

> <Gold.Chemscore.Internal_Hbond.Weighted>
0.0000

> <Gold.Chemscore.DEClash.Weighted>
1.5141

> <Gold.Chemscore.DEInternal.Weighted>
0.8647

> <Gold.Chemscore.Rot.Weighted>
4.7761

> <Gold.Chemscore.Internal.Correction.Weighted>
   9.000000E+99

> <Gold.Protein.RotatedTorsions>
[ 6907 6896 6895 6894 ] final  -24.55 input  -60.11 | X-H torsion
[ 7974 7965 7964 7962 ] final  133.93 input  175.53 | X-H torsion
[ 8008 7997 7996 7995 ] final  109.41 input   59.86 | X-H torsion
[ 10167 10162 10161 10158 ] final  113.66 input  -65.29 | X-H torsion
[ 10718 10713 10712 10709 ] final   17.74 input   66.30 | X-H torsion
[ 10763 10752 10751 10750 ] final -160.68 input  -60.55 | X-H torsion
[ 11005 11000 10999 10996 ] final  -19.21 input  -57.11 | X-H torsion

> <Gold.Protein.ActiveResidues>
 VAL166  LYS551  ARG553  GLY616  TRP617  ASP618  TYR619  PRO620  LYS621  CYS622 
 ASP623  PHE694  ASN695  SER759  ASP760  ASP761  ALA762  ILE779  LEU786  VAL792 
 PHE793  MET794  SER795  GLU796  ALA797  LYS798  CYS799  TRP800  GLU811  SER814 

> <Gold.Protein.RotatedAtoms>
  151.1880  135.0390  159.8820 H   0  0  0  0  0  0  0  0  0  0  0  0  # atno 6907 bound_to 6896
  152.5441  134.0988  159.8319 H   0  0  0  0  0  0  0  0  0  0  0  0  # atno 6908 bound_to 6896
  151.1113  133.5123  159.2638 H   0  0  0  0  0  0  0  0  0  0  0  0  # atno 6909 bound_to 6896
  144.9815  139.4499  143.5384 H   0  0  0  0  0  0  0  0  0  0  0  0  # atno 7974 bound_to 7965
  156.1977  140.3058  155.9461 H   0  0  0  0  0  0  0  0  0  0  0  0  # atno 8008 bound_to 7997
  155.3028  140.0447  157.3047 H   0  0  0  0  0  0  0  0  0  0  0  0  # atno 8009 bound_to 7997
  154.5530  140.2297  155.8463 H   0  0  0  0  0  0  0  0  0  0  0  0  # atno 8010 bound_to 7997
  139.6445  144.7126  151.2170 H   0  0  0  0  0  0  0  0  0  0  0  0  # atno 10167 bound_to 10162
  157.0864  130.6409  149.5838 H   0  0  0  0  0  0  0  0  0  0  0  0  # atno 10718 bound_to 10713
  154.7369  135.3059  154.8795 H   0  0  0  0  0  0  0  0  0  0  0  0  # atno 10763 bound_to 10752
  153.9621  135.6751  153.4749 H   0  0  0  0  0  0  0  0  0  0  0  0  # atno 10764 bound_to 10752
  153.0971  135.4930  154.8722 H   0  0  0  0  0  0  0  0  0  0  0  0  # atno 10765 bound_to 10752
  140.8344  133.7973  155.9793 H   0  0  0  0  0  0  0  0  0  0  0  0  # atno 11005 bound_to 11000
  146.3409  139.9091  142.8783 LP  0  0  0  0  0  0  0  0  0  0  0  0  # atno 17320 bound_to 7965
  145.2413  141.0010  143.3934 LP  0  0  0  0  0  0  0  0  0  0  0  0  # atno 17321 bound_to 7965
  140.7508  143.6254  150.8473 LP  0  0  0  0  0  0  0  0  0  0  0  0  # atno 17342 bound_to 10162
  139.9895  143.5862  152.2915 LP  0  0  0  0  0  0  0  0  0  0  0  0  # atno 17343 bound_to 10162
  155.9909  130.4962  150.7279 LP  0  0  0  0  0  0  0  0  0  0  0  0  # atno 17370 bound_to 10713
  157.4757  131.0897  151.0592 LP  0  0  0  0  0  0  0  0  0  0  0  0  # atno 17371 bound_to 10713
  140.8963  134.2433  157.5067 LP  0  0  0  0  0  0  0  0  0  0  0  0  # atno 17394 bound_to 11000
  139.8704  134.9685  156.4635 LP  0  0  0  0  0  0  0  0  0  0  0  0  # atno 17395 bound_to 11000

$$$$
