AV-unprocessed.smi:2482|AV-procd|sdf|9784|dock1
  -GOLD-   2272013423D 1   1.00000     0.00000
 Structure written by MMmdl.
 34 35  0  0  0  0  0  0  0  0  3 V2000
  153.8552  141.1522  160.2850 C   0  0  0  0  0  0  0  0  0  0  0  0
  152.8942  141.6726  159.2323 C   0  0  0  0  0  0  0  0  0  0  0  0
  152.8841  143.0126  159.0648 N   0  0  0  0  0  0  0  0  0  0  0  0
  152.0498  143.5230  158.1378 C   0  0  0  0  0  0  0  0  0  0  0  0
  151.1963  142.7312  157.3467 C   0  0  0  0  0  0  0  0  0  0  0  0
  151.1898  141.3288  157.5164 C   0  0  0  0  0  0  0  0  0  0  0  0
  150.3852  140.5588  156.7653 N   0  5  0  0  0  0  0  0  0  0  0  0
  150.7173  140.2873  155.4795 C   0  0  0  0  0  0  0  0  0  0  0  0
  151.7682  139.8161  155.0401 O   0  0  0  0  0  0  0  0  0  0  0  0
  149.5746  140.6512  154.5195 C   0  0  1  0  0  0  0  0  0  0  0  0
  148.8054  139.4159  153.9988 C   0  0  0  0  0  0  0  0  0  0  0  0
  147.6842  139.8406  153.1304 N   0  3  1  0  0  0  0  0  0  0  0  0
  146.9428  138.6981  152.5564 C   0  0  0  0  0  0  0  0  0  0  0  0
  146.8033  140.7970  153.8385 C   0  0  0  0  0  0  0  0  0  0  0  0
  147.6247  141.9814  154.3740 C   0  0  0  0  0  0  0  0  0  0  0  0
  148.6647  141.4999  155.2151 O   0  0  0  0  0  0  0  0  0  0  0  0
  152.0745  140.7912  158.4873 C   0  0  0  0  0  0  0  0  0  0  0  0
  152.1575  139.0812  158.7642 Cl  0  0  0  0  0  0  0  0  0  0  0  0
  153.3125  140.6053  161.0564 H   0  0  0  0  0  0  0  0  0  0  0  0
  154.3998  141.9644  160.7681 H   0  0  0  0  0  0  0  0  0  0  0  0
  154.5842  140.4796  159.8326 H   0  0  0  0  0  0  0  0  0  0  0  0
  152.0625  144.5965  158.0215 H   0  0  0  0  0  0  0  0  0  0  0  0
  150.5499  143.1994  156.6187 H   0  0  0  0  0  0  0  0  0  0  0  0
  149.9921  141.1917  153.6663 H   0  0  0  0  0  0  0  0  0  0  0  0
  149.4773  138.7680  153.4335 H   0  0  0  0  0  0  0  0  0  0  0  0
  148.4108  138.8268  154.8289 H   0  0  0  0  0  0  0  0  0  0  0  0
  146.4734  138.1021  153.3403 H   0  0  0  0  0  0  0  0  0  0  0  0
  147.6133  138.0512  151.9896 H   0  0  0  0  0  0  0  0  0  0  0  0
  146.1637  139.0472  151.8783 H   0  0  0  0  0  0  0  0  0  0  0  0
  146.0290  141.1577  153.1605 H   0  0  0  0  0  0  0  0  0  0  0  0
  146.2989  140.2905  154.6629 H   0  0  0  0  0  0  0  0  0  0  0  0
  148.0446  142.5680  153.5553 H   0  0  0  0  0  0  0  0  0  0  0  0
  146.9863  142.6513  154.9504 H   0  0  0  0  0  0  0  0  0  0  0  0
  148.0947  140.3419  152.3554 H   0  0  0  0  0  0  0  0  0  0  0  0
  1  2  1  0  0  0  0
  1 19  1  0  0  0  0
  1 20  1  0  0  0  0
  1 21  1  0  0  0  0
  2 17  1  0  0  0  0
  2  3  2  0  0  0  0
  3  4  1  0  0  0  0
  4  5  2  0  0  0  0
  4 22  1  0  0  0  0
  5  6  1  0  0  0  0
  5 23  1  0  0  0  0
  6  7  1  0  0  0  0
  6 17  2  0  0  0  0
  7  8  1  0  0  0  0
  8  9  2  0  0  0  0
  8 10  1  0  0  0  0
 10 16  1  0  0  0  0
 10 11  1  0  0  0  0
 10 24  1  0  0  0  0
 11 12  1  0  0  0  0
 11 25  1  0  0  0  0
 11 26  1  0  0  0  0
 12 13  1  0  0  0  0
 12 14  1  0  0  0  0
 12 34  1  0  0  0  0
 13 27  1  0  0  0  0
 13 28  1  0  0  0  0
 13 29  1  0  0  0  0
 14 15  1  0  0  0  0
 14 30  1  0  0  0  0
 14 31  1  0  0  0  0
 15 16  1  0  0  0  0
 15 32  1  0  0  0  0
 15 33  1  0  0  0  0
 17 18  1  0  0  0  0
M  CHG  1   7  -1
M  CHG  1  12   1
M  END
> <s_m_source_file>
AV-unprocessed.smi

> <i_m_source_file_index>
2482

> <i_lp_mmshare_version>
43012

> <i_f3d_flags>
0

> <s_epik_input>
W0NIM11jMW5bY0hdW2NIXWMoYzFDbClbTkhdQyg9TylbQ0BASF0yW0NIMl1OKFtDSDNdKVtDSDJdW0NIMl1PMg==

> <s_epik_cmdline>
J2VwaWtfcHl0aG9uJywgJy1waCcsICc3LjAnLCAnLXRuJywgJzgnLCAnLW1hJywgJzIwMCcsICctbWV0YWxfYmluZGluZycsICctaW1hZScsICc8aW5maWxlLm1hZT4nLCAnLW9tYWUnLCAnPG91dGZpbGUubWFlPic=

> <r_epik_Ionization_Penalty>
6.9249

> <r_epik_Ionization_Penalty_Charging>
6.74596

> <r_epik_Ionization_Penalty_Neutral>
0.178941

> <r_epik_State_Penalty>
6.78185

> <r_epik_Charging_Adjusted_Penalty>
13.5278

> <i_epik_Tot_Q>
0

> <i_epik_Tot_abs_Q>
2

> <r_epik_Metal_State_Penalty>
2.70608

> <b_epik_Metal_Only>
1

> <s_lp_Force_Field>
OPLS_2005

> <r_lp_Energy>
14.2833

> <b_lp_Chiralities_Consistent>
1

> <s_lp_Variant>
AV-unprocessed.smi:2482-10

> <Gold.Version>
5.8.1

> <Gold.Id.Protein>
6NUR|6NUR_protein|mol2

> <Gold.PLP.Fitness>
40.2393

> <Gold.PLP.PLP>
-38.3707

> <Gold.PLP.part.hbond>
-2.0000

> <Gold.PLP.part.metal>
0.0000

> <Gold.PLP.part.buried>
-3.3422

> <Gold.PLP.part.nonpolar>
-34.1828

> <Gold.PLP.part.repulsive>
0.4321

> <Gold.PLP.ligand.clash>
0.0094

> <Gold.PLP.ligand.torsion>
1.6053

> <Gold.PLP.Chemscore.Hbond>
1.5280

> <Gold.PLP.Chemscore.CHOScore>
0.0000

> <Gold.PLP.Chemscore.Metal>
0.0000

> <Gold.Chemscore.Hbonds>
donor molecule, donor type, donor heavy atom, donor atom, acceptor molecule, acceptor atom, score
      L1  H    12    34       P1  7957  0.72
      P1  H  7989  7998       L1     9  0.60

> <Gold.PLP.Chemscore.Internal.Correction>
0.5046

> <Gold.Rescore>
     Score         DG    S(hbond)    S(metal)    S(lipo)     H(rot)  DE(clash)    DE(int)     intcor
     15.97     -17.68       0.96        0.00      98.79       1.00       0.28       1.44       ----

> <Gold.Chemscore.Fitness>
15.9678

> <Gold.Chemscore.DG>
-17.6827

> <Gold.Chemscore.ZeroCoef>
-5.4800

> <Gold.Chemscore.Hbond>
0.9593

> <Gold.Chemscore.Metal>
0.0000

> <Gold.Chemscore.Lipo>
98.7927

> <Gold.Chemscore.Internal_Hbond>
0.0000

> <Gold.Chemscore.DEClash>
0.2793

> <Gold.Chemscore.DEInternal>
1.4357

> <Gold.Chemscore.Rot>
1.0000

> <Gold.Chemscore.Internal.Correction>
   9.000000E+99

> <Gold.Chemscore.Hbonds>
donor molecule, donor type, donor heavy atom, donor atom, acceptor molecule, acceptor atom, score
      L1  H    12    34       P1  7957  0.71
      P1  H  7989  7998       L1     9  0.04

> <Gold.Chemscore.Hbond.Weighted>
-3.2040

> <Gold.Chemscore.Metal.Weighted>
-0.0000

> <Gold.Chemscore.Lipo.Weighted>
-11.5587

> <Gold.Chemscore.Internal_Hbond.Weighted>
0.0000

> <Gold.Chemscore.DEClash.Weighted>
0.2793

> <Gold.Chemscore.DEInternal.Weighted>
1.4357

> <Gold.Chemscore.Rot.Weighted>
2.5600

> <Gold.Chemscore.Internal.Correction.Weighted>
   9.000000E+99

> <Gold.Protein.RotatedTorsions>
[ 6907 6896 6895 6894 ] final   -0.44 input  -60.11 | X-H torsion
[ 7974 7965 7964 7962 ] final  -29.63 input  175.53 | X-H torsion
[ 8008 7997 7996 7995 ] final -118.50 input   59.86 | X-H torsion
[ 10167 10162 10161 10158 ] final  -45.58 input  -65.29 | X-H torsion
[ 10718 10713 10712 10709 ] final   40.13 input   66.30 | X-H torsion
[ 10763 10752 10751 10750 ] final  109.33 input  -60.55 | X-H torsion
[ 11005 11000 10999 10996 ] final -143.82 input  -57.11 | X-H torsion

> <Gold.Protein.ActiveResidues>
 VAL166  LYS551  ARG553  GLY616  TRP617  ASP618  TYR619  PRO620  LYS621  CYS622 
 ASP623  PHE694  ASN695  SER759  ASP760  ASP761  ALA762  ILE779  LEU786  VAL792 
 PHE793  MET794  SER795  GLU796  ALA797  LYS798  CYS799  TRP800  GLU811  SER814 

> <Gold.Protein.RotatedAtoms>
  151.5622  135.1065  159.9975 H   0  0  0  0  0  0  0  0  0  0  0  0  # atno 6907 bound_to 6896
  152.4441  133.7499  159.6699 H   0  0  0  0  0  0  0  0  0  0  0  0  # atno 6908 bound_to 6896
  150.8353  133.7956  159.3106 H   0  0  0  0  0  0  0  0  0  0  0  0  # atno 6909 bound_to 6896
  146.1202  140.5437  142.8738 H   0  0  0  0  0  0  0  0  0  0  0  0  # atno 7974 bound_to 7965
  155.1007  140.0396  157.2696 H   0  0  0  0  0  0  0  0  0  0  0  0  # atno 8008 bound_to 7997
  154.6760  140.2623  155.6932 H   0  0  0  0  0  0  0  0  0  0  0  0  # atno 8009 bound_to 7997
  156.2677  140.2788  156.1287 H   0  0  0  0  0  0  0  0  0  0  0  0  # atno 8010 bound_to 7997
  140.6852  143.2872  151.3659 H   0  0  0  0  0  0  0  0  0  0  0  0  # atno 10167 bound_to 10162
  157.3786  130.7741  149.7175 H   0  0  0  0  0  0  0  0  0  0  0  0  # atno 10718 bound_to 10713
  153.4332  135.3783  155.2183 H   0  0  0  0  0  0  0  0  0  0  0  0  # atno 10763 bound_to 10752
  154.8751  135.3845  154.4243 H   0  0  0  0  0  0  0  0  0  0  0  0  # atno 10764 bound_to 10752
  153.4778  135.7088  153.6019 H   0  0  0  0  0  0  0  0  0  0  0  0  # atno 10765 bound_to 10752
  140.8086  134.2771  157.4950 H   0  0  0  0  0  0  0  0  0  0  0  0  # atno 11005 bound_to 11000
  144.7590  140.5377  143.6748 LP  0  0  0  0  0  0  0  0  0  0  0  0  # atno 17320 bound_to 7965
  145.5481  139.1476  143.3409 LP  0  0  0  0  0  0  0  0  0  0  0  0  # atno 17321 bound_to 7965
  139.6205  144.0916  152.2387 LP  0  0  0  0  0  0  0  0  0  0  0  0  # atno 17342 bound_to 10162
  140.0359  144.6045  150.7450 LP  0  0  0  0  0  0  0  0  0  0  0  0  # atno 17343 bound_to 10162
  155.9771  130.4067  150.3736 LP  0  0  0  0  0  0  0  0  0  0  0  0  # atno 17370 bound_to 10713
  157.1837  131.0398  151.2735 LP  0  0  0  0  0  0  0  0  0  0  0  0  # atno 17371 bound_to 10713
  139.8716  134.9470  156.3956 LP  0  0  0  0  0  0  0  0  0  0  0  0  # atno 17394 bound_to 11000
  140.9221  133.7638  155.9919 LP  0  0  0  0  0  0  0  0  0  0  0  0  # atno 17395 bound_to 11000

$$$$
