AV-unprocessed.smi:3024|AV-procd|sdf|11504|dock3
  -GOLD-   2272016443D 1   1.00000     0.00000
 Structure written by MMmdl.
 31 32  0  0  0  0  0  0  0  0  1 V2000
  145.4010  138.2133  153.5372 O   0  0  0  0  0  0  0  0  0  0  0  0
  146.3991  137.6325  153.1119 C   0  0  0  0  0  0  0  0  0  0  0  0
  146.3611  136.4157  152.5517 N   0  0  0  0  0  0  0  0  0  0  0  0
  145.1579  135.6105  152.3754 C   0  0  0  0  0  0  0  0  0  0  0  0
  145.2119  134.7859  151.0784 C   0  0  1  0  0  0  0  0  0  0  0  0
  146.3464  133.7620  151.0410 C   0  0  0  0  0  0  0  0  0  0  0  0
  145.8153  132.6619  150.1323 C   0  0  0  0  0  0  0  0  0  0  0  0
  144.3394  133.0164  149.9347 C   0  0  0  0  0  0  0  0  0  0  0  0
  144.0587  133.9695  150.9484 O   0  0  0  0  0  0  0  0  0  0  0  0
  147.6568  138.1048  153.1558 N   0  0  0  0  0  0  0  0  0  0  0  0
  148.1299  139.3421  153.6720 C   0  0  0  0  0  0  0  0  0  0  0  0
  147.3850  140.5470  153.6822 C   0  0  0  0  0  0  0  0  0  0  0  0
  147.9789  141.7085  154.2127 C   0  0  0  0  0  0  0  0  0  0  0  0
  149.2953  141.6266  154.7062 C   0  0  0  0  0  0  0  0  0  0  0  0
  150.0210  140.4890  154.6919 N   0  0  0  0  0  0  0  0  0  0  0  0
  149.4450  139.3795  154.1823 C   0  0  0  0  0  0  0  0  0  0  0  0
  147.2292  136.0081  152.2369 H   0  0  0  0  0  0  0  0  0  0  0  0
  145.0249  134.9529  153.2361 H   0  0  0  0  0  0  0  0  0  0  0  0
  144.2968  136.2792  152.3600 H   0  0  0  0  0  0  0  0  0  0  0  0
  145.2836  135.4399  150.2071 H   0  0  0  0  0  0  0  0  0  0  0  0
  147.2820  134.1929  150.6831 H   0  0  0  0  0  0  0  0  0  0  0  0
  146.5255  133.3549  152.0373 H   0  0  0  0  0  0  0  0  0  0  0  0
  146.3409  132.6318  149.1773 H   0  0  0  0  0  0  0  0  0  0  0  0
  145.9276  131.6872  150.6083 H   0  0  0  0  0  0  0  0  0  0  0  0
  144.1825  133.4769  148.9580 H   0  0  0  0  0  0  0  0  0  0  0  0
  143.6836  132.1490  150.0113 H   0  0  0  0  0  0  0  0  0  0  0  0
  148.3736  137.4771  152.8224 H   0  0  0  0  0  0  0  0  0  0  0  0
  146.3838  140.6114  153.2868 H   0  0  0  0  0  0  0  0  0  0  0  0
  147.4381  142.6431  154.2364 H   0  0  0  0  0  0  0  0  0  0  0  0
  149.7802  142.4991  155.1180 H   0  0  0  0  0  0  0  0  0  0  0  0
  150.0565  138.4888  154.1858 H   0  0  0  0  0  0  0  0  0  0  0  0
  1  2  2  0  0  0  0
  2  3  1  0  0  0  0
  2 10  1  0  0  0  0
  3  4  1  0  0  0  0
  3 17  1  0  0  0  0
  4  5  1  0  0  0  0
  4 18  1  0  0  0  0
  4 19  1  0  0  0  0
  5  9  1  0  0  0  0
  5  6  1  0  0  0  0
  5 20  1  0  0  0  0
  6  7  1  0  0  0  0
  6 21  1  0  0  0  0
  6 22  1  0  0  0  0
  7  8  1  0  0  0  0
  7 23  1  0  0  0  0
  7 24  1  0  0  0  0
  8  9  1  0  0  0  0
  8 25  1  0  0  0  0
  8 26  1  0  0  0  0
 10 11  1  0  0  0  0
 10 27  1  0  0  0  0
 11 16  1  0  0  0  0
 11 12  2  0  0  0  0
 12 13  1  0  0  0  0
 12 28  1  0  0  0  0
 13 14  2  0  0  0  0
 13 29  1  0  0  0  0
 14 15  1  0  0  0  0
 14 30  1  0  0  0  0
 15 16  2  0  0  0  0
 16 31  1  0  0  0  0
M  END
> <s_m_source_file>
AV-unprocessed.smi

> <i_m_source_file_index>
3024

> <i_lp_mmshare_version>
43012

> <i_f3d_flags>
0

> <s_epik_input>
W2NIXTFuW2NIXVtjSF1bY0hdYzFbTkhdQyg9TylbTkhdW0NIMl1bQ0BASF0yW0NIMl1bQ0gyXVtDSDJdTzI=

> <s_epik_cmdline>
J2VwaWtfcHl0aG9uJywgJy1waCcsICc3LjAnLCAnLXRuJywgJzgnLCAnLW1hJywgJzIwMCcsICctbWV0YWxfYmluZGluZycsICctaW1hZScsICc8aW5maWxlLm1hZT4nLCAnLW9tYWUnLCAnPG91dGZpbGUubWFlPic=

> <r_epik_Ionization_Penalty>
0.00471982

> <r_epik_Ionization_Penalty_Charging>
0

> <r_epik_Ionization_Penalty_Neutral>
0.00471982

> <r_epik_State_Penalty>
0.00339234

> <r_epik_Charging_Adjusted_Penalty>
0.00339234

> <i_epik_Tot_Q>
0

> <i_epik_Tot_abs_Q>
0

> <r_epik_Metal_State_Penalty>
-0

> <b_epik_Metal_Only>
0

> <s_lp_Force_Field>
OPLS_2005

> <r_lp_Energy>
19.1473

> <b_lp_Chiralities_Consistent>
1

> <s_lp_Variant>
AV-unprocessed.smi:3024-2

> <Gold.Version>
5.8.1

> <Gold.Id.Protein>
6NUR|6NUR_protein|mol2

> <Gold.PLP.Fitness>
39.0056

> <Gold.PLP.PLP>
-28.0687

> <Gold.PLP.part.hbond>
-3.0000

> <Gold.PLP.part.metal>
0.0000

> <Gold.PLP.part.buried>
-1.3060

> <Gold.PLP.part.nonpolar>
-24.4353

> <Gold.PLP.part.repulsive>
1.1126

> <Gold.PLP.ligand.clash>
0.0000

> <Gold.PLP.ligand.torsion>
0.3678

> <Gold.PLP.Chemscore.Hbond>
2.8880

> <Gold.PLP.Chemscore.CHOScore>
1.0000

> <Gold.PLP.Chemscore.Metal>
0.0000

> <Gold.Chemscore.Hbonds>
donor molecule, donor type, donor heavy atom, donor atom, acceptor molecule, acceptor atom, score
      L1  H     3    17       P1  7948  0.98
      L1  H    10    27       P1  7948  1.00
      P1  H  7989  7998       L1    15  0.90
      L1  C    14    30       P1  8028  1.00

> <Gold.PLP.Chemscore.Internal.Correction>
0.0084

> <Gold.Rescore>
     Score         DG    S(hbond)    S(metal)    S(lipo)     H(rot)  DE(clash)    DE(int)     intcor
     16.76     -18.13       2.32        0.00      69.02       1.24       0.14       1.23       ----

> <Gold.Chemscore.Fitness>
16.7594

> <Gold.Chemscore.DG>
-18.1268

> <Gold.Chemscore.ZeroCoef>
-5.4800

> <Gold.Chemscore.Hbond>
2.3184

> <Gold.Chemscore.Metal>
0.0000

> <Gold.Chemscore.Lipo>
69.0190

> <Gold.Chemscore.Internal_Hbond>
0.0000

> <Gold.Chemscore.DEClash>
0.1410

> <Gold.Chemscore.DEInternal>
1.2265

> <Gold.Chemscore.Rot>
1.2390

> <Gold.Chemscore.Internal.Correction>
   9.000000E+99

> <Gold.Chemscore.Hbonds>
donor molecule, donor type, donor heavy atom, donor atom, acceptor molecule, acceptor atom, score
      L1  H     3    17       P1  7948  0.93
      L1  H    10    27       P1  7948  0.97
      P1  H  7989  7998       L1    15  0.22

> <Gold.Chemscore.Hbond.Weighted>
-7.7434

> <Gold.Chemscore.Metal.Weighted>
-0.0000

> <Gold.Chemscore.Lipo.Weighted>
-8.0752

> <Gold.Chemscore.Internal_Hbond.Weighted>
0.0000

> <Gold.Chemscore.DEClash.Weighted>
0.1410

> <Gold.Chemscore.DEInternal.Weighted>
1.2265

> <Gold.Chemscore.Rot.Weighted>
3.1718

> <Gold.Chemscore.Internal.Correction.Weighted>
   9.000000E+99

> <Gold.Protein.RotatedTorsions>
[ 6907 6896 6895 6894 ] final  148.88 input  -60.11 | X-H torsion
[ 7974 7965 7964 7962 ] final -104.12 input  175.53 | X-H torsion
[ 8008 7997 7996 7995 ] final  138.67 input   59.86 | X-H torsion
[ 10167 10162 10161 10158 ] final -111.28 input  -65.29 | X-H torsion
[ 10718 10713 10712 10709 ] final   78.78 input   66.30 | X-H torsion
[ 10763 10752 10751 10750 ] final  121.59 input  -60.55 | X-H torsion
[ 11005 11000 10999 10996 ] final  114.40 input  -57.11 | X-H torsion

> <Gold.Protein.ActiveResidues>
 VAL166  LYS551  ARG553  GLY616  TRP617  ASP618  TYR619  PRO620  LYS621  CYS622 
 ASP623  PHE694  ASN695  SER759  ASP760  ASP761  ALA762  ILE779  LEU786  VAL792 
 PHE793  MET794  SER795  GLU796  ALA797  LYS798  CYS799  TRP800  GLU811  SER814 

> <Gold.Protein.RotatedAtoms>
  152.1356  133.4433  159.4741 H   0  0  0  0  0  0  0  0  0  0  0  0  # atno 6907 bound_to 6896
  150.6881  134.2368  159.4465 H   0  0  0  0  0  0  0  0  0  0  0  0  # atno 6908 bound_to 6896
  152.0255  134.9798  160.0622 H   0  0  0  0  0  0  0  0  0  0  0  0  # atno 6909 bound_to 6896
  145.2472  140.9225  143.3116 H   0  0  0  0  0  0  0  0  0  0  0  0  # atno 7974 bound_to 7965
  156.2996  140.2387  156.4112 H   0  0  0  0  0  0  0  0  0  0  0  0  # atno 8008 bound_to 7997
  154.8439  140.0427  157.1580 H   0  0  0  0  0  0  0  0  0  0  0  0  # atno 8009 bound_to 7997
  154.9072  140.2985  155.5289 H   0  0  0  0  0  0  0  0  0  0  0  0  # atno 8010 bound_to 7997
  140.1354  143.4325  152.1599 H   0  0  0  0  0  0  0  0  0  0  0  0  # atno 10167 bound_to 10162
  157.6756  130.9884  150.1837 H   0  0  0  0  0  0  0  0  0  0  0  0  # atno 10718 bound_to 10713
  153.6164  135.3421  155.2996 H   0  0  0  0  0  0  0  0  0  0  0  0  # atno 10763 bound_to 10752
  154.8608  135.4262  154.2254 H   0  0  0  0  0  0  0  0  0  0  0  0  # atno 10764 bound_to 10752
  153.3117  135.7032  153.7182 H   0  0  0  0  0  0  0  0  0  0  0  0  # atno 10765 bound_to 10752
  139.8979  134.9567  156.6886 H   0  0  0  0  0  0  0  0  0  0  0  0  # atno 11005 bound_to 11000
  144.9535  139.4056  143.6390 LP  0  0  0  0  0  0  0  0  0  0  0  0  # atno 17320 bound_to 7965
  146.3312  139.8554  142.8865 LP  0  0  0  0  0  0  0  0  0  0  0  0  # atno 17321 bound_to 7965
  139.5499  144.7329  151.4468 LP  0  0  0  0  0  0  0  0  0  0  0  0  # atno 17342 bound_to 10162
  140.6792  143.8120  150.7099 LP  0  0  0  0  0  0  0  0  0  0  0  0  # atno 17343 bound_to 10162
  156.2564  130.3706  149.8177 LP  0  0  0  0  0  0  0  0  0  0  0  0  # atno 17370 bound_to 10713
  156.5935  130.8516  151.3414 LP  0  0  0  0  0  0  0  0  0  0  0  0  # atno 17371 bound_to 10713
  140.7243  133.9114  155.8168 LP  0  0  0  0  0  0  0  0  0  0  0  0  # atno 17394 bound_to 11000
  141.0203  134.0898  157.4128 LP  0  0  0  0  0  0  0  0  0  0  0  0  # atno 17395 bound_to 11000

$$$$
