AV-unprocessed.smi:2083|AV-procd|sdf|8506|dock10
  -GOLD-   2272011223D 1   1.00000     0.00000
 Structure written by MMmdl.
 44 45  0  0  0  0  0  0  0  0  3 V2000
  153.3484  140.7159  160.2887 C   0  0  0  0  0  0  0  0  0  0  0  0
  152.9162  139.6102  159.3879 C   0  0  0  0  0  0  0  0  0  0  0  0
  151.7192  138.9794  159.1987 C   0  0  0  0  0  0  0  0  0  0  0  0
  152.0169  138.0193  158.1950 C   0  0  0  0  0  0  0  0  0  0  0  0
  151.0110  137.1390  157.7164 N   0  0  0  0  0  0  0  0  0  0  0  0
  151.0873  136.2274  156.7297 C   0  0  0  0  0  0  0  0  0  0  0  0
  152.1380  136.0813  156.0934 O   0  0  0  0  0  0  0  0  0  0  0  0
  149.9175  135.5517  156.5646 N   0  5  0  0  0  0  0  0  0  0  0  0
  149.4976  134.9145  155.3176 C   0  0  0  0  0  0  0  0  0  0  0  0
  148.0168  135.2882  154.9875 C   0  0  2  0  0  0  0  0  0  0  0  0
  147.0243  134.9188  156.1158 C   0  0  0  0  0  0  0  0  0  0  0  0
  147.4991  134.7892  153.6672 N   0  3  1  0  0  0  0  0  0  0  0  0
  147.6755  133.3285  153.4304 C   0  0  0  0  0  0  0  0  0  0  0  0
  147.4737  132.9932  151.9447 C   0  0  0  0  0  0  0  0  0  0  0  0
  146.1003  133.4715  151.4542 C   0  0  0  0  0  0  0  0  0  0  0  0
  145.9233  134.9744  151.7337 C   0  0  1  0  0  0  0  0  0  0  0  0
  144.5482  135.4733  151.2677 C   0  0  0  0  0  0  0  0  0  0  0  0
  146.1538  135.2698  153.2291 C   0  0  0  0  0  0  0  0  0  0  0  0
  153.2819  138.0645  157.8036 N   0  0  0  0  0  0  0  0  0  0  0  0
  153.8643  139.0842  158.5658 O   0  0  0  0  0  0  0  0  0  0  0  0
  152.5932  140.9169  161.0487 H   0  0  0  0  0  0  0  0  0  0  0  0
  153.5119  141.6327  159.7227 H   0  0  0  0  0  0  0  0  0  0  0  0
  154.2782  140.4602  160.7972 H   0  0  0  0  0  0  0  0  0  0  0  0
  150.7828  139.1724  159.7004 H   0  0  0  0  0  0  0  0  0  0  0  0
  150.1209  137.1983  158.1879 H   0  0  0  0  0  0  0  0  0  0  0  0
  150.1338  135.2315  154.4910 H   0  0  0  0  0  0  0  0  0  0  0  0
  149.5873  133.8282  155.3569 H   0  0  0  0  0  0  0  0  0  0  0  0
  147.9755  136.3764  154.9149 H   0  0  0  0  0  0  0  0  0  0  0  0
  147.2502  135.4404  157.0477 H   0  0  0  0  0  0  0  0  0  0  0  0
  147.0125  133.8507  156.3375 H   0  0  0  0  0  0  0  0  0  0  0  0
  146.0082  135.2038  155.8414 H   0  0  0  0  0  0  0  0  0  0  0  0
  148.6761  133.0173  153.7324 H   0  0  0  0  0  0  0  0  0  0  0  0
  146.9687  132.7594  154.0358 H   0  0  0  0  0  0  0  0  0  0  0  0
  148.2594  133.4650  151.3531 H   0  0  0  0  0  0  0  0  0  0  0  0
  147.5720  131.9185  151.7886 H   0  0  0  0  0  0  0  0  0  0  0  0
  145.9980  133.2699  150.3874 H   0  0  0  0  0  0  0  0  0  0  0  0
  145.3147  132.9048  151.9559 H   0  0  0  0  0  0  0  0  0  0  0  0
  146.6794  135.5158  151.1630 H   0  0  0  0  0  0  0  0  0  0  0  0
  143.7418  134.9738  151.8056 H   0  0  0  0  0  0  0  0  0  0  0  0
  144.4034  135.2877  150.2032 H   0  0  0  0  0  0  0  0  0  0  0  0
  144.4434  136.5462  151.4316 H   0  0  0  0  0  0  0  0  0  0  0  0
  145.3708  134.7912  153.8198 H   0  0  0  0  0  0  0  0  0  0  0  0
  146.0640  136.3425  153.3965 H   0  0  0  0  0  0  0  0  0  0  0  0
  148.1353  135.2125  153.0075 H   0  0  0  0  0  0  0  0  0  0  0  0
  1  2  1  0  0  0  0
  1 21  1  0  0  0  0
  1 22  1  0  0  0  0
  1 23  1  0  0  0  0
  2 20  1  0  0  0  0
  2  3  2  0  0  0  0
  3  4  1  0  0  0  0
  3 24  1  0  0  0  0
  4  5  1  0  0  0  0
  4 19  2  0  0  0  0
  5  6  1  0  0  0  0
  5 25  1  0  0  0  0
  6  7  2  0  0  0  0
  6  8  1  0  0  0  0
  8  9  1  0  0  0  0
  9 10  1  0  0  0  0
  9 26  1  0  0  0  0
  9 27  1  0  0  0  0
 10 11  1  0  0  0  0
 10 12  1  0  0  0  0
 10 28  1  0  0  0  0
 11 29  1  0  0  0  0
 11 30  1  0  0  0  0
 11 31  1  0  0  0  0
 12 18  1  0  0  0  0
 12 13  1  0  0  0  0
 12 44  1  0  0  0  0
 13 14  1  0  0  0  0
 13 32  1  0  0  0  0
 13 33  1  0  0  0  0
 14 15  1  0  0  0  0
 14 34  1  0  0  0  0
 14 35  1  0  0  0  0
 15 16  1  0  0  0  0
 15 36  1  0  0  0  0
 15 37  1  0  0  0  0
 16 17  1  0  0  0  0
 16 18  1  0  0  0  0
 16 38  1  0  0  0  0
 17 39  1  0  0  0  0
 17 40  1  0  0  0  0
 17 41  1  0  0  0  0
 18 42  1  0  0  0  0
 18 43  1  0  0  0  0
 19 20  1  0  0  0  0
M  CHG  1   8  -1
M  CHG  1  12   1
M  END
> <s_m_source_file>
AV-unprocessed.smi

> <i_m_source_file_index>
2083

> <i_lp_mmshare_version>
43012

> <i_f3d_flags>
0

> <s_epik_input>
W0NIM11jMVtjSF1jKG5vMSlbTkhdQyg9TylbTkhdW0NIMl1bQ0BIXShbQ0gzXSlOMltDSDJdW0NIMl1bQ0gyXVtDQEBIXShbQ0gzXSlbQ0gyXTI=

> <s_epik_cmdline>
J2VwaWtfcHl0aG9uJywgJy1waCcsICc3LjAnLCAnLXRuJywgJzgnLCAnLW1hJywgJzIwMCcsICctbWV0YWxfYmluZGluZycsICctaW1hZScsICc8aW5maWxlLm1hZT4nLCAnLW9tYWUnLCAnPG91dGZpbGUubWFlPic=

> <r_epik_Ionization_Penalty>
6.76934

> <r_epik_Ionization_Penalty_Charging>
6.76934

> <r_epik_Ionization_Penalty_Neutral>
5.77849e-06

> <r_epik_State_Penalty>
6.79457

> <r_epik_Charging_Adjusted_Penalty>
13.5639

> <i_epik_Tot_Q>
0

> <i_epik_Tot_abs_Q>
2

> <r_epik_Metal_State_Penalty>
2.72837

> <b_epik_Metal_Only>
1

> <s_lp_Force_Field>
OPLS_2005

> <r_lp_Energy>
20.364

> <b_lp_Chiralities_Consistent>
1

> <s_lp_Variant>
AV-unprocessed.smi:2083-17

> <Gold.Version>
5.8.1

> <Gold.Id.Protein>
6NUR|6NUR_protein|mol2

> <Gold.PLP.Fitness>
37.0382

> <Gold.PLP.PLP>
-25.4775

> <Gold.PLP.part.hbond>
-3.9215

> <Gold.PLP.part.metal>
0.0000

> <Gold.PLP.part.buried>
-1.3770

> <Gold.PLP.part.nonpolar>
-19.7771

> <Gold.PLP.part.repulsive>
0.0717

> <Gold.PLP.ligand.clash>
0.0000

> <Gold.PLP.ligand.torsion>
0.3217

> <Gold.PLP.Chemscore.Hbond>
4.0000

> <Gold.PLP.Chemscore.CHOScore>
0.0000

> <Gold.PLP.Chemscore.Metal>
0.0000

> <Gold.Chemscore.Hbonds>
donor molecule, donor type, donor heavy atom, donor atom, acceptor molecule, acceptor atom, score
      L1  H    12    44       P1  7948  2.00
      P1  H  7997  8009       L1    20  1.00
      P1  H 10752 10763       L1     7  0.99

> <Gold.PLP.Chemscore.Internal.Correction>
0.2041

> <Gold.Rescore>
     Score         DG    S(hbond)    S(metal)    S(lipo)     H(rot)  DE(clash)    DE(int)     intcor
     15.56     -17.26       2.77        0.00      54.85       1.52       0.00       1.70       ----

> <Gold.Chemscore.Fitness>
15.5583

> <Gold.Chemscore.DG>
-17.2633

> <Gold.Chemscore.ZeroCoef>
-5.4800

> <Gold.Chemscore.Hbond>
2.7709

> <Gold.Chemscore.Metal>
0.0000

> <Gold.Chemscore.Lipo>
54.8464

> <Gold.Chemscore.Internal_Hbond>
0.0000

> <Gold.Chemscore.DEClash>
0.0000

> <Gold.Chemscore.DEInternal>
1.7050

> <Gold.Chemscore.Rot>
1.5190

> <Gold.Chemscore.Internal.Correction>
   9.000000E+99

> <Gold.Chemscore.Hbonds>
donor molecule, donor type, donor heavy atom, donor atom, acceptor molecule, acceptor atom, score
      L1  H    12    44       P1  7948  0.98
      P1  H  7997  8009       L1    20  0.39
      P1  H 10752 10763       L1     7  0.93

> <Gold.Chemscore.Hbond.Weighted>
-9.2549

> <Gold.Chemscore.Metal.Weighted>
-0.0000

> <Gold.Chemscore.Lipo.Weighted>
-6.4170

> <Gold.Chemscore.Internal_Hbond.Weighted>
0.0000

> <Gold.Chemscore.DEClash.Weighted>
0.0000

> <Gold.Chemscore.DEInternal.Weighted>
1.7050

> <Gold.Chemscore.Rot.Weighted>
3.8886

> <Gold.Chemscore.Internal.Correction.Weighted>
   9.000000E+99

> <Gold.Protein.RotatedTorsions>
[ 6907 6896 6895 6894 ] final  -19.37 input  -60.11 | X-H torsion
[ 7974 7965 7964 7962 ] final  126.89 input  175.53 | X-H torsion
[ 8008 7997 7996 7995 ] final  128.18 input   59.86 | X-H torsion
[ 10167 10162 10161 10158 ] final -131.99 input  -65.29 | X-H torsion
[ 10718 10713 10712 10709 ] final -173.09 input   66.30 | X-H torsion
[ 10763 10752 10751 10750 ] final   69.55 input  -60.55 | X-H torsion
[ 11005 11000 10999 10996 ] final  153.46 input  -57.11 | X-H torsion

> <Gold.Protein.ActiveResidues>
 VAL166  LYS551  ARG553  GLY616  TRP617  ASP618  TYR619  PRO620  LYS621  CYS622 
 ASP623  PHE694  ASN695  SER759  ASP760  ASP761  ALA762  ILE779  LEU786  VAL792 
 PHE793  MET794  SER795  GLU796  ALA797  LYS798  CYS799  TRP800  GLU811  SER814 

> <Gold.Protein.RotatedAtoms>
  151.2641  135.0663  159.9109 H   0  0  0  0  0  0  0  0  0  0  0  0  # atno 6907 bound_to 6896
  152.5361  134.0200  159.7987 H   0  0  0  0  0  0  0  0  0  0  0  0  # atno 6908 bound_to 6896
  151.0427  133.5642  159.2680 H   0  0  0  0  0  0  0  0  0  0  0  0  # atno 6909 bound_to 6896
  145.0567  139.3838  143.5027 H   0  0  0  0  0  0  0  0  0  0  0  0  # atno 7974 bound_to 7965
  156.2909  140.2651  156.2394 H   0  0  0  0  0  0  0  0  0  0  0  0  # atno 8008 bound_to 7997
  154.9992  140.0388  157.2371 H   0  0  0  0  0  0  0  0  0  0  0  0  # atno 8009 bound_to 7997
  154.7617  140.2762  155.6214 H   0  0  0  0  0  0  0  0  0  0  0  0  # atno 8010 bound_to 7997
  139.9132  143.6470  152.2571 H   0  0  0  0  0  0  0  0  0  0  0  0  # atno 10167 bound_to 10162
  156.7651  130.9428  151.3119 H   0  0  0  0  0  0  0  0  0  0  0  0  # atno 10718 bound_to 10713
  153.0293  135.5206  154.7305 H   0  0  0  0  0  0  0  0  0  0  0  0  # atno 10763 bound_to 10752
  154.6334  135.2903  155.0192 H   0  0  0  0  0  0  0  0  0  0  0  0  # atno 10764 bound_to 10752
  154.1135  135.6618  153.4942 H   0  0  0  0  0  0  0  0  0  0  0  0  # atno 10765 bound_to 10752
  140.1400  134.8745  157.2318 H   0  0  0  0  0  0  0  0  0  0  0  0  # atno 11005 bound_to 11000
  146.3522  140.0244  142.8656 LP  0  0  0  0  0  0  0  0  0  0  0  0  # atno 17320 bound_to 7965
  145.1460  140.9597  143.4461 LP  0  0  0  0  0  0  0  0  0  0  0  0  # atno 17321 bound_to 7965
  139.6925  144.7645  151.1414 LP  0  0  0  0  0  0  0  0  0  0  0  0  # atno 17342 bound_to 10162
  140.7680  143.5570  150.9141 LP  0  0  0  0  0  0  0  0  0  0  0  0  # atno 17343 bound_to 10162
  157.6717  130.9057  150.0055 LP  0  0  0  0  0  0  0  0  0  0  0  0  # atno 17370 bound_to 10713
  156.1314  130.3643  149.9726 LP  0  0  0  0  0  0  0  0  0  0  0  0  # atno 17371 bound_to 10713
  140.2734  134.3433  155.7366 LP  0  0  0  0  0  0  0  0  0  0  0  0  # atno 17394 bound_to 11000
  141.2184  133.7436  156.9257 LP  0  0  0  0  0  0  0  0  0  0  0  0  # atno 17395 bound_to 11000

$$$$
