#       Name:                AV-unprocessed.smi:2279
#       Creating user name   scv26
#       Creation time:       Fri Mar 27 12:40:05 2020


#       File generated by GOLD software.
#

@<TRIPOS>MOLECULE
AV-unprocessed.smi:2279
    61    63     1
SMALL
NO_CHARGES


@<TRIPOS>ATOM
      1 ****        -7.6232   4.5853   0.0001 C.3            1 S1                 0.0000
      2 ****        -7.0300   3.1921  -0.0000 C.ar           1 S1                 0.0000
      3 ****        -7.8574   2.0528  -0.0000 C.ar           1 S1                 0.0000
      4 ****        -7.2431   0.7851  -0.0000 C.ar           1 S1                 0.0000
      5 ****        -8.0714  -0.4822  -0.0001 C.3            1 S1                 0.0000
      6 ****        -5.9036   0.6157  -0.0000 N.ar           1 S1                 0.0000
      7 ****        -5.0969   1.7058  -0.0000 C.ar           1 S1                 0.0000
      8 ****        -3.6785   1.6357  -0.0000 N.am           1 S1                 0.0000
      9 ****        -2.9012   0.5383  -0.0000 C.2            1 S1                 0.0000
     10 ****        -3.3098  -0.6232  -0.0000 O.2            1 S1                 0.0000
     11 ****        -1.6006   0.8670  -0.0000 N.am           1 S1                 0.0000
     12 ****        -0.4840  -0.0746  -0.0000 C.3            1 S1                 0.0000
     13 ****         0.3839   0.1338   1.2445 C.3            1 S1                 0.0000
     14 ****         1.6133  -0.7896   1.2280 C.3            1 S1                 0.0000
     15 ****         2.4464  -0.6112   0.0001 N.4            1 S1                 1.0000
     16 ****         3.6979  -1.4457  -0.0000 C.3            1 S1                 0.0000
     17 ****         4.5799  -1.1969   1.2526 C.3            1 S1                 0.0000
     18 ****         5.8981  -1.9894   1.2212 C.3            1 S1                 0.0000
     19 ****         6.6773  -1.6858  -0.0000 N.4            1 S1                 1.0000
     20 ****         8.0048  -2.3384  -0.0000 C.3            1 S1                 0.0000
     21 ****         5.8981  -1.9894  -1.2212 C.3            1 S1                 0.0000
     22 ****         4.5799  -1.1969  -1.2526 C.3            1 S1                 0.0000
     23 ****         1.6133  -0.7896  -1.2280 C.3            1 S1                 0.0000
     24 ****         0.3839   0.1338  -1.2444 C.3            1 S1                 0.0000
     25 ****        -5.6320   3.0135  -0.0000 C.ar           1 S1                 0.0000
     26 ****        -8.7131   4.5537  -0.0000 H              1 S1                 0.0000
     27 ****        -7.2979   5.1339  -0.8843 H              1 S1                 0.0000
     28 ****        -7.2979   5.1338   0.8842 H              1 S1                 0.0000
     29 ****        -8.9336   2.1474  -0.0000 H              1 S1                 0.0000
     30 ****        -9.1384  -0.2576  -0.0000 H              1 S1                 0.0000
     31 ****        -7.8496  -1.0802   0.8843 H              1 S1                 0.0000
     32 ****        -7.8496  -1.0802  -0.8843 H              1 S1                 0.0000
     33 ****        -3.2017   2.5250  -0.0000 H              1 S1                 0.0000
     34 ****        -1.3651   1.8488  -0.0000 H              1 S1                 0.0000
     35 ****        -0.8478  -1.1039  -0.0000 H              1 S1                 0.0000
     36 ****         0.7111   1.1732   1.3030 H              1 S1                 0.0000
     37 ****        -0.2042  -0.0555   2.1436 H              1 S1                 0.0000
     38 ****         2.1803  -0.5550   2.1258 H              1 S1                 0.0000
     39 ****         1.3010  -1.8321   1.3082 H              1 S1                 0.0000
     40 ****         3.3950  -2.4943  -0.0000 H              1 S1                 0.0000
     41 ****         4.7977  -0.1319   1.3463 H              1 S1                 0.0000
     42 ****         4.0652  -1.4945   2.1646 H              1 S1                 0.0000
     43 ****         6.4914  -1.7412   2.1023 H              1 S1                 0.0000
     44 ****         5.6941  -3.0606   1.2689 H              1 S1                 0.0000
     45 ****         7.9085  -3.4251  -0.0000 H              1 S1                 0.0000
     46 ****         8.5781  -2.0459   0.8804 H              1 S1                 0.0000
     47 ****         8.5781  -2.0459  -0.8803 H              1 S1                 0.0000
     48 ****         6.4914  -1.7412  -2.1023 H              1 S1                 0.0000
     49 ****         5.6941  -3.0606  -1.2688 H              1 S1                 0.0000
     50 ****         4.0652  -1.4945  -2.1646 H              1 S1                 0.0000
     51 ****         4.7977  -0.1319  -1.3463 H              1 S1                 0.0000
     52 ****         2.1803  -0.5551  -2.1258 H              1 S1                 0.0000
     53 ****         1.3010  -1.8322  -1.3082 H              1 S1                 0.0000
     54 ****        -0.2042  -0.0555  -2.1435 H              1 S1                 0.0000
     55 ****         0.7111   1.1732  -1.3030 H              1 S1                 0.0000
     56 ****        -4.9794   3.8748  -0.0000 H              1 S1                 0.0000
     57 ****         2.7448   0.3538  -0.0000 H              1 S1                 0.0000
     58 ****         6.8493  -0.6902  -0.0000 H              1 S1                 0.0000
     59 ****        -5.5105  -0.3038  -0.0000 LP             1 S1                 0.0000
     60 ****        -4.2926  -0.8074  -0.0000 LP             1 S1                 0.0000
     61 ****        -2.6587  -1.3822  -0.0000 LP             1 S1                 0.0000
@<TRIPOS>BOND
    1    1    2 1     
    2    1   26 1     
    3    1   27 1     
    4    1   28 1     
    5    2   25 ar    
    6    2    3 ar    
    7    3    4 ar    
    8    3   29 1     
    9    4    5 1     
   10    4    6 ar    
   11    5   30 1     
   12    5   31 1     
   13    5   32 1     
   14    6    7 ar    
   15    7    8 1     
   16    7   25 ar    
   17    8    9 am    
   18    8   33 1     
   19    9   10 2     
   20    9   11 am    
   21   11   12 1     
   22   11   34 1     
   23   12   24 1     
   24   12   13 1     
   25   12   35 1     
   26   13   14 1     
   27   13   36 1     
   28   13   37 1     
   29   14   15 1     
   30   14   38 1     
   31   14   39 1     
   32   15   16 1     
   33   15   23 1     
   34   15   57 1     
   35   16   22 1     
   36   16   17 1     
   37   16   40 1     
   38   17   18 1     
   39   17   41 1     
   40   17   42 1     
   41   18   19 1     
   42   18   43 1     
   43   18   44 1     
   44   19   20 1     
   45   19   21 1     
   46   19   58 1     
   47   20   45 1     
   48   20   46 1     
   49   20   47 1     
   50   21   22 1     
   51   21   48 1     
   52   21   49 1     
   53   22   50 1     
   54   22   51 1     
   55   23   24 1     
   56   23   52 1     
   57   23   53 1     
   58   24   54 1     
   59   24   55 1     
   60   25   56 1     
   61    6   59 1     
   62   10   60 1     
   63   10   61 1     
@<TRIPOS>SUBSTRUCTURE
      1 S1             1
@<TRIPOS>SET
LONE_PAIRS      STATIC     ATOMS    <user>   **** ""
3 59 60 61
DONOR_HYDROGENS      STATIC     ATOMS    <user>   **** ""
4 33 34 57 58
ATOM$BLUE        STATIC     ATOMS    COLORGROUP SYSTEM
3 59 60 61
ATOM$RED        STATIC     ATOMS    COLORGROUP SYSTEM
4 33 34 57 58
