AV-unprocessed.smi:34|AV-procd|sdf|225|dock9
  -GOLD-   2262015553D 1   1.00000     0.00000
 Structure written by MMmdl.
 55 59  0  0  0  0  0  0  0  0  1 V2000
  149.2975  132.2322  154.0279 O   0  0  0  0  0  0  0  0  0  0  0  0
  148.5364  133.0708  153.5445 C   0  0  0  0  0  0  0  0  0  0  0  0
  148.5279  134.4540  153.9880 N   0  0  0  0  0  0  0  0  0  0  0  0
  149.3452  135.0492  154.8883 C   0  0  0  0  0  0  0  0  0  0  0  0
  150.4035  134.4070  155.4488 N   0  0  0  0  0  0  0  0  0  0  0  0
  151.1817  135.0376  156.3328 C   0  0  0  0  0  0  0  0  0  0  0  0
  151.0817  136.2877  156.7876 N   0  0  0  0  0  0  0  0  0  0  0  0
  150.0212  136.9411  156.2309 C   0  0  0  0  0  0  0  0  0  0  0  0
  149.1138  136.3934  155.2815 C   0  0  0  0  0  0  0  0  0  0  0  0
  148.1630  137.3452  154.9365 N   0  0  0  0  0  0  0  0  0  0  0  0
  148.4950  138.3935  155.6410 C   0  0  0  0  0  0  0  0  0  0  0  0
  149.5994  138.2379  156.4495 N   0  0  0  0  0  0  0  0  0  0  0  0
  150.2153  139.2569  157.3602 C   0  0  2  0  0  0  0  0  0  0  0  0
  149.1787  139.9505  157.9864 O   0  0  0  0  0  0  0  0  0  0  0  0
  149.4161  141.3504  157.9129 C   0  0  2  0  0  0  0  0  0  0  0  0
  148.0832  142.1079  157.9286 C   0  0  0  0  0  0  0  0  0  0  0  0
  147.4568  141.9434  159.1903 O   0  0  0  0  0  0  0  0  0  0  0  0
  146.1210  141.7855  159.2641 C   0  0  0  0  0  0  0  0  0  0  0  0
  145.4390  141.3097  158.3542 O   0  0  0  0  0  0  0  0  0  0  0  0
  145.5532  142.2468  160.5638 C   0  0  0  0  0  0  0  0  0  0  0  0
  144.1572  142.1668  160.7776 C   0  0  0  0  0  0  0  0  0  0  0  0
  143.5920  142.5959  161.9941 C   0  0  0  0  0  0  0  0  0  0  0  0
  144.4158  143.1108  163.0118 C   0  0  0  0  0  0  0  0  0  0  0  0
  145.8059  143.1967  162.8112 C   0  0  0  0  0  0  0  0  0  0  0  0
  146.3731  142.7678  161.5954 C   0  0  0  0  0  0  0  0  0  0  0  0
  150.2255  141.5299  156.6298 C   0  0  1  0  0  0  0  0  0  0  0  0
  150.9677  142.6373  156.6680 F   0  0  0  0  0  0  0  0  0  0  0  0
  151.0910  140.2830  156.6071 C   0  0  2  0  0  0  0  0  0  0  0  0
  151.4325  139.9209  155.2809 O   0  0  0  0  0  0  0  0  0  0  0  0
  147.5053  132.7013  152.5176 C   0  0  0  0  0  0  0  0  0  0  0  0
  146.9698  131.3939  152.4927 C   0  0  0  0  0  0  0  0  0  0  0  0
  146.0146  131.0331  151.5224 C   0  0  0  0  0  0  0  0  0  0  0  0
  145.5914  131.9742  150.5652 C   0  0  0  0  0  0  0  0  0  0  0  0
  146.1280  133.2754  150.5752 C   0  0  0  0  0  0  0  0  0  0  0  0
  147.0843  133.6371  151.5440 C   0  0  0  0  0  0  0  0  0  0  0  0
  147.8391  135.0515  153.5548 H   0  0  0  0  0  0  0  0  0  0  0  0
  152.0013  134.4585  156.7317 H   0  0  0  0  0  0  0  0  0  0  0  0
  147.9366  139.3169  155.5905 H   0  0  0  0  0  0  0  0  0  0  0  0
  150.7794  138.6692  158.0855 H   0  0  0  0  0  0  0  0  0  0  0  0
  150.0220  141.6258  158.7780 H   0  0  0  0  0  0  0  0  0  0  0  0
  148.2464  143.1663  157.7206 H   0  0  0  0  0  0  0  0  0  0  0  0
  147.4264  141.7191  157.1496 H   0  0  0  0  0  0  0  0  0  0  0  0
  143.5043  141.7751  160.0108 H   0  0  0  0  0  0  0  0  0  0  0  0
  142.5246  142.5297  162.1457 H   0  0  0  0  0  0  0  0  0  0  0  0
  143.9822  143.4396  163.9447 H   0  0  0  0  0  0  0  0  0  0  0  0
  146.4394  143.5930  163.5910 H   0  0  0  0  0  0  0  0  0  0  0  0
  147.4434  142.8489  161.4740 H   0  0  0  0  0  0  0  0  0  0  0  0
  149.5740  141.5838  155.7567 H   0  0  0  0  0  0  0  0  0  0  0  0
  151.9965  140.4423  157.1943 H   0  0  0  0  0  0  0  0  0  0  0  0
  152.0900  139.2432  155.3139 H   0  0  0  0  0  0  0  0  0  0  0  0
  147.2847  130.6591  153.2198 H   0  0  0  0  0  0  0  0  0  0  0  0
  145.6075  130.0328  151.5123 H   0  0  0  0  0  0  0  0  0  0  0  0
  144.8589  131.6969  149.8215 H   0  0  0  0  0  0  0  0  0  0  0  0
  145.8081  133.9964  149.8373 H   0  0  0  0  0  0  0  0  0  0  0  0
  147.4907  134.6378  151.5263 H   0  0  0  0  0  0  0  0  0  0  0  0
  1  2  2  0  0  0  0
  2  3  1  0  0  0  0
  2 30  1  0  0  0  0
  3  4  1  0  0  0  0
  3 36  1  0  0  0  0
  4  9  1  0  0  0  0
  4  5  2  0  0  0  0
  5  6  1  0  0  0  0
  6  7  2  0  0  0  0
  6 37  1  0  0  0  0
  7  8  1  0  0  0  0
  8 12  1  0  0  0  0
  8  9  2  0  0  0  0
  9 10  1  0  0  0  0
 10 11  2  0  0  0  0
 11 12  1  0  0  0  0
 11 38  1  0  0  0  0
 12 13  1  0  0  0  0
 13 28  1  0  0  0  0
 13 14  1  0  0  0  0
 13 39  1  0  0  0  0
 14 15  1  0  0  0  0
 15 16  1  0  0  0  0
 15 26  1  0  0  0  0
 15 40  1  0  0  0  0
 16 17  1  0  0  0  0
 16 41  1  0  0  0  0
 16 42  1  0  0  0  0
 17 18  1  0  0  0  0
 18 19  2  0  0  0  0
 18 20  1  0  0  0  0
 20 25  1  0  0  0  0
 20 21  2  0  0  0  0
 21 22  1  0  0  0  0
 21 43  1  0  0  0  0
 22 23  2  0  0  0  0
 22 44  1  0  0  0  0
 23 24  1  0  0  0  0
 23 45  1  0  0  0  0
 24 25  2  0  0  0  0
 24 46  1  0  0  0  0
 25 47  1  0  0  0  0
 26 27  1  0  0  0  0
 26 28  1  0  0  0  0
 26 48  1  0  0  0  0
 28 29  1  0  0  0  0
 28 49  1  0  0  0  0
 29 50  1  0  0  0  0
 30 35  1  0  0  0  0
 30 31  2  0  0  0  0
 31 32  1  0  0  0  0
 31 51  1  0  0  0  0
 32 33  2  0  0  0  0
 32 52  1  0  0  0  0
 33 34  1  0  0  0  0
 33 53  1  0  0  0  0
 34 35  2  0  0  0  0
 34 54  1  0  0  0  0
 35 55  1  0  0  0  0
M  END
> <s_m_source_file>
AV-unprocessed.smi

> <i_m_source_file_index>
34

> <i_lp_mmshare_version>
43012

> <i_f3d_flags>
0

> <s_epik_input>
W2NIXTFbY0hdW2NIXVtjSF1bY0hdYzFDKD1PKVtOSF1jKG5bY0hdbjIpYyhjMjMpbltjSF1uM1tDQEBIXTRPW0NASF0oW0NAQEhdKEYpW0NASF00W09IXSlbQ0gyXU9DKD1PKWM1W2NIXVtjSF1bY0hdW2NIXVtjSF01

> <s_epik_cmdline>
J2VwaWtfcHl0aG9uJywgJy1waCcsICc3LjAnLCAnLXRuJywgJzgnLCAnLW1hJywgJzIwMCcsICctbWV0YWxfYmluZGluZycsICctaW1hZScsICc8aW5maWxlLm1hZT4nLCAnLW9tYWUnLCAnPG91dGZpbGUubWFlPic=

> <r_lp_tautomer_probability>
1

> <r_epik_Ionization_Penalty>
0.00257489

> <r_epik_Ionization_Penalty_Charging>
0

> <r_epik_Ionization_Penalty_Neutral>
0.00257489

> <r_epik_State_Penalty>
0.00519398

> <r_epik_Charging_Adjusted_Penalty>
0.00519398

> <i_epik_Tot_Q>
0

> <i_epik_Tot_abs_Q>
0

> <r_epik_Metal_State_Penalty>
0.335891

> <b_epik_Metal_Only>
0

> <s_epik_Chemistry_Notes>
This compound has an ester and may undergo hydrolysis at high or low pH. This compound contains an acetal/aminal-like group ( X-CH(R)-Y where X, Y are N, S, or O) that may be acid/base labile, releasing an aldehyde.

> <s_lp_Force_Field>
OPLS_2005

> <r_lp_Energy>
52.3036

> <b_lp_Chiralities_Consistent>
1

> <s_lp_Variant>
AV-unprocessed.smi:34-11

> <Gold.Version>
5.8.1

> <Gold.Id.Protein>
6NUR|6NUR_protein|mol2

> <Gold.PLP.Fitness>
47.7852

> <Gold.PLP.PLP>
-47.7770

> <Gold.PLP.part.hbond>
-2.6191

> <Gold.PLP.part.metal>
0.0000

> <Gold.PLP.part.buried>
-6.4538

> <Gold.PLP.part.nonpolar>
-37.0306

> <Gold.PLP.part.repulsive>
0.3159

> <Gold.PLP.ligand.clash>
0.0000

> <Gold.PLP.ligand.torsion>
1.5775

> <Gold.PLP.Chemscore.Hbond>
1.0284

> <Gold.PLP.Chemscore.CHOScore>
0.0000

> <Gold.PLP.Chemscore.Metal>
0.0000

> <Gold.Chemscore.Hbonds>
donor molecule, donor type, donor heavy atom, donor atom, acceptor molecule, acceptor atom, score
      L1  H     3    36       P1  7948  0.03
      P1  H  7989  7998       L1    29  1.00

> <Gold.PLP.Chemscore.Internal.Correction>
0.0779

> <Gold.Rescore>
     Score         DG    S(hbond)    S(metal)    S(lipo)     H(rot)  DE(clash)    DE(int)     intcor
     10.62     -13.62       0.97        0.00     101.54       2.72       0.27       2.72       ----

> <Gold.Chemscore.Fitness>
10.6188

> <Gold.Chemscore.DG>
-13.6169

> <Gold.Chemscore.ZeroCoef>
-5.4800

> <Gold.Chemscore.Hbond>
0.9651

> <Gold.Chemscore.Metal>
0.0000

> <Gold.Chemscore.Lipo>
101.5423

> <Gold.Chemscore.Internal_Hbond>
0.0000

> <Gold.Chemscore.DEClash>
0.2740

> <Gold.Chemscore.DEInternal>
2.7242

> <Gold.Chemscore.Rot>
2.7215

> <Gold.Chemscore.Internal.Correction>
   9.000000E+99

> <Gold.Chemscore.Hbonds>
donor molecule, donor type, donor heavy atom, donor atom, acceptor molecule, acceptor atom, score
      L1  H     3    36       P1  7948  0.04
      P1  H  7989  7998       L1    29  0.55

> <Gold.Chemscore.Hbond.Weighted>
-3.2235

> <Gold.Chemscore.Metal.Weighted>
-0.0000

> <Gold.Chemscore.Lipo.Weighted>
-11.8805

> <Gold.Chemscore.Internal_Hbond.Weighted>
0.0000

> <Gold.Chemscore.DEClash.Weighted>
0.2740

> <Gold.Chemscore.DEInternal.Weighted>
2.7242

> <Gold.Chemscore.Rot.Weighted>
6.9670

> <Gold.Chemscore.Internal.Correction.Weighted>
   9.000000E+99

> <Gold.Protein.RotatedTorsions>
[ 6907 6896 6895 6894 ] final   35.18 input  -60.11 | X-H torsion
[ 7974 7965 7964 7962 ] final  111.34 input  175.53 | X-H torsion
[ 8008 7997 7996 7995 ] final  121.38 input   59.86 | X-H torsion
[ 10167 10162 10161 10158 ] final  157.05 input  -65.29 | X-H torsion
[ 10718 10713 10712 10709 ] final   49.56 input   66.30 | X-H torsion
[ 10763 10752 10751 10750 ] final -137.01 input  -60.55 | X-H torsion
[ 11005 11000 10999 10996 ] final  -18.43 input  -57.11 | X-H torsion

> <Gold.Protein.ActiveResidues>
 VAL166  LYS551  ARG553  GLY616  TRP617  ASP618  TYR619  PRO620  LYS621  CYS622 
 ASP623  PHE694  ASN695  SER759  ASP760  ASP761  ALA762  ILE779  LEU786  VAL792 
 PHE793  MET794  SER795  GLU796  ALA797  LYS798  CYS799  TRP800  GLU811  SER814 

> <Gold.Protein.RotatedAtoms>
  152.1126  134.9264  160.0565 H   0  0  0  0  0  0  0  0  0  0  0  0  # atno 6907 bound_to 6896
  152.0435  133.3983  159.4355 H   0  0  0  0  0  0  0  0  0  0  0  0  # atno 6908 bound_to 6896
  150.6844  134.3308  159.4870 H   0  0  0  0  0  0  0  0  0  0  0  0  # atno 6909 bound_to 6896
  145.2435  139.2769  143.4105 H   0  0  0  0  0  0  0  0  0  0  0  0  # atno 7974 bound_to 7965
  156.2684  140.2809  156.1299 H   0  0  0  0  0  0  0  0  0  0  0  0  # atno 8008 bound_to 7997
  155.1065  140.0390  157.2729 H   0  0  0  0  0  0  0  0  0  0  0  0  # atno 8009 bound_to 7997
  154.6775  140.2601  155.6949 H   0  0  0  0  0  0  0  0  0  0  0  0  # atno 8010 bound_to 7997
  139.4822  144.4953  151.8249 H   0  0  0  0  0  0  0  0  0  0  0  0  # atno 10167 bound_to 10162
  157.4798  130.8308  149.8081 H   0  0  0  0  0  0  0  0  0  0  0  0  # atno 10718 bound_to 10713
  154.8671  135.3655  154.5153 H   0  0  0  0  0  0  0  0  0  0  0  0  # atno 10763 bound_to 10752
  153.5786  135.7019  153.5478 H   0  0  0  0  0  0  0  0  0  0  0  0  # atno 10764 bound_to 10752
  153.3477  135.4080  155.1584 H   0  0  0  0  0  0  0  0  0  0  0  0  # atno 10765 bound_to 10752
  140.8267  133.8028  155.9715 H   0  0  0  0  0  0  0  0  0  0  0  0  # atno 11005 bound_to 11000
  146.3322  140.2805  142.8610 LP  0  0  0  0  0  0  0  0  0  0  0  0  # atno 17320 bound_to 7965
  144.9567  140.8234  143.5538 LP  0  0  0  0  0  0  0  0  0  0  0  0  # atno 17321 bound_to 7965
  140.4441  144.1946  150.5893 LP  0  0  0  0  0  0  0  0  0  0  0  0  # atno 17342 bound_to 10162
  140.4653  143.2433  151.9164 LP  0  0  0  0  0  0  0  0  0  0  0  0  # atno 17343 bound_to 10162
  156.0116  130.3831  150.2247 LP  0  0  0  0  0  0  0  0  0  0  0  0  # atno 17370 bound_to 10713
  157.0432  131.0041  151.3277 LP  0  0  0  0  0  0  0  0  0  0  0  0  # atno 17371 bound_to 10713
  140.9042  134.2341  157.5024 LP  0  0  0  0  0  0  0  0  0  0  0  0  # atno 17394 bound_to 11000
  139.8706  134.9720  156.4759 LP  0  0  0  0  0  0  0  0  0  0  0  0  # atno 17395 bound_to 11000

$$$$
