AV-unprocessed.smi:2095|AV-procd|sdf|8560|dock5
  -GOLD-   2272011283D 1   1.00000     0.00000
 Structure written by MMmdl.
 42 43  0  0  0  0  0  0  0  0  2 V2000
  152.7731  144.8170  158.2027 C   0  0  0  0  0  0  0  0  0  0  0  0
  151.7657  144.1229  159.1364 C   0  0  2  0  0  0  0  0  0  0  0  0
  152.4207  143.5812  160.4214 C   0  0  0  0  0  0  0  0  0  0  0  0
  153.2475  142.3177  160.1391 C   0  0  0  0  0  0  0  0  0  0  0  0
  152.4036  141.2600  159.4111 C   0  0  0  0  0  0  0  0  0  0  0  0
  151.8306  141.8172  158.1556 N   0  3  1  0  0  0  0  0  0  0  0  0
  151.1938  140.8215  157.2450 C   0  0  1  0  0  0  0  0  0  0  0  0
  150.5490  141.5256  156.0360 C   0  0  0  0  0  0  0  0  0  0  0  0
  152.1524  139.6784  156.8250 C   0  0  0  0  0  0  0  0  0  0  0  0
  151.4337  138.4922  156.3734 N   0  0  0  0  0  0  0  0  0  0  0  0
  150.8887  138.3428  155.1557 C   0  0  0  0  0  0  0  0  0  0  0  0
  150.9485  139.2045  154.2790 O   0  0  0  0  0  0  0  0  0  0  0  0
  150.1783  137.0171  154.8782 C   0  0  0  0  0  0  0  0  0  0  0  0
  150.3225  136.0974  155.9914 N   0  0  0  0  0  0  0  0  0  0  0  0
  149.4100  135.4446  156.7142 C   0  0  0  0  0  0  0  0  0  0  0  0
  149.9726  134.7069  157.6594 N   0  0  0  0  0  0  0  0  0  0  0  0
  151.3255  134.9421  157.4795 N   0  0  0  0  0  0  0  0  0  0  0  0
  151.5394  135.7661  156.4909 N   0  0  0  0  0  0  0  0  0  0  0  0
  150.9771  143.0076  158.4187 C   0  0  0  0  0  0  0  0  0  0  0  0
  153.5251  144.1241  157.8251 H   0  0  0  0  0  0  0  0  0  0  0  0
  153.2952  145.6223  158.7201 H   0  0  0  0  0  0  0  0  0  0  0  0
  152.2692  145.2562  157.3412 H   0  0  0  0  0  0  0  0  0  0  0  0
  151.0487  144.8885  159.4359 H   0  0  0  0  0  0  0  0  0  0  0  0
  153.0433  144.3462  160.8867 H   0  0  0  0  0  0  0  0  0  0  0  0
  151.6415  143.3407  161.1460 H   0  0  0  0  0  0  0  0  0  0  0  0
  154.1228  142.5688  159.5392 H   0  0  0  0  0  0  0  0  0  0  0  0
  153.6272  141.9084  161.0756 H   0  0  0  0  0  0  0  0  0  0  0  0
  153.0282  140.3939  159.1947 H   0  0  0  0  0  0  0  0  0  0  0  0
  151.6026  140.9198  160.0689 H   0  0  0  0  0  0  0  0  0  0  0  0
  150.3665  140.3786  157.8011 H   0  0  0  0  0  0  0  0  0  0  0  0
  149.9264  140.8375  155.4637 H   0  0  0  0  0  0  0  0  0  0  0  0
  151.2960  141.9306  155.3536 H   0  0  0  0  0  0  0  0  0  0  0  0
  149.9078  142.3473  156.3562 H   0  0  0  0  0  0  0  0  0  0  0  0
  152.7890  139.9978  155.9997 H   0  0  0  0  0  0  0  0  0  0  0  0
  152.8216  139.4052  157.6418 H   0  0  0  0  0  0  0  0  0  0  0  0
  151.3360  137.7345  157.0346 H   0  0  0  0  0  0  0  0  0  0  0  0
  149.1154  137.1911  154.7048 H   0  0  0  0  0  0  0  0  0  0  0  0
  150.5830  136.5604  153.9738 H   0  0  0  0  0  0  0  0  0  0  0  0
  148.3442  135.5123  156.5522 H   0  0  0  0  0  0  0  0  0  0  0  0
  150.1234  142.7127  159.0301 H   0  0  0  0  0  0  0  0  0  0  0  0
  150.5700  143.3961  157.4844 H   0  0  0  0  0  0  0  0  0  0  0  0
  152.6170  142.1757  157.6329 H   0  0  0  0  0  0  0  0  0  0  0  0
  1  2  1  0  0  0  0
  1 20  1  0  0  0  0
  1 21  1  0  0  0  0
  1 22  1  0  0  0  0
  2 19  1  0  0  0  0
  2  3  1  0  0  0  0
  2 23  1  0  0  0  0
  3  4  1  0  0  0  0
  3 24  1  0  0  0  0
  3 25  1  0  0  0  0
  4  5  1  0  0  0  0
  4 26  1  0  0  0  0
  4 27  1  0  0  0  0
  5  6  1  0  0  0  0
  5 28  1  0  0  0  0
  5 29  1  0  0  0  0
  6  7  1  0  0  0  0
  6 19  1  0  0  0  0
  6 42  1  0  0  0  0
  7  8  1  0  0  0  0
  7  9  1  0  0  0  0
  7 30  1  0  0  0  0
  8 31  1  0  0  0  0
  8 32  1  0  0  0  0
  8 33  1  0  0  0  0
  9 10  1  0  0  0  0
  9 34  1  0  0  0  0
  9 35  1  0  0  0  0
 10 11  1  0  0  0  0
 10 36  1  0  0  0  0
 11 12  2  0  0  0  0
 11 13  1  0  0  0  0
 13 14  1  0  0  0  0
 13 37  1  0  0  0  0
 13 38  1  0  0  0  0
 14 18  1  0  0  0  0
 14 15  1  0  0  0  0
 15 16  2  0  0  0  0
 15 39  1  0  0  0  0
 16 17  1  0  0  0  0
 17 18  2  0  0  0  0
 19 40  1  0  0  0  0
 19 41  1  0  0  0  0
M  CHG  1   6   1
M  END
> <s_m_source_file>
AV-unprocessed.smi

> <i_m_source_file_index>
2095

> <i_lp_mmshare_version>
43012

> <i_f3d_flags>
0

> <s_epik_input>
W0NIM11bQ0BASF0xW0NIMl1bQ0gyXVtDSDJdTihbQ0gyXTEpW0NASF0oW0NIM10pW0NIMl1bTkhdQyg9TylbQ0gyXW4yW2NIXW5ubjI=

> <s_epik_cmdline>
J2VwaWtfcHl0aG9uJywgJy1waCcsICc3LjAnLCAnLXRuJywgJzgnLCAnLW1hJywgJzIwMCcsICctbWV0YWxfYmluZGluZycsICctaW1hZScsICc8aW5maWxlLm1hZT4nLCAnLW9tYWUnLCAnPG91dGZpbGUubWFlPic=

> <r_lp_tautomer_probability>
1

> <r_epik_Ionization_Penalty>
0.00268321

> <r_epik_Ionization_Penalty_Charging>
0.00267875

> <r_epik_Ionization_Penalty_Neutral>
4.46125e-06

> <r_epik_State_Penalty>
0.00186642

> <r_epik_Charging_Adjusted_Penalty>
0.00454517

> <i_epik_Tot_Q>
1

> <i_epik_Tot_abs_Q>
1

> <r_epik_Metal_State_Penalty>
-0

> <b_epik_Metal_Only>
0

> <s_lp_Force_Field>
OPLS_2005

> <r_lp_Energy>
24.9707

> <b_lp_Chiralities_Consistent>
1

> <s_lp_Variant>
AV-unprocessed.smi:2095-7

> <Gold.Version>
5.8.1

> <Gold.Id.Protein>
6NUR|6NUR_protein|mol2

> <Gold.PLP.Fitness>
44.2717

> <Gold.PLP.PLP>
-37.3192

> <Gold.PLP.part.hbond>
-4.0000

> <Gold.PLP.part.metal>
0.0000

> <Gold.PLP.part.buried>
-4.0065

> <Gold.PLP.part.nonpolar>
-29.8745

> <Gold.PLP.part.repulsive>
0.3461

> <Gold.PLP.ligand.clash>
0.0000

> <Gold.PLP.ligand.torsion>
0.4241

> <Gold.PLP.Chemscore.Hbond>
2.5600

> <Gold.PLP.Chemscore.CHOScore>
0.0000

> <Gold.PLP.Chemscore.Metal>
0.0000

> <Gold.Chemscore.Hbonds>
donor molecule, donor type, donor heavy atom, donor atom, acceptor molecule, acceptor atom, score
      P1  H  7989  7998       L1    12  1.00
      P1  H 10752 10763       L1    18  0.65

> <Gold.PLP.Chemscore.Internal.Correction>
0.1206

> <Gold.Rescore>
     Score         DG    S(hbond)    S(metal)    S(lipo)     H(rot)  DE(clash)    DE(int)     intcor
     13.64     -15.84       1.97        0.00      90.13       2.64       0.23       1.97       ----

> <Gold.Chemscore.Fitness>
13.6410

> <Gold.Chemscore.DG>
-15.8445

> <Gold.Chemscore.ZeroCoef>
-5.4800

> <Gold.Chemscore.Hbond>
1.9724

> <Gold.Chemscore.Metal>
0.0000

> <Gold.Chemscore.Lipo>
90.1298

> <Gold.Chemscore.Internal_Hbond>
0.0000

> <Gold.Chemscore.DEClash>
0.2290

> <Gold.Chemscore.DEInternal>
1.9746

> <Gold.Chemscore.Rot>
2.6439

> <Gold.Chemscore.Internal.Correction>
   9.000000E+99

> <Gold.Chemscore.Hbonds>
donor molecule, donor type, donor heavy atom, donor atom, acceptor molecule, acceptor atom, score
      P1  H  7989  7998       L1    12  0.99
      P1  H 10752 10763       L1    18  0.60

> <Gold.Chemscore.Hbond.Weighted>
-6.5878

> <Gold.Chemscore.Metal.Weighted>
-0.0000

> <Gold.Chemscore.Lipo.Weighted>
-10.5452

> <Gold.Chemscore.Internal_Hbond.Weighted>
0.0000

> <Gold.Chemscore.DEClash.Weighted>
0.2290

> <Gold.Chemscore.DEInternal.Weighted>
1.9746

> <Gold.Chemscore.Rot.Weighted>
6.7685

> <Gold.Chemscore.Internal.Correction.Weighted>
   9.000000E+99

> <Gold.Protein.RotatedTorsions>
[ 6907 6896 6895 6894 ] final   13.14 input  -60.11 | X-H torsion
[ 7974 7965 7964 7962 ] final  172.86 input  175.53 | X-H torsion
[ 8008 7997 7996 7995 ] final  155.05 input   59.86 | X-H torsion
[ 10167 10162 10161 10158 ] final -154.48 input  -65.29 | X-H torsion
[ 10718 10713 10712 10709 ] final  -25.84 input   66.30 | X-H torsion
[ 10763 10752 10751 10750 ] final   89.94 input  -60.55 | X-H torsion
[ 11005 11000 10999 10996 ] final -165.68 input  -57.11 | X-H torsion

> <Gold.Protein.ActiveResidues>
 VAL166  LYS551  ARG553  GLY616  TRP617  ASP618  TYR619  PRO620  LYS621  CYS622 
 ASP623  PHE694  ASN695  SER759  ASP760  ASP761  ALA762  ILE779  LEU786  VAL792 
 PHE793  MET794  SER795  GLU796  ALA797  LYS798  CYS799  TRP800  GLU811  SER814 

> <Gold.Protein.RotatedAtoms>
  151.7815  135.0760  160.0374 H   0  0  0  0  0  0  0  0  0  0  0  0  # atno 6907 bound_to 6896
  152.3219  133.5859  159.5759 H   0  0  0  0  0  0  0  0  0  0  0  0  # atno 6908 bound_to 6896
  150.7374  133.9913  159.3650 H   0  0  0  0  0  0  0  0  0  0  0  0  # atno 6909 bound_to 6896
  144.7258  139.9561  143.6433 H   0  0  0  0  0  0  0  0  0  0  0  0  # atno 7974 bound_to 7965
  156.2499  140.1950  156.6741 H   0  0  0  0  0  0  0  0  0  0  0  0  # atno 8008 bound_to 7997
  154.6370  140.0588  156.9827 H   0  0  0  0  0  0  0  0  0  0  0  0  # atno 8009 bound_to 7997
  155.1621  140.3261  155.4412 H   0  0  0  0  0  0  0  0  0  0  0  0  # atno 8010 bound_to 7997
  139.7010  143.9263  152.2428 H   0  0  0  0  0  0  0  0  0  0  0  0  # atno 10167 bound_to 10162
  156.4590  130.4500  149.6941 H   0  0  0  0  0  0  0  0  0  0  0  0  # atno 10718 bound_to 10713
  153.1923  135.4452  155.0164 H   0  0  0  0  0  0  0  0  0  0  0  0  # atno 10763 bound_to 10752
  154.8098  135.3289  154.7339 H   0  0  0  0  0  0  0  0  0  0  0  0  # atno 10764 bound_to 10752
  153.7791  135.6979  153.4947 H   0  0  0  0  0  0  0  0  0  0  0  0  # atno 10765 bound_to 10752
  140.5730  134.5218  157.5165 H   0  0  0  0  0  0  0  0  0  0  0  0  # atno 11005 bound_to 11000
  146.0674  139.3664  143.0544 LP  0  0  0  0  0  0  0  0  0  0  0  0  # atno 17320 bound_to 7965
  145.8013  140.9769  143.0997 LP  0  0  0  0  0  0  0  0  0  0  0  0  # atno 17321 bound_to 7965
  139.9105  144.6859  150.8567 LP  0  0  0  0  0  0  0  0  0  0  0  0  # atno 17342 bound_to 10162
  140.7709  143.3446  151.2136 LP  0  0  0  0  0  0  0  0  0  0  0  0  # atno 17343 bound_to 10162
  156.3736  130.7543  151.2529 LP  0  0  0  0  0  0  0  0  0  0  0  0  # atno 17370 bound_to 10713
  157.7499  131.0316  150.4188 LP  0  0  0  0  0  0  0  0  0  0  0  0  # atno 17371 bound_to 10713
  139.9353  134.7887  156.0820 LP  0  0  0  0  0  0  0  0  0  0  0  0  # atno 17394 bound_to 11000
  141.1044  133.6665  156.2830 LP  0  0  0  0  0  0  0  0  0  0  0  0  # atno 17395 bound_to 11000

$$$$
