#       Name:                AV-unprocessed.smi:551
#       Creating user name   scv26
#       Creation time:       Thu Mar 26 23:39:25 2020


#       File generated by GOLD software.
#

@<TRIPOS>MOLECULE
AV-unprocessed.smi:551
    41    42     1
SMALL
NO_CHARGES


@<TRIPOS>ATOM
      1 ****        -0.6209  -3.5853   0.7517 C.3            1 S1                 0.0000
      2 ****         0.0208  -2.6538  -0.2905 C.3            1 S1                 0.0000
      3 ****         1.5648  -2.6532  -0.1973 C.3            1 S1                 0.0000
      4 ****         2.1991  -1.8118  -1.2170 N.pl3          1 S1                 0.0000
      5 ****         2.7216  -0.5546  -1.0499 C.2            1 S1                 0.0000
      6 ****         3.2018  -0.1655  -2.2736 C.2            1 S1                 0.0000
      7 ****         2.9548  -1.2016  -3.1343 N.pl3          1 S1                 1.0000
      8 ****         2.3470  -2.2027  -2.4891 C.2            1 S1                 0.0000
      9 ****        -0.5597  -1.3090  -0.2313 N.am           1 S1                 0.0000
     10 ****        -0.4372  -0.4078   0.7585 C.2            1 S1                 0.0000
     11 ****         0.1970  -0.6152   1.7930 O.2            1 S1                 0.0000
     12 ****        -1.1245   0.9449   0.5332 C.3            1 S1                 0.0000
     13 ****        -0.0791   2.0753   0.4190 C.3            1 S1                 0.0000
     14 ****        -0.7528   3.4404   0.2050 C.3            1 S1                 0.0000
     15 ****        -1.7615   3.7437   1.3239 C.3            1 S1                 0.0000
     16 ****        -2.8039   2.6214   1.4526 C.3            1 S1                 0.0000
     17 ****        -2.1295   1.2557   1.6633 C.3            1 S1                 0.0000
     18 ****        -0.2732  -4.6107   0.6234 H              1 S1                 0.0000
     19 ****        -1.7071  -3.5933   0.6569 H              1 S1                 0.0000
     20 ****        -0.3771  -3.2822   1.7703 H              1 S1                 0.0000
     21 ****        -0.2492  -3.0422  -1.2731 H              1 S1                 0.0000
     22 ****         1.9079  -2.3146   0.7807 H              1 S1                 0.0000
     23 ****         1.9488  -3.6666  -0.3220 H              1 S1                 0.0000
     24 ****         2.7089  -0.0434  -0.0976 H              1 S1                 0.0000
     25 ****         3.6885   0.7467  -2.5877 H              1 S1                 0.0000
     26 ****         2.0350  -3.1407  -2.9128 H              1 S1                 0.0000
     27 ****        -1.1104  -1.0322  -1.0313 H              1 S1                 0.0000
     28 ****        -1.6780   0.8970  -0.4065 H              1 S1                 0.0000
     29 ****         0.5318   2.1160   1.3224 H              1 S1                 0.0000
     30 ****         0.6051   1.8737  -0.4064 H              1 S1                 0.0000
     31 ****         0.0029   4.2254   0.1636 H              1 S1                 0.0000
     32 ****        -1.2621   3.4502  -0.7594 H              1 S1                 0.0000
     33 ****        -1.2326   3.8599   2.2707 H              1 S1                 0.0000
     34 ****        -2.2593   4.6938   1.1287 H              1 S1                 0.0000
     35 ****        -3.4780   2.8349   2.2826 H              1 S1                 0.0000
     36 ****        -3.4204   2.5902   0.5534 H              1 S1                 0.0000
     37 ****        -2.8923   0.4775   1.7127 H              1 S1                 0.0000
     38 ****        -1.6234   1.2529   2.6301 H              1 S1                 0.0000
     39 ****         3.1974  -1.2119  -4.1171 H              1 S1                 0.0000
     40 ****         0.6558  -1.4930   1.9307 LP             1 S1                 0.0000
     41 ****         0.2533   0.0941   2.4957 LP             1 S1                 0.0000
@<TRIPOS>BOND
    1    1    2 1     
    2    1   18 1     
    3    1   19 1     
    4    1   20 1     
    5    2    3 1     
    6    2    9 1     
    7    2   21 1     
    8    3    4 1     
    9    3   22 1     
   10    3   23 1     
   11    4    8 1     
   12    4    5 1     
   13    5    6 2     
   14    5   24 1     
   15    6    7 1     
   16    6   25 1     
   17    7    8 2     
   18    7   39 1     
   19    8   26 1     
   20    9   10 am    
   21    9   27 1     
   22   10   11 2     
   23   10   12 1     
   24   12   17 1     
   25   12   13 1     
   26   12   28 1     
   27   13   14 1     
   28   13   29 1     
   29   13   30 1     
   30   14   15 1     
   31   14   31 1     
   32   14   32 1     
   33   15   16 1     
   34   15   33 1     
   35   15   34 1     
   36   16   17 1     
   37   16   35 1     
   38   16   36 1     
   39   17   37 1     
   40   17   38 1     
   41   11   40 1     
   42   11   41 1     
@<TRIPOS>SUBSTRUCTURE
      1 S1             1
@<TRIPOS>SET
LONE_PAIRS      STATIC     ATOMS    <user>   **** ""
2 40 41
DONOR_HYDROGENS      STATIC     ATOMS    <user>   **** ""
2 39 27
ATOM$BLUE        STATIC     ATOMS    COLORGROUP SYSTEM
2 40 41
ATOM$RED        STATIC     ATOMS    COLORGROUP SYSTEM
2 39 27
