AV-unprocessed.smi:707|AV-procd|sdf|3455|dock1
  -GOLD-   22720 0443D 1   1.00000     0.00000
 Structure written by MMmdl.
 44 45  0  0  0  0  0  0  0  0  1 V2000
  157.2813  135.7540  162.0853 C   0  0  0  0  0  0  0  0  0  0  0  0
  156.3546  135.1778  163.1062 C   0  0  0  0  0  0  0  0  0  0  0  0
  156.6541  134.1209  163.8704 N   0  0  0  0  0  0  0  0  0  0  0  0
  155.5463  133.9148  164.6691 N   0  0  0  0  0  0  0  0  0  0  0  0
  154.6891  134.8682  164.3062 C   0  0  0  0  0  0  0  0  0  0  0  0
  155.1276  135.6871  163.3380 N   0  0  0  0  0  0  0  0  0  0  0  0
  154.4446  136.8124  162.7275 C   0  0  0  0  0  0  0  0  0  0  0  0
  154.3478  136.6551  161.2041 C   0  0  0  0  0  0  0  0  0  0  0  0
  153.8181  137.8681  160.5979 N   0  0  0  0  0  0  0  0  0  0  0  0
  152.8552  137.8922  159.6650 C   0  0  0  0  0  0  0  0  0  0  0  0
  152.3128  136.8782  159.2266 O   0  0  0  0  0  0  0  0  0  0  0  0
  152.4254  139.2685  159.1605 C   0  0  0  0  0  0  0  0  0  0  0  0
  153.5848  140.0276  158.8428 O   0  0  0  0  0  0  0  0  0  0  0  0
  153.7334  141.2196  159.6034 C   0  0  2  0  0  0  0  0  0  0  0  0
  153.5373  140.9433  161.1081 C   0  0  0  0  0  0  0  0  0  0  0  0
  153.5659  142.2468  161.9211 C   0  0  0  0  0  0  0  0  0  0  0  0
  152.5241  143.2518  161.4050 C   0  0  0  0  0  0  0  0  0  0  0  0
  152.7113  143.5374  159.9026 C   0  0  2  0  0  0  0  0  0  0  0  0
  151.6662  144.5368  159.3866 C   0  0  0  0  0  0  0  0  0  0  0  0
  152.6805  142.2225  159.0989 C   0  0  0  0  0  0  0  0  0  0  0  0
  158.2385  135.2321  162.1016 H   0  0  0  0  0  0  0  0  0  0  0  0
  157.4611  136.8094  162.2899 H   0  0  0  0  0  0  0  0  0  0  0  0
  156.8504  135.6556  161.0889 H   0  0  0  0  0  0  0  0  0  0  0  0
  153.7144  134.9727  164.7599 H   0  0  0  0  0  0  0  0  0  0  0  0
  153.4518  136.9039  163.1697 H   0  0  0  0  0  0  0  0  0  0  0  0
  154.9876  137.7241  162.9813 H   0  0  0  0  0  0  0  0  0  0  0  0
  155.3323  136.4451  160.7832 H   0  0  0  0  0  0  0  0  0  0  0  0
  153.7036  135.8105  160.9544 H   0  0  0  0  0  0  0  0  0  0  0  0
  154.2111  138.7479  160.9003 H   0  0  0  0  0  0  0  0  0  0  0  0
  151.7817  139.1486  158.2889 H   0  0  0  0  0  0  0  0  0  0  0  0
  151.8446  139.7653  159.9389 H   0  0  0  0  0  0  0  0  0  0  0  0
  154.7227  141.6480  159.4316 H   0  0  0  0  0  0  0  0  0  0  0  0
  152.5849  140.4357  161.2665 H   0  0  0  0  0  0  0  0  0  0  0  0
  154.3104  140.2729  161.4825 H   0  0  0  0  0  0  0  0  0  0  0  0
  153.3835  142.0314  162.9743 H   0  0  0  0  0  0  0  0  0  0  0  0
  154.5607  142.6902  161.8639 H   0  0  0  0  0  0  0  0  0  0  0  0
  151.5220  142.8599  161.5847 H   0  0  0  0  0  0  0  0  0  0  0  0
  152.5990  144.1793  161.9738 H   0  0  0  0  0  0  0  0  0  0  0  0
  153.6940  143.9915  159.7664 H   0  0  0  0  0  0  0  0  0  0  0  0
  150.6548  144.1424  159.4901 H   0  0  0  0  0  0  0  0  0  0  0  0
  151.8286  144.7650  158.3328 H   0  0  0  0  0  0  0  0  0  0  0  0
  151.7152  145.4763  159.9379 H   0  0  0  0  0  0  0  0  0  0  0  0
  152.8527  142.4298  158.0422 H   0  0  0  0  0  0  0  0  0  0  0  0
  151.6878  141.7746  159.1669 H   0  0  0  0  0  0  0  0  0  0  0  0
  1  2  1  0  0  0  0
  1 21  1  0  0  0  0
  1 22  1  0  0  0  0
  1 23  1  0  0  0  0
  2  6  1  0  0  0  0
  2  3  2  0  0  0  0
  3  4  1  0  0  0  0
  4  5  2  0  0  0  0
  5  6  1  0  0  0  0
  5 24  1  0  0  0  0
  6  7  1  0  0  0  0
  7  8  1  0  0  0  0
  7 25  1  0  0  0  0
  7 26  1  0  0  0  0
  8  9  1  0  0  0  0
  8 27  1  0  0  0  0
  8 28  1  0  0  0  0
  9 10  1  0  0  0  0
  9 29  1  0  0  0  0
 10 11  2  0  0  0  0
 10 12  1  0  0  0  0
 12 13  1  0  0  0  0
 12 30  1  0  0  0  0
 12 31  1  0  0  0  0
 13 14  1  0  0  0  0
 14 20  1  0  0  0  0
 14 15  1  0  0  0  0
 14 32  1  0  0  0  0
 15 16  1  0  0  0  0
 15 33  1  0  0  0  0
 15 34  1  0  0  0  0
 16 17  1  0  0  0  0
 16 35  1  0  0  0  0
 16 36  1  0  0  0  0
 17 18  1  0  0  0  0
 17 37  1  0  0  0  0
 17 38  1  0  0  0  0
 18 19  1  0  0  0  0
 18 20  1  0  0  0  0
 18 39  1  0  0  0  0
 19 40  1  0  0  0  0
 19 41  1  0  0  0  0
 19 42  1  0  0  0  0
 20 43  1  0  0  0  0
 20 44  1  0  0  0  0
M  END
> <s_m_source_file>
AV-unprocessed.smi

> <i_m_source_file_index>
707

> <i_lp_mmshare_version>
43012

> <i_f3d_flags>
0

> <s_epik_input>
W0NIM11jMW5uW2NIXW4xW0NIMl1bQ0gyXVtOSF1DKD1PKVtDSDJdT1tDQEBIXTJbQ0gyXVtDSDJdW0NIMl1bQ0BASF0oW0NIM10pW0NIMl0y

> <s_epik_cmdline>
J2VwaWtfcHl0aG9uJywgJy1waCcsICc3LjAnLCAnLXRuJywgJzgnLCAnLW1hJywgJzIwMCcsICctbWV0YWxfYmluZGluZycsICctaW1hZScsICc8aW5maWxlLm1hZT4nLCAnLW9tYWUnLCAnPG91dGZpbGUubWFlPic=

> <r_lp_tautomer_probability>
1

> <r_epik_Ionization_Penalty>
0.000271783

> <r_epik_Ionization_Penalty_Charging>
0

> <r_epik_Ionization_Penalty_Neutral>
0.000271783

> <r_epik_State_Penalty>
-0

> <r_epik_Charging_Adjusted_Penalty>
0

> <i_epik_Tot_Q>
0

> <i_epik_Tot_abs_Q>
0

> <r_epik_Metal_State_Penalty>
-0

> <b_epik_Metal_Only>
0

> <s_lp_Force_Field>
OPLS_2005

> <r_lp_Energy>
13.3138

> <b_lp_Chiralities_Consistent>
1

> <s_lp_Variant>
AV-unprocessed.smi:707-3

> <Gold.Version>
5.8.1

> <Gold.Id.Protein>
6NUR|6NUR_protein|mol2

> <Gold.PLP.Fitness>
46.4433

> <Gold.PLP.PLP>
-41.7925

> <Gold.PLP.part.hbond>
-2.0000

> <Gold.PLP.part.metal>
0.0000

> <Gold.PLP.part.buried>
-5.3165

> <Gold.PLP.part.nonpolar>
-35.4800

> <Gold.PLP.part.repulsive>
0.1943

> <Gold.PLP.ligand.clash>
0.0000

> <Gold.PLP.ligand.torsion>
0.6952

> <Gold.PLP.Chemscore.Hbond>
1.9825

> <Gold.PLP.Chemscore.CHOScore>
0.0000

> <Gold.PLP.Chemscore.Metal>
0.0000

> <Gold.Chemscore.Hbonds>
donor molecule, donor type, donor heavy atom, donor atom, acceptor molecule, acceptor atom, score
      P1  H  6896  6909       L1    11  0.96
      P1  H  7997  8010       L1    13  0.99

> <Gold.PLP.Chemscore.Internal.Correction>
0.0937

> <Gold.Rescore>
     Score         DG    S(hbond)    S(metal)    S(lipo)     H(rot)  DE(clash)    DE(int)     intcor
     16.01     -16.73       1.65        0.00     101.88       2.42       0.04       0.69       ----

> <Gold.Chemscore.Fitness>
16.0058

> <Gold.Chemscore.DG>
-16.7348

> <Gold.Chemscore.ZeroCoef>
-5.4800

> <Gold.Chemscore.Hbond>
1.6549

> <Gold.Chemscore.Metal>
0.0000

> <Gold.Chemscore.Lipo>
101.8844

> <Gold.Chemscore.Internal_Hbond>
0.0000

> <Gold.Chemscore.DEClash>
0.0437

> <Gold.Chemscore.DEInternal>
0.6853

> <Gold.Chemscore.Rot>
2.4191

> <Gold.Chemscore.Internal.Correction>
   9.000000E+99

> <Gold.Chemscore.Hbonds>
donor molecule, donor type, donor heavy atom, donor atom, acceptor molecule, acceptor atom, score
      P1  H  6896  6909       L1    11  0.89
      P1  H  7997  8010       L1    13  0.73

> <Gold.Chemscore.Hbond.Weighted>
-5.5272

> <Gold.Chemscore.Metal.Weighted>
-0.0000

> <Gold.Chemscore.Lipo.Weighted>
-11.9205

> <Gold.Chemscore.Internal_Hbond.Weighted>
0.0000

> <Gold.Chemscore.DEClash.Weighted>
0.0437

> <Gold.Chemscore.DEInternal.Weighted>
0.6853

> <Gold.Chemscore.Rot.Weighted>
6.1929

> <Gold.Chemscore.Internal.Correction.Weighted>
   9.000000E+99

> <Gold.Protein.RotatedTorsions>
[ 6907 6896 6895 6894 ] final  120.41 input  -60.11 | X-H torsion
[ 7974 7965 7964 7962 ] final -138.53 input  175.53 | X-H torsion
[ 8008 7997 7996 7995 ] final   20.99 input   59.86 | X-H torsion
[ 10167 10162 10161 10158 ] final  -46.27 input  -65.29 | X-H torsion
[ 10718 10713 10712 10709 ] final   34.41 input   66.30 | X-H torsion
[ 10763 10752 10751 10750 ] final -143.70 input  -60.55 | X-H torsion
[ 11005 11000 10999 10996 ] final  141.27 input  -57.11 | X-H torsion

> <Gold.Protein.ActiveResidues>
 VAL166  LYS551  ARG553  GLY616  TRP617  ASP618  TYR619  PRO620  LYS621  CYS622 
 ASP623  PHE694  ASN695  SER759  ASP760  ASP761  ALA762  ILE779  LEU786  VAL792 
 PHE793  MET794  SER795  GLU796  ALA797  LYS798  CYS799  TRP800  GLU811  SER814 

> <Gold.Protein.RotatedAtoms>
  152.4400  133.7431  159.6651 H   0  0  0  0  0  0  0  0  0  0  0  0  # atno 6907 bound_to 6896
  150.8289  133.8114  159.3113 H   0  0  0  0  0  0  0  0  0  0  0  0  # atno 6908 bound_to 6896
  151.5773  135.1062  160.0061 H   0  0  0  0  0  0  0  0  0  0  0  0  # atno 6909 bound_to 6896
  144.8751  140.6425  143.5242 H   0  0  0  0  0  0  0  0  0  0  0  0  # atno 7974 bound_to 7965
  154.9438  140.3056  155.5108 H   0  0  0  0  0  0  0  0  0  0  0  0  # atno 8008 bound_to 7997
  156.2993  140.2331  156.4447 H   0  0  0  0  0  0  0  0  0  0  0  0  # atno 8009 bound_to 7997
  154.8120  140.0428  157.1338 H   0  0  0  0  0  0  0  0  0  0  0  0  # atno 8010 bound_to 7997
  140.6824  143.2839  151.3759 H   0  0  0  0  0  0  0  0  0  0  0  0  # atno 10167 bound_to 10162
  157.3100  130.7394  149.6719 H   0  0  0  0  0  0  0  0  0  0  0  0  # atno 10718 bound_to 10713
  154.8459  135.3461  154.6228 H   0  0  0  0  0  0  0  0  0  0  0  0  # atno 10763 bound_to 10752
  153.6837  135.6978  153.5115 H   0  0  0  0  0  0  0  0  0  0  0  0  # atno 10764 bound_to 10752
  153.2648  135.4311  155.0886 H   0  0  0  0  0  0  0  0  0  0  0  0  # atno 10765 bound_to 10752
  140.0389  134.9315  157.0805 H   0  0  0  0  0  0  0  0  0  0  0  0  # atno 11005 bound_to 11000
  145.4057  139.1589  143.4153 LP  0  0  0  0  0  0  0  0  0  0  0  0  # atno 17320 bound_to 7965
  146.2957  140.4158  142.8722 LP  0  0  0  0  0  0  0  0  0  0  0  0  # atno 17321 bound_to 7965
  139.6156  144.1009  152.2342 LP  0  0  0  0  0  0  0  0  0  0  0  0  # atno 17342 bound_to 10162
  140.0437  144.5987  150.7390 LP  0  0  0  0  0  0  0  0  0  0  0  0  # atno 17343 bound_to 10162
  155.9677  130.4254  150.4653 LP  0  0  0  0  0  0  0  0  0  0  0  0  # atno 17370 bound_to 10713
  157.2649  131.0575  151.2297 LP  0  0  0  0  0  0  0  0  0  0  0  0  # atno 17371 bound_to 10713
  140.4102  134.1989  155.7163 LP  0  0  0  0  0  0  0  0  0  0  0  0  # atno 17394 bound_to 11000
  141.1872  133.8286  157.1040 LP  0  0  0  0  0  0  0  0  0  0  0  0  # atno 17395 bound_to 11000

$$$$
