AV-unprocessed.smi:3354|AV-procd|sdf|12959|dock6
  -GOLD-   2272019393D 1   1.00000     0.00000
 Structure written by MMmdl.
 38 40  0  0  0  0  0  0  0  0  1 V2000
  152.4693  139.1433  156.0580 C   0  0  0  0  0  0  0  0  0  0  0  0
  151.3007  139.6832  155.2628 C   0  0  2  0  0  0  0  0  0  0  0  0
  150.6827  141.0106  155.6380 C   0  0  0  0  0  0  0  0  0  0  0  0
  149.9068  139.7343  155.8620 C   0  0  1  0  0  0  0  0  0  0  0  0
  148.7458  139.5059  155.0559 N   0  0  0  0  0  0  0  0  0  0  0  0
  148.1762  138.1698  155.0096 C   0  0  0  0  0  0  0  0  0  0  0  0
  146.9816  138.2645  154.0451 C   0  0  2  0  0  0  0  0  0  0  0  0
  146.9559  137.1238  153.1337 N   0  0  0  0  0  0  0  0  0  0  0  0
  145.8996  136.3221  152.9408 C   0  0  0  0  0  0  0  0  0  0  0  0
  144.8211  136.4738  153.5143 O   0  0  0  0  0  0  0  0  0  0  0  0
  146.1743  135.3658  152.0370 N   0  0  0  0  0  0  0  0  0  0  0  0
  145.3367  134.3140  151.5768 C   0  0  0  0  0  0  0  0  0  0  0  0
  145.7530  133.2929  150.6883 C   0  0  0  0  0  0  0  0  0  0  0  0
  144.8197  132.3169  150.2894 C   0  0  0  0  0  0  0  0  0  0  0  0
  143.5050  132.3995  150.7875 C   0  0  0  0  0  0  0  0  0  0  0  0
  143.0910  133.3738  151.6248 N   0  0  0  0  0  0  0  0  0  0  0  0
  143.9911  134.3068  152.0018 C   0  0  0  0  0  0  0  0  0  0  0  0
  147.1583  139.6029  153.3102 C   0  0  0  0  0  0  0  0  0  0  0  0
  148.2894  140.2821  154.0632 C   0  0  0  0  0  0  0  0  0  0  0  0
  148.7128  141.3941  153.7514 O   0  0  0  0  0  0  0  0  0  0  0  0
  152.3493  139.3590  157.1201 H   0  0  0  0  0  0  0  0  0  0  0  0
  153.3981  139.5981  155.7135 H   0  0  0  0  0  0  0  0  0  0  0  0
  152.5408  138.0636  155.9285 H   0  0  0  0  0  0  0  0  0  0  0  0
  151.3812  139.4968  154.1937 H   0  0  0  0  0  0  0  0  0  0  0  0
  151.0686  141.5213  156.5179 H   0  0  0  0  0  0  0  0  0  0  0  0
  150.3683  141.6615  154.8242 H   0  0  0  0  0  0  0  0  0  0  0  0
  149.8222  139.4058  156.8963 H   0  0  0  0  0  0  0  0  0  0  0  0
  148.9368  137.4739  154.6509 H   0  0  0  0  0  0  0  0  0  0  0  0
  147.8637  137.8434  156.0025 H   0  0  0  0  0  0  0  0  0  0  0  0
  146.0585  138.2923  154.6276 H   0  0  0  0  0  0  0  0  0  0  0  0
  147.8015  136.9329  152.6162 H   0  0  0  0  0  0  0  0  0  0  0  0
  147.0779  135.4243  151.5904 H   0  0  0  0  0  0  0  0  0  0  0  0
  146.7560  133.2453  150.2942 H   0  0  0  0  0  0  0  0  0  0  0  0
  145.1044  131.5252  149.6123 H   0  0  0  0  0  0  0  0  0  0  0  0
  142.7651  131.6672  150.5002 H   0  0  0  0  0  0  0  0  0  0  0  0
  143.6232  135.0723  152.6692 H   0  0  0  0  0  0  0  0  0  0  0  0
  147.4503  139.4711  152.2675 H   0  0  0  0  0  0  0  0  0  0  0  0
  146.2506  140.2066  153.3414 H   0  0  0  0  0  0  0  0  0  0  0  0
  1  2  1  0  0  0  0
  1 21  1  0  0  0  0
  1 22  1  0  0  0  0
  1 23  1  0  0  0  0
  2  4  1  0  0  0  0
  2  3  1  0  0  0  0
  2 24  1  0  0  0  0
  3  4  1  0  0  0  0
  3 25  1  0  0  0  0
  3 26  1  0  0  0  0
  4  5  1  0  0  0  0
  4 27  1  0  0  0  0
  5 19  1  0  0  0  0
  5  6  1  0  0  0  0
  6  7  1  0  0  0  0
  6 28  1  0  0  0  0
  6 29  1  0  0  0  0
  7  8  1  0  0  0  0
  7 18  1  0  0  0  0
  7 30  1  0  0  0  0
  8  9  1  0  0  0  0
  8 31  1  0  0  0  0
  9 10  2  0  0  0  0
  9 11  1  0  0  0  0
 11 12  1  0  0  0  0
 11 32  1  0  0  0  0
 12 17  1  0  0  0  0
 12 13  2  0  0  0  0
 13 14  1  0  0  0  0
 13 33  1  0  0  0  0
 14 15  2  0  0  0  0
 14 34  1  0  0  0  0
 15 16  1  0  0  0  0
 15 35  1  0  0  0  0
 16 17  2  0  0  0  0
 17 36  1  0  0  0  0
 18 19  1  0  0  0  0
 18 37  1  0  0  0  0
 18 38  1  0  0  0  0
 19 20  2  0  0  0  0
M  END
> <s_m_source_file>
AV-unprocessed.smi

> <i_m_source_file_index>
3354

> <i_lp_mmshare_version>
43012

> <i_f3d_flags>
0

> <s_epik_input>
W0NIM11bQ0BASF0xW0NIMl1bQ0BIXTFOMltDSDJdW0NASF0oW0NIMl1DMj1PKVtOSF1DKD1PKVtOSF1jM1tjSF1bY0hdW2NIXW5bY0hdMw==

> <s_epik_cmdline>
J2VwaWtfcHl0aG9uJywgJy1waCcsICc3LjAnLCAnLXRuJywgJzgnLCAnLW1hJywgJzIwMCcsICctbWV0YWxfYmluZGluZycsICctaW1hZScsICc8aW5maWxlLm1hZT4nLCAnLW9tYWUnLCAnPG91dGZpbGUubWFlPic=

> <r_epik_Ionization_Penalty>
0.00456191

> <r_epik_Ionization_Penalty_Charging>
0

> <r_epik_Ionization_Penalty_Neutral>
0.00456191

> <r_epik_State_Penalty>
0.00327094

> <r_epik_Charging_Adjusted_Penalty>
0.00327094

> <i_epik_Tot_Q>
0

> <i_epik_Tot_abs_Q>
0

> <r_epik_Metal_State_Penalty>
-0

> <b_epik_Metal_Only>
0

> <s_lp_Force_Field>
OPLS_2005

> <r_lp_Energy>
40.1113

> <b_lp_Chiralities_Consistent>
1

> <s_lp_Variant>
AV-unprocessed.smi:3354-5

> <Gold.Version>
5.8.1

> <Gold.Id.Protein>
6NUR|6NUR_protein|mol2

> <Gold.PLP.Fitness>
41.9595

> <Gold.PLP.PLP>
-31.3350

> <Gold.PLP.part.hbond>
-2.9621

> <Gold.PLP.part.metal>
0.0000

> <Gold.PLP.part.buried>
-2.5462

> <Gold.PLP.part.nonpolar>
-25.6550

> <Gold.PLP.part.repulsive>
1.3768

> <Gold.PLP.ligand.clash>
0.0000

> <Gold.PLP.ligand.torsion>
0.3377

> <Gold.PLP.Chemscore.Hbond>
2.6411

> <Gold.PLP.Chemscore.CHOScore>
1.0000

> <Gold.PLP.Chemscore.Metal>
0.0000

> <Gold.Chemscore.Hbonds>
donor molecule, donor type, donor heavy atom, donor atom, acceptor molecule, acceptor atom, score
      L1  H     8    31       P1  7948  1.00
      L1  H    11    32       P1  7948  0.86
      P1  H  8011  8017       L1    20  0.72
      L1  C    15    35       P1 10952  1.00

> <Gold.PLP.Chemscore.Internal.Correction>
0.3766

> <Gold.Rescore>
     Score         DG    S(hbond)    S(metal)    S(lipo)     H(rot)  DE(clash)    DE(int)     intcor
     15.73     -19.12       2.50        0.00      72.35       1.24       0.21       3.18       ----

> <Gold.Chemscore.Fitness>
15.7329

> <Gold.Chemscore.DG>
-19.1241

> <Gold.Chemscore.ZeroCoef>
-5.4800

> <Gold.Chemscore.Hbond>
2.4980

> <Gold.Chemscore.Metal>
0.0000

> <Gold.Chemscore.Lipo>
72.3518

> <Gold.Chemscore.Internal_Hbond>
0.0000

> <Gold.Chemscore.DEClash>
0.2131

> <Gold.Chemscore.DEInternal>
3.1781

> <Gold.Chemscore.Rot>
1.2361

> <Gold.Chemscore.Internal.Correction>
   9.000000E+99

> <Gold.Chemscore.Hbonds>
donor molecule, donor type, donor heavy atom, donor atom, acceptor molecule, acceptor atom, score
      L1  H     8    31       P1  7948  0.94
      L1  H    11    32       P1  7948  0.79
      P1  H  8011  8017       L1    20  0.68

> <Gold.Chemscore.Hbond.Weighted>
-8.3433

> <Gold.Chemscore.Metal.Weighted>
-0.0000

> <Gold.Chemscore.Lipo.Weighted>
-8.4652

> <Gold.Chemscore.Internal_Hbond.Weighted>
0.0000

> <Gold.Chemscore.DEClash.Weighted>
0.2131

> <Gold.Chemscore.DEInternal.Weighted>
3.1781

> <Gold.Chemscore.Rot.Weighted>
3.1643

> <Gold.Chemscore.Internal.Correction.Weighted>
   9.000000E+99

> <Gold.Protein.RotatedTorsions>
[ 6907 6896 6895 6894 ] final -128.18 input  -60.11 | X-H torsion
[ 7974 7965 7964 7962 ] final  -22.22 input  175.53 | X-H torsion
[ 8008 7997 7996 7995 ] final  -36.81 input   59.86 | X-H torsion
[ 10167 10162 10161 10158 ] final  144.45 input  -65.29 | X-H torsion
[ 10718 10713 10712 10709 ] final   53.73 input   66.30 | X-H torsion
[ 10763 10752 10751 10750 ] final -168.66 input  -60.55 | X-H torsion
[ 11005 11000 10999 10996 ] final  139.67 input  -57.11 | X-H torsion

> <Gold.Protein.ActiveResidues>
 VAL166  LYS551  ARG553  GLY616  TRP617  ASP618  TYR619  PRO620  LYS621  CYS622 
 ASP623  PHE694  ASN695  SER759  ASP760  ASP761  ALA762  ILE779  LEU786  VAL792 
 PHE793  MET794  SER795  GLU796  ALA797  LYS798  CYS799  TRP800  GLU811  SER814 

> <Gold.Protein.RotatedAtoms>
  150.9152  133.6948  159.2844 H   0  0  0  0  0  0  0  0  0  0  0  0  # atno 6907 bound_to 6896
  151.4421  135.1020  159.9683 H   0  0  0  0  0  0  0  0  0  0  0  0  # atno 6908 bound_to 6896
  152.4951  133.8558  159.7280 H   0  0  0  0  0  0  0  0  0  0  0  0  # atno 6909 bound_to 6896
  146.1688  140.4449  142.8541 H   0  0  0  0  0  0  0  0  0  0  0  0  # atno 7974 bound_to 7965
  154.4065  140.1621  156.2435 H   0  0  0  0  0  0  0  0  0  0  0  0  # atno 8008 bound_to 7997
  155.9181  140.3423  155.6128 H   0  0  0  0  0  0  0  0  0  0  0  0  # atno 8009 bound_to 7997
  155.7256  140.0774  157.2302 H   0  0  0  0  0  0  0  0  0  0  0  0  # atno 8010 bound_to 7997
  139.4947  144.5971  151.6560 H   0  0  0  0  0  0  0  0  0  0  0  0  # atno 10167 bound_to 10162
  157.5193  130.8554  149.8537 H   0  0  0  0  0  0  0  0  0  0  0  0  # atno 10718 bound_to 10713
  154.6605  135.2924  154.9872 H   0  0  0  0  0  0  0  0  0  0  0  0  # atno 10763 bound_to 10752
  154.0933  135.6587  153.4860 H   0  0  0  0  0  0  0  0  0  0  0  0  # atno 10764 bound_to 10752
  153.0427  135.5225  154.7554 H   0  0  0  0  0  0  0  0  0  0  0  0  # atno 10765 bound_to 10752
  140.0271  134.9369  157.0590 H   0  0  0  0  0  0  0  0  0  0  0  0  # atno 11005 bound_to 11000
  144.8132  140.6423  143.6401 LP  0  0  0  0  0  0  0  0  0  0  0  0  # atno 17320 bound_to 7965
  145.4395  139.1537  143.3978 LP  0  0  0  0  0  0  0  0  0  0  0  0  # atno 17321 bound_to 7965
  140.5612  144.0266  150.6170 LP  0  0  0  0  0  0  0  0  0  0  0  0  # atno 17342 bound_to 10162
  140.3352  143.3053  152.0645 LP  0  0  0  0  0  0  0  0  0  0  0  0  # atno 17343 bound_to 10162
  156.0342  130.3756  150.1605 LP  0  0  0  0  0  0  0  0  0  0  0  0  # atno 17370 bound_to 10713
  156.9793  130.9859  151.3441 LP  0  0  0  0  0  0  0  0  0  0  0  0  # atno 17371 bound_to 10713
  140.4287  134.1803  155.7167 LP  0  0  0  0  0  0  0  0  0  0  0  0  # atno 17394 bound_to 11000
  141.1809  133.8415  157.1260 LP  0  0  0  0  0  0  0  0  0  0  0  0  # atno 17395 bound_to 11000

$$$$
