#       Name:                AV-unprocessed.smi:1219
#       Creating user name   scv26
#       Creation time:       Fri Mar 27 04:17:04 2020


#       File generated by GOLD software.
#

@<TRIPOS>MOLECULE
AV-unprocessed.smi:1219
    48    49     1
SMALL
NO_CHARGES


@<TRIPOS>ATOM
      1 ****        -1.6352  -0.4146   2.1424 O.2            1 S1                 0.0000
      2 ****        -2.2577  -0.0490   1.1452 C.2            1 S1                 0.0000
      3 ****        -2.4748  -0.8357   0.0809 N.am           1 S1                 0.0000
      4 ****        -2.0176  -2.2159  -0.0577 C.3            1 S1                 0.0000
      5 ****        -0.4820  -2.3378  -0.1653 C.3            1 S1                 0.0000
      6 ****        -0.1651  -3.7062  -0.3200 O.3            1 S1                 0.0000
      7 ****         0.1199  -1.5575  -1.3544 C.3            1 S1                 0.0000
      8 ****         1.6014  -1.4864  -1.2810 N.4            1 S1                 1.0000
      9 ****         2.2326  -1.3625  -2.6204 C.3            1 S1                 0.0000
     10 ****         3.7660  -1.4381  -2.5204 C.3            1 S1                 0.0000
     11 ****         4.3099  -0.3736  -1.5585 C.3            1 S1                 0.0000
     12 ****         3.6171  -0.4959  -0.1950 C.3            1 S1                 0.0000
     13 ****         2.0885  -0.4341  -0.3481 C.3            1 S1                 0.0000
     14 ****        -2.8001   1.1684   0.9694 N.am           1 S1                 0.0000
     15 ****        -2.7287   2.2930   1.8339 C.ar           1 S1                 0.0000
     16 ****        -3.4310   3.4359   1.3891 C.ar           1 S1                 0.0000
     17 ****        -3.4163   4.6065   2.1721 C.ar           1 S1                 0.0000
     18 ****        -2.6972   4.6043   3.3806 C.ar           1 S1                 0.0000
     19 ****        -2.0246   3.4250   3.7501 C.ar           1 S1                 0.0000
     20 ****        -2.0370   2.3022   3.0008 N.ar           1 S1                 0.0000
     21 ****        -3.0051  -0.4546  -0.6890 H              1 S1                 0.0000
     22 ****        -2.3858  -2.7994   0.7879 H              1 S1                 0.0000
     23 ****        -2.4888  -2.6328  -0.9486 H              1 S1                 0.0000
     24 ****        -0.0367  -2.0093   0.7726 H              1 S1                 0.0000
     25 ****        -0.6192  -4.0397  -1.0792 H              1 S1                 0.0000
     26 ****        -0.1927  -2.0401  -2.2820 H              1 S1                 0.0000
     27 ****        -0.2721  -0.5407  -1.4010 H              1 S1                 0.0000
     28 ****         1.8789  -2.1644  -3.2699 H              1 S1                 0.0000
     29 ****         1.9289  -0.4215  -3.0822 H              1 S1                 0.0000
     30 ****         4.0613  -2.4294  -2.1740 H              1 S1                 0.0000
     31 ****         4.2113  -1.3103  -3.5075 H              1 S1                 0.0000
     32 ****         5.3889  -0.4828  -1.4447 H              1 S1                 0.0000
     33 ****         4.1376   0.6210  -1.9718 H              1 S1                 0.0000
     34 ****         3.9001  -1.4370   0.2786 H              1 S1                 0.0000
     35 ****         3.9579   0.2993   0.4688 H              1 S1                 0.0000
     36 ****         1.7908   0.5481  -0.7189 H              1 S1                 0.0000
     37 ****         1.6288  -0.5489   0.6330 H              1 S1                 0.0000
     38 ****        -3.3092   1.3146   0.1102 H              1 S1                 0.0000
     39 ****        -3.9782   3.4208   0.4576 H              1 S1                 0.0000
     40 ****        -3.9468   5.4902   1.8499 H              1 S1                 0.0000
     41 ****        -2.6619   5.4828   4.0078 H              1 S1                 0.0000
     42 ****        -1.4605   3.3813   4.6699 H              1 S1                 0.0000
     43 ****         1.9059  -2.3754  -0.9095 H              1 S1                 0.0000
     44 ****        -1.2616  -1.3411   2.1867 LP             1 S1                 0.0000
     45 ****        -1.5032   0.2149   2.9080 LP             1 S1                 0.0000
     46 ****        -0.4531  -4.2120   0.4931 LP             1 S1                 0.0000
     47 ****         0.8214  -3.8107  -0.4455 LP             1 S1                 0.0000
     48 ****        -1.5423   1.4871   3.3022 LP             1 S1                 0.0000
@<TRIPOS>BOND
    1    1    2 2     
    2    2    3 am    
    3    2   14 am    
    4    3    4 1     
    5    3   21 1     
    6    4    5 1     
    7    4   22 1     
    8    4   23 1     
    9    5    6 1     
   10    5    7 1     
   11    5   24 1     
   12    6   25 1     
   13    7    8 1     
   14    7   26 1     
   15    7   27 1     
   16    8   13 1     
   17    8    9 1     
   18    8   43 1     
   19    9   10 1     
   20    9   28 1     
   21    9   29 1     
   22   10   11 1     
   23   10   30 1     
   24   10   31 1     
   25   11   12 1     
   26   11   32 1     
   27   11   33 1     
   28   12   13 1     
   29   12   34 1     
   30   12   35 1     
   31   13   36 1     
   32   13   37 1     
   33   14   15 1     
   34   14   38 1     
   35   15   20 ar    
   36   15   16 ar    
   37   16   17 ar    
   38   16   39 1     
   39   17   18 ar    
   40   17   40 1     
   41   18   19 ar    
   42   18   41 1     
   43   19   20 ar    
   44   19   42 1     
   45    1   44 1     
   46    1   45 1     
   47    6   46 1     
   48    6   47 1     
   49   20   48 1     
@<TRIPOS>SUBSTRUCTURE
      1 S1             1
@<TRIPOS>SET
LONE_PAIRS      STATIC     ATOMS    <user>   **** ""
5 44 45 46 47 48
DONOR_HYDROGENS      STATIC     ATOMS    <user>   **** ""
4 21 25 43 38
ATOM$BLUE        STATIC     ATOMS    COLORGROUP SYSTEM
5 44 45 46 47 48
ATOM$RED        STATIC     ATOMS    COLORGROUP SYSTEM
4 21 25 43 38
