AV-unprocessed.smi:1100|AV-procd|sdf|4762|dock7
  -GOLD-   22720 3303D 1   1.00000     0.00000
 Structure written by MMmdl.
 44 45  0  0  0  0  0  0  0  0  2 V2000
  147.1980  138.9055  153.9009 C   0  0  0  0  0  0  0  0  0  0  0  0
  147.7937  138.3535  155.2198 C   0  0  1  0  0  0  0  0  0  0  0  0
  147.5793  136.8160  155.2979 C   0  0  0  0  0  0  0  0  0  0  0  0
  147.5491  136.1693  153.9886 N   0  0  0  0  0  0  0  0  0  0  0  0
  146.5938  135.3271  153.5697 C   0  0  0  0  0  0  0  0  0  0  0  0
  145.6379  134.9969  154.2711 O   0  0  0  0  0  0  0  0  0  0  0  0
  146.8324  134.9170  152.3098 N   0  0  0  0  0  0  0  0  0  0  0  0
  146.0553  134.0948  151.4796 C   0  0  0  0  0  0  0  0  0  0  0  0
  144.6159  134.2218  151.5654 C   0  0  0  0  0  0  0  0  0  0  0  0
  143.8009  133.4594  150.8107 C   0  0  0  0  0  0  0  0  0  0  0  0
  144.3312  132.4685  149.8714 C   0  0  0  0  0  0  0  0  0  0  0  0
  143.5987  131.7690  149.1710 O   0  0  0  0  0  0  0  0  0  0  0  0
  145.6912  132.3711  149.8241 N   0  0  0  0  0  0  0  0  0  0  0  0
  146.3186  131.4021  148.9216 C   0  0  0  0  0  0  0  0  0  0  0  0
  146.5360  133.1724  150.6165 C   0  0  0  0  0  0  0  0  0  0  0  0
  149.2419  138.7017  155.4027 N   0  3  0  0  0  0  0  0  0  0  0  0
  150.1600  138.1303  154.3776 C   0  0  0  0  0  0  0  0  0  0  0  0
  151.6217  138.5249  154.6506 C   0  0  0  0  0  0  0  0  0  0  0  0
  151.7398  139.9381  154.7038 O   0  0  0  0  0  0  0  0  0  0  0  0
  150.9594  140.4831  155.7563 C   0  0  0  0  0  0  0  0  0  0  0  0
  149.4746  140.1691  155.5104 C   0  0  0  0  0  0  0  0  0  0  0  0
  146.1608  138.6015  153.7626 H   0  0  0  0  0  0  0  0  0  0  0  0
  147.7587  138.5549  153.0340 H   0  0  0  0  0  0  0  0  0  0  0  0
  147.1837  139.9952  153.8822 H   0  0  0  0  0  0  0  0  0  0  0  0
  147.2449  138.8272  156.0355 H   0  0  0  0  0  0  0  0  0  0  0  0
  148.3852  136.3618  155.8752 H   0  0  0  0  0  0  0  0  0  0  0  0
  146.6544  136.5538  155.8096 H   0  0  0  0  0  0  0  0  0  0  0  0
  148.3037  136.3867  153.3541 H   0  0  0  0  0  0  0  0  0  0  0  0
  147.6866  135.2507  151.8877 H   0  0  0  0  0  0  0  0  0  0  0  0
  144.1817  134.9400  152.2456 H   0  0  0  0  0  0  0  0  0  0  0  0
  142.7311  133.5797  150.8995 H   0  0  0  0  0  0  0  0  0  0  0  0
  147.4052  131.3817  149.0107 H   0  0  0  0  0  0  0  0  0  0  0  0
  146.0815  131.6390  147.8835 H   0  0  0  0  0  0  0  0  0  0  0  0
  145.9601  130.3931  149.1308 H   0  0  0  0  0  0  0  0  0  0  0  0
  147.5838  132.9669  150.4685 H   0  0  0  0  0  0  0  0  0  0  0  0
  150.1155  137.0419  154.3767 H   0  0  0  0  0  0  0  0  0  0  0  0
  149.8582  138.4723  153.3863 H   0  0  0  0  0  0  0  0  0  0  0  0
  151.9774  138.0815  155.5821 H   0  0  0  0  0  0  0  0  0  0  0  0
  152.2651  138.1486  153.8548 H   0  0  0  0  0  0  0  0  0  0  0  0
  151.2897  140.0877  156.7184 H   0  0  0  0  0  0  0  0  0  0  0  0
  151.1145  141.5618  155.7863 H   0  0  0  0  0  0  0  0  0  0  0  0
  149.1413  140.6592  154.5940 H   0  0  0  0  0  0  0  0  0  0  0  0
  148.9016  140.6047  156.3260 H   0  0  0  0  0  0  0  0  0  0  0  0
  149.5225  138.2944  156.2834 H   0  0  0  0  0  0  0  0  0  0  0  0
  1  2  1  0  0  0  0
  1 22  1  0  0  0  0
  1 23  1  0  0  0  0
  1 24  1  0  0  0  0
  2  3  1  0  0  0  0
  2 16  1  0  0  0  0
  2 25  1  0  0  0  0
  3  4  1  0  0  0  0
  3 26  1  0  0  0  0
  3 27  1  0  0  0  0
  4  5  1  0  0  0  0
  4 28  1  0  0  0  0
  5  6  2  0  0  0  0
  5  7  1  0  0  0  0
  7  8  1  0  0  0  0
  7 29  1  0  0  0  0
  8 15  2  0  0  0  0
  8  9  1  0  0  0  0
  9 10  2  0  0  0  0
  9 30  1  0  0  0  0
 10 11  1  0  0  0  0
 10 31  1  0  0  0  0
 11 12  2  0  0  0  0
 11 13  1  0  0  0  0
 13 14  1  0  0  0  0
 13 15  1  0  0  0  0
 14 32  1  0  0  0  0
 14 33  1  0  0  0  0
 14 34  1  0  0  0  0
 15 35  1  0  0  0  0
 16 21  1  0  0  0  0
 16 17  1  0  0  0  0
 16 44  1  0  0  0  0
 17 18  1  0  0  0  0
 17 36  1  0  0  0  0
 17 37  1  0  0  0  0
 18 19  1  0  0  0  0
 18 38  1  0  0  0  0
 18 39  1  0  0  0  0
 19 20  1  0  0  0  0
 20 21  1  0  0  0  0
 20 40  1  0  0  0  0
 20 41  1  0  0  0  0
 21 42  1  0  0  0  0
 21 43  1  0  0  0  0
M  CHG  1  16   1
M  END
> <s_m_source_file>
AV-unprocessed.smi

> <i_m_source_file_index>
1100

> <i_lp_mmshare_version>
43012

> <i_f3d_flags>
0

> <s_epik_input>
W0NIMl0xW0NIMl1PW0NIMl1bQ0gyXU4xW0NASF0oW0NIM10pW0NIMl1bTkhdQyg9TylbTkhdYzJbY0hdW2NIXWMoPU8pbihbQ0gzXSlbY0hdMg==

> <s_epik_cmdline>
J2VwaWtfcHl0aG9uJywgJy1waCcsICc3LjAnLCAnLXRuJywgJzgnLCAnLW1hJywgJzIwMCcsICctbWV0YWxfYmluZGluZycsICctaW1hZScsICc8aW5maWxlLm1hZT4nLCAnLW9tYWUnLCAnPG91dGZpbGUubWFlPic=

> <r_lp_tautomer_probability>
1

> <r_epik_Ionization_Penalty>
0.602556

> <r_epik_Ionization_Penalty_Charging>
0.602536

> <r_epik_Ionization_Penalty_Neutral>
1.99507e-05

> <r_epik_State_Penalty>
0.617039

> <r_epik_Charging_Adjusted_Penalty>
1.21958

> <i_epik_Tot_Q>
1

> <i_epik_Tot_abs_Q>
1

> <r_epik_Metal_State_Penalty>
0.619464

> <b_epik_Metal_Only>
0

> <s_lp_Force_Field>
OPLS_2005

> <r_lp_Energy>
33.6123

> <b_lp_Chiralities_Consistent>
1

> <s_lp_Variant>
AV-unprocessed.smi:1100-4

> <Gold.Version>
5.8.1

> <Gold.Id.Protein>
6NUR|6NUR_protein|mol2

> <Gold.PLP.Fitness>
46.3377

> <Gold.PLP.PLP>
-33.2118

> <Gold.PLP.part.hbond>
-3.7635

> <Gold.PLP.part.metal>
0.0000

> <Gold.PLP.part.buried>
-2.6996

> <Gold.PLP.part.nonpolar>
-28.5398

> <Gold.PLP.part.repulsive>
0.4152

> <Gold.PLP.ligand.clash>
0.0000

> <Gold.PLP.ligand.torsion>
0.7636

> <Gold.PLP.Chemscore.Hbond>
3.8720

> <Gold.PLP.Chemscore.CHOScore>
0.9988

> <Gold.PLP.Chemscore.Metal>
0.0000

> <Gold.Chemscore.Hbonds>
donor molecule, donor type, donor heavy atom, donor atom, acceptor molecule, acceptor atom, score
      L1  H     4    28       P1  7948  0.98
      L1  H     7    29       P1  7948  1.00
      P1  H  7989  7998       L1    19  0.98
      P1  H 10785 10796       L1    12  0.88
      L1  C    15    35       P1 10747  1.00

> <Gold.PLP.Chemscore.Internal.Correction>
0.0407

> <Gold.Rescore>
     Score         DG    S(hbond)    S(metal)    S(lipo)     H(rot)  DE(clash)    DE(int)     intcor
     19.60     -21.66       3.66        0.00      67.56       1.54       0.16       1.90       ----

> <Gold.Chemscore.Fitness>
19.5996

> <Gold.Chemscore.DG>
-21.6584

> <Gold.Chemscore.ZeroCoef>
-5.4800

> <Gold.Chemscore.Hbond>
3.6576

> <Gold.Chemscore.Metal>
0.0000

> <Gold.Chemscore.Lipo>
67.5559

> <Gold.Chemscore.Internal_Hbond>
0.0000

> <Gold.Chemscore.DEClash>
0.1618

> <Gold.Chemscore.DEInternal>
1.8970

> <Gold.Chemscore.Rot>
1.5398

> <Gold.Chemscore.Internal.Correction>
   9.000000E+99

> <Gold.Chemscore.Hbonds>
donor molecule, donor type, donor heavy atom, donor atom, acceptor molecule, acceptor atom, score
      L1  H     4    28       P1  7948  0.93
      L1  H     7    29       P1  7948  0.87
      P1  H  7989  7998       L1    19  0.61
      P1  H 10785 10796       L1    12  0.87

> <Gold.Chemscore.Hbond.Weighted>
-12.2163

> <Gold.Chemscore.Metal.Weighted>
-0.0000

> <Gold.Chemscore.Lipo.Weighted>
-7.9040

> <Gold.Chemscore.Internal_Hbond.Weighted>
0.0000

> <Gold.Chemscore.DEClash.Weighted>
0.1618

> <Gold.Chemscore.DEInternal.Weighted>
1.8970

> <Gold.Chemscore.Rot.Weighted>
3.9420

> <Gold.Chemscore.Internal.Correction.Weighted>
   9.000000E+99

> <Gold.Protein.RotatedTorsions>
[ 6907 6896 6895 6894 ] final -158.38 input  -60.11 | X-H torsion
[ 7974 7965 7964 7962 ] final   88.01 input  175.53 | X-H torsion
[ 8008 7997 7996 7995 ] final   62.05 input   59.86 | X-H torsion
[ 10167 10162 10161 10158 ] final   37.65 input  -65.29 | X-H torsion
[ 10718 10713 10712 10709 ] final   77.78 input   66.30 | X-H torsion
[ 10763 10752 10751 10750 ] final -177.34 input  -60.55 | X-H torsion
[ 11005 11000 10999 10996 ] final  -29.89 input  -57.11 | X-H torsion

> <Gold.Protein.ActiveResidues>
 VAL166  LYS551  ARG553  GLY616  TRP617  ASP618  TYR619  PRO620  LYS621  CYS622 
 ASP623  PHE694  ASN695  SER759  ASP760  ASP761  ALA762  ILE779  LEU786  VAL792 
 PHE793  MET794  SER795  GLU796  ALA797  LYS798  CYS799  TRP800  GLU811  SER814 

> <Gold.Protein.RotatedAtoms>
  151.3174  133.4054  159.2651 H   0  0  0  0  0  0  0  0  0  0  0  0  # atno 6907 bound_to 6896
  151.0063  134.9363  159.7993 H   0  0  0  0  0  0  0  0  0  0  0  0  # atno 6908 bound_to 6896
  152.5289  134.3138  159.9176 H   0  0  0  0  0  0  0  0  0  0  0  0  # atno 6909 bound_to 6896
  145.5513  139.2296  143.2511 H   0  0  0  0  0  0  0  0  0  0  0  0  # atno 7974 bound_to 7965
  155.6081  140.3494  155.4614 H   0  0  0  0  0  0  0  0  0  0  0  0  # atno 8008 bound_to 7997
  156.0175  140.1246  157.0415 H   0  0  0  0  0  0  0  0  0  0  0  0  # atno 8009 bound_to 7997
  154.4303  140.1069  156.5903 H   0  0  0  0  0  0  0  0  0  0  0  0  # atno 8010 bound_to 7997
  140.4012  144.1721  150.6134 H   0  0  0  0  0  0  0  0  0  0  0  0  # atno 10167 bound_to 10162
  157.6722  130.9838  150.1691 H   0  0  0  0  0  0  0  0  0  0  0  0  # atno 10718 bound_to 10713
  154.5613  135.2820  155.0916 H   0  0  0  0  0  0  0  0  0  0  0  0  # atno 10763 bound_to 10752
  154.2324  135.6371  153.5183 H   0  0  0  0  0  0  0  0  0  0  0  0  # atno 10764 bound_to 10752
  153.0030  135.5540  154.6208 H   0  0  0  0  0  0  0  0  0  0  0  0  # atno 10765 bound_to 10752
  140.9336  133.7323  156.0972 H   0  0  0  0  0  0  0  0  0  0  0  0  # atno 11005 bound_to 11000
  146.1914  140.6336  142.9144 LP  0  0  0  0  0  0  0  0  0  0  0  0  # atno 17320 bound_to 7965
  144.7528  140.5233  143.6790 LP  0  0  0  0  0  0  0  0  0  0  0  0  # atno 17321 bound_to 7965
  140.4738  143.2403  151.9052 LP  0  0  0  0  0  0  0  0  0  0  0  0  # atno 17342 bound_to 10162
  139.4785  144.5342  151.8623 LP  0  0  0  0  0  0  0  0  0  0  0  0  # atno 17343 bound_to 10162
  156.2449  130.3694  149.8295 LP  0  0  0  0  0  0  0  0  0  0  0  0  # atno 17370 bound_to 10713
  156.6085  130.8576  151.3448 LP  0  0  0  0  0  0  0  0  0  0  0  0  # atno 17371 bound_to 10713
  140.7830  134.3704  157.5483 LP  0  0  0  0  0  0  0  0  0  0  0  0  # atno 17394 bound_to 11000
  139.8802  134.9093  156.2988 LP  0  0  0  0  0  0  0  0  0  0  0  0  # atno 17395 bound_to 11000

$$$$
