AV-unprocessed.smi:1433|AV-procd|sdf|5838|dock9
  -GOLD-   22720 5503D 1   1.00000     0.00000
 Structure written by MMmdl.
 44 45  0  0  0  0  0  0  0  0  1 V2000
  152.1760  144.1810  159.6026 C   0  0  0  0  0  0  0  0  0  0  0  0
  152.0584  142.6605  159.7502 C   0  0  1  0  0  0  0  0  0  0  0  0
  151.3906  142.0082  158.5250 C   0  0  0  0  0  0  0  0  0  0  0  0
  151.3354  140.5449  158.6138 N   0  0  0  0  0  0  0  0  0  0  0  0
  150.7188  139.9217  157.4190 C   0  0  1  0  0  0  0  0  0  0  0  0
  151.3807  140.3833  156.0957 C   0  0  0  0  0  0  0  0  0  0  0  0
  150.7150  138.3649  157.4667 C   0  0  0  0  0  0  0  0  0  0  0  0
  149.4558  137.7940  157.9374 N   0  0  0  0  0  0  0  0  0  0  0  0
  149.2932  137.1257  159.0899 C   0  0  0  0  0  0  0  0  0  0  0  0
  150.2060  136.9177  159.8892 O   0  0  0  0  0  0  0  0  0  0  0  0
  147.8845  136.6124  159.3889 C   0  0  0  0  0  0  0  0  0  0  0  0
  147.7478  136.2488  160.7876 N   0  0  0  0  0  0  0  0  0  0  0  0
  147.5179  135.0013  161.3296 C   0  0  0  0  0  0  0  0  0  0  0  0
  147.4633  135.1508  162.6859 C   0  0  0  0  0  0  0  0  0  0  0  0
  147.6702  136.5453  162.8804 C   0  0  0  0  0  0  0  0  0  0  0  0
  147.8407  137.1999  161.7428 N   0  0  0  0  0  0  0  0  0  0  0  0
  152.6968  140.0563  158.8598 C   0  0  0  0  0  0  0  0  0  0  0  0
  153.3624  140.7144  160.0836 C   0  0  1  0  0  0  0  0  0  0  0  0
  154.8115  140.2535  160.2728 C   0  0  0  0  0  0  0  0  0  0  0  0
  153.3657  142.1254  159.9099 O   0  0  0  0  0  0  0  0  0  0  0  0
  151.1939  144.6410  159.4908 H   0  0  0  0  0  0  0  0  0  0  0  0
  152.7724  144.4485  158.7300 H   0  0  0  0  0  0  0  0  0  0  0  0
  152.6515  144.6218  160.4790 H   0  0  0  0  0  0  0  0  0  0  0  0
  151.4737  142.4407  160.6451 H   0  0  0  0  0  0  0  0  0  0  0  0
  150.3882  142.4256  158.4567 H   0  0  0  0  0  0  0  0  0  0  0  0
  151.9210  142.3026  157.6180 H   0  0  0  0  0  0  0  0  0  0  0  0
  149.6770  140.2435  157.3791 H   0  0  0  0  0  0  0  0  0  0  0  0
  150.9569  139.8880  155.2230 H   0  0  0  0  0  0  0  0  0  0  0  0
  152.4519  140.1802  156.0993 H   0  0  0  0  0  0  0  0  0  0  0  0
  151.2386  141.4470  155.9112 H   0  0  0  0  0  0  0  0  0  0  0  0
  150.9190  137.9629  156.4737 H   0  0  0  0  0  0  0  0  0  0  0  0
  151.4925  137.9753  158.1228 H   0  0  0  0  0  0  0  0  0  0  0  0
  148.6503  137.9125  157.3400 H   0  0  0  0  0  0  0  0  0  0  0  0
  147.1559  137.3897  159.1556 H   0  0  0  0  0  0  0  0  0  0  0  0
  147.6446  135.7514  158.7622 H   0  0  0  0  0  0  0  0  0  0  0  0
  147.4125  134.1220  160.7110 H   0  0  0  0  0  0  0  0  0  0  0  0
  147.2987  134.3820  163.4260 H   0  0  0  0  0  0  0  0  0  0  0  0
  147.7014  137.0972  163.8081 H   0  0  0  0  0  0  0  0  0  0  0  0
  152.6904  138.9828  159.0401 H   0  0  0  0  0  0  0  0  0  0  0  0
  153.3134  140.2255  157.9756 H   0  0  0  0  0  0  0  0  0  0  0  0
  152.7968  140.4679  160.9840 H   0  0  0  0  0  0  0  0  0  0  0  0
  154.8654  139.1746  160.4210 H   0  0  0  0  0  0  0  0  0  0  0  0
  155.2609  140.7313  161.1435 H   0  0  0  0  0  0  0  0  0  0  0  0
  155.4213  140.5035  159.4041 H   0  0  0  0  0  0  0  0  0  0  0  0
  1  2  1  0  0  0  0
  1 21  1  0  0  0  0
  1 22  1  0  0  0  0
  1 23  1  0  0  0  0
  2 20  1  0  0  0  0
  2  3  1  0  0  0  0
  2 24  1  0  0  0  0
  3  4  1  0  0  0  0
  3 25  1  0  0  0  0
  3 26  1  0  0  0  0
  4  5  1  0  0  0  0
  4 17  1  0  0  0  0
  5  6  1  0  0  0  0
  5  7  1  0  0  0  0
  5 27  1  0  0  0  0
  6 28  1  0  0  0  0
  6 29  1  0  0  0  0
  6 30  1  0  0  0  0
  7  8  1  0  0  0  0
  7 31  1  0  0  0  0
  7 32  1  0  0  0  0
  8  9  1  0  0  0  0
  8 33  1  0  0  0  0
  9 10  2  0  0  0  0
  9 11  1  0  0  0  0
 11 12  1  0  0  0  0
 11 34  1  0  0  0  0
 11 35  1  0  0  0  0
 12 16  1  0  0  0  0
 12 13  1  0  0  0  0
 13 14  2  0  0  0  0
 13 36  1  0  0  0  0
 14 15  1  0  0  0  0
 14 37  1  0  0  0  0
 15 16  2  0  0  0  0
 15 38  1  0  0  0  0
 17 18  1  0  0  0  0
 17 39  1  0  0  0  0
 17 40  1  0  0  0  0
 18 19  1  0  0  0  0
 18 20  1  0  0  0  0
 18 41  1  0  0  0  0
 19 42  1  0  0  0  0
 19 43  1  0  0  0  0
 19 44  1  0  0  0  0
M  END
> <s_m_source_file>
AV-unprocessed.smi

> <i_m_source_file_index>
1433

> <i_lp_mmshare_version>
43012

> <i_f3d_flags>
0

> <s_epik_input>
W0NIM11bQ0BASF0xW0NIMl1OKFtDSDJdW0NASF0oTzEpW0NIM10pW0NASF0oW0NIM10pW0NIMl1bTkhdQyg9TylbQ0gyXW4yW2NIXVtjSF1bY0hdbjI=

> <s_epik_cmdline>
J2VwaWtfcHl0aG9uJywgJy1waCcsICc3LjAnLCAnLXRuJywgJzgnLCAnLW1hJywgJzIwMCcsICctbWV0YWxfYmluZGluZycsICctaW1hZScsICc8aW5maWxlLm1hZT4nLCAnLW9tYWUnLCAnPG91dGZpbGUubWFlPic=

> <r_lp_tautomer_probability>
1

> <r_epik_Ionization_Penalty>
0.196927

> <r_epik_Ionization_Penalty_Charging>
0

> <r_epik_Ionization_Penalty_Neutral>
0.196927

> <r_epik_State_Penalty>
0.186684

> <r_epik_Charging_Adjusted_Penalty>
0.186684

> <i_epik_Tot_Q>
0

> <i_epik_Tot_abs_Q>
0

> <r_epik_Metal_State_Penalty>
0.186682

> <b_epik_Metal_Only>
0

> <s_lp_Force_Field>
OPLS_2005

> <r_lp_Energy>
27.7845

> <b_lp_Chiralities_Consistent>
1

> <s_lp_Variant>
AV-unprocessed.smi:1433-4

> <Gold.Version>
5.8.1

> <Gold.Id.Protein>
6NUR|6NUR_protein|mol2

> <Gold.PLP.Fitness>
48.5777

> <Gold.PLP.PLP>
-42.3074

> <Gold.PLP.part.hbond>
-3.4029

> <Gold.PLP.part.metal>
0.0000

> <Gold.PLP.part.buried>
-5.7579

> <Gold.PLP.part.nonpolar>
-33.3808

> <Gold.PLP.part.repulsive>
0.0860

> <Gold.PLP.ligand.clash>
0.0000

> <Gold.PLP.ligand.torsion>
0.8574

> <Gold.PLP.Chemscore.Hbond>
2.6397

> <Gold.PLP.Chemscore.CHOScore>
0.0000

> <Gold.PLP.Chemscore.Metal>
0.0000

> <Gold.Chemscore.Hbonds>
donor molecule, donor type, donor heavy atom, donor atom, acceptor molecule, acceptor atom, score
      P1  H  6896  6909       L1    10  0.96
      P1  H  6931  6943       L1    16  1.00
      P1  H  6934  6947       L1    16  0.54

> <Gold.PLP.Chemscore.Internal.Correction>
0.0660

> <Gold.Rescore>
     Score         DG    S(hbond)    S(metal)    S(lipo)     H(rot)  DE(clash)    DE(int)     intcor
     18.72     -19.61       2.21        0.00      97.04       1.80       0.00       0.89       ----

> <Gold.Chemscore.Fitness>
18.7177

> <Gold.Chemscore.DG>
-19.6105

> <Gold.Chemscore.ZeroCoef>
-5.4800

> <Gold.Chemscore.Hbond>
2.2138

> <Gold.Chemscore.Metal>
0.0000

> <Gold.Chemscore.Lipo>
97.0432

> <Gold.Chemscore.Internal_Hbond>
0.0000

> <Gold.Chemscore.DEClash>
0.0048

> <Gold.Chemscore.DEInternal>
0.8879

> <Gold.Chemscore.Rot>
1.8038

> <Gold.Chemscore.Internal.Correction>
   9.000000E+99

> <Gold.Chemscore.Hbonds>
donor molecule, donor type, donor heavy atom, donor atom, acceptor molecule, acceptor atom, score
      P1  H  6896  6909       L1    10  0.87
      P1  H  6931  6943       L1    16  0.67
      P1  H  6934  6947       L1    16  0.37

> <Gold.Chemscore.Hbond.Weighted>
-7.3942

> <Gold.Chemscore.Metal.Weighted>
-0.0000

> <Gold.Chemscore.Lipo.Weighted>
-11.3541

> <Gold.Chemscore.Internal_Hbond.Weighted>
0.0000

> <Gold.Chemscore.DEClash.Weighted>
0.0048

> <Gold.Chemscore.DEInternal.Weighted>
0.8879

> <Gold.Chemscore.Rot.Weighted>
4.6178

> <Gold.Chemscore.Internal.Correction.Weighted>
   9.000000E+99

> <Gold.Protein.RotatedTorsions>
[ 6907 6896 6895 6894 ] final   91.21 input  -60.11 | X-H torsion
[ 7974 7965 7964 7962 ] final   10.33 input  175.53 | X-H torsion
[ 8008 7997 7996 7995 ] final -178.21 input   59.86 | X-H torsion
[ 10167 10162 10161 10158 ] final   31.24 input  -65.29 | X-H torsion
[ 10718 10713 10712 10709 ] final -164.35 input   66.30 | X-H torsion
[ 10763 10752 10751 10750 ] final   20.80 input  -60.55 | X-H torsion
[ 11005 11000 10999 10996 ] final -112.27 input  -57.11 | X-H torsion

> <Gold.Protein.ActiveResidues>
 VAL166  LYS551  ARG553  GLY616  TRP617  ASP618  TYR619  PRO620  LYS621  CYS622 
 ASP623  PHE694  ASN695  SER759  ASP760  ASP761  ALA762  ILE779  LEU786  VAL792 
 PHE793  MET794  SER795  GLU796  ALA797  LYS798  CYS799  TRP800  GLU811  SER814 

> <Gold.Protein.RotatedAtoms>
  152.5449  134.1692  159.8589 H   0  0  0  0  0  0  0  0  0  0  0  0  # atno 6907 bound_to 6896
  151.1704  133.4781  159.2601 H   0  0  0  0  0  0  0  0  0  0  0  0  # atno 6908 bound_to 6896
  151.1281  135.0127  159.8625 H   0  0  0  0  0  0  0  0  0  0  0  0  # atno 6909 bound_to 6896
  146.2390  139.9650  142.8454 H   0  0  0  0  0  0  0  0  0  0  0  0  # atno 7974 bound_to 7965
  156.0161  140.1251  157.0404 H   0  0  0  0  0  0  0  0  0  0  0  0  # atno 8008 bound_to 7997
  154.4294  140.1078  156.5968 H   0  0  0  0  0  0  0  0  0  0  0  0  # atno 8009 bound_to 7997
  155.6010  140.3470  155.4596 H   0  0  0  0  0  0  0  0  0  0  0  0  # atno 8010 bound_to 7997
  140.4606  144.0911  150.6212 H   0  0  0  0  0  0  0  0  0  0  0  0  # atno 10167 bound_to 10162
  156.6377  130.8956  151.2990 H   0  0  0  0  0  0  0  0  0  0  0  0  # atno 10718 bound_to 10713
  153.1047  135.6681  153.9608 H   0  0  0  0  0  0  0  0  0  0  0  0  # atno 10763 bound_to 10752
  153.9168  135.3019  155.3449 H   0  0  0  0  0  0  0  0  0  0  0  0  # atno 10764 bound_to 10752
  154.7468  135.5053  153.9295 H   0  0  0  0  0  0  0  0  0  0  0  0  # atno 10765 bound_to 10752
  141.0685  133.9419  157.2532 H   0  0  0  0  0  0  0  0  0  0  0  0  # atno 11005 bound_to 11000
  145.1735  140.9732  143.4308 LP  0  0  0  0  0  0  0  0  0  0  0  0  # atno 17320 bound_to 7965
  145.0007  139.3601  143.6169 LP  0  0  0  0  0  0  0  0  0  0  0  0  # atno 17321 bound_to 7965
  140.4097  143.2663  151.9847 LP  0  0  0  0  0  0  0  0  0  0  0  0  # atno 17342 bound_to 10162
  139.4806  144.5926  151.7746 LP  0  0  0  0  0  0  0  0  0  0  0  0  # atno 17343 bound_to 10162
  157.7180  130.9522  150.1330 LP  0  0  0  0  0  0  0  0  0  0  0  0  # atno 17370 bound_to 10713
  156.2184  130.3672  149.8586 LP  0  0  0  0  0  0  0  0  0  0  0  0  # atno 17371 bound_to 10713
  139.9500  135.0177  156.8965 LP  0  0  0  0  0  0  0  0  0  0  0  0  # atno 17394 bound_to 11000
  140.5723  134.0431  155.7435 LP  0  0  0  0  0  0  0  0  0  0  0  0  # atno 17395 bound_to 11000

$$$$
