AV-unprocessed.smi:1362|AV-procd|sdf|5560|dock5
  -GOLD-   22720 5153D 1   1.00000     0.00000
 Structure written by MMmdl.
 39 39  0  0  0  0  0  0  0  0  1 V2000
  151.9340  130.8889  158.5209 C   0  0  0  0  0  0  0  0  0  0  0  0
  151.2091  131.5850  157.3898 C   0  0  0  0  0  0  0  0  0  0  0  0
  150.9505  130.7618  156.3065 N   0  0  0  0  0  0  0  0  0  0  0  0
  150.2896  131.3081  155.2206 C   0  0  0  0  0  0  0  0  0  0  0  0
  150.0477  130.3368  154.0784 C   0  0  0  0  0  0  0  0  0  0  0  0
  149.9058  132.6101  155.2145 C   0  0  0  0  0  0  0  0  0  0  0  0
  149.1797  133.2555  154.0357 C   0  0  0  0  0  0  0  0  0  0  0  0
  147.7648  132.7357  153.7827 C   0  0  0  0  0  0  0  0  0  0  0  0
  146.9276  132.7576  154.6844 O   0  0  0  0  0  0  0  0  0  0  0  0
  147.5185  132.2670  152.5495 N   0  0  0  0  0  0  0  0  0  0  0  0
  146.2531  131.7021  152.0846 C   0  0  2  0  0  0  0  0  0  0  0  0
  146.4648  130.2055  151.7892 C   0  0  0  0  0  0  0  0  0  0  0  0
  145.7290  132.5030  150.8635 C   0  0  0  0  0  0  0  0  0  0  0  0
  145.6541  134.0159  151.1485 C   0  0  0  0  0  0  0  0  0  0  0  0
  144.3550  132.0048  150.3801 C   0  0  0  0  0  0  0  0  0  0  0  0
  150.2162  133.4430  156.4007 C   0  0  0  0  0  0  0  0  0  0  0  0
  149.9091  134.6336  156.4490 O   0  0  0  0  0  0  0  0  0  0  0  0
  150.8851  132.8392  157.4776 N   0  0  0  0  0  0  0  0  0  0  0  0
  151.2185  129.7889  156.2691 H   0  0  0  0  0  0  0  0  0  0  0  0
  152.0609  131.5573  159.3735 H   0  0  0  0  0  0  0  0  0  0  0  0
  152.9214  130.5621  158.1934 H   0  0  0  0  0  0  0  0  0  0  0  0
  151.3718  130.0158  158.8535 H   0  0  0  0  0  0  0  0  0  0  0  0
  148.9792  130.2198  153.8965 H   0  0  0  0  0  0  0  0  0  0  0  0
  150.4584  129.3500  154.2960 H   0  0  0  0  0  0  0  0  0  0  0  0
  150.5171  130.6985  153.1637 H   0  0  0  0  0  0  0  0  0  0  0  0
  149.7640  133.1507  153.1204 H   0  0  0  0  0  0  0  0  0  0  0  0
  149.1239  134.3316  154.2010 H   0  0  0  0  0  0  0  0  0  0  0  0
  148.2725  132.2963  151.8783 H   0  0  0  0  0  0  0  0  0  0  0  0
  145.5126  131.7890  152.8819 H   0  0  0  0  0  0  0  0  0  0  0  0
  145.5269  129.7024  151.5567 H   0  0  0  0  0  0  0  0  0  0  0  0
  146.8916  129.6917  152.6513 H   0  0  0  0  0  0  0  0  0  0  0  0
  147.1433  130.0591  150.9481 H   0  0  0  0  0  0  0  0  0  0  0  0
  146.4325  132.3644  150.0410 H   0  0  0  0  0  0  0  0  0  0  0  0
  144.9967  134.2253  151.9929 H   0  0  0  0  0  0  0  0  0  0  0  0
  145.2682  134.5599  150.2859 H   0  0  0  0  0  0  0  0  0  0  0  0
  146.6333  134.4374  151.3762 H   0  0  0  0  0  0  0  0  0  0  0  0
  143.6142  132.0476  151.1791 H   0  0  0  0  0  0  0  0  0  0  0  0
  144.4004  130.9785  150.0175 H   0  0  0  0  0  0  0  0  0  0  0  0
  143.9856  132.6134  149.5542 H   0  0  0  0  0  0  0  0  0  0  0  0
  1 20  1  0  0  0  0
  1 21  1  0  0  0  0
  1 22  1  0  0  0  0
  1  2  1  0  0  0  0
  2  3  1  0  0  0  0
  2 18  2  0  0  0  0
  3  4  1  0  0  0  0
  3 19  1  0  0  0  0
  4  6  2  0  0  0  0
  4  5  1  0  0  0  0
  5 23  1  0  0  0  0
  5 24  1  0  0  0  0
  5 25  1  0  0  0  0
  6 16  1  0  0  0  0
  6  7  1  0  0  0  0
  7  8  1  0  0  0  0
  7 26  1  0  0  0  0
  7 27  1  0  0  0  0
  8  9  2  0  0  0  0
  8 10  1  0  0  0  0
 10 11  1  0  0  0  0
 10 28  1  0  0  0  0
 11 12  1  0  0  0  0
 11 13  1  0  0  0  0
 11 29  1  0  0  0  0
 12 30  1  0  0  0  0
 12 31  1  0  0  0  0
 12 32  1  0  0  0  0
 13 14  1  0  0  0  0
 13 15  1  0  0  0  0
 13 33  1  0  0  0  0
 14 34  1  0  0  0  0
 14 35  1  0  0  0  0
 14 36  1  0  0  0  0
 15 37  1  0  0  0  0
 15 38  1  0  0  0  0
 15 39  1  0  0  0  0
 16 17  2  0  0  0  0
 16 18  1  0  0  0  0
M  END
> <s_m_source_file>
AV-unprocessed.smi

> <i_m_source_file_index>
1362

> <i_lp_mmshare_version>
43012

> <i_f3d_flags>
0

> <s_epik_input>
W0NIM11jMW5jKFtDSDNdKWMoYyg9TylbbkhdMSlbQ0gyXUMoPU8pW05IXVtDQEhdKFtDSDNdKVtDSF0oW0NIM10pW0NIM10=

> <s_epik_cmdline>
J2VwaWtfcHl0aG9uJywgJy1waCcsICc3LjAnLCAnLXRuJywgJzgnLCAnLW1hJywgJzIwMCcsICctbWV0YWxfYmluZGluZycsICctaW1hZScsICc8aW5maWxlLm1hZT4nLCAnLW9tYWUnLCAnPG91dGZpbGUubWFlPic=

> <r_lp_tautomer_probability>
0.156392

> <r_epik_Ionization_Penalty>
0.0140737

> <r_epik_Ionization_Penalty_Charging>
0.0139511

> <r_epik_Ionization_Penalty_Neutral>
0.000122633

> <r_epik_State_Penalty>
1.53034

> <r_epik_Charging_Adjusted_Penalty>
1.54429

> <i_epik_Tot_Q>
0

> <i_epik_Tot_abs_Q>
0

> <r_epik_Metal_State_Penalty>
1.70655

> <b_epik_Metal_Only>
0

> <s_lp_Force_Field>
OPLS_2005

> <r_lp_Energy>
10.2097

> <b_lp_Chiralities_Consistent>
1

> <s_lp_Variant>
AV-unprocessed.smi:1362-3

> <Gold.Version>
5.8.1

> <Gold.Id.Protein>
6NUR|6NUR_protein|mol2

> <Gold.PLP.Fitness>
36.9087

> <Gold.PLP.PLP>
-31.1180

> <Gold.PLP.part.hbond>
-2.0000

> <Gold.PLP.part.metal>
0.0000

> <Gold.PLP.part.buried>
-5.0998

> <Gold.PLP.part.nonpolar>
-25.0283

> <Gold.PLP.part.repulsive>
0.0633

> <Gold.PLP.ligand.clash>
0.0000

> <Gold.PLP.ligand.torsion>
0.1182

> <Gold.PLP.Chemscore.Hbond>
2.0000

> <Gold.PLP.Chemscore.CHOScore>
0.0000

> <Gold.PLP.Chemscore.Metal>
0.0000

> <Gold.Chemscore.Hbonds>
donor molecule, donor type, donor heavy atom, donor atom, acceptor molecule, acceptor atom, score
      L1  H    10    28       P1 10747  0.29
      P1  H  6896  6908       L1    18  1.00

> <Gold.PLP.Chemscore.Internal.Correction>
0.0271

> <Gold.Rescore>
     Score         DG    S(hbond)    S(metal)    S(lipo)     H(rot)  DE(clash)    DE(int)     intcor
     14.99     -15.17       1.85        0.00      67.04       1.69       0.08       0.10       ----

> <Gold.Chemscore.Fitness>
14.9897

> <Gold.Chemscore.DG>
-15.1741

> <Gold.Chemscore.ZeroCoef>
-5.4800

> <Gold.Chemscore.Hbond>
1.8506

> <Gold.Chemscore.Metal>
0.0000

> <Gold.Chemscore.Lipo>
67.0395

> <Gold.Chemscore.Internal_Hbond>
0.0000

> <Gold.Chemscore.DEClash>
0.0807

> <Gold.Chemscore.DEInternal>
0.1038

> <Gold.Chemscore.Rot>
1.6916

> <Gold.Chemscore.Internal.Correction>
   9.000000E+99

> <Gold.Chemscore.Hbonds>
donor molecule, donor type, donor heavy atom, donor atom, acceptor molecule, acceptor atom, score
      L1  H    10    28       P1 10747  0.30
      P1  H  6896  6908       L1    18  0.53

> <Gold.Chemscore.Hbond.Weighted>
-6.1811

> <Gold.Chemscore.Metal.Weighted>
-0.0000

> <Gold.Chemscore.Lipo.Weighted>
-7.8436

> <Gold.Chemscore.Internal_Hbond.Weighted>
0.0000

> <Gold.Chemscore.DEClash.Weighted>
0.0807

> <Gold.Chemscore.DEInternal.Weighted>
0.1038

> <Gold.Chemscore.Rot.Weighted>
4.3305

> <Gold.Chemscore.Internal.Correction.Weighted>
   9.000000E+99

> <Gold.Protein.RotatedTorsions>
[ 6907 6896 6895 6894 ] final   77.89 input  -60.11 | X-H torsion
[ 7974 7965 7964 7962 ] final   80.23 input  175.53 | X-H torsion
[ 8008 7997 7996 7995 ] final   65.43 input   59.86 | X-H torsion
[ 10167 10162 10161 10158 ] final -153.57 input  -65.29 | X-H torsion
[ 10718 10713 10712 10709 ] final   21.82 input   66.30 | X-H torsion
[ 10763 10752 10751 10750 ] final -178.62 input  -60.55 | X-H torsion
[ 11005 11000 10999 10996 ] final -129.59 input  -57.11 | X-H torsion

> <Gold.Protein.ActiveResidues>
 VAL166  LYS551  ARG553  GLY616  TRP617  ASP618  TYR619  PRO620  LYS621  CYS622 
 ASP623  PHE694  ASN695  SER759  ASP760  ASP761  ALA762  ILE779  LEU786  VAL792 
 PHE793  MET794  SER795  GLU796  ALA797  LYS798  CYS799  TRP800  GLU811  SER814 

> <Gold.Protein.RotatedAtoms>
  152.5137  134.3747  159.9330 H   0  0  0  0  0  0  0  0  0  0  0  0  # atno 6907 bound_to 6896
  151.3703  133.3851  159.2706 H   0  0  0  0  0  0  0  0  0  0  0  0  # atno 6908 bound_to 6896
  150.9583  134.8994  159.7773 H   0  0  0  0  0  0  0  0  0  0  0  0  # atno 6909 bound_to 6896
  145.6540  139.2454  143.1961 H   0  0  0  0  0  0  0  0  0  0  0  0  # atno 7974 bound_to 7965
  155.6616  140.3497  155.4785 H   0  0  0  0  0  0  0  0  0  0  0  0  # atno 8008 bound_to 7997
  155.9764  140.1166  157.0789 H   0  0  0  0  0  0  0  0  0  0  0  0  # atno 8009 bound_to 7997
  154.4179  140.1147  156.5362 H   0  0  0  0  0  0  0  0  0  0  0  0  # atno 8010 bound_to 7997
  139.7086  143.9146  152.2459 H   0  0  0  0  0  0  0  0  0  0  0  0  # atno 10167 bound_to 10162
  157.1438  130.6644  149.5989 H   0  0  0  0  0  0  0  0  0  0  0  0  # atno 10718 bound_to 10713
  154.5454  135.2809  155.1057 H   0  0  0  0  0  0  0  0  0  0  0  0  # atno 10763 bound_to 10752
  154.2524  135.6337  153.5248 H   0  0  0  0  0  0  0  0  0  0  0  0  # atno 10764 bound_to 10752
  152.9989  135.5586  154.6005 H   0  0  0  0  0  0  0  0  0  0  0  0  # atno 10765 bound_to 10752
  140.9418  134.1183  157.4143 H   0  0  0  0  0  0  0  0  0  0  0  0  # atno 11005 bound_to 11000
  146.1180  140.7344  142.9471 LP  0  0  0  0  0  0  0  0  0  0  0  0  # atno 17320 bound_to 7965
  144.7112  140.4047  143.7079 LP  0  0  0  0  0  0  0  0  0  0  0  0  # atno 17321 bound_to 7965
  139.9008  144.6912  150.8667 LP  0  0  0  0  0  0  0  0  0  0  0  0  # atno 17342 bound_to 10162
  140.7728  143.3515  151.2005 LP  0  0  0  0  0  0  0  0  0  0  0  0  # atno 17343 bound_to 10162
  155.9783  130.4768  150.6650 LP  0  0  0  0  0  0  0  0  0  0  0  0  # atno 17370 bound_to 10713
  157.4283  131.0846  151.1063 LP  0  0  0  0  0  0  0  0  0  0  0  0  # atno 17371 bound_to 10713
  139.8822  135.0039  156.6215 LP  0  0  0  0  0  0  0  0  0  0  0  0  # atno 17394 bound_to 11000
  140.7723  133.8728  155.8502 LP  0  0  0  0  0  0  0  0  0  0  0  0  # atno 17395 bound_to 11000

$$$$
