AV-unprocessed.smi:1709|AV-procd|sdf|6898|dock4
  -GOLD-   22720 8103D 1   1.00000     0.00000
 Structure written by MMmdl.
 43 45  0  0  0  0  0  0  0  0  2 V2000
  151.0621  138.0676  154.2259 C   0  0  0  0  0  0  0  0  0  0  0  0
  150.2655  139.3231  154.5444 C   0  0  0  0  0  0  0  0  0  0  0  0
  150.9356  140.4443  155.0781 C   0  0  0  0  0  0  0  0  0  0  0  0
  150.2022  141.6059  155.3721 C   0  0  0  0  0  0  0  0  0  0  0  0
  148.8209  141.5967  155.1174 C   0  0  0  0  0  0  0  0  0  0  0  0
  148.1728  140.5293  154.6074 N   0  0  0  0  0  0  0  0  0  0  0  0
  148.8638  139.3963  154.3193 C   0  0  0  0  0  0  0  0  0  0  0  0
  148.2603  138.2200  153.7744 N   0  0  0  0  0  0  0  0  0  0  0  0
  146.9940  137.7526  153.8162 C   0  0  0  0  0  0  0  0  0  0  0  0
  146.1093  138.3728  154.4035 O   0  0  0  0  0  0  0  0  0  0  0  0
  146.7651  136.5897  153.1849 N   0  0  0  0  0  0  0  0  0  0  0  0
  145.4786  135.9075  153.0948 C   0  0  1  0  0  0  0  0  0  0  0  0
  144.3173  136.8604  152.8391 C   0  0  0  0  0  0  0  0  0  0  0  0
  143.2392  135.9193  152.2993 C   0  0  0  0  0  0  0  0  0  0  0  0
  143.9563  134.8657  151.5447 N   0  3  2  0  0  0  0  0  0  0  0  0
  143.3472  133.5166  151.6414 C   0  0  0  0  0  0  0  0  0  0  0  0
  144.1447  132.4962  150.8081 C   0  0  0  0  0  0  0  0  0  0  0  0
  145.6627  132.5461  151.0800 C   0  0  0  0  0  0  0  0  0  0  0  0
  146.0286  133.5573  152.1776 C   0  0  0  0  0  0  0  0  0  0  0  0
  145.4020  134.9426  151.8999 C   0  0  2  0  0  0  0  0  0  0  0  0
  152.1225  138.2050  154.4387 H   0  0  0  0  0  0  0  0  0  0  0  0
  150.9640  137.8089  153.1713 H   0  0  0  0  0  0  0  0  0  0  0  0
  150.7064  137.2283  154.8240 H   0  0  0  0  0  0  0  0  0  0  0  0
  151.9997  140.4176  155.2613 H   0  0  0  0  0  0  0  0  0  0  0  0
  150.6859  142.4804  155.7817 H   0  0  0  0  0  0  0  0  0  0  0  0
  148.2185  142.4679  155.3285 H   0  0  0  0  0  0  0  0  0  0  0  0
  148.8986  137.6347  153.2556 H   0  0  0  0  0  0  0  0  0  0  0  0
  147.5505  136.1473  152.7276 H   0  0  0  0  0  0  0  0  0  0  0  0
  145.2695  135.3681  154.0212 H   0  0  0  0  0  0  0  0  0  0  0  0
  144.0015  137.3970  153.7344 H   0  0  0  0  0  0  0  0  0  0  0  0
  144.5863  137.5956  152.0787 H   0  0  0  0  0  0  0  0  0  0  0  0
  142.6988  135.4753  153.1371 H   0  0  0  0  0  0  0  0  0  0  0  0
  142.5125  136.4343  151.6707 H   0  0  0  0  0  0  0  0  0  0  0  0
  143.3132  133.2026  152.6861 H   0  0  0  0  0  0  0  0  0  0  0  0
  142.3145  133.5575  151.2929 H   0  0  0  0  0  0  0  0  0  0  0  0
  143.7647  131.4936  151.0055 H   0  0  0  0  0  0  0  0  0  0  0  0
  143.9675  132.6793  149.7475 H   0  0  0  0  0  0  0  0  0  0  0  0
  146.0286  131.5555  151.3521 H   0  0  0  0  0  0  0  0  0  0  0  0
  146.1820  132.8168  150.1599 H   0  0  0  0  0  0  0  0  0  0  0  0
  145.6891  133.1783  153.1427 H   0  0  0  0  0  0  0  0  0  0  0  0
  147.1128  133.6440  152.2531 H   0  0  0  0  0  0  0  0  0  0  0  0
  145.8993  135.3920  151.0386 H   0  0  0  0  0  0  0  0  0  0  0  0
  143.9068  135.1269  150.5704 H   0  0  0  0  0  0  0  0  0  0  0  0
  1  2  1  0  0  0  0
  1 21  1  0  0  0  0
  1 22  1  0  0  0  0
  1 23  1  0  0  0  0
  2  7  1  0  0  0  0
  2  3  2  0  0  0  0
  3  4  1  0  0  0  0
  3 24  1  0  0  0  0
  4  5  2  0  0  0  0
  4 25  1  0  0  0  0
  5  6  1  0  0  0  0
  5 26  1  0  0  0  0
  6  7  2  0  0  0  0
  7  8  1  0  0  0  0
  8  9  1  0  0  0  0
  8 27  1  0  0  0  0
  9 10  2  0  0  0  0
  9 11  1  0  0  0  0
 11 12  1  0  0  0  0
 11 28  1  0  0  0  0
 12 20  1  0  0  0  0
 12 13  1  0  0  0  0
 12 29  1  0  0  0  0
 13 14  1  0  0  0  0
 13 30  1  0  0  0  0
 13 31  1  0  0  0  0
 14 15  1  0  0  0  0
 14 32  1  0  0  0  0
 14 33  1  0  0  0  0
 15 20  1  0  0  0  0
 15 16  1  0  0  0  0
 15 43  1  0  0  0  0
 16 17  1  0  0  0  0
 16 34  1  0  0  0  0
 16 35  1  0  0  0  0
 17 18  1  0  0  0  0
 17 36  1  0  0  0  0
 17 37  1  0  0  0  0
 18 19  1  0  0  0  0
 18 38  1  0  0  0  0
 18 39  1  0  0  0  0
 19 20  1  0  0  0  0
 19 40  1  0  0  0  0
 19 41  1  0  0  0  0
 20 42  1  0  0  0  0
M  CHG  1  15   1
M  END
> <s_m_source_file>
AV-unprocessed.smi

> <i_m_source_file_index>
1709

> <i_lp_mmshare_version>
43012

> <i_f3d_flags>
0

> <s_epik_input>
W0NIM11jMVtjSF1bY0hdW2NIXW5jMVtOSF1DKD1PKVtOSF1bQ0BIXShbQ0gyXVtDSDJdMilbQ0BASF0oTjIzKVtDSDJdW0NIMl1bQ0gyXVtDSDJdMw==

> <s_epik_cmdline>
J2VwaWtfcHl0aG9uJywgJy1waCcsICc3LjAnLCAnLXRuJywgJzgnLCAnLW1hJywgJzIwMCcsICctbWV0YWxfYmluZGluZycsICctaW1hZScsICc8aW5maWxlLm1hZT4nLCAnLW9tYWUnLCAnPG91dGZpbGUubWFlPic=

> <r_epik_Ionization_Penalty>
0.00101524

> <r_epik_Ionization_Penalty_Charging>
0.000974069

> <r_epik_Ionization_Penalty_Neutral>
4.11757e-05

> <r_epik_State_Penalty>
0.000633842

> <r_epik_Charging_Adjusted_Penalty>
0.00160791

> <i_epik_Tot_Q>
1

> <i_epik_Tot_abs_Q>
1

> <r_epik_Metal_State_Penalty>
-0

> <b_epik_Metal_Only>
0

> <s_lp_Force_Field>
OPLS_2005

> <r_lp_Energy>
44.7523

> <b_lp_Chiralities_Consistent>
1

> <s_lp_Variant>
AV-unprocessed.smi:1709-8

> <Gold.Version>
5.8.1

> <Gold.Id.Protein>
6NUR|6NUR_protein|mol2

> <Gold.PLP.Fitness>
39.6838

> <Gold.PLP.PLP>
-31.9491

> <Gold.PLP.part.hbond>
-2.0000

> <Gold.PLP.part.metal>
0.0000

> <Gold.PLP.part.buried>
-2.5149

> <Gold.PLP.part.nonpolar>
-27.6766

> <Gold.PLP.part.repulsive>
0.1726

> <Gold.PLP.ligand.clash>
0.0000

> <Gold.PLP.ligand.torsion>
0.4125

> <Gold.PLP.Chemscore.Hbond>
1.8960

> <Gold.PLP.Chemscore.CHOScore>
0.9546

> <Gold.PLP.Chemscore.Metal>
0.0000

> <Gold.Chemscore.Hbonds>
donor molecule, donor type, donor heavy atom, donor atom, acceptor molecule, acceptor atom, score
      L1  H     8    27       P1  7948  0.86
      L1  H    11    28       P1  7948  1.00
      L1  C     5    26       P1  8028  1.00

> <Gold.PLP.Chemscore.Internal.Correction>
0.0081

> <Gold.Rescore>
     Score         DG    S(hbond)    S(metal)    S(lipo)     H(rot)  DE(clash)    DE(int)     intcor
     16.39     -19.47       1.93        0.00      86.40       1.00       0.05       3.03       ----

> <Gold.Chemscore.Fitness>
16.3874

> <Gold.Chemscore.DG>
-19.4723

> <Gold.Chemscore.ZeroCoef>
-5.4800

> <Gold.Chemscore.Hbond>
1.9292

> <Gold.Chemscore.Metal>
0.0000

> <Gold.Chemscore.Lipo>
86.4001

> <Gold.Chemscore.Internal_Hbond>
0.0000

> <Gold.Chemscore.DEClash>
0.0506

> <Gold.Chemscore.DEInternal>
3.0343

> <Gold.Chemscore.Rot>
1.0000

> <Gold.Chemscore.Internal.Correction>
   9.000000E+99

> <Gold.Chemscore.Hbonds>
donor molecule, donor type, donor heavy atom, donor atom, acceptor molecule, acceptor atom, score
      L1  H     8    27       P1  7948  0.84
      L1  H    11    28       P1  7948  0.96

> <Gold.Chemscore.Hbond.Weighted>
-6.4435

> <Gold.Chemscore.Metal.Weighted>
-0.0000

> <Gold.Chemscore.Lipo.Weighted>
-10.1088

> <Gold.Chemscore.Internal_Hbond.Weighted>
0.0000

> <Gold.Chemscore.DEClash.Weighted>
0.0506

> <Gold.Chemscore.DEInternal.Weighted>
3.0343

> <Gold.Chemscore.Rot.Weighted>
2.5600

> <Gold.Chemscore.Internal.Correction.Weighted>
   9.000000E+99

> <Gold.Protein.RotatedTorsions>
[ 6907 6896 6895 6894 ] final -145.94 input  -60.11 | X-H torsion
[ 7974 7965 7964 7962 ] final   77.07 input  175.53 | X-H torsion
[ 8008 7997 7996 7995 ] final -121.52 input   59.86 | X-H torsion
[ 10167 10162 10161 10158 ] final  -47.88 input  -65.29 | X-H torsion
[ 10718 10713 10712 10709 ] final  -66.61 input   66.30 | X-H torsion
[ 10763 10752 10751 10750 ] final  -25.22 input  -60.55 | X-H torsion
[ 11005 11000 10999 10996 ] final   20.49 input  -57.11 | X-H torsion

> <Gold.Protein.ActiveResidues>
 VAL166  LYS551  ARG553  GLY616  TRP617  ASP618  TYR619  PRO620  LYS621  CYS622 
 ASP623  PHE694  ASN695  SER759  ASP760  ASP761  ALA762  ILE779  LEU786  VAL792 
 PHE793  MET794  SER795  GLU796  ALA797  LYS798  CYS799  TRP800  GLU811  SER814 

> <Gold.Protein.RotatedAtoms>
  151.1347  133.5012  159.2598 H   0  0  0  0  0  0  0  0  0  0  0  0  # atno 6907 bound_to 6896
  151.1719  135.0321  159.8765 H   0  0  0  0  0  0  0  0  0  0  0  0  # atno 6908 bound_to 6896
  152.5461  134.1209  159.8452 H   0  0  0  0  0  0  0  0  0  0  0  0  # atno 6909 bound_to 6896
  145.6947  139.2563  143.1739 H   0  0  0  0  0  0  0  0  0  0  0  0  # atno 7974 bound_to 7965
  155.1493  140.0403  157.2817 H   0  0  0  0  0  0  0  0  0  0  0  0  # atno 8008 bound_to 7997
  154.6416  140.2548  155.7289 H   0  0  0  0  0  0  0  0  0  0  0  0  # atno 8009 bound_to 7997
  156.2535  140.2854  156.0812 H   0  0  0  0  0  0  0  0  0  0  0  0  # atno 8010 bound_to 7997
  140.6756  143.2765  151.3990 H   0  0  0  0  0  0  0  0  0  0  0  0  # atno 10167 bound_to 10162
  156.0603  130.4265  150.1734 H   0  0  0  0  0  0  0  0  0  0  0  0  # atno 10718 bound_to 10713
  153.6963  135.6959  153.5075 H   0  0  0  0  0  0  0  0  0  0  0  0  # atno 10763 bound_to 10752
  153.2375  135.4317  155.0661 H   0  0  0  0  0  0  0  0  0  0  0  0  # atno 10764 bound_to 10752
  154.8357  135.3499  154.6504 H   0  0  0  0  0  0  0  0  0  0  0  0  # atno 10765 bound_to 10752
  140.4020  134.1708  155.7664 H   0  0  0  0  0  0  0  0  0  0  0  0  # atno 11005 bound_to 11000
  146.0851  140.7720  142.9623 LP  0  0  0  0  0  0  0  0  0  0  0  0  # atno 17320 bound_to 7965
  144.6986  140.3549  143.7175 LP  0  0  0  0  0  0  0  0  0  0  0  0  # atno 17321 bound_to 7965
  139.6046  144.1223  152.2235 LP  0  0  0  0  0  0  0  0  0  0  0  0  # atno 17342 bound_to 10162
  140.0618  144.5850  150.7257 LP  0  0  0  0  0  0  0  0  0  0  0  0  # atno 17343 bound_to 10162
  156.9804  130.9862  151.3439 LP  0  0  0  0  0  0  0  0  0  0  0  0  # atno 17370 bound_to 10713
  157.5605  130.8243  149.8260 LP  0  0  0  0  0  0  0  0  0  0  0  0  # atno 17371 bound_to 10713
  141.1853  133.8326  157.1109 LP  0  0  0  0  0  0  0  0  0  0  0  0  # atno 17394 bound_to 11000
  140.0329  134.9892  157.0815 LP  0  0  0  0  0  0  0  0  0  0  0  0  # atno 17395 bound_to 11000

$$$$
