AV-unprocessed.smi:1484|AV-procd|sdf|5994|dock2
  -GOLD-   22720 6 83D 1   1.00000     0.00000
 Structure written by MMmdl.
 37 38  0  0  0  0  0  0  0  0  2 V2000
  151.8605  145.1468  159.0406 C   0  0  0  0  0  0  0  0  0  0  0  0
  152.4828  143.7503  158.8984 C   0  0  1  0  0  0  0  0  0  0  0  0
  152.7925  143.1283  160.2736 C   0  0  0  0  0  0  0  0  0  0  0  0
  153.4153  141.7303  160.1331 C   0  0  0  0  0  0  0  0  0  0  0  0
  152.5181  140.7993  159.3033 C   0  0  0  0  0  0  0  0  0  0  0  0
  152.1998  141.4086  157.9253 C   0  0  1  0  0  0  0  0  0  0  0  0
  151.2798  140.5371  157.1994 N   0  0  0  0  0  0  0  0  0  0  0  0
  151.5262  139.9276  156.0291 C   0  0  0  0  0  0  0  0  0  0  0  0
  152.5876  140.0471  155.4148 O   0  0  0  0  0  0  0  0  0  0  0  0
  150.3834  139.0521  155.4895 C   0  0  0  0  0  0  0  0  0  0  0  0
  149.0923  139.7456  155.3673 N   0  0  0  0  0  0  0  0  0  0  0  0
  148.0610  139.2339  156.2660 N   0  5  0  0  0  0  0  0  0  0  0  0
  146.8297  139.8099  156.2577 C   0  0  0  0  0  0  0  0  0  0  0  0
  145.9179  139.4439  156.9958 O   0  0  0  0  0  0  0  0  0  0  0  0
  146.5912  140.9018  155.3284 C   0  0  0  0  0  0  0  0  0  0  0  0
  147.5541  141.3367  154.4921 C   0  0  0  0  0  0  0  0  0  0  0  0
  148.8889  140.7510  154.4687 C   0  0  0  0  0  0  0  0  0  0  0  0
  149.7698  141.1364  153.6996 O   0  0  0  0  0  0  0  0  0  0  0  0
  151.5799  142.8112  158.0744 C   0  0  0  0  0  0  0  0  0  0  0  0
  150.9072  145.1054  159.5685 H   0  0  0  0  0  0  0  0  0  0  0  0
  151.6805  145.5971  158.0640 H   0  0  0  0  0  0  0  0  0  0  0  0
  152.5191  145.8159  159.5951 H   0  0  0  0  0  0  0  0  0  0  0  0
  153.4255  143.8653  158.3612 H   0  0  0  0  0  0  0  0  0  0  0  0
  153.4701  143.7750  160.8321 H   0  0  0  0  0  0  0  0  0  0  0  0
  151.8765  143.0597  160.8622 H   0  0  0  0  0  0  0  0  0  0  0  0
  154.3943  141.8115  159.6595 H   0  0  0  0  0  0  0  0  0  0  0  0
  153.5846  141.2985  161.1199 H   0  0  0  0  0  0  0  0  0  0  0  0
  153.0059  139.8315  159.1805 H   0  0  0  0  0  0  0  0  0  0  0  0
  151.5917  140.6119  159.8483 H   0  0  0  0  0  0  0  0  0  0  0  0
  153.1356  141.5141  157.3732 H   0  0  0  0  0  0  0  0  0  0  0  0
  150.3785  140.3781  157.6255 H   0  0  0  0  0  0  0  0  0  0  0  0
  150.6780  138.6530  154.5174 H   0  0  0  0  0  0  0  0  0  0  0  0
  150.2835  138.1825  156.1418 H   0  0  0  0  0  0  0  0  0  0  0  0
  145.6196  141.3732  155.3064 H   0  0  0  0  0  0  0  0  0  0  0  0
  147.3321  142.1495  153.8169 H   0  0  0  0  0  0  0  0  0  0  0  0
  150.6029  142.7324  158.5539 H   0  0  0  0  0  0  0  0  0  0  0  0
  151.4047  143.2407  157.0869 H   0  0  0  0  0  0  0  0  0  0  0  0
  1  2  1  0  0  0  0
  1 20  1  0  0  0  0
  1 21  1  0  0  0  0
  1 22  1  0  0  0  0
  2 19  1  0  0  0  0
  2  3  1  0  0  0  0
  2 23  1  0  0  0  0
  3  4  1  0  0  0  0
  3 24  1  0  0  0  0
  3 25  1  0  0  0  0
  4  5  1  0  0  0  0
  4 26  1  0  0  0  0
  4 27  1  0  0  0  0
  5  6  1  0  0  0  0
  5 28  1  0  0  0  0
  5 29  1  0  0  0  0
  6  7  1  0  0  0  0
  6 19  1  0  0  0  0
  6 30  1  0  0  0  0
  7  8  1  0  0  0  0
  7 31  1  0  0  0  0
  8  9  2  0  0  0  0
  8 10  1  0  0  0  0
 10 32  1  0  0  0  0
 10 33  1  0  0  0  0
 10 11  1  0  0  0  0
 11 12  1  0  0  0  0
 11 17  1  0  0  0  0
 12 13  1  0  0  0  0
 13 14  2  0  0  0  0
 13 15  1  0  0  0  0
 15 34  1  0  0  0  0
 15 16  2  0  0  0  0
 16 35  1  0  0  0  0
 16 17  1  0  0  0  0
 17 18  2  0  0  0  0
 19 36  1  0  0  0  0
 19 37  1  0  0  0  0
M  CHG  1  12  -1
M  END
> <s_m_source_file>
AV-unprocessed.smi

> <i_m_source_file_index>
1484

> <i_lp_mmshare_version>
43012

> <i_f3d_flags>
0

> <s_epik_input>
W0NIM11bQ0BASF0xW0NIMl1bQ0gyXVtDSDJdW0NASF0oW0NIMl0xKVtOSF1DKD1PKVtDSDJdbjJbbkhdYyg9TylbY0hdW2NIXWMyPU8=

> <s_epik_cmdline>
J2VwaWtfcHl0aG9uJywgJy1waCcsICc3LjAnLCAnLXRuJywgJzgnLCAnLW1hJywgJzIwMCcsICctbWV0YWxfYmluZGluZycsICctaW1hZScsICc8aW5maWxlLm1hZT4nLCAnLW9tYWUnLCAnPG91dGZpbGUubWFlPic=

> <r_lp_tautomer_probability>
1

> <r_epik_Ionization_Penalty>
0.101352

> <r_epik_Ionization_Penalty_Charging>
0.101352

> <r_epik_Ionization_Penalty_Neutral>
1.90469e-08

> <r_epik_State_Penalty>
0.0358555

> <r_epik_Charging_Adjusted_Penalty>
0.137208

> <i_epik_Tot_Q>
-1

> <i_epik_Tot_abs_Q>
1

> <r_epik_Metal_State_Penalty>
0.0358555

> <b_epik_Metal_Only>
0

> <s_lp_Force_Field>
OPLS_2005

> <r_lp_Energy>
25.5617

> <b_lp_Chiralities_Consistent>
1

> <s_lp_Variant>
AV-unprocessed.smi:1484-2

> <Gold.Version>
5.8.1

> <Gold.Id.Protein>
6NUR|6NUR_protein|mol2

> <Gold.PLP.Fitness>
40.9716

> <Gold.PLP.PLP>
-34.4672

> <Gold.PLP.part.hbond>
-3.3675

> <Gold.PLP.part.metal>
0.0000

> <Gold.PLP.part.buried>
-3.4629

> <Gold.PLP.part.nonpolar>
-29.6708

> <Gold.PLP.part.repulsive>
2.6937

> <Gold.PLP.ligand.clash>
0.0000

> <Gold.PLP.ligand.torsion>
0.0758

> <Gold.PLP.Chemscore.Hbond>
2.2160

> <Gold.PLP.Chemscore.CHOScore>
0.0000

> <Gold.PLP.Chemscore.Metal>
0.0000

> <Gold.Chemscore.Hbonds>
donor molecule, donor type, donor heavy atom, donor atom, acceptor molecule, acceptor atom, score
      P1  H  7989  7998       L1    18  0.27
      P1  H  7997  8010       L1     9  1.00
      P1  H  8011  8017       L1    18  0.91

> <Gold.PLP.Chemscore.Internal.Correction>
0.0080

> <Gold.Rescore>
     Score         DG    S(hbond)    S(metal)    S(lipo)     H(rot)  DE(clash)    DE(int)     intcor
     17.73     -19.21       2.24        0.00      89.69       1.65       1.40       0.08       ----

> <Gold.Chemscore.Fitness>
17.7322

> <Gold.Chemscore.DG>
-19.2146

> <Gold.Chemscore.ZeroCoef>
-5.4800

> <Gold.Chemscore.Hbond>
2.2387

> <Gold.Chemscore.Metal>
0.0000

> <Gold.Chemscore.Lipo>
89.6900

> <Gold.Chemscore.Internal_Hbond>
0.0000

> <Gold.Chemscore.DEClash>
1.4036

> <Gold.Chemscore.DEInternal>
0.0788

> <Gold.Chemscore.Rot>
1.6549

> <Gold.Chemscore.Internal.Correction>
   9.000000E+99

> <Gold.Chemscore.Hbonds>
donor molecule, donor type, donor heavy atom, donor atom, acceptor molecule, acceptor atom, score
      P1  H  7989  7998       L1    18  0.28
      P1  H  7997  8010       L1     9  1.00
      P1  H  8011  8017       L1    18  0.88

> <Gold.Chemscore.Hbond.Weighted>
-7.4773

> <Gold.Chemscore.Metal.Weighted>
-0.0000

> <Gold.Chemscore.Lipo.Weighted>
-10.4937

> <Gold.Chemscore.Internal_Hbond.Weighted>
0.0000

> <Gold.Chemscore.DEClash.Weighted>
1.4036

> <Gold.Chemscore.DEInternal.Weighted>
0.0788

> <Gold.Chemscore.Rot.Weighted>
4.2364

> <Gold.Chemscore.Internal.Correction.Weighted>
   9.000000E+99

> <Gold.Protein.RotatedTorsions>
[ 6907 6896 6895 6894 ] final   48.88 input  -60.11 | X-H torsion
[ 7974 7965 7964 7962 ] final  -38.24 input  175.53 | X-H torsion
[ 8008 7997 7996 7995 ] final   89.54 input   59.86 | X-H torsion
[ 10167 10162 10161 10158 ] final -135.63 input  -65.29 | X-H torsion
[ 10718 10713 10712 10709 ] final   53.01 input   66.30 | X-H torsion
[ 10763 10752 10751 10750 ] final  155.85 input  -60.55 | X-H torsion
[ 11005 11000 10999 10996 ] final  -81.36 input  -57.11 | X-H torsion

> <Gold.Protein.ActiveResidues>
 VAL166  LYS551  ARG553  GLY616  TRP617  ASP618  TYR619  PRO620  LYS621  CYS622 
 ASP623  PHE694  ASN695  SER759  ASP760  ASP761  ALA762  ILE779  LEU786  VAL792 
 PHE793  MET794  SER795  GLU796  ALA797  LYS798  CYS799  TRP800  GLU811  SER814 

> <Gold.Protein.RotatedAtoms>
  152.2845  134.7791  160.0389 H   0  0  0  0  0  0  0  0  0  0  0  0  # atno 6907 bound_to 6896
  151.8359  133.3410  159.3636 H   0  0  0  0  0  0  0  0  0  0  0  0  # atno 6908 bound_to 6896
  150.7203  134.5366  159.5771 H   0  0  0  0  0  0  0  0  0  0  0  0  # atno 6909 bound_to 6896
  146.0503  140.6489  142.9045 H   0  0  0  0  0  0  0  0  0  0  0  0  # atno 7974 bound_to 7965
  156.0012  140.3359  155.6847 H   0  0  0  0  0  0  0  0  0  0  0  0  # atno 8008 bound_to 7997
  155.6287  140.0683  157.2673 H   0  0  0  0  0  0  0  0  0  0  0  0  # atno 8009 bound_to 7997
  154.4250  140.1763  156.1437 H   0  0  0  0  0  0  0  0  0  0  0  0  # atno 8010 bound_to 7997
  139.8759  143.6899  152.2634 H   0  0  0  0  0  0  0  0  0  0  0  0  # atno 10167 bound_to 10162
  157.5128  130.8512  149.8456 H   0  0  0  0  0  0  0  0  0  0  0  0  # atno 10718 bound_to 10713
  154.1750  135.2802  155.3069 H   0  0  0  0  0  0  0  0  0  0  0  0  # atno 10763 bound_to 10752
  154.6046  135.5518  153.7413 H   0  0  0  0  0  0  0  0  0  0  0  0  # atno 10764 bound_to 10752
  153.0154  135.6400  154.1889 H   0  0  0  0  0  0  0  0  0  0  0  0  # atno 10765 bound_to 10752
  141.1666  133.7193  156.8411 H   0  0  0  0  0  0  0  0  0  0  0  0  # atno 11005 bound_to 11000
  144.7119  140.4071  143.7074 LP  0  0  0  0  0  0  0  0  0  0  0  0  # atno 17320 bound_to 7965
  145.6735  139.1604  143.2741 LP  0  0  0  0  0  0  0  0  0  0  0  0  # atno 17321 bound_to 7965
  139.7240  144.7596  151.0908 LP  0  0  0  0  0  0  0  0  0  0  0  0  # atno 17342 bound_to 10162
  140.7753  143.5171  150.9581 LP  0  0  0  0  0  0  0  0  0  0  0  0  # atno 17343 bound_to 10162
  156.0300  130.3767  150.1714 LP  0  0  0  0  0  0  0  0  0  0  0  0  # atno 17370 bound_to 10713
  156.9903  130.9891  151.3416 LP  0  0  0  0  0  0  0  0  0  0  0  0  # atno 17371 bound_to 10713
  140.1983  134.8916  157.3139 LP  0  0  0  0  0  0  0  0  0  0  0  0  # atno 17394 bound_to 11000
  140.2215  134.4017  155.7563 LP  0  0  0  0  0  0  0  0  0  0  0  0  # atno 17395 bound_to 11000

$$$$
