AV-unprocessed.smi:1868|AV-procd|sdf|7589|dock1
  -GOLD-   22720 9303D 1   1.00000     0.00000
 Structure written by MMmdl.
 48 50  0  0  0  0  0  0  0  0  3 V2000
  149.4183  140.7383  156.1497 C   0  0  0  0  0  0  0  0  0  0  0  0
  150.2376  141.5929  157.0575 C   0  0  0  0  0  0  0  0  0  0  0  0
  150.3771  142.9461  156.9738 N   0  3  0  0  0  0  0  0  0  0  0  0
  151.2231  143.3978  157.9877 C   0  0  0  0  0  0  0  0  0  0  0  0
  151.6639  144.6790  158.3043 C   0  0  0  0  0  0  0  0  0  0  0  0
  152.5314  144.7944  159.4104 C   0  0  0  0  0  0  0  0  0  0  0  0
  152.9276  143.6636  160.1543 C   0  0  0  0  0  0  0  0  0  0  0  0
  152.4742  142.3692  159.8239 C   0  0  0  0  0  0  0  0  0  0  0  0
  151.6169  142.2646  158.7289 C   0  0  0  0  0  0  0  0  0  0  0  0
  150.9824  141.1751  158.1218 N   0  0  0  0  0  0  0  0  0  0  0  0
  151.1972  139.8239  158.6631 C   0  0  0  0  0  0  0  0  0  0  0  0
  152.0584  138.9324  157.7460 C   0  0  1  0  0  0  0  0  0  0  0  0
  153.3568  139.4839  157.6426 O   0  0  0  0  0  0  0  0  0  0  0  0
  152.1728  137.4978  158.2992 C   0  0  0  0  0  0  0  0  0  0  0  0
  151.0789  136.6091  157.8286 N   0  3  2  0  0  0  0  0  0  0  0  0
  150.9660  136.5463  156.3469 C   0  0  0  0  0  0  0  0  0  0  0  0
  149.9077  135.5173  155.9145 C   0  0  0  0  0  0  0  0  0  0  0  0
  148.5380  135.8281  156.5409 C   0  0  1  0  0  0  0  0  0  0  0  0
  147.4785  134.7925  156.1396 C   0  0  0  0  0  0  0  0  0  0  0  0
  148.6914  135.9230  158.0680 C   0  0  0  0  0  0  0  0  0  0  0  0
  149.7751  136.9419  158.4582 C   0  0  0  0  0  0  0  0  0  0  0  0
  148.9674  141.3397  155.3600 H   0  0  0  0  0  0  0  0  0  0  0  0
  148.6216  140.2489  156.7100 H   0  0  0  0  0  0  0  0  0  0  0  0
  150.0420  139.9727  155.6874 H   0  0  0  0  0  0  0  0  0  0  0  0
  151.3634  145.5468  157.7354 H   0  0  0  0  0  0  0  0  0  0  0  0
  152.9010  145.7695  159.6933 H   0  0  0  0  0  0  0  0  0  0  0  0
  153.5945  143.7917  160.9948 H   0  0  0  0  0  0  0  0  0  0  0  0
  152.7853  141.5100  160.3991 H   0  0  0  0  0  0  0  0  0  0  0  0
  151.6705  139.9307  159.6400 H   0  0  0  0  0  0  0  0  0  0  0  0
  150.2231  139.3681  158.8456 H   0  0  0  0  0  0  0  0  0  0  0  0
  151.6164  138.9247  156.7507 H   0  0  0  0  0  0  0  0  0  0  0  0
  153.5079  140.0389  158.3930 H   0  0  0  0  0  0  0  0  0  0  0  0
  153.1372  137.0889  157.9922 H   0  0  0  0  0  0  0  0  0  0  0  0
  152.1830  137.5064  159.3901 H   0  0  0  0  0  0  0  0  0  0  0  0
  150.7081  137.5327  155.9584 H   0  0  0  0  0  0  0  0  0  0  0  0
  151.9224  136.2744  155.9022 H   0  0  0  0  0  0  0  0  0  0  0  0
  149.8278  135.5098  154.8269 H   0  0  0  0  0  0  0  0  0  0  0  0
  150.2315  134.5173  156.2074 H   0  0  0  0  0  0  0  0  0  0  0  0
  148.2073  136.7999  156.1711 H   0  0  0  0  0  0  0  0  0  0  0  0
  147.7478  133.7933  156.4834 H   0  0  0  0  0  0  0  0  0  0  0  0
  147.3602  134.7508  155.0565 H   0  0  0  0  0  0  0  0  0  0  0  0
  146.5064  135.0405  156.5668 H   0  0  0  0  0  0  0  0  0  0  0  0
  147.7414  136.2073  158.5220 H   0  0  0  0  0  0  0  0  0  0  0  0
  148.9477  134.9442  158.4766 H   0  0  0  0  0  0  0  0  0  0  0  0
  149.8805  136.9493  159.5438 H   0  0  0  0  0  0  0  0  0  0  0  0
  149.4722  137.9475  158.1613 H   0  0  0  0  0  0  0  0  0  0  0  0
  151.3144  135.6800  158.1487 H   0  0  0  0  0  0  0  0  0  0  0  0
  149.9268  143.5171  156.2698 H   0  0  0  0  0  0  0  0  0  0  0  0
  1  2  1  0  0  0  0
  1 22  1  0  0  0  0
  1 23  1  0  0  0  0
  1 24  1  0  0  0  0
  2 10  1  0  0  0  0
  2  3  2  0  0  0  0
  3  4  1  0  0  0  0
  3 48  1  0  0  0  0
  4  9  2  0  0  0  0
  4  5  1  0  0  0  0
  5  6  2  0  0  0  0
  5 25  1  0  0  0  0
  6  7  1  0  0  0  0
  6 26  1  0  0  0  0
  7  8  2  0  0  0  0
  7 27  1  0  0  0  0
  8  9  1  0  0  0  0
  8 28  1  0  0  0  0
  9 10  1  0  0  0  0
 10 11  1  0  0  0  0
 11 12  1  0  0  0  0
 11 29  1  0  0  0  0
 11 30  1  0  0  0  0
 12 13  1  0  0  0  0
 12 14  1  0  0  0  0
 12 31  1  0  0  0  0
 13 32  1  0  0  0  0
 14 15  1  0  0  0  0
 14 33  1  0  0  0  0
 14 34  1  0  0  0  0
 15 21  1  0  0  0  0
 15 16  1  0  0  0  0
 15 47  1  0  0  0  0
 16 17  1  0  0  0  0
 16 35  1  0  0  0  0
 16 36  1  0  0  0  0
 17 18  1  0  0  0  0
 17 37  1  0  0  0  0
 17 38  1  0  0  0  0
 18 19  1  0  0  0  0
 18 20  1  0  0  0  0
 18 39  1  0  0  0  0
 19 40  1  0  0  0  0
 19 41  1  0  0  0  0
 19 42  1  0  0  0  0
 20 21  1  0  0  0  0
 20 43  1  0  0  0  0
 20 44  1  0  0  0  0
 21 45  1  0  0  0  0
 21 46  1  0  0  0  0
M  CHG  1   3   1
M  CHG  1  15   1
M  END
> <s_m_source_file>
AV-unprocessed.smi

> <i_m_source_file_index>
1868

> <i_lp_mmshare_version>
43012

> <i_f3d_flags>
0

> <s_epik_input>
W2NIXTFbY0hdW2NIXVtjSF1jKGMxMiluKGMobjIpW0NIM10pW0NIMl1bQ0BIXShbT0hdKVtDSDJdTjNbQ0gyXVtDSDJdW0NIXShbQ0gzXSlbQ0gyXVtDSDJdMw==

> <s_epik_cmdline>
J2VwaWtfcHl0aG9uJywgJy1waCcsICc3LjAnLCAnLXRuJywgJzgnLCAnLW1hJywgJzIwMCcsICctbWV0YWxfYmluZGluZycsICctaW1hZScsICc8aW5maWxlLm1hZT4nLCAnLW9tYWUnLCAnPG91dGZpbGUubWFlPic=

> <r_epik_Ionization_Penalty>
1.10901

> <r_epik_Ionization_Penalty_Charging>
1.10901

> <r_epik_Ionization_Penalty_Neutral>
6.90208e-07

> <r_epik_State_Penalty>
1.18788

> <r_epik_Charging_Adjusted_Penalty>
2.29689

> <i_epik_Tot_Q>
2

> <i_epik_Tot_abs_Q>
2

> <r_epik_Metal_State_Penalty>
5.19353

> <b_epik_Metal_Only>
0

> <s_lp_Force_Field>
OPLS_2005

> <r_lp_Energy>
29.1884

> <b_lp_Chiralities_Consistent>
1

> <s_lp_Variant>
AV-unprocessed.smi:1868-6

> <Gold.Version>
5.8.1

> <Gold.Id.Protein>
6NUR|6NUR_protein|mol2

> <Gold.PLP.Fitness>
44.2069

> <Gold.PLP.PLP>
-36.2084

> <Gold.PLP.part.hbond>
-1.9081

> <Gold.PLP.part.metal>
0.0000

> <Gold.PLP.part.buried>
-5.7791

> <Gold.PLP.part.nonpolar>
-28.9691

> <Gold.PLP.part.repulsive>
0.1364

> <Gold.PLP.ligand.clash>
0.0000

> <Gold.PLP.ligand.torsion>
0.5065

> <Gold.PLP.Chemscore.Hbond>
2.9840

> <Gold.PLP.Chemscore.CHOScore>
0.0000

> <Gold.PLP.Chemscore.Metal>
0.0000

> <Gold.Chemscore.Hbonds>
donor molecule, donor type, donor heavy atom, donor atom, acceptor molecule, acceptor atom, score
      L1  H     3    48       P1  8028  2.00
      P1  H  7997  8009       L1    13  0.77

> <Gold.PLP.Chemscore.Internal.Correction>
0.0594

> <Gold.Rescore>
     Score         DG    S(hbond)    S(metal)    S(lipo)     H(rot)  DE(clash)    DE(int)     intcor
     18.45     -19.04       1.94        0.00     103.81       1.99       0.01       0.58       ----

> <Gold.Chemscore.Fitness>
18.4529

> <Gold.Chemscore.DG>
-19.0358

> <Gold.Chemscore.ZeroCoef>
-5.4800

> <Gold.Chemscore.Hbond>
1.9448

> <Gold.Chemscore.Metal>
0.0000

> <Gold.Chemscore.Lipo>
103.8054

> <Gold.Chemscore.Internal_Hbond>
0.0000

> <Gold.Chemscore.DEClash>
0.0053

> <Gold.Chemscore.DEInternal>
0.5777

> <Gold.Chemscore.Rot>
1.9863

> <Gold.Chemscore.Internal.Correction>
   9.000000E+99

> <Gold.Chemscore.Hbonds>
donor molecule, donor type, donor heavy atom, donor atom, acceptor molecule, acceptor atom, score
      L1  H     3    48       P1  8028  0.99
      P1  H  7997  8009       L1    13  0.13

> <Gold.Chemscore.Hbond.Weighted>
-6.4956

> <Gold.Chemscore.Metal.Weighted>
-0.0000

> <Gold.Chemscore.Lipo.Weighted>
-12.1452

> <Gold.Chemscore.Internal_Hbond.Weighted>
0.0000

> <Gold.Chemscore.DEClash.Weighted>
0.0053

> <Gold.Chemscore.DEInternal.Weighted>
0.5777

> <Gold.Chemscore.Rot.Weighted>
5.0850

> <Gold.Chemscore.Internal.Correction.Weighted>
   9.000000E+99

> <Gold.Protein.RotatedTorsions>
[ 6907 6896 6895 6894 ] final  154.36 input  -60.11 | X-H torsion
[ 7974 7965 7964 7962 ] final -152.94 input  175.53 | X-H torsion
[ 8008 7997 7996 7995 ] final  172.64 input   59.86 | X-H torsion
[ 10167 10162 10161 10158 ] final   -4.55 input  -65.29 | X-H torsion
[ 10718 10713 10712 10709 ] final   -5.72 input   66.30 | X-H torsion
[ 10763 10752 10751 10750 ] final   65.71 input  -60.55 | X-H torsion
[ 11005 11000 10999 10996 ] final   29.96 input  -57.11 | X-H torsion

> <Gold.Protein.ActiveResidues>
 VAL166  LYS551  ARG553  GLY616  TRP617  ASP618  TYR619  PRO620  LYS621  CYS622 
 ASP623  PHE694  ASN695  SER759  ASP760  ASP761  ALA762  ILE779  LEU786  VAL792 
 PHE793  MET794  SER795  GLU796  ALA797  LYS798  CYS799  TRP800  GLU811  SER814 

> <Gold.Protein.RotatedAtoms>
  152.0596  133.4056  159.4411 H   0  0  0  0  0  0  0  0  0  0  0  0  # atno 6907 bound_to 6896
  150.6866  134.3215  159.4798 H   0  0  0  0  0  0  0  0  0  0  0  0  # atno 6908 bound_to 6896
  152.1035  134.9324  160.0619 H   0  0  0  0  0  0  0  0  0  0  0  0  # atno 6909 bound_to 6896
  144.7767  140.4594  143.5868 H   0  0  0  0  0  0  0  0  0  0  0  0  # atno 7974 bound_to 7965
  156.1155  140.1481  156.9279 H   0  0  0  0  0  0  0  0  0  0  0  0  # atno 8008 bound_to 7997
  154.4797  140.0883  156.7390 H   0  0  0  0  0  0  0  0  0  0  0  0  # atno 8009 bound_to 7997
  155.4522  140.3435  155.4304 H   0  0  0  0  0  0  0  0  0  0  0  0  # atno 8010 bound_to 7997
  140.6931  143.6411  150.8435 H   0  0  0  0  0  0  0  0  0  0  0  0  # atno 10167 bound_to 10162
  156.7425  130.5214  149.5821 H   0  0  0  0  0  0  0  0  0  0  0  0  # atno 10718 bound_to 10713
  153.0108  135.5347  154.6709 H   0  0  0  0  0  0  0  0  0  0  0  0  # atno 10763 bound_to 10752
  154.5894  135.2857  155.0653 H   0  0  0  0  0  0  0  0  0  0  0  0  # atno 10764 bound_to 10752
  154.1752  135.6525  153.5072 H   0  0  0  0  0  0  0  0  0  0  0  0  # atno 10765 bound_to 10752
  140.2994  134.2774  155.7757 H   0  0  0  0  0  0  0  0  0  0  0  0  # atno 11005 bound_to 11000
  145.6165  139.1519  143.3046 LP  0  0  0  0  0  0  0  0  0  0  0  0  # atno 17320 bound_to 7965
  146.1951  140.6278  142.9128 LP  0  0  0  0  0  0  0  0  0  0  0  0  # atno 17321 bound_to 7965
  140.0126  143.5627  152.2833 LP  0  0  0  0  0  0  0  0  0  0  0  0  # atno 17342 bound_to 10162
  139.6356  144.7649  151.2445 LP  0  0  0  0  0  0  0  0  0  0  0  0  # atno 17343 bound_to 10162
  156.1455  130.6274  151.0525 LP  0  0  0  0  0  0  0  0  0  0  0  0  # atno 17370 bound_to 10713
  157.6812  131.0837  150.7364 LP  0  0  0  0  0  0  0  0  0  0  0  0  # atno 17371 bound_to 10713
  141.2131  133.7636  156.9744 LP  0  0  0  0  0  0  0  0  0  0  0  0  # atno 17394 bound_to 11000
  140.1123  134.9469  157.2083 LP  0  0  0  0  0  0  0  0  0  0  0  0  # atno 17395 bound_to 11000

$$$$
