AV-unprocessed.smi:212|AV-procd|sdf|1620|dock3
  -GOLD-   2262019553D 1   1.00000     0.00000
 Structure written by MMmdl.
 65 68  0  0  0  0  0  0  0  0  2 V2000
  146.4047  130.6746  156.4313 C   0  0  0  0  0  0  0  0  0  0  0  0
  147.1204  131.3461  155.2433 C   0  0  1  0  0  0  0  0  0  0  0  0
  146.1342  132.0033  154.2561 C   0  0  0  0  0  0  0  0  0  0  0  0
  146.8547  132.5822  153.0921 N   0  3  1  0  0  0  0  0  0  0  0  0
  145.9447  133.1281  152.0499 C   0  0  0  0  0  0  0  0  0  0  0  0
  145.8709  132.2322  150.7908 C   0  0  0  0  0  0  0  0  0  0  0  0
  145.7254  130.7569  151.1999 C   0  0  0  0  0  0  0  0  0  0  0  0
  144.7215  132.6393  149.8500 C   0  0  0  0  0  0  0  0  0  0  0  0
  147.0870  132.3320  150.0764 O   0  0  0  0  0  0  0  0  0  0  0  0
  147.9111  133.5415  153.5040 C   0  0  0  0  0  0  0  0  0  0  0  0
  148.8799  132.9119  154.5259 C   0  0  0  0  0  0  0  0  0  0  0  0
  148.1744  132.2853  155.6408 N   0  0  0  0  0  0  0  0  0  0  0  0
  147.9336  133.1016  156.6939 C   0  0  0  0  0  0  0  0  0  0  0  0
  147.5909  134.4001  156.4915 N   0  0  0  0  0  0  0  0  0  0  0  0
  147.3474  135.1961  157.5369 C   0  0  0  0  0  0  0  0  0  0  0  0
  147.3862  134.8993  158.8375 N   0  0  0  0  0  0  0  0  0  0  0  0
  147.7243  133.5942  159.0429 C   0  0  0  0  0  0  0  0  0  0  0  0
  148.0183  132.6372  158.0323 C   0  0  0  0  0  0  0  0  0  0  0  0
  148.3335  131.4145  158.6078 N   0  0  0  0  0  0  0  0  0  0  0  0
  148.2325  131.6360  159.8900 C   0  0  0  0  0  0  0  0  0  0  0  0
  147.8525  132.9133  160.2422 N   0  0  0  0  0  0  0  0  0  0  0  0
  147.6589  133.4212  161.5944 C   0  0  0  0  0  0  0  0  0  0  0  0
  147.0123  134.8307  161.6606 C   0  0  2  0  0  0  0  0  0  0  0  0
  147.6498  135.6699  162.7941 C   0  0  0  0  0  0  0  0  0  0  0  0
  147.8217  137.0207  162.4194 O   0  0  0  0  0  0  0  0  0  0  0  0
  145.4637  134.7544  161.7658 C   0  0  2  0  0  0  0  0  0  0  0  0
  144.8078  136.0203  162.2944 C   0  0  0  0  0  0  0  0  0  0  0  0
  143.4190  135.5313  162.6930 C   0  0  0  0  0  0  0  0  0  0  0  0
  143.5794  134.1647  163.0567 O   0  0  0  0  0  0  0  0  0  0  0  0
  144.9092  133.7436  162.7742 C   0  0  0  0  0  0  0  0  0  0  0  0
  145.7182  129.9027  156.0832 H   0  0  0  0  0  0  0  0  0  0  0  0
  145.8218  131.3892  157.0134 H   0  0  0  0  0  0  0  0  0  0  0  0
  147.1192  130.1972  157.1028 H   0  0  0  0  0  0  0  0  0  0  0  0
  147.6315  130.5476  154.7035 H   0  0  0  0  0  0  0  0  0  0  0  0
  145.4182  131.2583  153.9090 H   0  0  0  0  0  0  0  0  0  0  0  0
  145.5551  132.7829  154.7531 H   0  0  0  0  0  0  0  0  0  0  0  0
  144.9489  133.2895  152.4665 H   0  0  0  0  0  0  0  0  0  0  0  0
  146.2907  134.1167  151.7430 H   0  0  0  0  0  0  0  0  0  0  0  0
  144.8008  130.5909  151.7535 H   0  0  0  0  0  0  0  0  0  0  0  0
  146.5508  130.4353  151.8363 H   0  0  0  0  0  0  0  0  0  0  0  0
  145.7075  130.1002  150.3291 H   0  0  0  0  0  0  0  0  0  0  0  0
  143.7593  132.5895  150.3611 H   0  0  0  0  0  0  0  0  0  0  0  0
  144.6662  131.9803  148.9826 H   0  0  0  0  0  0  0  0  0  0  0  0
  144.8436  133.6562  149.4759 H   0  0  0  0  0  0  0  0  0  0  0  0
  147.6688  131.6489  150.3745 H   0  0  0  0  0  0  0  0  0  0  0  0
  148.4747  133.8630  152.6273 H   0  0  0  0  0  0  0  0  0  0  0  0
  147.4435  134.4348  153.9191 H   0  0  0  0  0  0  0  0  0  0  0  0
  149.4809  132.1449  154.0361 H   0  0  0  0  0  0  0  0  0  0  0  0
  149.5815  133.6626  154.8937 H   0  0  0  0  0  0  0  0  0  0  0  0
  147.0823  136.2156  157.2986 H   0  0  0  0  0  0  0  0  0  0  0  0
  148.4279  130.8635  160.6193 H   0  0  0  0  0  0  0  0  0  0  0  0
  147.0310  132.7079  162.1299 H   0  0  0  0  0  0  0  0  0  0  0  0
  148.6182  133.4088  162.1117 H   0  0  0  0  0  0  0  0  0  0  0  0
  147.2580  135.3211  160.7171 H   0  0  0  0  0  0  0  0  0  0  0  0
  147.0544  135.6162  163.7062 H   0  0  0  0  0  0  0  0  0  0  0  0
  148.6415  135.2870  163.0360 H   0  0  0  0  0  0  0  0  0  0  0  0
  146.9893  137.3610  162.1284 H   0  0  0  0  0  0  0  0  0  0  0  0
  145.0400  134.5168  160.7891 H   0  0  0  0  0  0  0  0  0  0  0  0
  145.3393  136.3823  163.1757 H   0  0  0  0  0  0  0  0  0  0  0  0
  144.7675  136.8341  161.5721 H   0  0  0  0  0  0  0  0  0  0  0  0
  142.9935  136.1142  163.5102 H   0  0  0  0  0  0  0  0  0  0  0  0
  142.7364  135.5870  161.8445 H   0  0  0  0  0  0  0  0  0  0  0  0
  144.9207  132.7214  162.3953 H   0  0  0  0  0  0  0  0  0  0  0  0
  145.4802  133.7699  163.7034 H   0  0  0  0  0  0  0  0  0  0  0  0
  147.3417  131.8131  152.6546 H   0  0  0  0  0  0  0  0  0  0  0  0
  1  2  1  0  0  0  0
  1 31  1  0  0  0  0
  1 32  1  0  0  0  0
  1 33  1  0  0  0  0
  2 12  1  0  0  0  0
  2  3  1  0  0  0  0
  2 34  1  0  0  0  0
  3  4  1  0  0  0  0
  3 35  1  0  0  0  0
  3 36  1  0  0  0  0
  4  5  1  0  0  0  0
  4 10  1  0  0  0  0
  4 65  1  0  0  0  0
  5  6  1  0  0  0  0
  5 37  1  0  0  0  0
  5 38  1  0  0  0  0
  6  7  1  0  0  0  0
  6  8  1  0  0  0  0
  6  9  1  0  0  0  0
  7 39  1  0  0  0  0
  7 40  1  0  0  0  0
  7 41  1  0  0  0  0
  8 42  1  0  0  0  0
  8 43  1  0  0  0  0
  8 44  1  0  0  0  0
  9 45  1  0  0  0  0
 10 11  1  0  0  0  0
 10 46  1  0  0  0  0
 10 47  1  0  0  0  0
 11 12  1  0  0  0  0
 11 48  1  0  0  0  0
 11 49  1  0  0  0  0
 12 13  1  0  0  0  0
 13 18  1  0  0  0  0
 13 14  2  0  0  0  0
 14 15  1  0  0  0  0
 15 16  2  0  0  0  0
 15 50  1  0  0  0  0
 16 17  1  0  0  0  0
 17 21  1  0  0  0  0
 17 18  2  0  0  0  0
 18 19  1  0  0  0  0
 19 20  2  0  0  0  0
 20 21  1  0  0  0  0
 20 51  1  0  0  0  0
 21 22  1  0  0  0  0
 22 23  1  0  0  0  0
 22 52  1  0  0  0  0
 22 53  1  0  0  0  0
 23 24  1  0  0  0  0
 23 26  1  0  0  0  0
 23 54  1  0  0  0  0
 24 25  1  0  0  0  0
 24 55  1  0  0  0  0
 24 56  1  0  0  0  0
 25 57  1  0  0  0  0
 26 30  1  0  0  0  0
 26 27  1  0  0  0  0
 26 58  1  0  0  0  0
 27 28  1  0  0  0  0
 27 59  1  0  0  0  0
 27 60  1  0  0  0  0
 28 29  1  0  0  0  0
 28 61  1  0  0  0  0
 28 62  1  0  0  0  0
 29 30  1  0  0  0  0
 30 63  1  0  0  0  0
 30 64  1  0  0  0  0
M  CHG  1   4   1
M  END
> <s_m_source_file>
AV-unprocessed.smi

> <i_m_source_file_index>
212

> <i_lp_mmshare_version>
43012

> <i_f3d_flags>
0

> <s_epik_input>
W0NIM11bQ0BASF0xW0NIMl1OKFtDSDJdQyhbQ0gzXSkoW0NIM10pW09IXSlbQ0gyXVtDSDJdTjFjKG5bY0hdbjIpYyhjMjMpbltjSF1uM1tDSDJdW0NASF0oW0NIMl1bT0hdKVtDQEBIXTRbQ0gyXVtDSDJdT1tDSDJdNA==

> <s_epik_cmdline>
J2VwaWtfcHl0aG9uJywgJy1waCcsICc3LjAnLCAnLXRuJywgJzgnLCAnLW1hJywgJzIwMCcsICctbWV0YWxfYmluZGluZycsICctaW1hZScsICc8aW5maWxlLm1hZT4nLCAnLW9tYWUnLCAnPG91dGZpbGUubWFlPic=

> <r_lp_tautomer_probability>
1

> <r_epik_Ionization_Penalty>
0.00182193

> <r_epik_Ionization_Penalty_Charging>
0.00173996

> <r_epik_Ionization_Penalty_Neutral>
8.19718e-05

> <r_epik_State_Penalty>
-0

> <r_epik_Charging_Adjusted_Penalty>
0.00173996

> <i_epik_Tot_Q>
1

> <i_epik_Tot_abs_Q>
1

> <r_epik_Metal_State_Penalty>
-0

> <b_epik_Metal_Only>
0

> <s_lp_Force_Field>
OPLS_2005

> <r_lp_Energy>
59.7923

> <b_lp_Chiralities_Consistent>
1

> <s_lp_Variant>
AV-unprocessed.smi:212-4

> <Gold.Version>
5.8.1

> <Gold.Id.Protein>
6NUR|6NUR_protein|mol2

> <Gold.PLP.Fitness>
45.4180

> <Gold.PLP.PLP>
-43.7988

> <Gold.PLP.part.hbond>
-2.1902

> <Gold.PLP.part.metal>
0.0000

> <Gold.PLP.part.buried>
-8.4012

> <Gold.PLP.part.nonpolar>
-33.1150

> <Gold.PLP.part.repulsive>
0.1221

> <Gold.PLP.ligand.clash>
0.0000

> <Gold.PLP.ligand.torsion>
2.8091

> <Gold.PLP.Chemscore.Hbond>
1.9600

> <Gold.PLP.Chemscore.CHOScore>
0.0000

> <Gold.PLP.Chemscore.Metal>
0.0000

> <Gold.Chemscore.Hbonds>
donor molecule, donor type, donor heavy atom, donor atom, acceptor molecule, acceptor atom, score
      L1  H     9    45       P1 10747  0.99
      P1  H  6931  6943       L1    25  0.99

> <Gold.PLP.Chemscore.Internal.Correction>
1.3573

> <Gold.Rescore>
     Score         DG    S(hbond)    S(metal)    S(lipo)     H(rot)  DE(clash)    DE(int)     intcor
      9.08     -14.78       1.94        0.00     104.60       3.68       0.08       5.62       ----

> <Gold.Chemscore.Fitness>
9.0841

> <Gold.Chemscore.DG>
-14.7808

> <Gold.Chemscore.ZeroCoef>
-5.4800

> <Gold.Chemscore.Hbond>
1.9420

> <Gold.Chemscore.Metal>
0.0000

> <Gold.Chemscore.Lipo>
104.6020

> <Gold.Chemscore.Internal_Hbond>
0.0000

> <Gold.Chemscore.DEClash>
0.0756

> <Gold.Chemscore.DEInternal>
5.6211

> <Gold.Chemscore.Rot>
3.6812

> <Gold.Chemscore.Internal.Correction>
   9.000000E+99

> <Gold.Chemscore.Hbonds>
donor molecule, donor type, donor heavy atom, donor atom, acceptor molecule, acceptor atom, score
      L1  H     9    45       P1 10747  0.87
      P1  H  6931  6943       L1    25  0.47

> <Gold.Chemscore.Hbond.Weighted>
-6.4863

> <Gold.Chemscore.Metal.Weighted>
-0.0000

> <Gold.Chemscore.Lipo.Weighted>
-12.2384

> <Gold.Chemscore.Internal_Hbond.Weighted>
0.0000

> <Gold.Chemscore.DEClash.Weighted>
0.0756

> <Gold.Chemscore.DEInternal.Weighted>
5.6211

> <Gold.Chemscore.Rot.Weighted>
9.4239

> <Gold.Chemscore.Internal.Correction.Weighted>
   9.000000E+99

> <Gold.Protein.RotatedTorsions>
[ 6907 6896 6895 6894 ] final   17.00 input  -60.11 | X-H torsion
[ 7974 7965 7964 7962 ] final   99.88 input  175.53 | X-H torsion
[ 8008 7997 7996 7995 ] final   80.08 input   59.86 | X-H torsion
[ 10167 10162 10161 10158 ] final   23.26 input  -65.29 | X-H torsion
[ 10718 10713 10712 10709 ] final -144.63 input   66.30 | X-H torsion
[ 10763 10752 10751 10750 ] final  -46.48 input  -60.55 | X-H torsion
[ 11005 11000 10999 10996 ] final  169.12 input  -57.11 | X-H torsion

> <Gold.Protein.ActiveResidues>
 VAL166  LYS551  ARG553  GLY616  TRP617  ASP618  TYR619  PRO620  LYS621  CYS622 
 ASP623  PHE694  ASN695  SER759  ASP760  ASP761  ALA762  ILE779  LEU786  VAL792 
 PHE793  MET794  SER795  GLU796  ALA797  LYS798  CYS799  TRP800  GLU811  SER814 

> <Gold.Protein.RotatedAtoms>
  151.8427  135.0585  160.0449 H   0  0  0  0  0  0  0  0  0  0  0  0  # atno 6907 bound_to 6896
  152.2797  133.5454  159.5498 H   0  0  0  0  0  0  0  0  0  0  0  0  # atno 6908 bound_to 6896
  150.7184  134.0498  159.3836 H   0  0  0  0  0  0  0  0  0  0  0  0  # atno 6909 bound_to 6896
  145.3930  139.2360  143.3341 H   0  0  0  0  0  0  0  0  0  0  0  0  # atno 7974 bound_to 7965
  155.8785  140.3445  155.5871 H   0  0  0  0  0  0  0  0  0  0  0  0  # atno 8008 bound_to 7997
  155.7746  140.0850  157.2109 H   0  0  0  0  0  0  0  0  0  0  0  0  # atno 8009 bound_to 7997
  154.4022  140.1512  156.2969 H   0  0  0  0  0  0  0  0  0  0  0  0  # atno 8010 bound_to 7997
  140.5283  143.9885  150.6452 H   0  0  0  0  0  0  0  0  0  0  0  0  # atno 10167 bound_to 10162
  156.3724  130.7795  151.1977 H   0  0  0  0  0  0  0  0  0  0  0  0  # atno 10718 bound_to 10713
  154.0457  135.6638  153.4795 H   0  0  0  0  0  0  0  0  0  0  0  0  # atno 10763 bound_to 10752
  153.0483  135.5100  154.7799 H   0  0  0  0  0  0  0  0  0  0  0  0  # atno 10764 bound_to 10752
  154.6789  135.3041  154.9606 H   0  0  0  0  0  0  0  0  0  0  0  0  # atno 10765 bound_to 10752
  140.2944  134.7647  157.3865 H   0  0  0  0  0  0  0  0  0  0  0  0  # atno 11005 bound_to 11000
  146.2788  140.4616  142.8784 LP  0  0  0  0  0  0  0  0  0  0  0  0  # atno 17320 bound_to 7965
  144.8427  140.6881  143.6219 LP  0  0  0  0  0  0  0  0  0  0  0  0  # atno 17321 bound_to 7965
  140.3253  143.3111  152.0742 LP  0  0  0  0  0  0  0  0  0  0  0  0  # atno 17342 bound_to 10162
  139.4945  144.6546  151.6601 LP  0  0  0  0  0  0  0  0  0  0  0  0  # atno 17343 bound_to 10162
  157.7485  131.0368  150.4427 LP  0  0  0  0  0  0  0  0  0  0  0  0  # atno 17370 bound_to 10713
  156.4656  130.4041  149.6549 LP  0  0  0  0  0  0  0  0  0  0  0  0  # atno 17371 bound_to 10713
  140.1166  134.5275  155.8220 LP  0  0  0  0  0  0  0  0  0  0  0  0  # atno 17394 bound_to 11000
  141.2140  133.6742  156.6788 LP  0  0  0  0  0  0  0  0  0  0  0  0  # atno 17395 bound_to 11000

$$$$
