#       Name:                AV-unprocessed.smi:725
#       Creating user name   scv26
#       Creation time:       Fri Mar 27 00:50:32 2020


#       File generated by GOLD software.
#

@<TRIPOS>MOLECULE
AV-unprocessed.smi:725
    55    56     1
SMALL
NO_CHARGES


@<TRIPOS>ATOM
      1 ****        -5.6191  -1.9564  -0.6549 C.3            1 S1                 0.0000
      2 ****        -4.7921  -1.5402   0.5666 C.3            1 S1                 0.0000
      3 ****        -3.2777  -1.7050   0.3326 C.3            1 S1                 0.0000
      4 ****        -2.3717  -1.3712   1.5460 C.3            1 S1                 0.0000
      5 ****        -2.5695   0.0721   2.0515 C.3            1 S1                 0.0000
      6 ****        -2.7180  -2.2405   2.6067 O.3            1 S1                 0.0000
      7 ****        -0.8844  -1.6677   1.2319 C.3            1 S1                 0.0000
      8 ****        -0.3735  -0.8927   0.1041 N.am           1 S1                 0.0000
      9 ****         0.3440   0.2384   0.1948 C.2            1 S1                 0.0000
     10 ****         0.6773   0.7498   1.2641 O.2            1 S1                 0.0000
     11 ****         0.7526   0.8411  -1.1239 C.ar           1 S1                 0.0000
     12 ****        -0.1996   0.9361  -2.1656 C.ar           1 S1                 0.0000
     13 ****         0.1590   1.5423  -3.3823 C.ar           1 S1                 0.0000
     14 ****         1.4646   2.0441  -3.5147 C.ar           1 S1                 0.0000
     15 ****         2.3865   1.9665  -2.5345 N.ar           1 S1                 0.0000
     16 ****         2.0530   1.3804  -1.3574 C.ar           1 S1                 0.0000
     17 ****         3.0726   1.2919  -0.3883 N.3            1 S1                 0.0000
     18 ****         4.0390   2.3831  -0.3231 C.3            1 S1                 0.0000
     19 ****         4.9040   2.2369   0.9403 C.3            1 S1                 0.0000
     20 ****         5.5262   0.9548   0.9481 O.3            1 S1                 0.0000
     21 ****         4.5730  -0.1044   0.9579 C.3            1 S1                 0.0000
     22 ****         3.6957  -0.0232  -0.3029 C.3            1 S1                 0.0000
     23 ****        -6.6847  -1.8265  -0.4649 H              1 S1                 0.0000
     24 ****        -5.4519  -3.0043  -0.9053 H              1 S1                 0.0000
     25 ****        -5.3614  -1.3566  -1.5281 H              1 S1                 0.0000
     26 ****        -5.0244  -0.5026   0.8059 H              1 S1                 0.0000
     27 ****        -5.1068  -2.1350   1.4244 H              1 S1                 0.0000
     28 ****        -3.0834  -2.7322   0.0195 H              1 S1                 0.0000
     29 ****        -2.9945  -1.0789  -0.5143 H              1 S1                 0.0000
     30 ****        -2.4094   0.7987   1.2547 H              1 S1                 0.0000
     31 ****        -1.8717   0.3073   2.8560 H              1 S1                 0.0000
     32 ****        -3.5742   0.2328   2.4428 H              1 S1                 0.0000
     33 ****        -2.1600  -2.0502   3.3454 H              1 S1                 0.0000
     34 ****        -0.2664  -1.5077   2.1175 H              1 S1                 0.0000
     35 ****        -0.7647  -2.7211   0.9759 H              1 S1                 0.0000
     36 ****        -0.5859  -1.2429  -0.8186 H              1 S1                 0.0000
     37 ****        -1.2043   0.5595  -2.0366 H              1 S1                 0.0000
     38 ****        -0.5519   1.6274  -4.1909 H              1 S1                 0.0000
     39 ****         1.7780   2.5205  -4.4319 H              1 S1                 0.0000
     40 ****         4.6752   2.3668  -1.2091 H              1 S1                 0.0000
     41 ****         3.5180   3.3412  -0.3119 H              1 S1                 0.0000
     42 ****         5.6748   3.0072   0.9594 H              1 S1                 0.0000
     43 ****         4.3014   2.3656   1.8410 H              1 S1                 0.0000
     44 ****         5.1006  -1.0576   0.9887 H              1 S1                 0.0000
     45 ****         3.9611  -0.0490   1.8597 H              1 S1                 0.0000
     46 ****         2.9416  -0.8101  -0.2813 H              1 S1                 0.0000
     47 ****         4.3034  -0.1883  -1.1934 H              1 S1                 0.0000
     48 ****        -2.5872  -3.1899   2.3210 LP             1 S1                 0.0000
     49 ****        -3.6745  -2.0978   2.8610 LP             1 S1                 0.0000
     50 ****         0.4127   0.3205   2.1276 LP             1 S1                 0.0000
     51 ****         1.2126   1.5945   1.2690 LP             1 S1                 0.0000
     52 ****         3.3051   2.3365  -2.6733 LP             1 S1                 0.0000
     53 ****         2.5460   1.4234   0.4515 LP             1 S1                 0.0000
     54 ****         6.0997   0.8798   1.7638 LP             1 S1                 0.0000
     55 ****         6.0960   0.8681   0.1309 LP             1 S1                 0.0000
@<TRIPOS>BOND
    1    1    2 1     
    2    1   23 1     
    3    1   24 1     
    4    1   25 1     
    5    2    3 1     
    6    2   26 1     
    7    2   27 1     
    8    3    4 1     
    9    3   28 1     
   10    3   29 1     
   11    4    5 1     
   12    4    6 1     
   13    4    7 1     
   14    5   30 1     
   15    5   31 1     
   16    5   32 1     
   17    6   33 1     
   18    7    8 1     
   19    7   34 1     
   20    7   35 1     
   21    8    9 am    
   22    8   36 1     
   23    9   10 2     
   24    9   11 1     
   25   11   16 ar    
   26   11   12 ar    
   27   12   13 ar    
   28   12   37 1     
   29   13   14 ar    
   30   13   38 1     
   31   14   15 ar    
   32   14   39 1     
   33   15   16 ar    
   34   16   17 1     
   35   17   22 1     
   36   17   18 1     
   37   18   19 1     
   38   18   40 1     
   39   18   41 1     
   40   19   20 1     
   41   19   42 1     
   42   19   43 1     
   43   20   21 1     
   44   21   22 1     
   45   21   44 1     
   46   21   45 1     
   47   22   46 1     
   48   22   47 1     
   49    6   48 1     
   50    6   49 1     
   51   10   50 1     
   52   10   51 1     
   53   15   52 1     
   54   17   53 1     
   55   20   54 1     
   56   20   55 1     
@<TRIPOS>SUBSTRUCTURE
      1 S1             1
@<TRIPOS>SET
LONE_PAIRS      STATIC     ATOMS    <user>   **** ""
8 48 49 50 51 52 53 54 55
DONOR_HYDROGENS      STATIC     ATOMS    <user>   **** ""
2 33 36
ATOM$BLUE        STATIC     ATOMS    COLORGROUP SYSTEM
8 48 49 50 51 52 53 54 55
ATOM$RED        STATIC     ATOMS    COLORGROUP SYSTEM
2 33 36
