AV-unprocessed.smi:740|AV-procd|sdf|3547|dock6
  -GOLD-   22720 0543D 1   1.00000     0.00000
 Structure written by MMmdl.
 44 46  0  0  0  0  0  0  0  0  1 V2000
  150.2710  143.2674  158.3152 C   0  0  0  0  0  0  0  0  0  0  0  0
  151.3925  142.4997  158.9928 C   0  0  0  0  0  0  0  0  0  0  0  0
  151.5377  141.1192  158.7283 C   0  0  0  0  0  0  0  0  0  0  0  0
  152.5690  140.3698  159.3354 C   0  0  0  0  0  0  0  0  0  0  0  0
  152.8928  139.0287  159.2192 N   0  0  0  0  0  0  0  0  0  0  0  0
  153.9478  138.9377  160.0235 C   0  0  0  0  0  0  0  0  0  0  0  0
  154.3451  140.0620  160.6497 N   0  0  0  0  0  0  0  0  0  0  0  0
  155.4645  140.2000  161.5644 C   0  0  0  0  0  0  0  0  0  0  0  0
  155.2007  139.5212  162.9222 C   0  0  1  0  0  0  0  0  0  0  0  0
  155.0205  138.1344  162.7078 O   0  0  0  0  0  0  0  0  0  0  0  0
  156.3762  139.7243  163.9004 C   0  0  0  0  0  0  0  0  0  0  0  0
  155.9591  140.4279  165.1185 N   0  0  0  0  0  0  0  0  0  0  0  0
  156.0619  139.9166  166.3531 C   0  0  0  0  0  0  0  0  0  0  0  0
  156.4950  138.8026  166.6463 O   0  0  0  0  0  0  0  0  0  0  0  0
  155.5716  140.9090  167.3979 C   0  0  0  0  0  0  0  0  0  0  0  0
  155.1594  142.1288  166.5602 C   0  0  1  0  0  0  0  0  0  0  0  0
  155.9158  143.4164  166.9269 C   0  0  0  0  0  0  0  0  0  0  0  0
  155.4688  141.6753  165.1347 C   0  0  0  0  0  0  0  0  0  0  0  0
  155.2810  142.3938  164.1528 O   0  0  0  0  0  0  0  0  0  0  0  0
  153.4573  141.0440  160.2235 C   0  0  0  0  0  0  0  0  0  0  0  0
  153.3226  142.4170  160.4953 C   0  0  0  0  0  0  0  0  0  0  0  0
  152.2881  143.1513  159.8784 C   0  0  0  0  0  0  0  0  0  0  0  0
  152.1538  144.6344  160.1750 C   0  0  0  0  0  0  0  0  0  0  0  0
  149.6556  142.6120  157.6983 H   0  0  0  0  0  0  0  0  0  0  0  0
  150.6784  144.0478  157.6721 H   0  0  0  0  0  0  0  0  0  0  0  0
  149.6222  143.7331  159.0573 H   0  0  0  0  0  0  0  0  0  0  0  0
  150.8566  140.6227  158.0530 H   0  0  0  0  0  0  0  0  0  0  0  0
  154.4642  137.9995  160.1656 H   0  0  0  0  0  0  0  0  0  0  0  0
  156.3580  139.7882  161.0935 H   0  0  0  0  0  0  0  0  0  0  0  0
  155.6522  141.2650  161.7081 H   0  0  0  0  0  0  0  0  0  0  0  0
  154.2826  139.9309  163.3459 H   0  0  0  0  0  0  0  0  0  0  0  0
  155.5699  137.6614  163.3139 H   0  0  0  0  0  0  0  0  0  0  0  0
  156.8549  138.7713  164.1336 H   0  0  0  0  0  0  0  0  0  0  0  0
  157.1525  140.3205  163.4172 H   0  0  0  0  0  0  0  0  0  0  0  0
  154.7289  140.4939  167.9518 H   0  0  0  0  0  0  0  0  0  0  0  0
  156.3721  141.1363  168.1028 H   0  0  0  0  0  0  0  0  0  0  0  0
  154.0849  142.2951  166.6469 H   0  0  0  0  0  0  0  0  0  0  0  0
  155.6007  144.2521  166.3013 H   0  0  0  0  0  0  0  0  0  0  0  0
  156.9934  143.2970  166.8065 H   0  0  0  0  0  0  0  0  0  0  0  0
  155.7272  143.6945  167.9640 H   0  0  0  0  0  0  0  0  0  0  0  0
  154.0126  142.9014  161.1702 H   0  0  0  0  0  0  0  0  0  0  0  0
  152.9332  144.9754  160.8571 H   0  0  0  0  0  0  0  0  0  0  0  0
  151.1891  144.8456  160.6366 H   0  0  0  0  0  0  0  0  0  0  0  0
  152.2348  145.2170  159.2571 H   0  0  0  0  0  0  0  0  0  0  0  0
  1  2  1  0  0  0  0
  1 24  1  0  0  0  0
  1 25  1  0  0  0  0
  1 26  1  0  0  0  0
  2 22  1  0  0  0  0
  2  3  2  0  0  0  0
  3  4  1  0  0  0  0
  3 27  1  0  0  0  0
  4 20  2  0  0  0  0
  4  5  1  0  0  0  0
  5  6  2  0  0  0  0
  6  7  1  0  0  0  0
  6 28  1  0  0  0  0
  7  8  1  0  0  0  0
  7 20  1  0  0  0  0
  8  9  1  0  0  0  0
  8 29  1  0  0  0  0
  8 30  1  0  0  0  0
  9 10  1  0  0  0  0
  9 11  1  0  0  0  0
  9 31  1  0  0  0  0
 10 32  1  0  0  0  0
 11 12  1  0  0  0  0
 11 33  1  0  0  0  0
 11 34  1  0  0  0  0
 12 18  1  0  0  0  0
 12 13  1  0  0  0  0
 13 14  2  0  0  0  0
 13 15  1  0  0  0  0
 15 16  1  0  0  0  0
 15 35  1  0  0  0  0
 15 36  1  0  0  0  0
 16 17  1  0  0  0  0
 16 18  1  0  0  0  0
 16 37  1  0  0  0  0
 17 38  1  0  0  0  0
 17 39  1  0  0  0  0
 17 40  1  0  0  0  0
 18 19  2  0  0  0  0
 20 21  1  0  0  0  0
 21 22  2  0  0  0  0
 21 41  1  0  0  0  0
 22 23  1  0  0  0  0
 23 42  1  0  0  0  0
 23 43  1  0  0  0  0
 23 44  1  0  0  0  0
M  END
> <s_m_source_file>
AV-unprocessed.smi

> <i_m_source_file_index>
740

> <i_lp_mmshare_version>
43012

> <i_f3d_flags>
0

> <s_epik_input>
W0NIM11jKFtjSF0xKWMoW0NIM10pW2NIXWMoYzEyKW4oW2NIXW4yKVtDSDJdW0NASF0oW09IXSlbQ0gyXU4zQyg9TylbQ0gyXVtDQEBIXShbQ0gzXSlDMz1P

> <s_epik_cmdline>
J2VwaWtfcHl0aG9uJywgJy1waCcsICc3LjAnLCAnLXRuJywgJzgnLCAnLW1hJywgJzIwMCcsICctbWV0YWxfYmluZGluZycsICctaW1hZScsICc8aW5maWxlLm1hZT4nLCAnLW9tYWUnLCAnPG91dGZpbGUubWFlPic=

> <r_lp_tautomer_probability>
1

> <r_epik_Ionization_Penalty>
0.104021

> <r_epik_Ionization_Penalty_Charging>
0

> <r_epik_Ionization_Penalty_Neutral>
0.104021

> <r_epik_State_Penalty>
0.0939354

> <r_epik_Charging_Adjusted_Penalty>
0.0939354

> <i_epik_Tot_Q>
0

> <i_epik_Tot_abs_Q>
0

> <r_epik_Metal_State_Penalty>
0.000101783

> <b_epik_Metal_Only>
0

> <s_lp_Force_Field>
OPLS_2005

> <r_lp_Energy>
16.7866

> <b_lp_Chiralities_Consistent>
1

> <s_lp_Variant>
AV-unprocessed.smi:740-2

> <Gold.Version>
5.8.1

> <Gold.Id.Protein>
6NUR|6NUR_protein|mol2

> <Gold.PLP.Fitness>
44.8089

> <Gold.PLP.PLP>
-46.5234

> <Gold.PLP.part.hbond>
-1.8230

> <Gold.PLP.part.metal>
0.0000

> <Gold.PLP.part.buried>
-6.1689

> <Gold.PLP.part.nonpolar>
-37.5001

> <Gold.PLP.part.repulsive>
0.0763

> <Gold.PLP.ligand.clash>
0.0000

> <Gold.PLP.ligand.torsion>
0.8693

> <Gold.PLP.Chemscore.Hbond>
0.0000

> <Gold.PLP.Chemscore.CHOScore>
0.0000

> <Gold.PLP.Chemscore.Metal>
0.0000

> <Gold.PLP.Chemscore.Internal.Correction>
0.0242

> <Gold.Rescore>
     Score         DG    S(hbond)    S(metal)    S(lipo)     H(rot)  DE(clash)    DE(int)     intcor
     11.10     -12.47       0.00        0.00     110.41       2.31       0.38       0.99       ----

> <Gold.Chemscore.Fitness>
11.1007

> <Gold.Chemscore.DG>
-12.4725

> <Gold.Chemscore.ZeroCoef>
-5.4800

> <Gold.Chemscore.Hbond>
0.0000

> <Gold.Chemscore.Metal>
0.0000

> <Gold.Chemscore.Lipo>
110.4105

> <Gold.Chemscore.Internal_Hbond>
0.0000

> <Gold.Chemscore.DEClash>
0.3775

> <Gold.Chemscore.DEInternal>
0.9942

> <Gold.Chemscore.Rot>
2.3147

> <Gold.Chemscore.Internal.Correction>
   9.000000E+99

> <Gold.Chemscore.Hbond.Weighted>
-0.0000

> <Gold.Chemscore.Metal.Weighted>
-0.0000

> <Gold.Chemscore.Lipo.Weighted>
-12.9180

> <Gold.Chemscore.Internal_Hbond.Weighted>
0.0000

> <Gold.Chemscore.DEClash.Weighted>
0.3775

> <Gold.Chemscore.DEInternal.Weighted>
0.9942

> <Gold.Chemscore.Rot.Weighted>
5.9256

> <Gold.Chemscore.Internal.Correction.Weighted>
   9.000000E+99

> <Gold.Protein.RotatedTorsions>
[ 6907 6896 6895 6894 ] final  -34.54 input  -60.11 | X-H torsion
[ 7974 7965 7964 7962 ] final  -55.84 input  175.53 | X-H torsion
[ 8008 7997 7996 7995 ] final  -84.88 input   59.86 | X-H torsion
[ 10167 10162 10161 10158 ] final   83.65 input  -65.29 | X-H torsion
[ 10718 10713 10712 10709 ] final  -27.28 input   66.30 | X-H torsion
[ 10763 10752 10751 10750 ] final   63.78 input  -60.55 | X-H torsion
[ 11005 11000 10999 10996 ] final   42.36 input  -57.11 | X-H torsion

> <Gold.Protein.ActiveResidues>
 VAL166  LYS551  ARG553  GLY616  TRP617  ASP618  TYR619  PRO620  LYS621  CYS622 
 ASP623  PHE694  ASN695  SER759  ASP760  ASP761  ALA762  ILE779  LEU786  VAL792 
 PHE793  MET794  SER795  GLU796  ALA797  LYS798  CYS799  TRP800  GLU811  SER814 

> <Gold.Protein.RotatedAtoms>
  151.0513  134.9675  159.8212 H   0  0  0  0  0  0  0  0  0  0  0  0  # atno 6907 bound_to 6896
  152.5381  134.2534  159.8917 H   0  0  0  0  0  0  0  0  0  0  0  0  # atno 6908 bound_to 6896
  151.2549  133.4288  159.2647 H   0  0  0  0  0  0  0  0  0  0  0  0  # atno 6909 bound_to 6896
  145.8696  140.8226  142.9895 H   0  0  0  0  0  0  0  0  0  0  0  0  # atno 7974 bound_to 7965
  154.6346  140.0599  156.9774 H   0  0  0  0  0  0  0  0  0  0  0  0  # atno 8008 bound_to 7997
  155.1611  140.3282  155.4393 H   0  0  0  0  0  0  0  0  0  0  0  0  # atno 8009 bound_to 7997
  156.2501  140.1930  156.6718 H   0  0  0  0  0  0  0  0  0  0  0  0  # atno 8010 bound_to 7997
  139.9161  144.6241  150.8487 H   0  0  0  0  0  0  0  0  0  0  0  0  # atno 10167 bound_to 10162
  156.4402  130.4463  149.7058 H   0  0  0  0  0  0  0  0  0  0  0  0  # atno 10718 bound_to 10713
  153.0030  135.5417  154.6405 H   0  0  0  0  0  0  0  0  0  0  0  0  # atno 10763 bound_to 10752
  154.5661  135.2838  155.0874 H   0  0  0  0  0  0  0  0  0  0  0  0  # atno 10764 bound_to 10752
  154.2058  135.6476  153.5153 H   0  0  0  0  0  0  0  0  0  0  0  0  # atno 10765 bound_to 10752
  140.1746  134.4179  155.8236 H   0  0  0  0  0  0  0  0  0  0  0  0  # atno 11005 bound_to 11000
  144.6726  140.1218  143.7449 LP  0  0  0  0  0  0  0  0  0  0  0  0  # atno 17320 bound_to 7965
  145.9153  139.2512  143.1413 LP  0  0  0  0  0  0  0  0  0  0  0  0  # atno 17321 bound_to 7965
  140.7673  143.3330  151.2369 LP  0  0  0  0  0  0  0  0  0  0  0  0  # atno 17342 bound_to 10162
  139.6901  143.9707  152.2854 LP  0  0  0  0  0  0  0  0  0  0  0  0  # atno 17343 bound_to 10162
  156.3926  130.7634  151.2636 LP  0  0  0  0  0  0  0  0  0  0  0  0  # atno 17370 bound_to 10713
  157.7506  131.0263  150.3958 LP  0  0  0  0  0  0  0  0  0  0  0  0  # atno 17371 bound_to 10713
  141.2219  133.6972  156.7824 LP  0  0  0  0  0  0  0  0  0  0  0  0  # atno 17394 bound_to 11000
  140.2338  134.8666  157.3503 LP  0  0  0  0  0  0  0  0  0  0  0  0  # atno 17395 bound_to 11000

$$$$
