AV-unprocessed.smi:2078|AV-procd|sdf|8467|dock6
  -GOLD-   2272011163D 1   1.00000     0.00000
 Structure written by MMmdl.
 41 42  0  0  0  0  0  0  0  0  3 V2000
  152.0494  140.9137  159.1020 C   0  0  0  0  0  0  0  0  0  0  0  0
  151.7810  140.5662  157.6777 C   0  0  0  0  0  0  0  0  0  0  0  0
  150.6991  140.7534  156.8651 C   0  0  0  0  0  0  0  0  0  0  0  0
  151.1146  140.1786  155.6331 C   0  0  0  0  0  0  0  0  0  0  0  0
  150.3922  140.1258  154.5034 N   0  5  0  0  0  0  0  0  0  0  0  0
  149.0651  139.8717  154.5553 C   0  0  0  0  0  0  0  0  0  0  0  0
  148.3528  139.8952  155.5622 O   0  0  0  0  0  0  0  0  0  0  0  0
  148.5277  139.5674  153.3653 N   0  0  0  0  0  0  0  0  0  0  0  0
  147.1279  139.2383  153.1256 C   0  0  0  0  0  0  0  0  0  0  0  0
  146.6733  138.0581  154.0046 C   0  0  0  0  0  0  0  0  0  0  0  0
  146.5797  136.7894  153.2405 N   0  3  1  0  0  0  0  0  0  0  0  0
  146.6019  135.5984  154.1279 C   0  0  0  0  0  0  0  0  0  0  0  0
  146.6401  134.2975  153.3097 C   0  0  0  0  0  0  0  0  0  0  0  0
  145.4593  134.2274  152.3334 C   0  0  0  0  0  0  0  0  0  0  0  0
  145.4308  135.4794  151.4405 C   0  0  1  0  0  0  0  0  0  0  0  0
  144.2406  135.4497  150.4711 C   0  0  0  0  0  0  0  0  0  0  0  0
  145.4203  136.7544  152.3082 C   0  0  0  0  0  0  0  0  0  0  0  0
  152.3458  139.6991  155.6884 N   0  0  0  0  0  0  0  0  0  0  0  0
  152.7788  139.9394  156.9981 O   0  0  0  0  0  0  0  0  0  0  0  0
  152.3124  141.9671  159.1981 H   0  0  0  0  0  0  0  0  0  0  0  0
  152.8725  140.3211  159.5022 H   0  0  0  0  0  0  0  0  0  0  0  0
  151.1695  140.7267  159.7177 H   0  0  0  0  0  0  0  0  0  0  0  0
  149.7589  141.2228  157.1126 H   0  0  0  0  0  0  0  0  0  0  0  0
  149.1452  139.5615  152.5662 H   0  0  0  0  0  0  0  0  0  0  0  0
  146.5183  140.1265  153.2927 H   0  0  0  0  0  0  0  0  0  0  0  0
  147.0174  138.9810  152.0720 H   0  0  0  0  0  0  0  0  0  0  0  0
  147.3996  137.9434  154.8106 H   0  0  0  0  0  0  0  0  0  0  0  0
  145.7156  138.2662  154.4844 H   0  0  0  0  0  0  0  0  0  0  0  0
  147.4785  135.6366  154.7757 H   0  0  0  0  0  0  0  0  0  0  0  0
  145.7254  135.6107  154.7778 H   0  0  0  0  0  0  0  0  0  0  0  0
  147.5783  134.2395  152.7563 H   0  0  0  0  0  0  0  0  0  0  0  0
  146.6217  133.4364  153.9785 H   0  0  0  0  0  0  0  0  0  0  0  0
  145.5359  133.3271  151.7225 H   0  0  0  0  0  0  0  0  0  0  0  0
  144.5260  134.1467  152.8927 H   0  0  0  0  0  0  0  0  0  0  0  0
  146.3424  135.4876  150.8408 H   0  0  0  0  0  0  0  0  0  0  0  0
  143.2915  135.4407  151.0079 H   0  0  0  0  0  0  0  0  0  0  0  0
  144.2726  134.5634  149.8369 H   0  0  0  0  0  0  0  0  0  0  0  0
  144.2441  136.3223  149.8172 H   0  0  0  0  0  0  0  0  0  0  0  0
  144.4930  136.8134  152.8809 H   0  0  0  0  0  0  0  0  0  0  0  0
  145.4393  137.6262  151.6550 H   0  0  0  0  0  0  0  0  0  0  0  0
  147.4157  136.7357  152.6764 H   0  0  0  0  0  0  0  0  0  0  0  0
  1  2  1  0  0  0  0
  1 20  1  0  0  0  0
  1 21  1  0  0  0  0
  1 22  1  0  0  0  0
  2 19  1  0  0  0  0
  2  3  2  0  0  0  0
  3  4  1  0  0  0  0
  3 23  1  0  0  0  0
  4  5  1  0  0  0  0
  4 18  2  0  0  0  0
  5  6  1  0  0  0  0
  6  7  2  0  0  0  0
  6  8  1  0  0  0  0
  8  9  1  0  0  0  0
  8 24  1  0  0  0  0
  9 10  1  0  0  0  0
  9 25  1  0  0  0  0
  9 26  1  0  0  0  0
 10 11  1  0  0  0  0
 10 27  1  0  0  0  0
 10 28  1  0  0  0  0
 11 17  1  0  0  0  0
 11 12  1  0  0  0  0
 11 41  1  0  0  0  0
 12 13  1  0  0  0  0
 12 29  1  0  0  0  0
 12 30  1  0  0  0  0
 13 14  1  0  0  0  0
 13 31  1  0  0  0  0
 13 32  1  0  0  0  0
 14 15  1  0  0  0  0
 14 33  1  0  0  0  0
 14 34  1  0  0  0  0
 15 16  1  0  0  0  0
 15 17  1  0  0  0  0
 15 35  1  0  0  0  0
 16 36  1  0  0  0  0
 16 37  1  0  0  0  0
 16 38  1  0  0  0  0
 17 39  1  0  0  0  0
 17 40  1  0  0  0  0
 18 19  1  0  0  0  0
M  CHG  1   5  -1
M  CHG  1  11   1
M  END
> <s_m_source_file>
AV-unprocessed.smi

> <i_m_source_file_index>
2078

> <i_lp_mmshare_version>
43012

> <i_f3d_flags>
0

> <s_epik_input>
W0NIM11jMVtjSF1jKG5vMSlbTkhdQyg9TylbTkhdW0NIMl1bQ0gyXU4yW0NIMl1bQ0gyXVtDSDJdW0NAQEhdKFtDSDNdKVtDSDJdMg==

> <s_epik_cmdline>
J2VwaWtfcHl0aG9uJywgJy1waCcsICc3LjAnLCAnLXRuJywgJzgnLCAnLW1hJywgJzIwMCcsICctbWV0YWxfYmluZGluZycsICctaW1hZScsICc8aW5maWxlLm1hZT4nLCAnLW9tYWUnLCAnPG91dGZpbGUubWFlPic=

> <r_epik_Ionization_Penalty>
6.22434

> <r_epik_Ionization_Penalty_Charging>
6.22425

> <r_epik_Ionization_Penalty_Neutral>
9.37855e-05

> <r_epik_State_Penalty>
6.22423

> <r_epik_Charging_Adjusted_Penalty>
12.4485

> <i_epik_Tot_Q>
0

> <i_epik_Tot_abs_Q>
2

> <r_epik_Metal_State_Penalty>
2.16764

> <b_epik_Metal_Only>
1

> <s_lp_Force_Field>
OPLS_2005

> <r_lp_Energy>
3.15807

> <b_lp_Chiralities_Consistent>
1

> <s_lp_Variant>
AV-unprocessed.smi:2078-5

> <Gold.Version>
5.8.1

> <Gold.Id.Protein>
6NUR|6NUR_protein|mol2

> <Gold.PLP.Fitness>
43.4621

> <Gold.PLP.PLP>
-30.1565

> <Gold.PLP.part.hbond>
-4.6784

> <Gold.PLP.part.metal>
0.0000

> <Gold.PLP.part.buried>
-2.4389

> <Gold.PLP.part.nonpolar>
-22.0195

> <Gold.PLP.part.repulsive>
0.2328

> <Gold.PLP.ligand.clash>
0.0000

> <Gold.PLP.ligand.torsion>
0.7783

> <Gold.PLP.Chemscore.Hbond>
4.9420

> <Gold.PLP.Chemscore.CHOScore>
0.0000

> <Gold.PLP.Chemscore.Metal>
0.0000

> <Gold.Chemscore.Hbonds>
donor molecule, donor type, donor heavy atom, donor atom, acceptor molecule, acceptor atom, score
      L1  H     8    24       P1  7957  1.00
      L1  H    11    41       P1  7948  2.00
      P1  H  7989  7998       L1     5  0.75
      P1  H  7997  8008       L1    19  0.96

> <Gold.PLP.Chemscore.Internal.Correction>
0.0363

> <Gold.Rescore>
     Score         DG    S(hbond)    S(metal)    S(lipo)     H(rot)  DE(clash)    DE(int)     intcor
     13.98     -17.40       2.96        0.00      50.98       1.54       0.01       3.41       ----

> <Gold.Chemscore.Fitness>
13.9809

> <Gold.Chemscore.DG>
-17.4009

> <Gold.Chemscore.ZeroCoef>
-5.4800

> <Gold.Chemscore.Hbond>
2.9642

> <Gold.Chemscore.Metal>
0.0000

> <Gold.Chemscore.Lipo>
50.9848

> <Gold.Chemscore.Internal_Hbond>
0.0000

> <Gold.Chemscore.DEClash>
0.0126

> <Gold.Chemscore.DEInternal>
3.4074

> <Gold.Chemscore.Rot>
1.5409

> <Gold.Chemscore.Internal.Correction>
   9.000000E+99

> <Gold.Chemscore.Hbonds>
donor molecule, donor type, donor heavy atom, donor atom, acceptor molecule, acceptor atom, score
      L1  H     8    24       P1  7957  0.93
      L1  H    11    41       P1  7948  1.00
      P1  H  7989  7998       L1     5  0.09
      P1  H  7997  8008       L1    19  0.41

> <Gold.Chemscore.Hbond.Weighted>
-9.9003

> <Gold.Chemscore.Metal.Weighted>
-0.0000

> <Gold.Chemscore.Lipo.Weighted>
-5.9652

> <Gold.Chemscore.Internal_Hbond.Weighted>
0.0000

> <Gold.Chemscore.DEClash.Weighted>
0.0126

> <Gold.Chemscore.DEInternal.Weighted>
3.4074

> <Gold.Chemscore.Rot.Weighted>
3.9446

> <Gold.Chemscore.Internal.Correction.Weighted>
   9.000000E+99

> <Gold.Protein.RotatedTorsions>
[ 6907 6896 6895 6894 ] final   -4.64 input  -60.11 | X-H torsion
[ 7974 7965 7964 7962 ] final -111.97 input  175.53 | X-H torsion
[ 8008 7997 7996 7995 ] final  -75.35 input   59.86 | X-H torsion
[ 10167 10162 10161 10158 ] final  -53.83 input  -65.29 | X-H torsion
[ 10718 10713 10712 10709 ] final  140.25 input   66.30 | X-H torsion
[ 10763 10752 10751 10750 ] final   53.51 input  -60.55 | X-H torsion
[ 11005 11000 10999 10996 ] final   49.58 input  -57.11 | X-H torsion

> <Gold.Protein.ActiveResidues>
 VAL166  LYS551  ARG553  GLY616  TRP617  ASP618  TYR619  PRO620  LYS621  CYS622 
 ASP623  PHE694  ASN695  SER759  ASP760  ASP761  ALA762  ILE779  LEU786  VAL792 
 PHE793  MET794  SER795  GLU796  ALA797  LYS798  CYS799  TRP800  GLU811  SER814 

> <Gold.Protein.RotatedAtoms>
  151.4944  135.1059  159.9811 H   0  0  0  0  0  0  0  0  0  0  0  0  # atno 6907 bound_to 6896
  152.4727  133.8064  159.6990 H   0  0  0  0  0  0  0  0  0  0  0  0  # atno 6908 bound_to 6896
  150.8746  133.7394  159.2976 H   0  0  0  0  0  0  0  0  0  0  0  0  # atno 6909 bound_to 6896
  145.1496  140.8822  143.3654 H   0  0  0  0  0  0  0  0  0  0  0  0  # atno 7974 bound_to 7965
  154.5409  140.0745  156.8508 H   0  0  0  0  0  0  0  0  0  0  0  0  # atno 8008 bound_to 7997
  155.3183  140.3394  155.4224 H   0  0  0  0  0  0  0  0  0  0  0  0  # atno 8009 bound_to 7997
  156.1873  140.1673  156.8146 H   0  0  0  0  0  0  0  0  0  0  0  0  # atno 8010 bound_to 7997
  140.6464  143.2538  151.4848 H   0  0  0  0  0  0  0  0  0  0  0  0  # atno 10167 bound_to 10162
  157.4054  131.1021  151.0509 H   0  0  0  0  0  0  0  0  0  0  0  0  # atno 10718 bound_to 10713
  152.9796  135.5776  154.4753 H   0  0  0  0  0  0  0  0  0  0  0  0  # atno 10763 bound_to 10752
  154.4310  135.2773  155.1914 H   0  0  0  0  0  0  0  0  0  0  0  0  # atno 10764 bound_to 10752
  154.3622  135.6186  153.5750 H   0  0  0  0  0  0  0  0  0  0  0  0  # atno 10765 bound_to 10752
  140.1091  134.4979  155.8694 H   0  0  0  0  0  0  0  0  0  0  0  0  # atno 11005 bound_to 11000
  145.0445  139.3232  143.5960 LP  0  0  0  0  0  0  0  0  0  0  0  0  # atno 17320 bound_to 7965
  146.3496  139.9831  142.8693 LP  0  0  0  0  0  0  0  0  0  0  0  0  # atno 17321 bound_to 7965
  139.5675  144.2008  152.1786 LP  0  0  0  0  0  0  0  0  0  0  0  0  # atno 17342 bound_to 10162
  140.1294  144.5302  150.6812 LP  0  0  0  0  0  0  0  0  0  0  0  0  # atno 17343 bound_to 10162
  157.1493  130.6177  149.5577 LP  0  0  0  0  0  0  0  0  0  0  0  0  # atno 17370 bound_to 10713
  155.9835  130.4854  150.6935 LP  0  0  0  0  0  0  0  0  0  0  0  0  # atno 17371 bound_to 10713
  141.2126  133.6721  156.6669 LP  0  0  0  0  0  0  0  0  0  0  0  0  # atno 17394 bound_to 11000
  140.3115  134.8082  157.4180 LP  0  0  0  0  0  0  0  0  0  0  0  0  # atno 17395 bound_to 11000

$$$$
