AV-unprocessed.smi:357|AV-procd|sdf|2416|dock6
  -GOLD-   2262022353D 1   1.00000     0.00000
 Structure written by MMmdl.
 37 38  0  0  0  0  0  0  0  0  1 V2000
  152.1174  139.8537  155.5638 O   0  0  0  0  0  0  0  0  0  0  0  0
  150.9545  140.1122  155.2508 C   0  0  0  0  0  0  0  0  0  0  0  0
  150.1196  139.2239  154.4292 C   0  0  0  0  0  0  0  0  0  0  0  0
  150.8275  137.7356  153.8948 Cl  0  0  0  0  0  0  0  0  0  0  0  0
  148.8415  139.5387  154.0857 C   0  0  0  0  0  0  0  0  0  0  0  0
  148.0844  138.6777  153.3001 N   0  0  0  0  0  0  0  0  0  0  0  0
  146.7150  138.8351  152.8320 C   0  0  0  0  0  0  0  0  0  0  0  0
  146.6533  139.4305  151.4178 C   0  0  0  0  0  0  0  0  0  0  0  0
  146.3367  138.4266  150.4774 O   0  0  0  0  0  0  0  0  0  0  0  0
  148.3355  140.8123  154.5758 C   0  0  0  0  0  0  0  0  0  0  0  0
  149.0391  141.6108  155.3015 N   0  0  0  0  0  0  0  0  0  0  0  0
  150.3319  141.2645  155.6378 N   0  0  0  0  0  0  0  0  0  0  0  0
  151.0300  142.2711  156.4442 C   0  0  0  0  0  0  0  0  0  0  0  0
  150.6616  142.1495  157.9304 C   0  0  0  0  0  0  0  0  0  0  0  0
  151.6418  142.8309  158.7011 O   0  0  0  0  0  0  0  0  0  0  0  0
  152.4845  142.0803  159.4925 C   0  0  0  0  0  0  0  0  0  0  0  0
  152.7864  140.7762  159.0482 C   0  0  0  0  0  0  0  0  0  0  0  0
  153.6375  139.9389  159.7948 C   0  0  0  0  0  0  0  0  0  0  0  0
  154.1978  140.4001  161.0004 C   0  0  0  0  0  0  0  0  0  0  0  0
  155.2407  139.3766  161.9175 Cl  0  0  0  0  0  0  0  0  0  0  0  0
  153.9047  141.6989  161.4563 C   0  0  0  0  0  0  0  0  0  0  0  0
  153.0540  142.5364  160.7088 C   0  0  0  0  0  0  0  0  0  0  0  0
  148.5269  137.8121  153.0250 H   0  0  0  0  0  0  0  0  0  0  0  0
  146.2894  137.8318  152.8020 H   0  0  0  0  0  0  0  0  0  0  0  0
  146.1018  139.3968  153.5369 H   0  0  0  0  0  0  0  0  0  0  0  0
  145.9403  140.2536  151.3555 H   0  0  0  0  0  0  0  0  0  0  0  0
  147.6300  139.8322  151.1473 H   0  0  0  0  0  0  0  0  0  0  0  0
  145.4000  138.4166  150.3523 H   0  0  0  0  0  0  0  0  0  0  0  0
  147.3148  141.0661  154.2933 H   0  0  0  0  0  0  0  0  0  0  0  0
  152.1094  142.1576  156.3281 H   0  0  0  0  0  0  0  0  0  0  0  0
  150.8047  143.2761  156.0830 H   0  0  0  0  0  0  0  0  0  0  0  0
  149.6773  142.5854  158.1097 H   0  0  0  0  0  0  0  0  0  0  0  0
  150.6252  141.0960  158.2126 H   0  0  0  0  0  0  0  0  0  0  0  0
  152.3610  140.4138  158.1238 H   0  0  0  0  0  0  0  0  0  0  0  0
  153.8590  138.9429  159.4404 H   0  0  0  0  0  0  0  0  0  0  0  0
  154.3324  142.0558  162.3816 H   0  0  0  0  0  0  0  0  0  0  0  0
  152.8535  143.5252  161.0920 H   0  0  0  0  0  0  0  0  0  0  0  0
  1  2  2  0  0  0  0
  2 12  1  0  0  0  0
  2  3  1  0  0  0  0
  3  4  1  0  0  0  0
  3  5  2  0  0  0  0
  5  6  1  0  0  0  0
  5 10  1  0  0  0  0
  6  7  1  0  0  0  0
  6 23  1  0  0  0  0
  7  8  1  0  0  0  0
  7 24  1  0  0  0  0
  7 25  1  0  0  0  0
  8  9  1  0  0  0  0
  8 26  1  0  0  0  0
  8 27  1  0  0  0  0
  9 28  1  0  0  0  0
 10 11  2  0  0  0  0
 10 29  1  0  0  0  0
 11 12  1  0  0  0  0
 12 13  1  0  0  0  0
 13 14  1  0  0  0  0
 13 30  1  0  0  0  0
 13 31  1  0  0  0  0
 14 15  1  0  0  0  0
 14 32  1  0  0  0  0
 14 33  1  0  0  0  0
 15 16  1  0  0  0  0
 16 22  1  0  0  0  0
 16 17  2  0  0  0  0
 17 18  1  0  0  0  0
 17 34  1  0  0  0  0
 18 19  2  0  0  0  0
 18 35  1  0  0  0  0
 19 20  1  0  0  0  0
 19 21  1  0  0  0  0
 21 22  2  0  0  0  0
 21 36  1  0  0  0  0
 22 37  1  0  0  0  0
M  END
> <s_m_source_file>
AV-unprocessed.smi

> <i_m_source_file_index>
357

> <i_lp_mmshare_version>
43012

> <i_f3d_flags>
0

> <s_epik_input>
W09IXVtDSDJdW0NIMl1bTkhdYyhjKENsKWMxPU8pW2NIXW5uMVtDSDJdW0NIMl1PYzJbY0hdW2NIXWMoQ2wpW2NIXVtjSF0y

> <s_epik_cmdline>
J2VwaWtfcHl0aG9uJywgJy1waCcsICc3LjAnLCAnLXRuJywgJzgnLCAnLW1hJywgJzIwMCcsICctbWV0YWxfYmluZGluZycsICctaW1hZScsICc8aW5maWxlLm1hZT4nLCAnLW9tYWUnLCAnPG91dGZpbGUubWFlPic=

> <r_lp_tautomer_probability>
1

> <r_epik_Ionization_Penalty>
2.22594e-05

> <r_epik_Ionization_Penalty_Charging>
1.05597e-09

> <r_epik_Ionization_Penalty_Neutral>
2.22583e-05

> <r_epik_State_Penalty>
-0

> <r_epik_Charging_Adjusted_Penalty>
1.05597e-09

> <i_epik_Tot_Q>
0

> <i_epik_Tot_abs_Q>
0

> <r_epik_Metal_State_Penalty>
-0

> <b_epik_Metal_Only>
0

> <s_lp_Force_Field>
OPLS_2005

> <r_lp_Energy>
32.065

> <b_lp_Chiralities_Consistent>
1

> <s_lp_Variant>
AV-unprocessed.smi:357-1

> <Gold.Version>
5.8.1

> <Gold.Id.Protein>
6NUR|6NUR_protein|mol2

> <Gold.PLP.Fitness>
58.4547

> <Gold.PLP.PLP>
-51.4001

> <Gold.PLP.part.hbond>
-5.0333

> <Gold.PLP.part.metal>
0.0000

> <Gold.PLP.part.buried>
-1.6628

> <Gold.PLP.part.nonpolar>
-44.0256

> <Gold.PLP.part.repulsive>
0.5723

> <Gold.PLP.ligand.clash>
0.0000

> <Gold.PLP.ligand.torsion>
1.6011

> <Gold.PLP.Chemscore.Hbond>
3.3891

> <Gold.PLP.Chemscore.CHOScore>
0.0000

> <Gold.PLP.Chemscore.Metal>
0.0000

> <Gold.Chemscore.Hbonds>
donor molecule, donor type, donor heavy atom, donor atom, acceptor molecule, acceptor atom, score
      L1  H     6    23       P1  7948  1.00
      L1  H     9    28       P1 10171  1.00
      P1  H  7954  7966       L1     9  0.78
      P1  H  7997  8009       L1     1  0.24

> <Gold.PLP.Chemscore.Internal.Correction>
0.0895

> <Gold.Rescore>
     Score         DG    S(hbond)    S(metal)    S(lipo)     H(rot)  DE(clash)    DE(int)     intcor
     20.12     -22.18       2.70        0.00     124.72       2.70       0.53       1.53       ----

> <Gold.Chemscore.Fitness>
20.1174

> <Gold.Chemscore.DG>
-22.1816

> <Gold.Chemscore.ZeroCoef>
-5.4800

> <Gold.Chemscore.Hbond>
2.7008

> <Gold.Chemscore.Metal>
0.0000

> <Gold.Chemscore.Lipo>
124.7232

> <Gold.Chemscore.Internal_Hbond>
0.0000

> <Gold.Chemscore.DEClash>
0.5321

> <Gold.Chemscore.DEInternal>
1.5321

> <Gold.Chemscore.Rot>
2.6999

> <Gold.Chemscore.Internal.Correction>
   9.000000E+99

> <Gold.Chemscore.Hbonds>
donor molecule, donor type, donor heavy atom, donor atom, acceptor molecule, acceptor atom, score
      L1  H     6    23       P1  7948  0.96
      L1  H     9    28       P1 10171  0.99
      P1  H  7954  7966       L1     9  0.23
      P1  H  7997  8009       L1     1  0.25

> <Gold.Chemscore.Hbond.Weighted>
-9.0208

> <Gold.Chemscore.Metal.Weighted>
-0.0000

> <Gold.Chemscore.Lipo.Weighted>
-14.5926

> <Gold.Chemscore.Internal_Hbond.Weighted>
0.0000

> <Gold.Chemscore.DEClash.Weighted>
0.5321

> <Gold.Chemscore.DEInternal.Weighted>
1.5321

> <Gold.Chemscore.Rot.Weighted>
6.9118

> <Gold.Chemscore.Internal.Correction.Weighted>
   9.000000E+99

> <Gold.Protein.RotatedTorsions>
[ 6907 6896 6895 6894 ] final -176.36 input  -60.11 | X-H torsion
[ 7974 7965 7964 7962 ] final   71.90 input  175.53 | X-H torsion
[ 8008 7997 7996 7995 ] final -152.20 input   59.86 | X-H torsion
[ 10167 10162 10161 10158 ] final  116.12 input  -65.29 | X-H torsion
[ 10718 10713 10712 10709 ] final  -67.52 input   66.30 | X-H torsion
[ 10763 10752 10751 10750 ] final   20.02 input  -60.55 | X-H torsion
[ 11005 11000 10999 10996 ] final   60.55 input  -57.11 | X-H torsion

> <Gold.Protein.ActiveResidues>
 VAL166  LYS551  ARG553  GLY616  TRP617  ASP618  TYR619  PRO620  LYS621  CYS622 
 ASP623  PHE694  ASN695  SER759  ASP760  ASP761  ALA762  ILE779  LEU786  VAL792 
 PHE793  MET794  SER795  GLU796  ALA797  LYS798  CYS799  TRP800  GLU811  SER814 

> <Gold.Protein.RotatedAtoms>
  151.6035  133.3354  159.3052 H   0  0  0  0  0  0  0  0  0  0  0  0  # atno 6907 bound_to 6896
  150.8195  134.7398  159.6771 H   0  0  0  0  0  0  0  0  0  0  0  0  # atno 6908 bound_to 6896
  152.4289  134.5821  160.0002 H   0  0  0  0  0  0  0  0  0  0  0  0  # atno 6909 bound_to 6896
  145.7601  139.2797  143.1381 H   0  0  0  0  0  0  0  0  0  0  0  0  # atno 7974 bound_to 7965
  155.6514  140.0712  157.2585 H   0  0  0  0  0  0  0  0  0  0  0  0  # atno 8008 bound_to 7997
  154.4162  140.1732  156.1728 H   0  0  0  0  0  0  0  0  0  0  0  0  # atno 8009 bound_to 7997
  155.9774  140.3357  155.6634 H   0  0  0  0  0  0  0  0  0  0  0  0  # atno 8010 bound_to 7997
  139.6269  144.7109  151.2514 H   0  0  0  0  0  0  0  0  0  0  0  0  # atno 10167 bound_to 10162
  156.0553  130.4279  150.1867 H   0  0  0  0  0  0  0  0  0  0  0  0  # atno 10718 bound_to 10713
  153.1112  135.6697  153.9496 H   0  0  0  0  0  0  0  0  0  0  0  0  # atno 10763 bound_to 10752
  153.9039  135.3033  155.3450 H   0  0  0  0  0  0  0  0  0  0  0  0  # atno 10764 bound_to 10752
  154.7532  135.5024  153.9404 H   0  0  0  0  0  0  0  0  0  0  0  0  # atno 10765 bound_to 10752
  140.0223  134.6134  155.9621 H   0  0  0  0  0  0  0  0  0  0  0  0  # atno 11005 bound_to 11000
  146.0273  140.8292  142.9893 LP  0  0  0  0  0  0  0  0  0  0  0  0  # atno 17320 bound_to 7965
  144.6832  140.2716  143.7305 LP  0  0  0  0  0  0  0  0  0  0  0  0  # atno 17321 bound_to 7965
  140.7416  143.6551  150.8214 LP  0  0  0  0  0  0  0  0  0  0  0  0  # atno 17342 bound_to 10162
  140.0170  143.5582  152.2816 LP  0  0  0  0  0  0  0  0  0  0  0  0  # atno 17343 bound_to 10162
  156.9944  130.9903  151.3407 LP  0  0  0  0  0  0  0  0  0  0  0  0  # atno 17370 bound_to 10713
  157.5517  130.8187  149.8153 LP  0  0  0  0  0  0  0  0  0  0  0  0  # atno 17371 bound_to 10713
  141.1782  133.6543  156.4911 LP  0  0  0  0  0  0  0  0  0  0  0  0  # atno 17394 bound_to 11000
  140.4365  134.7054  157.4969 LP  0  0  0  0  0  0  0  0  0  0  0  0  # atno 17395 bound_to 11000

$$$$
