AV-unprocessed.smi:246|AV-procd|sdf|1885|dock9
  -GOLD-   2262020543D 1   1.00000     0.00000
 Structure written by MMmdl.
 57 60  0  0  0  0  0  0  0  0  1 V2000
  151.9965  144.4877  159.4931 C   0  0  0  0  0  0  0  0  0  0  0  0
  152.0248  143.3290  160.4990 C   0  0  0  0  0  0  0  0  0  0  0  0
  151.5686  142.1155  159.9178 O   0  0  0  0  0  0  0  0  0  0  0  0
  152.3071  141.7015  158.7775 C   0  0  0  0  0  0  0  0  0  0  0  0
  151.9015  140.2700  158.4157 C   0  0  0  0  0  0  0  0  0  0  0  0
  152.5296  139.9062  157.1956 O   0  0  0  0  0  0  0  0  0  0  0  0
  151.6507  139.9109  156.0804 C   0  0  2  0  0  0  0  0  0  0  0  0
  150.9547  141.2641  155.9401 C   0  0  0  0  0  0  0  0  0  0  0  0
  149.6945  140.9143  155.1512 C   0  0  0  0  0  0  0  0  0  0  0  0
  149.3374  139.5749  155.5985 N   0  0  0  0  0  0  0  0  0  0  0  0
  148.3532  138.8561  154.9987 C   0  0  0  0  0  0  0  0  0  0  0  0
  147.3849  139.5202  154.3131 N   0  0  0  0  0  0  0  0  0  0  0  0
  146.4037  138.8505  153.7021 C   0  0  0  0  0  0  0  0  0  0  0  0
  146.1977  137.5338  153.6534 N   0  0  0  0  0  0  0  0  0  0  0  0
  147.1542  136.8590  154.3518 C   0  0  0  0  0  0  0  0  0  0  0  0
  148.2557  137.4337  155.0496 C   0  0  0  0  0  0  0  0  0  0  0  0
  149.0050  136.4251  155.6469 N   0  0  0  0  0  0  0  0  0  0  0  0
  148.3920  135.3233  155.3123 C   0  0  0  0  0  0  0  0  0  0  0  0
  147.2732  135.4921  154.5307 N   0  0  0  0  0  0  0  0  0  0  0  0
  146.4149  134.4411  154.0128 C   0  0  0  0  0  0  0  0  0  0  0  0
  146.6205  134.2120  152.5029 C   0  0  2  0  0  0  0  0  0  0  0  0
  146.3319  135.4095  151.8066 O   0  0  0  0  0  0  0  0  0  0  0  0
  145.7229  133.0875  151.9553 C   0  0  1  0  0  0  0  0  0  0  0  0
  145.9216  132.7828  150.4693 C   0  0  0  0  0  0  0  0  0  0  0  0
  145.4845  131.3324  150.3367 C   0  0  0  0  0  0  0  0  0  0  0  0
  145.4534  130.8188  151.7785 C   0  0  0  0  0  0  0  0  0  0  0  0
  146.0613  131.8442  152.5510 O   0  0  0  0  0  0  0  0  0  0  0  0
  150.4818  138.9254  156.2240 C   0  0  0  0  0  0  0  0  0  0  0  0
  152.1965  139.7061  155.1575 H   0  0  0  0  0  0  0  0  0  0  0  0
  152.2629  145.4259  159.9798 H   0  0  0  0  0  0  0  0  0  0  0  0
  151.0015  144.6072  159.0642 H   0  0  0  0  0  0  0  0  0  0  0  0
  152.6993  144.3343  158.6749 H   0  0  0  0  0  0  0  0  0  0  0  0
  153.0192  143.2076  160.9311 H   0  0  0  0  0  0  0  0  0  0  0  0
  151.3560  143.5673  161.3261 H   0  0  0  0  0  0  0  0  0  0  0  0
  152.1462  142.3636  157.9267 H   0  0  0  0  0  0  0  0  0  0  0  0
  153.3716  141.7255  159.0145 H   0  0  0  0  0  0  0  0  0  0  0  0
  152.2305  139.5909  159.2036 H   0  0  0  0  0  0  0  0  0  0  0  0
  150.8159  140.1901  158.3466 H   0  0  0  0  0  0  0  0  0  0  0  0
  150.6779  141.6451  156.9243 H   0  0  0  0  0  0  0  0  0  0  0  0
  151.5727  142.0151  155.4475 H   0  0  0  0  0  0  0  0  0  0  0  0
  148.8916  141.6288  155.3359 H   0  0  0  0  0  0  0  0  0  0  0  0
  149.9074  140.9013  154.0812 H   0  0  0  0  0  0  0  0  0  0  0  0
  145.6818  139.4566  153.1749 H   0  0  0  0  0  0  0  0  0  0  0  0
  148.7428  134.3504  155.6251 H   0  0  0  0  0  0  0  0  0  0  0  0
  146.6317  133.5270  154.5667 H   0  0  0  0  0  0  0  0  0  0  0  0
  145.3756  134.6942  154.2265 H   0  0  0  0  0  0  0  0  0  0  0  0
  147.6655  133.9592  152.3172 H   0  0  0  0  0  0  0  0  0  0  0  0
  147.1469  135.8450  151.6084 H   0  0  0  0  0  0  0  0  0  0  0  0
  144.6710  133.3023  152.1555 H   0  0  0  0  0  0  0  0  0  0  0  0
  145.3566  133.4558  149.8237 H   0  0  0  0  0  0  0  0  0  0  0  0
  146.9762  132.8705  150.2040 H   0  0  0  0  0  0  0  0  0  0  0  0
  144.4978  131.2522  149.8791 H   0  0  0  0  0  0  0  0  0  0  0  0
  146.1871  130.7694  149.7217 H   0  0  0  0  0  0  0  0  0  0  0  0
  144.4250  130.6784  152.1141 H   0  0  0  0  0  0  0  0  0  0  0  0
  145.9825  129.8731  151.8971 H   0  0  0  0  0  0  0  0  0  0  0  0
  150.7237  137.9680  155.7616 H   0  0  0  0  0  0  0  0  0  0  0  0
  150.2479  138.7517  157.2748 H   0  0  0  0  0  0  0  0  0  0  0  0
  1  2  1  0  0  0  0
  1 30  1  0  0  0  0
  1 31  1  0  0  0  0
  1 32  1  0  0  0  0
  2  3  1  0  0  0  0
  2 33  1  0  0  0  0
  2 34  1  0  0  0  0
  3  4  1  0  0  0  0
  4  5  1  0  0  0  0
  4 35  1  0  0  0  0
  4 36  1  0  0  0  0
  5  6  1  0  0  0  0
  5 37  1  0  0  0  0
  5 38  1  0  0  0  0
  6  7  1  0  0  0  0
  7 29  1  0  0  0  0
  7 28  1  0  0  0  0
  7  8  1  0  0  0  0
  8  9  1  0  0  0  0
  8 39  1  0  0  0  0
  8 40  1  0  0  0  0
  9 10  1  0  0  0  0
  9 41  1  0  0  0  0
  9 42  1  0  0  0  0
 10 11  1  0  0  0  0
 10 28  1  0  0  0  0
 11 16  1  0  0  0  0
 11 12  2  0  0  0  0
 12 13  1  0  0  0  0
 13 14  2  0  0  0  0
 13 43  1  0  0  0  0
 14 15  1  0  0  0  0
 15 19  1  0  0  0  0
 15 16  2  0  0  0  0
 16 17  1  0  0  0  0
 17 18  2  0  0  0  0
 18 19  1  0  0  0  0
 18 44  1  0  0  0  0
 19 20  1  0  0  0  0
 20 21  1  0  0  0  0
 20 45  1  0  0  0  0
 20 46  1  0  0  0  0
 21 22  1  0  0  0  0
 21 23  1  0  0  0  0
 21 47  1  0  0  0  0
 22 48  1  0  0  0  0
 23 27  1  0  0  0  0
 23 24  1  0  0  0  0
 23 49  1  0  0  0  0
 24 25  1  0  0  0  0
 24 50  1  0  0  0  0
 24 51  1  0  0  0  0
 25 26  1  0  0  0  0
 25 52  1  0  0  0  0
 25 53  1  0  0  0  0
 26 27  1  0  0  0  0
 26 54  1  0  0  0  0
 26 55  1  0  0  0  0
 28 56  1  0  0  0  0
 28 57  1  0  0  0  0
M  END
> <s_m_source_file>
AV-unprocessed.smi

> <i_m_source_file_index>
246

> <i_lp_mmshare_version>
43012

> <i_f3d_flags>
0

> <s_epik_input>
W0NIM11bQ0gyXU9bQ0gyXVtDSDJdT1tDQEhdMVtDSDJdW0NIMl1OKFtDSDJdMSljKG5bY0hdbjIpYyhjMjMpbltjSF1uM1tDSDJdW0NASF0oW09IXSlbQ0BASF00W0NIMl1bQ0gyXVtDSDJdTzQ=

> <s_epik_cmdline>
J2VwaWtfcHl0aG9uJywgJy1waCcsICc3LjAnLCAnLXRuJywgJzgnLCAnLW1hJywgJzIwMCcsICctbWV0YWxfYmluZGluZycsICctaW1hZScsICc8aW5maWxlLm1hZT4nLCAnLW9tYWUnLCAnPG91dGZpbGUubWFlPic=

> <r_lp_tautomer_probability>
1

> <r_epik_Ionization_Penalty>
0.0024631

> <r_epik_Ionization_Penalty_Charging>
0

> <r_epik_Ionization_Penalty_Neutral>
0.0024631

> <r_epik_State_Penalty>
0.00162428

> <r_epik_Charging_Adjusted_Penalty>
0.00162428

> <i_epik_Tot_Q>
0

> <i_epik_Tot_abs_Q>
0

> <r_epik_Metal_State_Penalty>
-0

> <b_epik_Metal_Only>
0

> <s_lp_Force_Field>
OPLS_2005

> <r_lp_Energy>
48.9745

> <b_lp_Chiralities_Consistent>
1

> <s_lp_Variant>
AV-unprocessed.smi:246-6

> <Gold.Version>
5.8.1

> <Gold.Id.Protein>
6NUR|6NUR_protein|mol2

> <Gold.PLP.Fitness>
46.5997

> <Gold.PLP.PLP>
-38.4035

> <Gold.PLP.part.hbond>
-2.2251

> <Gold.PLP.part.metal>
0.0000

> <Gold.PLP.part.buried>
-3.9204

> <Gold.PLP.part.nonpolar>
-31.2880

> <Gold.PLP.part.repulsive>
0.4950

> <Gold.PLP.ligand.clash>
0.0000

> <Gold.PLP.ligand.torsion>
0.6654

> <Gold.PLP.Chemscore.Hbond>
2.0000

> <Gold.PLP.Chemscore.CHOScore>
1.0000

> <Gold.PLP.Chemscore.Metal>
0.0000

> <Gold.Chemscore.Hbonds>
donor molecule, donor type, donor heavy atom, donor atom, acceptor molecule, acceptor atom, score
      L1  H    22    48       P1  7948  1.00
      P1  H  7997  8009       L1     6  1.00
      L1  C    13    43       P1 10175  1.00

> <Gold.PLP.Chemscore.Internal.Correction>
0.5269

> <Gold.Rescore>
     Score         DG    S(hbond)    S(metal)    S(lipo)     H(rot)  DE(clash)    DE(int)     intcor
     14.61     -16.75       1.96        0.00     108.24       3.10       0.16       1.98       ----

> <Gold.Chemscore.Fitness>
14.6078

> <Gold.Chemscore.DG>
-16.7499

> <Gold.Chemscore.ZeroCoef>
-5.4800

> <Gold.Chemscore.Hbond>
1.9607

> <Gold.Chemscore.Metal>
0.0000

> <Gold.Chemscore.Lipo>
108.2361

> <Gold.Chemscore.Internal_Hbond>
0.0000

> <Gold.Chemscore.DEClash>
0.1602

> <Gold.Chemscore.DEInternal>
1.9818

> <Gold.Chemscore.Rot>
3.1026

> <Gold.Chemscore.Internal.Correction>
   9.000000E+99

> <Gold.Chemscore.Hbonds>
donor molecule, donor type, donor heavy atom, donor atom, acceptor molecule, acceptor atom, score
      L1  H    22    48       P1  7948  0.98
      P1  H  7997  8009       L1     6  0.59

> <Gold.Chemscore.Hbond.Weighted>
-6.5489

> <Gold.Chemscore.Metal.Weighted>
-0.0000

> <Gold.Chemscore.Lipo.Weighted>
-12.6636

> <Gold.Chemscore.Internal_Hbond.Weighted>
0.0000

> <Gold.Chemscore.DEClash.Weighted>
0.1602

> <Gold.Chemscore.DEInternal.Weighted>
1.9818

> <Gold.Chemscore.Rot.Weighted>
7.9426

> <Gold.Chemscore.Internal.Correction.Weighted>
   9.000000E+99

> <Gold.Protein.RotatedTorsions>
[ 6907 6896 6895 6894 ] final  -97.28 input  -60.11 | X-H torsion
[ 7974 7965 7964 7962 ] final  -14.12 input  175.53 | X-H torsion
[ 8008 7997 7996 7995 ] final -170.03 input   59.86 | X-H torsion
[ 10167 10162 10161 10158 ] final  -94.21 input  -65.29 | X-H torsion
[ 10718 10713 10712 10709 ] final  -72.88 input   66.30 | X-H torsion
[ 10763 10752 10751 10750 ] final -124.79 input  -60.55 | X-H torsion
[ 11005 11000 10999 10996 ] final  -37.72 input  -57.11 | X-H torsion

> <Gold.Protein.ActiveResidues>
 VAL166  LYS551  ARG553  GLY616  TRP617  ASP618  TYR619  PRO620  LYS621  CYS622 
 ASP623  PHE694  ASN695  SER759  ASP760  ASP761  ALA762  ILE779  LEU786  VAL792 
 PHE793  MET794  SER795  GLU796  ALA797  LYS798  CYS799  TRP800  GLU811  SER814 

> <Gold.Protein.RotatedAtoms>
  150.7012  134.1373  159.4091 H   0  0  0  0  0  0  0  0  0  0  0  0  # atno 6907 bound_to 6896
  151.9358  135.0234  160.0541 H   0  0  0  0  0  0  0  0  0  0  0  0  # atno 6908 bound_to 6896
  152.2137  133.4895  159.5160 H   0  0  0  0  0  0  0  0  0  0  0  0  # atno 6909 bound_to 6896
  146.2087  140.3303  142.8398 H   0  0  0  0  0  0  0  0  0  0  0  0  # atno 7974 bound_to 7965
  155.9129  140.1060  157.1266 H   0  0  0  0  0  0  0  0  0  0  0  0  # atno 8008 bound_to 7997
  154.4042  140.1271  156.4645 H   0  0  0  0  0  0  0  0  0  0  0  0  # atno 8009 bound_to 7997
  155.7289  140.3468  155.5052 H   0  0  0  0  0  0  0  0  0  0  0  0  # atno 8010 bound_to 7997
  140.3167  143.3073  152.0090 H   0  0  0  0  0  0  0  0  0  0  0  0  # atno 10167 bound_to 10162
  156.0302  130.4382  150.2659 H   0  0  0  0  0  0  0  0  0  0  0  0  # atno 10718 bound_to 10713
  154.8728  135.4051  154.3163 H   0  0  0  0  0  0  0  0  0  0  0  0  # atno 10763 bound_to 10752
  153.3999  135.7017  153.6439 H   0  0  0  0  0  0  0  0  0  0  0  0  # atno 10764 bound_to 10752
  153.5187  135.3692  155.2592 H   0  0  0  0  0  0  0  0  0  0  0  0  # atno 10765 bound_to 10752
  140.9973  133.6973  156.1958 H   0  0  0  0  0  0  0  0  0  0  0  0  # atno 11005 bound_to 11000
  144.8857  140.7459  143.5958 LP  0  0  0  0  0  0  0  0  0  0  0  0  # atno 17320 bound_to 7965
  145.3224  139.1784  143.4581 LP  0  0  0  0  0  0  0  0  0  0  0  0  # atno 17321 bound_to 7965
  139.4882  144.6343  151.7008 LP  0  0  0  0  0  0  0  0  0  0  0  0  # atno 17342 bound_to 10162
  140.5520  144.0410  150.6131 LP  0  0  0  0  0  0  0  0  0  0  0  0  # atno 17343 bound_to 10162
  157.0761  131.0130  151.3173 LP  0  0  0  0  0  0  0  0  0  0  0  0  # atno 17370 bound_to 10713
  157.4962  130.7852  149.7558 LP  0  0  0  0  0  0  0  0  0  0  0  0  # atno 17371 bound_to 10713
  140.6945  134.4630  157.5588 LP  0  0  0  0  0  0  0  0  0  0  0  0  # atno 17394 bound_to 11000
  139.9021  134.8532  156.1853 LP  0  0  0  0  0  0  0  0  0  0  0  0  # atno 17395 bound_to 11000

$$$$
