AV-unprocessed.smi:427|AV-procd|sdf|2542|dock4
  -GOLD-   2262022503D 1   1.00000     0.00000
 Structure written by MMmdl.
 51 52  0  0  0  0  0  0  0  0  1 V2000
  153.4853  139.3462  159.0998 C   0  0  0  0  0  0  0  0  0  0  0  0
  152.3675  140.3565  158.9176 C   0  0  0  0  0  0  0  0  0  0  0  0
  152.6020  141.7153  159.2153 C   0  0  0  0  0  0  0  0  0  0  0  0
  151.5805  142.6839  159.0632 C   0  0  0  0  0  0  0  0  0  0  0  0
  151.8014  144.1757  159.3797 C   0  0  0  0  0  0  0  0  0  0  0  0
  150.4576  144.9265  159.2826 C   0  0  0  0  0  0  0  0  0  0  0  0
  152.7928  144.8588  158.4106 C   0  0  0  0  0  0  0  0  0  0  0  0
  152.3678  144.3271  160.8073 C   0  0  0  0  0  0  0  0  0  0  0  0
  150.3178  142.2497  158.5994 C   0  0  0  0  0  0  0  0  0  0  0  0
  150.0771  140.8957  158.3025 C   0  0  0  0  0  0  0  0  0  0  0  0
  151.1008  139.9312  158.4611 C   0  0  0  0  0  0  0  0  0  0  0  0
  150.9374  138.5887  158.1927 O   0  0  0  0  0  0  0  0  0  0  0  0
  149.6180  138.0770  158.0601 C   0  0  0  0  0  0  0  0  0  0  0  0
  149.4501  136.9136  159.0483 C   0  0  2  0  0  0  0  0  0  0  0  0
  149.8671  135.7369  158.3862 O   0  0  0  0  0  0  0  0  0  0  0  0
  147.9809  136.7399  159.4960 C   0  0  0  0  0  0  0  0  0  0  0  0
  147.8133  135.7154  160.5120 N   0  0  0  0  0  0  0  0  0  0  0  0
  147.6412  136.1326  161.8549 C   0  0  0  0  0  0  0  0  0  0  0  0
  147.6293  137.3210  162.1778 O   0  0  0  0  0  0  0  0  0  0  0  0
  147.4643  135.0467  162.8133 C   0  0  0  0  0  0  0  0  0  0  0  0
  147.4541  133.7578  162.4088 C   0  0  0  0  0  0  0  0  0  0  0  0
  147.6046  133.3867  161.0870 N   0  0  0  0  0  0  0  0  0  0  0  0
  147.5758  132.0166  160.6631 C   0  0  0  0  0  0  0  0  0  0  0  0
  147.7849  134.3657  160.0864 C   0  0  0  0  0  0  0  0  0  0  0  0
  147.9011  134.0526  158.8980 O   0  0  0  0  0  0  0  0  0  0  0  0
  154.4253  139.8308  159.3653 H   0  0  0  0  0  0  0  0  0  0  0  0
  153.6448  138.7830  158.1799 H   0  0  0  0  0  0  0  0  0  0  0  0
  153.2303  138.6431  159.8931 H   0  0  0  0  0  0  0  0  0  0  0  0
  153.5845  141.9920  159.5643 H   0  0  0  0  0  0  0  0  0  0  0  0
  150.5817  145.9907  159.4858 H   0  0  0  0  0  0  0  0  0  0  0  0
  149.7241  144.5487  159.9951 H   0  0  0  0  0  0  0  0  0  0  0  0
  150.0254  144.8318  158.2857 H   0  0  0  0  0  0  0  0  0  0  0  0
  152.4377  144.8268  157.3797 H   0  0  0  0  0  0  0  0  0  0  0  0
  153.7772  144.3903  158.4451 H   0  0  0  0  0  0  0  0  0  0  0  0
  152.9320  145.9103  158.6644 H   0  0  0  0  0  0  0  0  0  0  0  0
  152.5565  145.3736  161.0503 H   0  0  0  0  0  0  0  0  0  0  0  0
  153.3116  143.7912  160.9153 H   0  0  0  0  0  0  0  0  0  0  0  0
  151.6845  143.9441  161.5652 H   0  0  0  0  0  0  0  0  0  0  0  0
  149.5133  142.9569  158.4646 H   0  0  0  0  0  0  0  0  0  0  0  0
  149.0940  140.6228  157.9508 H   0  0  0  0  0  0  0  0  0  0  0  0
  148.8776  138.8525  158.2650 H   0  0  0  0  0  0  0  0  0  0  0  0
  149.4676  137.7223  157.0389 H   0  0  0  0  0  0  0  0  0  0  0  0
  150.1056  137.0803  159.9042 H   0  0  0  0  0  0  0  0  0  0  0  0
  149.4113  135.6804  157.5601 H   0  0  0  0  0  0  0  0  0  0  0  0
  147.5812  137.6603  159.9257 H   0  0  0  0  0  0  0  0  0  0  0  0
  147.3071  136.5284  158.6638 H   0  0  0  0  0  0  0  0  0  0  0  0
  147.3361  135.2787  163.8605 H   0  0  0  0  0  0  0  0  0  0  0  0
  147.3176  132.9880  163.1542 H   0  0  0  0  0  0  0  0  0  0  0  0
  148.5291  131.8010  160.1773 H   0  0  0  0  0  0  0  0  0  0  0  0
  146.7307  131.9012  159.9820 H   0  0  0  0  0  0  0  0  0  0  0  0
  147.4450  131.3930  161.5482 H   0  0  0  0  0  0  0  0  0  0  0  0
  1  2  1  0  0  0  0
  1 26  1  0  0  0  0
  1 27  1  0  0  0  0
  1 28  1  0  0  0  0
  2 11  1  0  0  0  0
  2  3  2  0  0  0  0
  3  4  1  0  0  0  0
  3 29  1  0  0  0  0
  4  5  1  0  0  0  0
  4  9  2  0  0  0  0
  5  6  1  0  0  0  0
  5  7  1  0  0  0  0
  5  8  1  0  0  0  0
  6 30  1  0  0  0  0
  6 31  1  0  0  0  0
  6 32  1  0  0  0  0
  7 33  1  0  0  0  0
  7 34  1  0  0  0  0
  7 35  1  0  0  0  0
  8 36  1  0  0  0  0
  8 37  1  0  0  0  0
  8 38  1  0  0  0  0
  9 10  1  0  0  0  0
  9 39  1  0  0  0  0
 10 11  2  0  0  0  0
 10 40  1  0  0  0  0
 11 12  1  0  0  0  0
 12 13  1  0  0  0  0
 13 14  1  0  0  0  0
 13 41  1  0  0  0  0
 13 42  1  0  0  0  0
 14 15  1  0  0  0  0
 14 16  1  0  0  0  0
 14 43  1  0  0  0  0
 15 44  1  0  0  0  0
 16 17  1  0  0  0  0
 16 45  1  0  0  0  0
 16 46  1  0  0  0  0
 17 24  1  0  0  0  0
 17 18  1  0  0  0  0
 18 19  2  0  0  0  0
 18 20  1  0  0  0  0
 20 21  2  0  0  0  0
 20 47  1  0  0  0  0
 21 22  1  0  0  0  0
 21 48  1  0  0  0  0
 22 23  1  0  0  0  0
 22 24  1  0  0  0  0
 23 49  1  0  0  0  0
 23 50  1  0  0  0  0
 23 51  1  0  0  0  0
 24 25  2  0  0  0  0
M  END
> <s_m_source_file>
AV-unprocessed.smi

> <i_m_source_file_index>
427

> <i_lp_mmshare_version>
43012

> <i_f3d_flags>
0

> <s_epik_input>
W0NIM11jMVtjSF1jKEMoW0NIM10pKFtDSDNdKVtDSDNdKVtjSF1bY0hdYzFPW0NIMl1bQ0BIXShbT0hdKVtDSDJdbjJjKD1PKVtjSF1bY0hdbihbQ0gzXSljMj1P

> <s_epik_cmdline>
J2VwaWtfcHl0aG9uJywgJy1waCcsICc3LjAnLCAnLXRuJywgJzgnLCAnLW1hJywgJzIwMCcsICctbWV0YWxfYmluZGluZycsICctaW1hZScsICc8aW5maWxlLm1hZT4nLCAnLW9tYWUnLCAnPG91dGZpbGUubWFlPic=

> <r_lp_tautomer_probability>
1

> <r_epik_Ionization_Penalty>
2.02112e-07

> <r_epik_Ionization_Penalty_Charging>
8.49383e-08

> <r_epik_Ionization_Penalty_Neutral>
1.17174e-07

> <r_epik_State_Penalty>
-0

> <r_epik_Charging_Adjusted_Penalty>
8.49383e-08

> <i_epik_Tot_Q>
0

> <i_epik_Tot_abs_Q>
0

> <r_epik_Metal_State_Penalty>
-0

> <b_epik_Metal_Only>
0

> <s_lp_Force_Field>
OPLS_2005

> <r_lp_Energy>
25.5029

> <b_lp_Chiralities_Consistent>
1

> <s_lp_Variant>
AV-unprocessed.smi:427-1

> <Gold.Version>
5.8.1

> <Gold.Id.Protein>
6NUR|6NUR_protein|mol2

> <Gold.PLP.Fitness>
57.5558

> <Gold.PLP.PLP>
-53.0565

> <Gold.PLP.part.hbond>
-2.9054

> <Gold.PLP.part.metal>
0.0000

> <Gold.PLP.part.buried>
-5.7973

> <Gold.PLP.part.nonpolar>
-43.7412

> <Gold.PLP.part.repulsive>
0.0000

> <Gold.PLP.ligand.clash>
0.0000

> <Gold.PLP.ligand.torsion>
1.3309

> <Gold.PLP.Chemscore.Hbond>
2.3520

> <Gold.PLP.Chemscore.CHOScore>
0.0000

> <Gold.PLP.Chemscore.Metal>
0.0000

> <Gold.Chemscore.Hbonds>
donor molecule, donor type, donor heavy atom, donor atom, acceptor molecule, acceptor atom, score
      P1  H  6896  6909       L1    15  1.00
      P1  H  6931  6943       L1    19  0.88
      P1  H  6934  6947       L1    19  0.40

> <Gold.PLP.Chemscore.Internal.Correction>
0.1051

> <Gold.Rescore>
     Score         DG    S(hbond)    S(metal)    S(lipo)     H(rot)  DE(clash)    DE(int)     intcor
     21.21     -22.22       2.61        0.00     123.19       2.49       0.01       1.00       ----

> <Gold.Chemscore.Fitness>
21.2081

> <Gold.Chemscore.DG>
-22.2223

> <Gold.Chemscore.ZeroCoef>
-5.4800

> <Gold.Chemscore.Hbond>
2.6052

> <Gold.Chemscore.Metal>
0.0000

> <Gold.Chemscore.Lipo>
123.1944

> <Gold.Chemscore.Internal_Hbond>
0.0000

> <Gold.Chemscore.DEClash>
0.0112

> <Gold.Chemscore.DEInternal>
1.0030

> <Gold.Chemscore.Rot>
2.4894

> <Gold.Chemscore.Internal.Correction>
   9.000000E+99

> <Gold.Chemscore.Hbonds>
donor molecule, donor type, donor heavy atom, donor atom, acceptor molecule, acceptor atom, score
      P1  H  6896  6909       L1    15  0.78
      P1  H  6931  6943       L1    19  0.84
      P1  H  6934  6947       L1    19  0.41

> <Gold.Chemscore.Hbond.Weighted>
-8.7014

> <Gold.Chemscore.Metal.Weighted>
-0.0000

> <Gold.Chemscore.Lipo.Weighted>
-14.4137

> <Gold.Chemscore.Internal_Hbond.Weighted>
0.0000

> <Gold.Chemscore.DEClash.Weighted>
0.0112

> <Gold.Chemscore.DEInternal.Weighted>
1.0030

> <Gold.Chemscore.Rot.Weighted>
6.3728

> <Gold.Chemscore.Internal.Correction.Weighted>
   9.000000E+99

> <Gold.Protein.RotatedTorsions>
[ 6907 6896 6895 6894 ] final   47.47 input  -60.11 | X-H torsion
[ 7974 7965 7964 7962 ] final  146.57 input  175.53 | X-H torsion
[ 8008 7997 7996 7995 ] final -121.09 input   59.86 | X-H torsion
[ 10167 10162 10161 10158 ] final  -52.44 input  -65.29 | X-H torsion
[ 10718 10713 10712 10709 ] final   13.99 input   66.30 | X-H torsion
[ 10763 10752 10751 10750 ] final -154.14 input  -60.55 | X-H torsion
[ 11005 11000 10999 10996 ] final   -4.71 input  -57.11 | X-H torsion

> <Gold.Protein.ActiveResidues>
 VAL166  LYS551  ARG553  GLY616  TRP617  ASP618  TYR619  PRO620  LYS621  CYS622 
 ASP623  PHE694  ASN695  SER759  ASP760  ASP761  ALA762  ILE779  LEU786  VAL792 
 PHE793  MET794  SER795  GLU796  ALA797  LYS798  CYS799  TRP800  GLU811  SER814 

> <Gold.Protein.RotatedAtoms>
  152.2685  134.7959  160.0418 H   0  0  0  0  0  0  0  0  0  0  0  0  # atno 6907 bound_to 6896
  151.8580  133.3446  159.3702 H   0  0  0  0  0  0  0  0  0  0  0  0  # atno 6908 bound_to 6896
  150.7143  134.5162  159.5675 H   0  0  0  0  0  0  0  0  0  0  0  0  # atno 6909 bound_to 6896
  144.8660  139.5922  143.5908 H   0  0  0  0  0  0  0  0  0  0  0  0  # atno 7974 bound_to 7965
  155.1423  140.0402  157.2801 H   0  0  0  0  0  0  0  0  0  0  0  0  # atno 8008 bound_to 7997
  154.6464  140.2559  155.7237 H   0  0  0  0  0  0  0  0  0  0  0  0  # atno 8009 bound_to 7997
  156.2557  140.2845  156.0879 H   0  0  0  0  0  0  0  0  0  0  0  0  # atno 8010 bound_to 7997
  140.6537  143.2584  151.4648 H   0  0  0  0  0  0  0  0  0  0  0  0  # atno 10167 bound_to 10162
  157.0326  130.6199  149.5738 H   0  0  0  0  0  0  0  0  0  0  0  0  # atno 10718 bound_to 10713
  154.7879  135.3196  154.7844 H   0  0  0  0  0  0  0  0  0  0  0  0  # atno 10763 bound_to 10752
  153.8540  135.6859  153.4794 H   0  0  0  0  0  0  0  0  0  0  0  0  # atno 10764 bound_to 10752
  153.1538  135.4688  154.9614 H   0  0  0  0  0  0  0  0  0  0  0  0  # atno 10765 bound_to 10752
  140.6832  133.9135  155.8569 H   0  0  0  0  0  0  0  0  0  0  0  0  # atno 11005 bound_to 11000
  146.2896  139.7101  142.9170 LP  0  0  0  0  0  0  0  0  0  0  0  0  # atno 17320 bound_to 7965
  145.4220  141.0407  143.2958 LP  0  0  0  0  0  0  0  0  0  0  0  0  # atno 17321 bound_to 7965
  139.5756  144.1826  152.1899 LP  0  0  0  0  0  0  0  0  0  0  0  0  # atno 17342 bound_to 10162
  140.1136  144.5435  150.6909 LP  0  0  0  0  0  0  0  0  0  0  0  0  # atno 17343 bound_to 10162
  156.0064  130.5151  150.7844 LP  0  0  0  0  0  0  0  0  0  0  0  0  # atno 17370 bound_to 10713
  157.5166  131.0929  151.0132 LP  0  0  0  0  0  0  0  0  0  0  0  0  # atno 17371 bound_to 10713
  141.0300  134.0769  157.4024 LP  0  0  0  0  0  0  0  0  0  0  0  0  # atno 17394 bound_to 11000
  139.8945  135.0136  156.6955 LP  0  0  0  0  0  0  0  0  0  0  0  0  # atno 17395 bound_to 11000

$$$$
