AV-unprocessed.smi:3009|AV-procd|sdf|11452|dock5
  -GOLD-   2272016383D 1   1.00000     0.00000
 Structure written by MMmdl.
 44 45  0  0  0  0  0  0  0  0  2 V2000
  152.7066  138.6399  155.6839 C   0  0  0  0  0  0  0  0  0  0  0  0
  151.5781  139.6010  155.2748 C   0  0  0  0  0  0  0  0  0  0  0  0
  151.4965  140.7798  156.2564 C   0  0  0  0  0  0  0  0  0  0  0  0
  150.2160  138.8799  155.1792 C   0  0  0  0  0  0  0  0  0  0  0  0
  149.2704  139.5335  154.2378 N   0  3  2  0  0  0  0  0  0  0  0  0
  148.8002  140.8644  154.6959 C   0  0  0  0  0  0  0  0  0  0  0  0
  147.8464  141.4835  153.6616 C   0  0  0  0  0  0  0  0  0  0  0  0
  146.7596  140.5979  153.4279 O   0  0  0  0  0  0  0  0  0  0  0  0
  147.1867  139.3519  152.8870 C   0  0  2  0  0  0  0  0  0  0  0  0
  145.9386  138.5028  152.5869 C   0  0  0  0  0  0  0  0  0  0  0  0
  146.2882  137.1725  152.1009 N   0  0  0  0  0  0  0  0  0  0  0  0
  145.4159  136.1759  151.8961 C   0  0  0  0  0  0  0  0  0  0  0  0
  144.2074  136.2770  152.1089 O   0  0  0  0  0  0  0  0  0  0  0  0
  146.0326  135.0727  151.4427 N   0  0  0  0  0  0  0  0  0  0  0  0
  145.4366  133.8345  151.0942 C   0  0  0  0  0  0  0  0  0  0  0  0
  146.1556  132.6392  150.8214 C   0  0  0  0  0  0  0  0  0  0  0  0
  145.3376  131.6409  150.5203 N   0  0  0  0  0  0  0  0  0  0  0  0
  144.1035  132.1882  150.5959 N   0  0  0  0  0  0  0  0  0  0  0  0
  144.1150  133.5215  150.9413 C   0  0  0  0  0  0  0  0  0  0  0  0
  148.1159  138.6641  153.9061 C   0  0  0  0  0  0  0  0  0  0  0  0
  143.2722  131.6451  150.4109 H   0  0  0  0  0  0  0  0  0  0  0  0
  152.5063  138.1835  156.6538 H   0  0  0  0  0  0  0  0  0  0  0  0
  153.6605  139.1631  155.7555 H   0  0  0  0  0  0  0  0  0  0  0  0
  152.8314  137.8372  154.9570 H   0  0  0  0  0  0  0  0  0  0  0  0
  151.8316  140.0222  154.3028 H   0  0  0  0  0  0  0  0  0  0  0  0
  151.2486  140.4424  157.2633 H   0  0  0  0  0  0  0  0  0  0  0  0
  150.7344  141.4962  155.9482 H   0  0  0  0  0  0  0  0  0  0  0  0
  152.4452  141.3147  156.3090 H   0  0  0  0  0  0  0  0  0  0  0  0
  150.3966  137.8535  154.8556 H   0  0  0  0  0  0  0  0  0  0  0  0
  149.7484  138.8085  156.1625 H   0  0  0  0  0  0  0  0  0  0  0  0
  148.2903  140.7625  155.6552 H   0  0  0  0  0  0  0  0  0  0  0  0
  149.6426  141.5369  154.8519 H   0  0  0  0  0  0  0  0  0  0  0  0
  147.4553  142.4312  154.0321 H   0  0  0  0  0  0  0  0  0  0  0  0
  148.3670  141.6980  152.7269 H   0  0  0  0  0  0  0  0  0  0  0  0
  147.7370  139.5272  151.9605 H   0  0  0  0  0  0  0  0  0  0  0  0
  145.3162  138.4131  153.4787 H   0  0  0  0  0  0  0  0  0  0  0  0
  145.3247  138.9932  151.8310 H   0  0  0  0  0  0  0  0  0  0  0  0
  147.2634  137.0011  151.9035 H   0  0  0  0  0  0  0  0  0  0  0  0
  147.0340  135.1252  151.3269 H   0  0  0  0  0  0  0  0  0  0  0  0
  147.2217  132.4659  150.8320 H   0  0  0  0  0  0  0  0  0  0  0  0
  143.2088  134.1005  151.0404 H   0  0  0  0  0  0  0  0  0  0  0  0
  148.4760  137.7212  153.4922 H   0  0  0  0  0  0  0  0  0  0  0  0
  147.5667  138.4254  154.8185 H   0  0  0  0  0  0  0  0  0  0  0  0
  149.7744  139.6761  153.3740 H   0  0  0  0  0  0  0  0  0  0  0  0
  1  2  1  0  0  0  0
  1 22  1  0  0  0  0
  1 23  1  0  0  0  0
  1 24  1  0  0  0  0
  2  3  1  0  0  0  0
  2  4  1  0  0  0  0
  2 25  1  0  0  0  0
  3 26  1  0  0  0  0
  3 27  1  0  0  0  0
  3 28  1  0  0  0  0
  4  5  1  0  0  0  0
  4 29  1  0  0  0  0
  4 30  1  0  0  0  0
  5 20  1  0  0  0  0
  5  6  1  0  0  0  0
  5 44  1  0  0  0  0
  6  7  1  0  0  0  0
  6 31  1  0  0  0  0
  6 32  1  0  0  0  0
  7  8  1  0  0  0  0
  7 33  1  0  0  0  0
  7 34  1  0  0  0  0
  8  9  1  0  0  0  0
  9 10  1  0  0  0  0
  9 20  1  0  0  0  0
  9 35  1  0  0  0  0
 10 11  1  0  0  0  0
 10 36  1  0  0  0  0
 10 37  1  0  0  0  0
 11 12  1  0  0  0  0
 11 38  1  0  0  0  0
 12 13  2  0  0  0  0
 12 14  1  0  0  0  0
 14 15  1  0  0  0  0
 14 39  1  0  0  0  0
 15 19  2  0  0  0  0
 15 16  1  0  0  0  0
 16 17  2  0  0  0  0
 16 40  1  0  0  0  0
 17 18  1  0  0  0  0
 18 21  1  0  0  0  0
 18 19  1  0  0  0  0
 19 41  1  0  0  0  0
 20 42  1  0  0  0  0
 20 43  1  0  0  0  0
M  CHG  1   5   1
M  END
> <s_m_source_file>
AV-unprocessed.smi

> <i_m_source_file_index>
3009

> <i_lp_mmshare_version>
43012

> <i_f3d_flags>
0

> <s_epik_input>
W0NIM11bQ0hdKFtDSDNdKVtDSDJdTjFbQ0gyXVtDSDJdT1tDQEhdKFtDSDJdMSlbQ0gyXVtOSF1DKD1PKVtOSF1jMltjSF1uW25IXVtjSF0y

> <s_epik_cmdline>
J2VwaWtfcHl0aG9uJywgJy1waCcsICc3LjAnLCAnLXRuJywgJzgnLCAnLW1hJywgJzIwMCcsICctbWV0YWxfYmluZGluZycsICctaW1hZScsICc8aW5maWxlLm1hZT4nLCAnLW9tYWUnLCAnPG91dGZpbGUubWFlPic=

> <r_lp_tautomer_probability>
0.5

> <r_epik_Ionization_Penalty>
0.0974064

> <r_epik_Ionization_Penalty_Charging>
0.0973651

> <r_epik_Ionization_Penalty_Neutral>
4.13573e-05

> <r_epik_State_Penalty>
0.0874853

> <r_epik_Charging_Adjusted_Penalty>
0.18485

> <i_epik_Tot_Q>
1

> <i_epik_Tot_abs_Q>
1

> <r_epik_Metal_State_Penalty>
0.0874855

> <b_epik_Metal_Only>
0

> <s_lp_Force_Field>
OPLS_2005

> <r_lp_Energy>
20.2975

> <b_lp_Chiralities_Consistent>
1

> <s_lp_Variant>
AV-unprocessed.smi:3009-4

> <Gold.Version>
5.8.1

> <Gold.Id.Protein>
6NUR|6NUR_protein|mol2

> <Gold.PLP.Fitness>
44.6869

> <Gold.PLP.PLP>
-32.8618

> <Gold.PLP.part.hbond>
-2.6934

> <Gold.PLP.part.metal>
0.0000

> <Gold.PLP.part.buried>
-0.0793

> <Gold.PLP.part.nonpolar>
-30.6489

> <Gold.PLP.part.repulsive>
0.8265

> <Gold.PLP.ligand.clash>
0.0000

> <Gold.PLP.ligand.torsion>
0.3947

> <Gold.PLP.Chemscore.Hbond>
2.2215

> <Gold.PLP.Chemscore.CHOScore>
1.9647

> <Gold.PLP.Chemscore.Metal>
0.0000

> <Gold.Chemscore.Hbonds>
donor molecule, donor type, donor heavy atom, donor atom, acceptor molecule, acceptor atom, score
      L1  H     5    44       P1  7957  0.42
      L1  H    11    38       P1  7948  1.00
      L1  H    14    39       P1  7948  0.48
      L1  C    16    40       P1 10747  1.00
      L1  C    19    41       P1 10186  0.65

> <Gold.PLP.Chemscore.Internal.Correction>
0.0560

> <Gold.Rescore>
     Score         DG    S(hbond)    S(metal)    S(lipo)     H(rot)  DE(clash)    DE(int)     intcor
     15.09     -19.22       2.58        0.00      83.24       1.80       2.54       1.59       ----

> <Gold.Chemscore.Fitness>
15.0900

> <Gold.Chemscore.DG>
-19.2249

> <Gold.Chemscore.ZeroCoef>
-5.4800

> <Gold.Chemscore.Hbond>
2.5761

> <Gold.Chemscore.Metal>
0.0000

> <Gold.Chemscore.Lipo>
83.2407

> <Gold.Chemscore.Internal_Hbond>
0.0000

> <Gold.Chemscore.DEClash>
2.5449

> <Gold.Chemscore.DEInternal>
1.5900

> <Gold.Chemscore.Rot>
1.7963

> <Gold.Chemscore.Internal.Correction>
   9.000000E+99

> <Gold.Chemscore.Hbonds>
donor molecule, donor type, donor heavy atom, donor atom, acceptor molecule, acceptor atom, score
      L1  H     5    44       P1  7957  0.41
      L1  H    11    38       P1  7948  1.00
      L1  H    14    39       P1  7948  0.39

> <Gold.Chemscore.Hbond.Weighted>
-8.6042

> <Gold.Chemscore.Metal.Weighted>
-0.0000

> <Gold.Chemscore.Lipo.Weighted>
-9.7392

> <Gold.Chemscore.Internal_Hbond.Weighted>
0.0000

> <Gold.Chemscore.DEClash.Weighted>
2.5449

> <Gold.Chemscore.DEInternal.Weighted>
1.5900

> <Gold.Chemscore.Rot.Weighted>
4.5985

> <Gold.Chemscore.Internal.Correction.Weighted>
   9.000000E+99

> <Gold.Protein.RotatedTorsions>
[ 6907 6896 6895 6894 ] final   15.32 input  -60.11 | X-H torsion
[ 7974 7965 7964 7962 ] final  -70.01 input  175.53 | X-H torsion
[ 8008 7997 7996 7995 ] final  -85.41 input   59.86 | X-H torsion
[ 10167 10162 10161 10158 ] final -109.30 input  -65.29 | X-H torsion
[ 10718 10713 10712 10709 ] final  -26.22 input   66.30 | X-H torsion
[ 10763 10752 10751 10750 ] final -137.31 input  -60.55 | X-H torsion
[ 11005 11000 10999 10996 ] final -113.16 input  -57.11 | X-H torsion

> <Gold.Protein.ActiveResidues>
 VAL166  LYS551  ARG553  GLY616  TRP617  ASP618  TYR619  PRO620  LYS621  CYS622 
 ASP623  PHE694  ASN695  SER759  ASP760  ASP761  ALA762  ILE779  LEU786  VAL792 
 PHE793  MET794  SER795  GLU796  ALA797  LYS798  CYS799  TRP800  GLU811  SER814 

> <Gold.Protein.RotatedAtoms>
  151.8161  135.0666  160.0418 H   0  0  0  0  0  0  0  0  0  0  0  0  # atno 6907 bound_to 6896
  152.2985  133.5627  159.5611 H   0  0  0  0  0  0  0  0  0  0  0  0  # atno 6908 bound_to 6896
  150.7262  134.0242  159.3754 H   0  0  0  0  0  0  0  0  0  0  0  0  # atno 6909 bound_to 6896
  145.6964  140.9133  143.0754 H   0  0  0  0  0  0  0  0  0  0  0  0  # atno 7974 bound_to 7965
  154.6405  140.0592  156.9839 H   0  0  0  0  0  0  0  0  0  0  0  0  # atno 8008 bound_to 7997
  155.1525  140.3275  155.4410 H   0  0  0  0  0  0  0  0  0  0  0  0  # atno 8009 bound_to 7997
  156.2528  140.1945  156.6636 H   0  0  0  0  0  0  0  0  0  0  0  0  # atno 8010 bound_to 7997
  140.1568  143.4153  152.1455 H   0  0  0  0  0  0  0  0  0  0  0  0  # atno 10167 bound_to 10162
  156.4541  130.4490  149.6971 H   0  0  0  0  0  0  0  0  0  0  0  0  # atno 10718 bound_to 10713
  154.8664  135.3646  154.5202 H   0  0  0  0  0  0  0  0  0  0  0  0  # atno 10763 bound_to 10752
  153.5833  135.7017  153.5459 H   0  0  0  0  0  0  0  0  0  0  0  0  # atno 10764 bound_to 10752
  153.3438  135.4090  155.1555 H   0  0  0  0  0  0  0  0  0  0  0  0  # atno 10765 bound_to 10752
  141.0631  133.9503  157.2630 H   0  0  0  0  0  0  0  0  0  0  0  0  # atno 11005 bound_to 11000
  144.6981  139.8890  143.7452 LP  0  0  0  0  0  0  0  0  0  0  0  0  # atno 17320 bound_to 7965
  146.0836  139.3824  143.0449 LP  0  0  0  0  0  0  0  0  0  0  0  0  # atno 17321 bound_to 7965
  139.5400  144.7247  151.4766 LP  0  0  0  0  0  0  0  0  0  0  0  0  # atno 17342 bound_to 10162
  140.6668  143.8380  150.6951 LP  0  0  0  0  0  0  0  0  0  0  0  0  # atno 17343 bound_to 10162
  156.3786  130.7567  151.2558 LP  0  0  0  0  0  0  0  0  0  0  0  0  # atno 17370 bound_to 10713
  157.7501  131.0302  150.4128 LP  0  0  0  0  0  0  0  0  0  0  0  0  # atno 17371 bound_to 10713
  139.9451  135.0185  156.8827 LP  0  0  0  0  0  0  0  0  0  0  0  0  # atno 17394 bound_to 11000
  140.5828  134.0336  155.7470 LP  0  0  0  0  0  0  0  0  0  0  0  0  # atno 17395 bound_to 11000

$$$$
