AV-unprocessed.smi:2563|AV-procd|sdf|10058|dock5
  -GOLD-   2272014 93D 1   1.00000     0.00000
 Structure written by MMmdl.
 36 37  0  0  0  0  0  0  0  0  3 V2000
  152.1014  139.4939  155.3914 C   0  0  0  0  0  0  0  0  0  0  0  0
  151.1615  139.9100  156.5306 C   0  0  0  0  0  0  0  0  0  0  0  0
  150.7251  141.2992  156.4086 N   0  0  0  0  0  0  0  0  0  0  0  0
  149.8726  141.6733  155.2786 C   0  0  0  0  0  0  0  0  0  0  0  0
  148.7999  140.6123  154.9705 C   0  0  2  0  0  0  0  0  0  0  0  0
  149.3647  139.4691  154.1032 C   0  0  0  0  0  0  0  0  0  0  0  0
  148.2954  138.5117  153.7570 N   0  3  0  0  0  0  0  0  0  0  0  0
  147.1523  139.1835  153.1093 C   0  0  0  0  0  0  0  0  0  0  0  0
  146.6562  140.3439  153.9875 C   0  0  0  0  0  0  0  0  0  0  0  0
  147.7365  141.2334  154.2517 O   0  0  0  0  0  0  0  0  0  0  0  0
  151.1408  142.2692  157.3524 C   0  0  0  0  0  0  0  0  0  0  0  0
  152.1313  142.0209  158.3346 C   0  0  0  0  0  0  0  0  0  0  0  0
  152.4721  143.0483  159.2304 C   0  0  0  0  0  0  0  0  0  0  0  0
  151.8035  144.2762  159.0979 C   0  0  0  0  0  0  0  0  0  0  0  0
  150.8612  144.5045  158.1582 N   0  0  0  0  0  0  0  0  0  0  0  0
  150.5609  143.5008  157.3168 N   0  3  0  0  0  0  0  0  0  0  0  0
  152.3936  138.4490  155.4960 H   0  0  0  0  0  0  0  0  0  0  0  0
  153.0124  140.0925  155.3844 H   0  0  0  0  0  0  0  0  0  0  0  0
  151.6204  139.6064  154.4192 H   0  0  0  0  0  0  0  0  0  0  0  0
  150.2819  139.2661  156.5104 H   0  0  0  0  0  0  0  0  0  0  0  0
  151.6249  139.7324  157.5009 H   0  0  0  0  0  0  0  0  0  0  0  0
  149.4186  142.6542  155.4209 H   0  0  0  0  0  0  0  0  0  0  0  0
  150.5196  141.7816  154.4075 H   0  0  0  0  0  0  0  0  0  0  0  0
  148.4178  140.1994  155.9059 H   0  0  0  0  0  0  0  0  0  0  0  0
  149.7995  139.8660  153.1847 H   0  0  0  0  0  0  0  0  0  0  0  0
  150.1577  138.9396  154.6319 H   0  0  0  0  0  0  0  0  0  0  0  0
  148.6633  137.8044  153.1361 H   0  0  0  0  0  0  0  0  0  0  0  0
  147.4624  139.5560  152.1322 H   0  0  0  0  0  0  0  0  0  0  0  0
  146.3547  138.4598  152.9406 H   0  0  0  0  0  0  0  0  0  0  0  0
  145.8642  140.8908  153.4755 H   0  0  0  0  0  0  0  0  0  0  0  0
  146.2352  139.9754  154.9243 H   0  0  0  0  0  0  0  0  0  0  0  0
  152.6383  141.0715  158.4140 H   0  0  0  0  0  0  0  0  0  0  0  0
  153.2227  142.9007  159.9930 H   0  0  0  0  0  0  0  0  0  0  0  0
  152.0294  145.0981  159.7616 H   0  0  0  0  0  0  0  0  0  0  0  0
  147.9713  138.0673  154.6043 H   0  0  0  0  0  0  0  0  0  0  0  0
  149.8481  143.6703  156.6071 H   0  0  0  0  0  0  0  0  0  0  0  0
  1  2  1  0  0  0  0
  1 17  1  0  0  0  0
  1 18  1  0  0  0  0
  1 19  1  0  0  0  0
  2  3  1  0  0  0  0
  2 20  1  0  0  0  0
  2 21  1  0  0  0  0
  3  4  1  0  0  0  0
  3 11  1  0  0  0  0
  4  5  1  0  0  0  0
  4 22  1  0  0  0  0
  4 23  1  0  0  0  0
  5 10  1  0  0  0  0
  5  6  1  0  0  0  0
  5 24  1  0  0  0  0
  6  7  1  0  0  0  0
  6 25  1  0  0  0  0
  6 26  1  0  0  0  0
  7  8  1  0  0  0  0
  7 27  1  0  0  0  0
  7 35  1  0  0  0  0
  8  9  1  0  0  0  0
  8 28  1  0  0  0  0
  8 29  1  0  0  0  0
  9 10  1  0  0  0  0
  9 30  1  0  0  0  0
  9 31  1  0  0  0  0
 11 16  1  0  0  0  0
 11 12  2  0  0  0  0
 12 13  1  0  0  0  0
 12 32  1  0  0  0  0
 13 14  2  0  0  0  0
 13 33  1  0  0  0  0
 14 15  1  0  0  0  0
 14 34  1  0  0  0  0
 15 16  2  0  0  0  0
 16 36  1  0  0  0  0
M  CHG  1   7   1
M  CHG  1  16   1
M  END
> <s_m_source_file>
AV-unprocessed.smi

> <i_m_source_file_index>
2563

> <i_lp_mmshare_version>
43012

> <i_f3d_flags>
0

> <s_epik_input>
bjFuW2NIXVtjSF1bY0hdYzFOKFtDSDJdW0NIM10pW0NIMl1bQ0BASF0yW0NIMl1bTkhdW0NIMl1bQ0gyXU8y

> <s_epik_cmdline>
J2VwaWtfcHl0aG9uJywgJy1waCcsICc3LjAnLCAnLXRuJywgJzgnLCAnLW1hJywgJzIwMCcsICctbWV0YWxfYmluZGluZycsICctaW1hZScsICc8aW5maWxlLm1hZT4nLCAnLW9tYWUnLCAnPG91dGZpbGUubWFlPic=

> <r_lp_tautomer_probability>
0.966961

> <r_epik_Ionization_Penalty>
1.93862

> <r_epik_Ionization_Penalty_Charging>
1.93862

> <r_epik_Ionization_Penalty_Neutral>
1.19718e-14

> <r_epik_State_Penalty>
1.51688

> <r_epik_Charging_Adjusted_Penalty>
3.4555

> <i_epik_Tot_Q>
2

> <i_epik_Tot_abs_Q>
2

> <r_epik_Metal_State_Penalty>
1.53359

> <b_epik_Metal_Only>
0

> <s_lp_Force_Field>
OPLS_2005

> <r_lp_Energy>
32.8906

> <b_lp_Chiralities_Consistent>
1

> <s_lp_Variant>
AV-unprocessed.smi:2563-3

> <Gold.Version>
5.8.1

> <Gold.Id.Protein>
6NUR|6NUR_protein|mol2

> <Gold.PLP.Fitness>
43.0461

> <Gold.PLP.PLP>
-32.2200

> <Gold.PLP.part.hbond>
-2.2907

> <Gold.PLP.part.metal>
0.0000

> <Gold.PLP.part.buried>
-1.6856

> <Gold.PLP.part.nonpolar>
-28.3646

> <Gold.PLP.part.repulsive>
0.3490

> <Gold.PLP.ligand.clash>
0.0000

> <Gold.PLP.ligand.torsion>
0.5994

> <Gold.PLP.Chemscore.Hbond>
4.0000

> <Gold.PLP.Chemscore.CHOScore>
0.0000

> <Gold.PLP.Chemscore.Metal>
0.0000

> <Gold.Chemscore.Hbonds>
donor molecule, donor type, donor heavy atom, donor atom, acceptor molecule, acceptor atom, score
      L1  H     7    27       P1  7948  2.00
      L1  H    16    36       P1  8028  2.00

> <Gold.PLP.Chemscore.Internal.Correction>
0.0248

> <Gold.Rescore>
     Score         DG    S(hbond)    S(metal)    S(lipo)     H(rot)  DE(clash)    DE(int)     intcor
     15.82     -17.57       1.84        0.00      82.25       1.44       0.53       1.21       ----

> <Gold.Chemscore.Fitness>
15.8245

> <Gold.Chemscore.DG>
-17.5707

> <Gold.Chemscore.ZeroCoef>
-5.4800

> <Gold.Chemscore.Hbond>
1.8414

> <Gold.Chemscore.Metal>
0.0000

> <Gold.Chemscore.Lipo>
82.2458

> <Gold.Chemscore.Internal_Hbond>
0.0000

> <Gold.Chemscore.DEClash>
0.5348

> <Gold.Chemscore.DEInternal>
1.2115

> <Gold.Chemscore.Rot>
1.4384

> <Gold.Chemscore.Internal.Correction>
   9.000000E+99

> <Gold.Chemscore.Hbonds>
donor molecule, donor type, donor heavy atom, donor atom, acceptor molecule, acceptor atom, score
      L1  H     7    27       P1  7948  0.93
      L1  H    16    36       P1  8028  0.95

> <Gold.Chemscore.Hbond.Weighted>
-6.1502

> <Gold.Chemscore.Metal.Weighted>
-0.0000

> <Gold.Chemscore.Lipo.Weighted>
-9.6228

> <Gold.Chemscore.Internal_Hbond.Weighted>
0.0000

> <Gold.Chemscore.DEClash.Weighted>
0.5348

> <Gold.Chemscore.DEInternal.Weighted>
1.2115

> <Gold.Chemscore.Rot.Weighted>
3.6822

> <Gold.Chemscore.Internal.Correction.Weighted>
   9.000000E+99

> <Gold.Protein.RotatedTorsions>
[ 6907 6896 6895 6894 ] final -113.57 input  -60.11 | X-H torsion
[ 7974 7965 7964 7962 ] final  -88.86 input  175.53 | X-H torsion
[ 8008 7997 7996 7995 ] final   83.18 input   59.86 | X-H torsion
[ 10167 10162 10161 10158 ] final  -41.34 input  -65.29 | X-H torsion
[ 10718 10713 10712 10709 ] final  161.22 input   66.30 | X-H torsion
[ 10763 10752 10751 10750 ] final -116.37 input  -60.55 | X-H torsion
[ 11005 11000 10999 10996 ] final   -2.16 input  -57.11 | X-H torsion

> <Gold.Protein.ActiveResidues>
 VAL166  LYS551  ARG553  GLY616  TRP617  ASP618  TYR619  PRO620  LYS621  CYS622 
 ASP623  PHE694  ASN695  SER759  ASP760  ASP761  ALA762  ILE779  LEU786  VAL792 
 PHE793  MET794  SER795  GLU796  ALA797  LYS798  CYS799  TRP800  GLU811  SER814 

> <Gold.Protein.RotatedAtoms>
  150.7839  133.8926  159.3317 H   0  0  0  0  0  0  0  0  0  0  0  0  # atno 6907 bound_to 6896
  151.6781  135.0964  160.0220 H   0  0  0  0  0  0  0  0  0  0  0  0  # atno 6908 bound_to 6896
  152.3897  133.6623  159.6263 H   0  0  0  0  0  0  0  0  0  0  0  0  # atno 6909 bound_to 6896
  145.4475  140.9560  143.2041 H   0  0  0  0  0  0  0  0  0  0  0  0  # atno 7974 bound_to 7965
  155.9205  140.3421  155.6169 H   0  0  0  0  0  0  0  0  0  0  0  0  # atno 8008 bound_to 7997
  155.7279  140.0792  157.2320 H   0  0  0  0  0  0  0  0  0  0  0  0  # atno 8009 bound_to 7997
  154.4069  140.1593  156.2463 H   0  0  0  0  0  0  0  0  0  0  0  0  # atno 8010 bound_to 7997
  140.7005  143.3100  151.3053 H   0  0  0  0  0  0  0  0  0  0  0  0  # atno 10167 bound_to 10162
  157.1395  131.0537  151.2333 H   0  0  0  0  0  0  0  0  0  0  0  0  # atno 10718 bound_to 10713
  154.8516  135.4348  154.1810 H   0  0  0  0  0  0  0  0  0  0  0  0  # atno 10763 bound_to 10752
  153.2900  135.6960  153.7308 H   0  0  0  0  0  0  0  0  0  0  0  0  # atno 10764 bound_to 10752
  153.6479  135.3456  155.3065 H   0  0  0  0  0  0  0  0  0  0  0  0  # atno 10765 bound_to 10752
  140.6553  133.9368  155.8404 H   0  0  0  0  0  0  0  0  0  0  0  0  # atno 11005 bound_to 11000
  144.8082  139.6011  143.7041 LP  0  0  0  0  0  0  0  0  0  0  0  0  # atno 17320 bound_to 7965
  146.2523  139.6225  142.9419 LP  0  0  0  0  0  0  0  0  0  0  0  0  # atno 17321 bound_to 7965
  139.6519  144.0346  152.2632 LP  0  0  0  0  0  0  0  0  0  0  0  0  # atno 17342 bound_to 10162
  139.9885  144.6378  150.7835 LP  0  0  0  0  0  0  0  0  0  0  0  0  # atno 17343 bound_to 10162
  157.4320  130.7496  149.6998 LP  0  0  0  0  0  0  0  0  0  0  0  0  # atno 17370 bound_to 10713
  155.9791  130.4043  150.3605 LP  0  0  0  0  0  0  0  0  0  0  0  0  # atno 17371 bound_to 10713
  141.0506  134.0490  157.3788 LP  0  0  0  0  0  0  0  0  0  0  0  0  # atno 17394 bound_to 11000
  139.9031  135.0171  156.7363 LP  0  0  0  0  0  0  0  0  0  0  0  0  # atno 17395 bound_to 11000

$$$$
