#       Name:                AV-unprocessed.smi:1075
#       Creating user name   scv26
#       Creation time:       Fri Mar 27 03:21:40 2020


#       File generated by GOLD software.
#

@<TRIPOS>MOLECULE
AV-unprocessed.smi:1075
    53    54     1
SMALL
NO_CHARGES


@<TRIPOS>ATOM
      1 ****        -1.2017   2.9661   2.4514 C.3            1 S1                 0.0000
      2 ****        -1.9716   1.7645   1.9825 C.2            1 S1                 0.0000
      3 ****        -3.1247   1.9399   1.3604 N.2            1 S1                 0.0000
      4 ****        -3.5503   0.6958   1.0679 N.pl3          1 S1                 0.0000
      5 ****        -4.8090   0.5255   0.3679 C.3            1 S1                 0.0000
      6 ****        -2.6622  -0.2697   1.5027 C.2            1 S1                 0.0000
      7 ****        -2.9113  -1.7294   1.2843 C.3            1 S1                 0.0000
      8 ****        -1.6219   0.3874   2.1116 C.2            1 S1                 0.0000
      9 ****        -0.3704  -0.1679   2.7622 C.3            1 S1                 0.0000
     10 ****        -0.6975  -1.1358   3.9152 C.3            1 S1                 0.0000
     11 ****         0.5329  -0.7878   1.6842 C.2            1 S1                 0.0000
     12 ****         0.7946  -1.9910   1.6986 O.2            1 S1                 0.0000
     13 ****         0.9898   0.0649   0.7485 N.am           1 S1                 0.0000
     14 ****         1.7977  -0.2215  -0.4428 C.3            1 S1                 0.0000
     15 ****         3.1767  -0.7801  -0.0192 C.3            1 S1                 0.0000
     16 ****         1.0328  -1.2097  -1.3658 C.3            1 S1                 0.0000
     17 ****         1.6296  -1.3191  -2.7798 C.3            1 S1                 0.0000
     18 ****         1.7359   0.0540  -3.4631 C.3            1 S1                 0.0000
     19 ****         2.3253  -0.0627  -4.8759 C.3            1 S1                 0.0000
     20 ****         2.5569   1.0141  -2.5871 C.3            1 S1                 0.0000
     21 ****         1.9649   1.1356  -1.1722 C.3            1 S1                 0.0000
     22 ****        -0.1656   2.9206   2.1150 H              1 S1                 0.0000
     23 ****        -1.1966   3.0237   3.5400 H              1 S1                 0.0000
     24 ****        -1.6293   3.8949   2.0719 H              1 S1                 0.0000
     25 ****        -4.6185   0.1682  -0.6443 H              1 S1                 0.0000
     26 ****        -5.3514   1.4706   0.3129 H              1 S1                 0.0000
     27 ****        -5.4269  -0.2030   0.8930 H              1 S1                 0.0000
     28 ****        -1.9781  -2.2898   1.2491 H              1 S1                 0.0000
     29 ****        -3.4304  -1.9088   0.3428 H              1 S1                 0.0000
     30 ****        -3.5202  -2.1397   2.0901 H              1 S1                 0.0000
     31 ****         0.2080   0.6452   3.2021 H              1 S1                 0.0000
     32 ****        -1.2641  -2.0032   3.5772 H              1 S1                 0.0000
     33 ****        -1.2889  -0.6358   4.6827 H              1 S1                 0.0000
     34 ****         0.2116  -1.5018   4.3936 H              1 S1                 0.0000
     35 ****         0.7067   1.0286   0.8524 H              1 S1                 0.0000
     36 ****         3.8380  -0.9241  -0.8726 H              1 S1                 0.0000
     37 ****         3.0909  -1.7476   0.4751 H              1 S1                 0.0000
     38 ****         3.6817  -0.1032   0.6706 H              1 S1                 0.0000
     39 ****         0.9964  -2.2039  -0.9200 H              1 S1                 0.0000
     40 ****        -0.0054  -0.8856  -1.4585 H              1 S1                 0.0000
     41 ****         2.6132  -1.7875  -2.7305 H              1 S1                 0.0000
     42 ****         1.0086  -1.9836  -3.3815 H              1 S1                 0.0000
     43 ****         0.7286   0.4623  -3.5593 H              1 S1                 0.0000
     44 ****         3.3382  -0.4661  -4.8517 H              1 S1                 0.0000
     45 ****         2.3660   0.9105  -5.3656 H              1 S1                 0.0000
     46 ****         1.7200  -0.7201  -5.5003 H              1 S1                 0.0000
     47 ****         3.5918   0.6754  -2.5317 H              1 S1                 0.0000
     48 ****         2.5874   2.0012  -3.0497 H              1 S1                 0.0000
     49 ****         0.9908   1.6206  -1.2587 H              1 S1                 0.0000
     50 ****         2.5801   1.8108  -0.5757 H              1 S1                 0.0000
     51 ****        -3.5805   2.8053   1.1527 LP             1 S1                 0.0000
     52 ****         0.4182  -2.5760   2.4170 LP             1 S1                 0.0000
     53 ****         1.3836  -2.3831   0.9919 LP             1 S1                 0.0000
@<TRIPOS>BOND
    1    1    2 1     
    2    1   22 1     
    3    1   23 1     
    4    1   24 1     
    5    2    8 1     
    6    2    3 2     
    7    3    4 1     
    8    4    5 1     
    9    4    6 1     
   10    5   25 1     
   11    5   26 1     
   12    5   27 1     
   13    6    7 1     
   14    6    8 2     
   15    7   28 1     
   16    7   29 1     
   17    7   30 1     
   18    8    9 1     
   19    9   10 1     
   20    9   11 1     
   21    9   31 1     
   22   10   32 1     
   23   10   33 1     
   24   10   34 1     
   25   11   12 2     
   26   11   13 am    
   27   13   14 1     
   28   13   35 1     
   29   14   21 1     
   30   14   15 1     
   31   14   16 1     
   32   15   36 1     
   33   15   37 1     
   34   15   38 1     
   35   16   17 1     
   36   16   39 1     
   37   16   40 1     
   38   17   18 1     
   39   17   41 1     
   40   17   42 1     
   41   18   19 1     
   42   18   20 1     
   43   18   43 1     
   44   19   44 1     
   45   19   45 1     
   46   19   46 1     
   47   20   21 1     
   48   20   47 1     
   49   20   48 1     
   50   21   49 1     
   51   21   50 1     
   52    3   51 1     
   53   12   52 1     
   54   12   53 1     
@<TRIPOS>SUBSTRUCTURE
      1 S1             1
@<TRIPOS>SET
LONE_PAIRS      STATIC     ATOMS    <user>   **** ""
3 51 52 53
DONOR_HYDROGENS      STATIC     ATOMS    <user>   **** ""
1 35
ATOM$BLUE        STATIC     ATOMS    COLORGROUP SYSTEM
3 51 52 53
ATOM$RED        STATIC     ATOMS    COLORGROUP SYSTEM
1 35
