AV-unprocessed.smi:3259|AV-procd|sdf|12475|dock4
  -GOLD-   2272018373D 1   1.00000     0.00000
 Structure written by MMmdl.
 39 40  0  0  0  0  0  0  0  0  1 V2000
  149.0625  138.9612  154.2844 C   0  0  0  0  0  0  0  0  0  0  0  0
  148.9675  138.8851  155.7008 O   0  0  0  0  0  0  0  0  0  0  0  0
  150.1392  138.4502  156.3927 C   0  0  2  0  0  0  0  0  0  0  0  0
  150.4943  137.0158  155.9710 C   0  0  0  0  0  0  0  0  0  0  0  0
  150.0791  138.7646  157.8990 C   0  0  0  0  0  0  0  0  0  0  0  0
  151.5279  139.2296  157.7701 C   0  0  2  0  0  0  0  0  0  0  0  0
  151.8250  140.3824  158.6127 N   0  0  0  0  0  0  0  0  0  0  0  0
  153.0187  140.6224  159.1759 C   0  0  0  0  0  0  0  0  0  0  0  0
  153.9958  139.8888  159.0297 O   0  0  0  0  0  0  0  0  0  0  0  0
  153.1308  141.8880  160.0272 C   0  0  0  0  0  0  0  0  0  0  0  0
  152.5206  143.0262  159.3632 N   0  0  0  0  0  0  0  0  0  0  0  0
  152.4331  144.3306  159.8041 C   0  0  0  0  0  0  0  0  0  0  0  0
  151.7821  145.0439  158.8386 C   0  0  0  0  0  0  0  0  0  0  0  0
  151.5055  144.0764  157.8326 C   0  0  0  0  0  0  0  0  0  0  0  0
  151.9477  142.8701  158.1495 N   0  0  0  0  0  0  0  0  0  0  0  0
  151.2321  139.5635  156.2854 C   0  0  0  0  0  0  0  0  0  0  0  0
  152.3810  139.3121  155.3035 C   0  0  0  0  0  0  0  0  0  0  0  0
  150.7236  140.9872  155.9811 C   0  0  0  0  0  0  0  0  0  0  0  0
  148.0836  139.2111  153.8757 H   0  0  0  0  0  0  0  0  0  0  0  0
  149.3706  138.0129  153.8438 H   0  0  0  0  0  0  0  0  0  0  0  0
  149.7541  139.7396  153.9634 H   0  0  0  0  0  0  0  0  0  0  0  0
  151.4571  136.7008  156.3727 H   0  0  0  0  0  0  0  0  0  0  0  0
  150.5471  136.9238  154.8860 H   0  0  0  0  0  0  0  0  0  0  0  0
  149.7625  136.2929  156.3300 H   0  0  0  0  0  0  0  0  0  0  0  0
  149.3816  139.5649  158.1538 H   0  0  0  0  0  0  0  0  0  0  0  0
  149.9403  137.8952  158.5424 H   0  0  0  0  0  0  0  0  0  0  0  0
  152.2305  138.4019  157.8914 H   0  0  0  0  0  0  0  0  0  0  0  0
  151.0744  141.0363  158.7811 H   0  0  0  0  0  0  0  0  0  0  0  0
  152.6507  141.7334  160.9948 H   0  0  0  0  0  0  0  0  0  0  0  0
  154.1803  142.1127  160.2229 H   0  0  0  0  0  0  0  0  0  0  0  0
  152.8389  144.6390  160.7562 H   0  0  0  0  0  0  0  0  0  0  0  0
  151.5402  146.0962  158.8490 H   0  0  0  0  0  0  0  0  0  0  0  0
  151.0000  144.2142  156.8882 H   0  0  0  0  0  0  0  0  0  0  0  0
  153.1391  140.0934  155.3658 H   0  0  0  0  0  0  0  0  0  0  0  0
  152.0247  139.2804  154.2734 H   0  0  0  0  0  0  0  0  0  0  0  0
  152.8899  138.3691  155.5010 H   0  0  0  0  0  0  0  0  0  0  0  0
  151.5096  141.7320  156.1094 H   0  0  0  0  0  0  0  0  0  0  0  0
  149.8978  141.2801  156.6295 H   0  0  0  0  0  0  0  0  0  0  0  0
  150.3667  141.0708  154.9540 H   0  0  0  0  0  0  0  0  0  0  0  0
  1  2  1  0  0  0  0
  1 19  1  0  0  0  0
  1 20  1  0  0  0  0
  1 21  1  0  0  0  0
  2  3  1  0  0  0  0
  3 16  1  0  0  0  0
  3  4  1  0  0  0  0
  3  5  1  0  0  0  0
  4 22  1  0  0  0  0
  4 23  1  0  0  0  0
  4 24  1  0  0  0  0
  5  6  1  0  0  0  0
  5 25  1  0  0  0  0
  5 26  1  0  0  0  0
  6  7  1  0  0  0  0
  6 16  1  0  0  0  0
  6 27  1  0  0  0  0
  7  8  1  0  0  0  0
  7 28  1  0  0  0  0
  8  9  2  0  0  0  0
  8 10  1  0  0  0  0
 10 11  1  0  0  0  0
 10 29  1  0  0  0  0
 10 30  1  0  0  0  0
 11 15  1  0  0  0  0
 11 12  1  0  0  0  0
 12 13  2  0  0  0  0
 12 31  1  0  0  0  0
 13 14  1  0  0  0  0
 13 32  1  0  0  0  0
 14 15  2  0  0  0  0
 14 33  1  0  0  0  0
 16 17  1  0  0  0  0
 16 18  1  0  0  0  0
 17 34  1  0  0  0  0
 17 35  1  0  0  0  0
 17 36  1  0  0  0  0
 18 37  1  0  0  0  0
 18 38  1  0  0  0  0
 18 39  1  0  0  0  0
M  END
> <s_m_source_file>
AV-unprocessed.smi

> <i_m_source_file_index>
3259

> <i_lp_mmshare_version>
43012

> <i_f3d_flags>
0

> <s_epik_input>
W0NIM11PW0NAQF0xKFtDSDNdKVtDSDJdW0NASF0oQzEoW0NIM10pW0NIM10pW05IXUMoPU8pW0NIMl1uMltjSF1bY0hdW2NIXW4y

> <s_epik_cmdline>
J2VwaWtfcHl0aG9uJywgJy1waCcsICc3LjAnLCAnLXRuJywgJzgnLCAnLW1hJywgJzIwMCcsICctbWV0YWxfYmluZGluZycsICctaW1hZScsICc8aW5maWxlLm1hZT4nLCAnLW9tYWUnLCAnPG91dGZpbGUubWFlPic=

> <r_lp_tautomer_probability>
1

> <r_epik_Ionization_Penalty>
1.78399e-05

> <r_epik_Ionization_Penalty_Charging>
0

> <r_epik_Ionization_Penalty_Neutral>
1.78399e-05

> <r_epik_State_Penalty>
-0

> <r_epik_Charging_Adjusted_Penalty>
0

> <i_epik_Tot_Q>
0

> <i_epik_Tot_abs_Q>
0

> <r_epik_Metal_State_Penalty>
-0

> <b_epik_Metal_Only>
0

> <s_lp_Force_Field>
OPLS_2005

> <r_lp_Energy>
24.0627

> <b_lp_Chiralities_Consistent>
1

> <s_lp_Variant>
AV-unprocessed.smi:3259-4

> <Gold.Version>
5.8.1

> <Gold.Id.Protein>
6NUR|6NUR_protein|mol2

> <Gold.PLP.Fitness>
42.1808

> <Gold.PLP.PLP>
-36.7459

> <Gold.PLP.part.hbond>
-1.0000

> <Gold.PLP.part.metal>
0.0000

> <Gold.PLP.part.buried>
-2.5624

> <Gold.PLP.part.nonpolar>
-33.1178

> <Gold.PLP.part.repulsive>
0.1895

> <Gold.PLP.ligand.clash>
0.0000

> <Gold.PLP.ligand.torsion>
0.4715

> <Gold.PLP.Chemscore.Hbond>
1.0000

> <Gold.PLP.Chemscore.CHOScore>
1.0000

> <Gold.PLP.Chemscore.Metal>
0.0000

> <Gold.Chemscore.Hbonds>
donor molecule, donor type, donor heavy atom, donor atom, acceptor molecule, acceptor atom, score
      P1  H  7997  8009       L1     9  1.00
      L1  C    14    33       P1  8028  1.00

> <Gold.PLP.Chemscore.Internal.Correction>
0.3780

> <Gold.Rescore>
     Score         DG    S(hbond)    S(metal)    S(lipo)     H(rot)  DE(clash)    DE(int)     intcor
     13.31     -15.36       0.95        0.00      92.14       1.60       0.03       2.02       ----

> <Gold.Chemscore.Fitness>
13.3143

> <Gold.Chemscore.DG>
-15.3595

> <Gold.Chemscore.ZeroCoef>
-5.4800

> <Gold.Chemscore.Hbond>
0.9537

> <Gold.Chemscore.Metal>
0.0000

> <Gold.Chemscore.Lipo>
92.1399

> <Gold.Chemscore.Internal_Hbond>
0.0000

> <Gold.Chemscore.DEClash>
0.0300

> <Gold.Chemscore.DEInternal>
2.0153

> <Gold.Chemscore.Rot>
1.5962

> <Gold.Chemscore.Internal.Correction>
   9.000000E+99

> <Gold.Chemscore.Hbonds>
donor molecule, donor type, donor heavy atom, donor atom, acceptor molecule, acceptor atom, score
      P1  H  7997  8009       L1     9  0.89

> <Gold.Chemscore.Hbond.Weighted>
-3.1854

> <Gold.Chemscore.Metal.Weighted>
-0.0000

> <Gold.Chemscore.Lipo.Weighted>
-10.7804

> <Gold.Chemscore.Internal_Hbond.Weighted>
0.0000

> <Gold.Chemscore.DEClash.Weighted>
0.0300

> <Gold.Chemscore.DEInternal.Weighted>
2.0153

> <Gold.Chemscore.Rot.Weighted>
4.0862

> <Gold.Chemscore.Internal.Correction.Weighted>
   9.000000E+99

> <Gold.Protein.RotatedTorsions>
[ 6907 6896 6895 6894 ] final  -23.69 input  -60.11 | X-H torsion
[ 7974 7965 7964 7962 ] final  113.02 input  175.53 | X-H torsion
[ 8008 7997 7996 7995 ] final  127.91 input   59.86 | X-H torsion
[ 10167 10162 10161 10158 ] final  -68.49 input  -65.29 | X-H torsion
[ 10718 10713 10712 10709 ] final  -56.72 input   66.30 | X-H torsion
[ 10763 10752 10751 10750 ] final -127.38 input  -60.55 | X-H torsion
[ 11005 11000 10999 10996 ] final -128.34 input  -57.11 | X-H torsion

> <Gold.Protein.ActiveResidues>
 VAL166  LYS551  ARG553  GLY616  TRP617  ASP618  TYR619  PRO620  LYS621  CYS622 
 ASP623  PHE694  ASN695  SER759  ASP760  ASP761  ALA762  ILE779  LEU786  VAL792 
 PHE793  MET794  SER795  GLU796  ALA797  LYS798  CYS799  TRP800  GLU811  SER814 

> <Gold.Protein.RotatedAtoms>
  151.2003  135.0440  159.8869 H   0  0  0  0  0  0  0  0  0  0  0  0  # atno 6907 bound_to 6896
  152.5433  134.0858  159.8265 H   0  0  0  0  0  0  0  0  0  0  0  0  # atno 6908 bound_to 6896
  151.0997  133.5205  159.2642 H   0  0  0  0  0  0  0  0  0  0  0  0  # atno 6909 bound_to 6896
  145.2222  139.2857  143.4212 H   0  0  0  0  0  0  0  0  0  0  0  0  # atno 7974 bound_to 7965
  156.2902  140.2657  156.2349 H   0  0  0  0  0  0  0  0  0  0  0  0  # atno 8008 bound_to 7997
  155.0035  140.0387  157.2388 H   0  0  0  0  0  0  0  0  0  0  0  0  # atno 8009 bound_to 7997
  154.7580  140.2755  155.6242 H   0  0  0  0  0  0  0  0  0  0  0  0  # atno 8010 bound_to 7997
  140.5503  143.2312  151.6923 H   0  0  0  0  0  0  0  0  0  0  0  0  # atno 10167 bound_to 10162
  156.1266  130.4162  150.0343 H   0  0  0  0  0  0  0  0  0  0  0  0  # atno 10718 bound_to 10713
  154.8752  135.3964  154.3585 H   0  0  0  0  0  0  0  0  0  0  0  0  # atno 10763 bound_to 10752
  153.4360  135.7026  153.6205 H   0  0  0  0  0  0  0  0  0  0  0  0  # atno 10764 bound_to 10752
  153.4806  135.3770  155.2409 H   0  0  0  0  0  0  0  0  0  0  0  0  # atno 10765 bound_to 10752
  140.9524  134.1047  157.4049 H   0  0  0  0  0  0  0  0  0  0  0  0  # atno 11005 bound_to 11000
  146.3373  140.2531  142.8599 LP  0  0  0  0  0  0  0  0  0  0  0  0  # atno 17320 bound_to 7965
  144.9755  140.8409  143.5429 LP  0  0  0  0  0  0  0  0  0  0  0  0  # atno 17321 bound_to 7965
  139.5025  144.3828  152.0359 LP  0  0  0  0  0  0  0  0  0  0  0  0  # atno 17342 bound_to 10162
  140.2944  144.3717  150.6079 LP  0  0  0  0  0  0  0  0  0  0  0  0  # atno 17343 bound_to 10162
  156.8267  130.9378  151.3639 LP  0  0  0  0  0  0  0  0  0  0  0  0  # atno 17370 bound_to 10713
  157.6447  130.8835  149.9516 LP  0  0  0  0  0  0  0  0  0  0  0  0  # atno 17371 bound_to 10713
  139.8851  135.0070  156.6416 LP  0  0  0  0  0  0  0  0  0  0  0  0  # atno 17394 bound_to 11000
  140.7584  133.8838  155.8399 LP  0  0  0  0  0  0  0  0  0  0  0  0  # atno 17395 bound_to 11000

$$$$
