#       Name:                AV-unprocessed.smi:3265
#       Creating user name   scv26
#       Creation time:       Fri Mar 27 18:40:18 2020


#       File generated by GOLD software.
#

@<TRIPOS>MOLECULE
AV-unprocessed.smi:3265
    44    45     1
SMALL
NO_CHARGES


@<TRIPOS>ATOM
      1 ****        -1.8301   4.6012  -0.4706 C.3            1 S1                 0.0000
      2 ****        -1.9293   3.3564   0.4229 C.3            1 S1                 0.0000
      3 ****        -3.3659   3.1390   0.9269 C.3            1 S1                 0.0000
      4 ****        -3.4393   1.8762   1.7939 C.3            1 S1                 0.0000
      5 ****        -2.8973   0.6555   1.0337 C.3            1 S1                 0.0000
      6 ****        -1.5079   0.8904   0.5617 N.4            1 S1                 1.0000
      7 ****        -0.9161  -0.3219  -0.0585 C.3            1 S1                 0.0000
      8 ****         0.6245  -0.3018  -0.0369 C.3            1 S1                 0.0000
      9 ****         1.1839  -1.5198  -0.6099 N.am           1 S1                 0.0000
     10 ****         1.2887  -2.6953   0.0296 C.2            1 S1                 0.0000
     11 ****         0.8970  -2.8755   1.1823 O.2            1 S1                 0.0000
     12 ****         1.9278  -3.8448  -0.7512 C.3            1 S1                 0.0000
     13 ****         3.3609  -3.6545  -0.8876 N.pl3          1 S1                 0.0000
     14 ****         4.3556  -3.9569   0.0193 C.2            1 S1                 0.0000
     15 ****         5.5446  -3.5946  -0.5459 C.2            1 S1                 0.0000
     16 ****         5.1707  -3.0742  -1.8164 C.2            1 S1                 0.0000
     17 ****         3.8632  -3.1101  -2.0179 N.2            1 S1                 0.0000
     18 ****        -1.4226   2.0959  -0.3068 C.3            1 S1                 0.0000
     19 ****        -2.4461   4.4993  -1.3648 H              1 S1                 0.0000
     20 ****        -0.8027   4.7736  -0.7927 H              1 S1                 0.0000
     21 ****        -2.1616   5.4934   0.0615 H              1 S1                 0.0000
     22 ****        -1.2887   3.5238   1.2902 H              1 S1                 0.0000
     23 ****        -3.7014   4.0031   1.5013 H              1 S1                 0.0000
     24 ****        -4.0480   3.0429   0.0807 H              1 S1                 0.0000
     25 ****        -2.8643   2.0245   2.7090 H              1 S1                 0.0000
     26 ****        -4.4696   1.6959   2.1021 H              1 S1                 0.0000
     27 ****        -2.9229  -0.2131   1.6928 H              1 S1                 0.0000
     28 ****        -3.5388   0.4264   0.1811 H              1 S1                 0.0000
     29 ****        -1.2538  -1.2005   0.4927 H              1 S1                 0.0000
     30 ****        -1.2896  -0.4376  -1.0772 H              1 S1                 0.0000
     31 ****         1.0120   0.5335  -0.6188 H              1 S1                 0.0000
     32 ****         0.9915  -0.1673   0.9821 H              1 S1                 0.0000
     33 ****         1.5368  -1.4633  -1.5550 H              1 S1                 0.0000
     34 ****         1.7477  -4.7905  -0.2383 H              1 S1                 0.0000
     35 ****         1.4729  -3.9243  -1.7399 H              1 S1                 0.0000
     36 ****         4.1361  -4.3980   0.9805 H              1 S1                 0.0000
     37 ****         6.5315  -3.6871  -0.1173 H              1 S1                 0.0000
     38 ****         5.8062  -2.6737  -2.5923 H              1 S1                 0.0000
     39 ****        -2.0014   1.9285  -1.2168 H              1 S1                 0.0000
     40 ****        -0.3916   2.2608  -0.6169 H              1 S1                 0.0000
     41 ****        -0.9611   1.0829   1.3890 H              1 S1                 0.0000
     42 ****         0.4756  -2.1243   1.6903 LP             1 S1                 0.0000
     43 ****         1.0001  -3.7731   1.6108 LP             1 S1                 0.0000
     44 ****         3.3597  -2.8031  -2.8256 LP             1 S1                 0.0000
@<TRIPOS>BOND
    1    1    2 1     
    2    1   19 1     
    3    1   20 1     
    4    1   21 1     
    5    2   18 1     
    6    2    3 1     
    7    2   22 1     
    8    3    4 1     
    9    3   23 1     
   10    3   24 1     
   11    4    5 1     
   12    4   25 1     
   13    4   26 1     
   14    5    6 1     
   15    5   27 1     
   16    5   28 1     
   17    6    7 1     
   18    6   18 1     
   19    6   41 1     
   20    7    8 1     
   21    7   29 1     
   22    7   30 1     
   23    8    9 1     
   24    8   31 1     
   25    8   32 1     
   26    9   10 am    
   27    9   33 1     
   28   10   11 2     
   29   10   12 1     
   30   12   13 1     
   31   12   34 1     
   32   12   35 1     
   33   13   17 1     
   34   13   14 1     
   35   14   15 2     
   36   14   36 1     
   37   15   16 1     
   38   15   37 1     
   39   16   17 2     
   40   16   38 1     
   41   18   39 1     
   42   18   40 1     
   43   11   42 1     
   44   11   43 1     
   45   17   44 1     
@<TRIPOS>SUBSTRUCTURE
      1 S1             1
@<TRIPOS>SET
LONE_PAIRS      STATIC     ATOMS    <user>   **** ""
3 42 43 44
DONOR_HYDROGENS      STATIC     ATOMS    <user>   **** ""
2 41 33
ATOM$BLUE        STATIC     ATOMS    COLORGROUP SYSTEM
3 42 43 44
ATOM$RED        STATIC     ATOMS    COLORGROUP SYSTEM
2 41 33
