#       Name:                AV-unprocessed.smi:252
#       Creating user name   scv26
#       Creation time:       Thu Mar 26 21:06:52 2020


#       File generated by GOLD software.
#

@<TRIPOS>MOLECULE
AV-unprocessed.smi:252
    66    69     1
SMALL
NO_CHARGES


@<TRIPOS>ATOM
      1 ****        -4.8984   6.2102   0.9677 C.3            1 S1                 0.0000
      2 ****        -4.9383   5.2409  -0.2242 C.3            1 S1                 0.0000
      3 ****        -4.3289   3.8679   0.0778 C.2            1 S1                 0.0000
      4 ****        -3.8844   3.6020   1.1953 O.2            1 S1                 0.0000
      5 ****        -4.3153   2.9984  -0.9441 N.am           1 S1                 0.0000
      6 ****        -3.7837   1.6407  -0.8876 C.3            1 S1                 0.0000
      7 ****        -4.4374   0.7780  -1.9830 C.3            1 S1                 0.0000
      8 ****        -3.8210  -0.6298  -1.9985 C.3            1 S1                 0.0000
      9 ****        -2.2919  -0.5569  -2.1375 C.3            1 S1                 0.0000
     10 ****        -1.7215   0.2922  -1.0957 N.3            1 S1                 0.0000
     11 ****        -0.3747   0.2325  -1.0358 C.ar           1 S1                 0.0000
     12 ****         0.3747   0.7716  -2.0336 N.ar           1 S1                 0.0000
     13 ****         1.7087   0.7086  -1.9713 C.ar           1 S1                 0.0000
     14 ****         2.4769   0.1664  -1.0230 N.ar           1 S1                 0.0000
     15 ****         1.7217  -0.3741  -0.0237 C.ar           1 S1                 0.0000
     16 ****         0.3013  -0.3864   0.0468 C.ar           1 S1                 0.0000
     17 ****        -0.1156  -1.0269   1.2069 N.2            1 S1                 0.0000
     18 ****         0.9987  -1.3761   1.7910 C.2            1 S1                 0.0000
     19 ****         2.1483  -1.0224   1.1208 N.pl3          1 S1                 0.0000
     20 ****         3.5167  -1.2853   1.5358 C.3            1 S1                 0.0000
     21 ****         4.1305  -2.6028   0.9655 C.3            1 S1                 0.0000
     22 ****         3.2190  -3.2781   0.1090 O.3            1 S1                 0.0000
     23 ****         5.4286  -2.3810   0.1727 C.3            1 S1                 0.0000
     24 ****         6.4450  -3.3380   0.7983 C.3            1 S1                 0.0000
     25 ****         5.6608  -4.2836   1.5044 O.3            1 S1                 0.0000
     26 ****         4.5792  -3.5719   2.0817 C.3            1 S1                 0.0000
     27 ****         3.5127  -4.5262   2.6434 C.3            1 S1                 0.0000
     28 ****        -2.2508   1.6529  -1.0555 C.3            1 S1                 0.0000
     29 ****        -5.3511   7.1656   0.7019 H              1 S1                 0.0000
     30 ****        -3.8740   6.4084   1.2852 H              1 S1                 0.0000
     31 ****        -5.4468   5.8133   1.8228 H              1 S1                 0.0000
     32 ****        -5.9714   5.1000  -0.5440 H              1 S1                 0.0000
     33 ****        -4.4056   5.6809  -1.0681 H              1 S1                 0.0000
     34 ****        -4.6981   3.3008  -1.8281 H              1 S1                 0.0000
     35 ****        -4.0293   1.2013   0.0814 H              1 S1                 0.0000
     36 ****        -5.5140   0.7115  -1.8217 H              1 S1                 0.0000
     37 ****        -4.2953   1.2452  -2.9587 H              1 S1                 0.0000
     38 ****        -4.0783  -1.1507  -1.0753 H              1 S1                 0.0000
     39 ****        -4.2434  -1.2165  -2.8145 H              1 S1                 0.0000
     40 ****        -1.8657  -1.5592  -2.0736 H              1 S1                 0.0000
     41 ****        -2.0274  -0.1579  -3.1181 H              1 S1                 0.0000
     42 ****         2.2365   1.1570  -2.8000 H              1 S1                 0.0000
     43 ****         1.0131  -1.9069   2.7316 H              1 S1                 0.0000
     44 ****         4.1134  -0.4171   1.2564 H              1 S1                 0.0000
     45 ****         3.5298  -1.2948   2.6263 H              1 S1                 0.0000
     46 ****         3.6284  -4.0751  -0.1915 H              1 S1                 0.0000
     47 ****         5.2952  -2.6039  -0.8872 H              1 S1                 0.0000
     48 ****         5.8027  -1.3587   0.2298 H              1 S1                 0.0000
     49 ****         7.0815  -3.8209   0.0567 H              1 S1                 0.0000
     50 ****         7.0862  -2.8082   1.5044 H              1 S1                 0.0000
     51 ****         4.9966  -2.9985   2.9119 H              1 S1                 0.0000
     52 ****         2.6642  -3.9717   3.0449 H              1 S1                 0.0000
     53 ****         3.9257  -5.1307   3.4510 H              1 S1                 0.0000
     54 ****         3.1383  -5.2115   1.8829 H              1 S1                 0.0000
     55 ****        -1.9820   2.1735  -1.9759 H              1 S1                 0.0000
     56 ****        -1.7880   2.1997  -0.2325 H              1 S1                 0.0000
     57 ****        -3.9179   4.2874   1.9227 LP             1 S1                 0.0000
     58 ****        -3.4901   2.7008   1.3751 LP             1 S1                 0.0000
     59 ****        -2.0474  -0.1145  -0.2423 LP             1 S1                 0.0000
     60 ****        -0.0706   1.2141  -2.8121 LP             1 S1                 0.0000
     61 ****         3.4766   0.1578  -1.0429 LP             1 S1                 0.0000
     62 ****        -1.0518  -1.1840   1.5215 LP             1 S1                 0.0000
     63 ****         2.9963  -2.6966  -0.6735 LP             1 S1                 0.0000
     64 ****         2.3820  -3.4964   0.6108 LP             1 S1                 0.0000
     65 ****         6.2076  -4.7181   2.2200 LP             1 S1                 0.0000
     66 ****         5.3170  -4.9823   0.8770 LP             1 S1                 0.0000
@<TRIPOS>BOND
    1    1    2 1     
    2    1   29 1     
    3    1   30 1     
    4    1   31 1     
    5    2    3 1     
    6    2   32 1     
    7    2   33 1     
    8    3    4 2     
    9    3    5 am    
   10    5    6 1     
   11    5   34 1     
   12    6   28 1     
   13    6    7 1     
   14    6   35 1     
   15    7    8 1     
   16    7   36 1     
   17    7   37 1     
   18    8    9 1     
   19    8   38 1     
   20    8   39 1     
   21    9   10 1     
   22    9   40 1     
   23    9   41 1     
   24   10   11 1     
   25   10   28 1     
   26   11   16 ar    
   27   11   12 ar    
   28   12   13 ar    
   29   13   14 ar    
   30   13   42 1     
   31   14   15 ar    
   32   15   19 1     
   33   15   16 ar    
   34   16   17 1     
   35   17   18 2     
   36   18   19 1     
   37   18   43 1     
   38   19   20 1     
   39   20   21 1     
   40   20   44 1     
   41   20   45 1     
   42   21   26 1     
   43   21   22 1     
   44   21   23 1     
   45   22   46 1     
   46   23   24 1     
   47   23   47 1     
   48   23   48 1     
   49   24   25 1     
   50   24   49 1     
   51   24   50 1     
   52   25   26 1     
   53   26   27 1     
   54   26   51 1     
   55   27   52 1     
   56   27   53 1     
   57   27   54 1     
   58   28   55 1     
   59   28   56 1     
   60    4   57 1     
   61    4   58 1     
   62   10   59 1     
   63   12   60 1     
   64   14   61 1     
   65   17   62 1     
   66   22   63 1     
   67   22   64 1     
   68   25   65 1     
   69   25   66 1     
@<TRIPOS>SUBSTRUCTURE
      1 S1             1
@<TRIPOS>SET
LONE_PAIRS      STATIC     ATOMS    <user>   **** ""
10 57 58 59 60 61 62 63 64 65 66
DONOR_HYDROGENS      STATIC     ATOMS    <user>   **** ""
2 34 46
ATOM$BLUE        STATIC     ATOMS    COLORGROUP SYSTEM
10 57 58 59 60 61 62 63 64 65 66
ATOM$RED        STATIC     ATOMS    COLORGROUP SYSTEM
2 34 46
