AV-unprocessed.smi:1191|AV-procd|sdf|4985|dock6
  -GOLD-   22720 3583D 1   1.00000     0.00000
 Structure written by MMmdl.
 47 48  0  0  0  0  0  0  0  0  2 V2000
  152.4198  138.3257  154.6020 C   0  0  0  0  0  0  0  0  0  0  0  0
  151.4618  139.3757  155.0831 C   0  0  0  0  0  0  0  0  0  0  0  0
  151.3794  139.9701  156.3733 C   0  0  0  0  0  0  0  0  0  0  0  0
  150.3413  140.8532  156.2734 C   0  0  0  0  0  0  0  0  0  0  0  0
  149.7623  141.7798  157.2918 C   0  0  0  0  0  0  0  0  0  0  0  0
  149.8587  140.7598  154.9797 N   0  0  0  0  0  0  0  0  0  0  0  0
  148.7649  141.4868  154.3526 C   0  0  0  0  0  0  0  0  0  0  0  0
  147.6144  140.5524  153.9731 C   0  0  0  0  0  0  0  0  0  0  0  0
  146.5826  140.5411  154.6441 O   0  0  0  0  0  0  0  0  0  0  0  0
  147.8025  139.7712  152.8980 N   0  0  0  0  0  0  0  0  0  0  0  0
  146.8314  138.8196  152.3736 C   0  0  0  0  0  0  0  0  0  0  0  0
  146.5780  137.6660  153.3636 C   0  0  0  0  0  0  0  0  0  0  0  0
  146.3423  136.3731  152.6739 N   0  3  2  0  0  0  0  0  0  0  0  0
  145.2665  136.4667  151.6537 C   0  0  0  0  0  0  0  0  0  0  0  0
  145.1562  135.1649  150.8439 C   0  0  0  0  0  0  0  0  0  0  0  0
  144.9390  133.9568  151.7664 C   0  0  0  0  0  0  0  0  0  0  0  0
  146.0144  133.8930  152.8669 C   0  0  1  0  0  0  0  0  0  0  0  0
  147.3827  133.4276  152.3382 C   0  0  0  0  0  0  0  0  0  0  0  0
  146.1065  135.2411  153.6115 C   0  0  0  0  0  0  0  0  0  0  0  0
  150.5510  139.8555  154.2524 N   0  0  0  0  0  0  0  0  0  0  0  0
  153.0360  137.9504  155.4193 H   0  0  0  0  0  0  0  0  0  0  0  0
  153.0881  138.7243  153.8386 H   0  0  0  0  0  0  0  0  0  0  0  0
  151.8894  137.4760  154.1713 H   0  0  0  0  0  0  0  0  0  0  0  0
  151.9900  139.7757  157.2426 H   0  0  0  0  0  0  0  0  0  0  0  0
  150.3013  141.7058  158.2364 H   0  0  0  0  0  0  0  0  0  0  0  0
  148.7162  141.5416  157.4841 H   0  0  0  0  0  0  0  0  0  0  0  0
  149.8190  142.8150  156.9544 H   0  0  0  0  0  0  0  0  0  0  0  0
  148.4015  142.2579  155.0338 H   0  0  0  0  0  0  0  0  0  0  0  0
  149.1415  141.9996  153.4668 H   0  0  0  0  0  0  0  0  0  0  0  0
  148.6825  139.8482  152.4073 H   0  0  0  0  0  0  0  0  0  0  0  0
  145.9014  139.3564  152.1842 H   0  0  0  0  0  0  0  0  0  0  0  0
  147.1805  138.4538  151.4080 H   0  0  0  0  0  0  0  0  0  0  0  0
  147.4049  137.5581  154.0671 H   0  0  0  0  0  0  0  0  0  0  0  0
  145.7004  137.9229  153.9591 H   0  0  0  0  0  0  0  0  0  0  0  0
  144.3170  136.6896  152.1436 H   0  0  0  0  0  0  0  0  0  0  0  0
  145.4729  137.2922  150.9712 H   0  0  0  0  0  0  0  0  0  0  0  0
  144.3333  135.2393  150.1324 H   0  0  0  0  0  0  0  0  0  0  0  0
  146.0599  135.0229  150.2506 H   0  0  0  0  0  0  0  0  0  0  0  0
  143.9550  134.0369  152.2308 H   0  0  0  0  0  0  0  0  0  0  0  0
  144.9278  133.0335  151.1862 H   0  0  0  0  0  0  0  0  0  0  0  0
  145.6934  133.1412  153.5892 H   0  0  0  0  0  0  0  0  0  0  0  0
  147.8069  134.1347  151.6254 H   0  0  0  0  0  0  0  0  0  0  0  0
  147.3025  132.4615  151.8390 H   0  0  0  0  0  0  0  0  0  0  0  0
  148.0978  133.3148  153.1535 H   0  0  0  0  0  0  0  0  0  0  0  0
  146.8987  135.1841  154.3568 H   0  0  0  0  0  0  0  0  0  0  0  0
  145.1812  135.4224  154.1610 H   0  0  0  0  0  0  0  0  0  0  0  0
  147.1903  136.1634  152.1668 H   0  0  0  0  0  0  0  0  0  0  0  0
  1  2  1  0  0  0  0
  1 21  1  0  0  0  0
  1 22  1  0  0  0  0
  1 23  1  0  0  0  0
  2 20  2  0  0  0  0
  2  3  1  0  0  0  0
  3  4  2  0  0  0  0
  3 24  1  0  0  0  0
  4  5  1  0  0  0  0
  4  6  1  0  0  0  0
  5 25  1  0  0  0  0
  5 26  1  0  0  0  0
  5 27  1  0  0  0  0
  6  7  1  0  0  0  0
  6 20  1  0  0  0  0
  7  8  1  0  0  0  0
  7 28  1  0  0  0  0
  7 29  1  0  0  0  0
  8  9  2  0  0  0  0
  8 10  1  0  0  0  0
 10 11  1  0  0  0  0
 10 30  1  0  0  0  0
 11 12  1  0  0  0  0
 11 31  1  0  0  0  0
 11 32  1  0  0  0  0
 12 13  1  0  0  0  0
 12 33  1  0  0  0  0
 12 34  1  0  0  0  0
 13 19  1  0  0  0  0
 13 14  1  0  0  0  0
 13 47  1  0  0  0  0
 14 15  1  0  0  0  0
 14 35  1  0  0  0  0
 14 36  1  0  0  0  0
 15 16  1  0  0  0  0
 15 37  1  0  0  0  0
 15 38  1  0  0  0  0
 16 17  1  0  0  0  0
 16 39  1  0  0  0  0
 16 40  1  0  0  0  0
 17 18  1  0  0  0  0
 17 19  1  0  0  0  0
 17 41  1  0  0  0  0
 18 42  1  0  0  0  0
 18 43  1  0  0  0  0
 18 44  1  0  0  0  0
 19 45  1  0  0  0  0
 19 46  1  0  0  0  0
M  CHG  1  13   1
M  END
> <s_m_source_file>
AV-unprocessed.smi

> <i_m_source_file_index>
1191

> <i_lp_mmshare_version>
43012

> <i_f3d_flags>
0

> <s_epik_input>
W0NIM11jMVtjSF1jKFtDSDNdKW4objEpW0NIMl1DKD1PKVtOSF1bQ0gyXVtDSDJdTjJbQ0gyXVtDSDJdW0NIMl1bQ0BASF0oW0NIM10pW0NIMl0y

> <s_epik_cmdline>
J2VwaWtfcHl0aG9uJywgJy1waCcsICc3LjAnLCAnLXRuJywgJzgnLCAnLW1hJywgJzIwMCcsICctbWV0YWxfYmluZGluZycsICctaW1hZScsICc8aW5maWxlLm1hZT4nLCAnLW9tYWUnLCAnPG91dGZpbGUubWFlPic=

> <r_lp_tautomer_probability>
1

> <r_epik_Ionization_Penalty>
0.00249932

> <r_epik_Ionization_Penalty_Charging>
0.00230623

> <r_epik_Ionization_Penalty_Neutral>
0.000193092

> <r_epik_State_Penalty>
-0

> <r_epik_Charging_Adjusted_Penalty>
0.00230623

> <i_epik_Tot_Q>
1

> <i_epik_Tot_abs_Q>
1

> <r_epik_Metal_State_Penalty>
-0

> <b_epik_Metal_Only>
0

> <s_lp_Force_Field>
OPLS_2005

> <r_lp_Energy>
16.5378

> <b_lp_Chiralities_Consistent>
1

> <s_lp_Variant>
AV-unprocessed.smi:1191-2

> <Gold.Version>
5.8.1

> <Gold.Id.Protein>
6NUR|6NUR_protein|mol2

> <Gold.PLP.Fitness>
48.2054

> <Gold.PLP.PLP>
-37.7253

> <Gold.PLP.part.hbond>
-2.8435

> <Gold.PLP.part.metal>
0.0000

> <Gold.PLP.part.buried>
-1.1311

> <Gold.PLP.part.nonpolar>
-33.9279

> <Gold.PLP.part.repulsive>
0.3341

> <Gold.PLP.ligand.clash>
0.0000

> <Gold.PLP.ligand.torsion>
0.4831

> <Gold.PLP.Chemscore.Hbond>
3.8000

> <Gold.PLP.Chemscore.CHOScore>
0.0000

> <Gold.PLP.Chemscore.Metal>
0.0000

> <Gold.Chemscore.Hbonds>
donor molecule, donor type, donor heavy atom, donor atom, acceptor molecule, acceptor atom, score
      L1  H    10    30       P1  7957  1.00
      L1  H    13    47       P1  7948  2.00
      P1  H  7989  7998       L1    20  0.70

> <Gold.PLP.Chemscore.Internal.Correction>
0.0462

> <Gold.Rescore>
     Score         DG    S(hbond)    S(metal)    S(lipo)     H(rot)  DE(clash)    DE(int)     intcor
     17.53     -18.18       2.38        0.00      77.00       1.67       0.01       0.63       ----

> <Gold.Chemscore.Fitness>
17.5321

> <Gold.Chemscore.DG>
-18.1750

> <Gold.Chemscore.ZeroCoef>
-5.4800

> <Gold.Chemscore.Hbond>
2.3802

> <Gold.Chemscore.Metal>
0.0000

> <Gold.Chemscore.Lipo>
77.0028

> <Gold.Chemscore.Internal_Hbond>
0.0000

> <Gold.Chemscore.DEClash>
0.0138

> <Gold.Chemscore.DEInternal>
0.6291

> <Gold.Chemscore.Rot>
1.6657

> <Gold.Chemscore.Internal.Correction>
   9.000000E+99

> <Gold.Chemscore.Hbonds>
donor molecule, donor type, donor heavy atom, donor atom, acceptor molecule, acceptor atom, score
      L1  H    10    30       P1  7957  0.94
      L1  H    13    47       P1  7948  0.99
      P1  H  7989  7998       L1    20  0.02

> <Gold.Chemscore.Hbond.Weighted>
-7.9497

> <Gold.Chemscore.Metal.Weighted>
-0.0000

> <Gold.Chemscore.Lipo.Weighted>
-9.0093

> <Gold.Chemscore.Internal_Hbond.Weighted>
0.0000

> <Gold.Chemscore.DEClash.Weighted>
0.0138

> <Gold.Chemscore.DEInternal.Weighted>
0.6291

> <Gold.Chemscore.Rot.Weighted>
4.2641

> <Gold.Chemscore.Internal.Correction.Weighted>
   9.000000E+99

> <Gold.Protein.RotatedTorsions>
[ 6907 6896 6895 6894 ] final  -99.38 input  -60.11 | X-H torsion
[ 7974 7965 7964 7962 ] final   -6.04 input  175.53 | X-H torsion
[ 8008 7997 7996 7995 ] final  -84.16 input   59.86 | X-H torsion
[ 10167 10162 10161 10158 ] final  -28.52 input  -65.29 | X-H torsion
[ 10718 10713 10712 10709 ] final -133.43 input   66.30 | X-H torsion
[ 10763 10752 10751 10750 ] final -132.46 input  -60.55 | X-H torsion
[ 11005 11000 10999 10996 ] final  136.14 input  -57.11 | X-H torsion

> <Gold.Protein.ActiveResidues>
 VAL166  LYS551  ARG553  GLY616  TRP617  ASP618  TYR619  PRO620  LYS621  CYS622 
 ASP623  PHE694  ASN695  SER759  ASP760  ASP761  ALA762  ILE779  LEU786  VAL792 
 PHE793  MET794  SER795  GLU796  ALA797  LYS798  CYS799  TRP800  GLU811  SER814 

> <Gold.Protein.RotatedAtoms>
  150.7078  134.1050  159.3979 H   0  0  0  0  0  0  0  0  0  0  0  0  # atno 6907 bound_to 6896
  151.9037  135.0365  160.0518 H   0  0  0  0  0  0  0  0  0  0  0  0  # atno 6908 bound_to 6896
  152.2393  133.5087  159.5297 H   0  0  0  0  0  0  0  0  0  0  0  0  # atno 6909 bound_to 6896
  146.2340  140.2111  142.8335 H   0  0  0  0  0  0  0  0  0  0  0  0  # atno 7974 bound_to 7965
  154.6268  140.0609  156.9683 H   0  0  0  0  0  0  0  0  0  0  0  0  # atno 8008 bound_to 7997
  155.1729  140.3292  155.4371 H   0  0  0  0  0  0  0  0  0  0  0  0  # atno 8009 bound_to 7997
  156.2461  140.1911  156.6830 H   0  0  0  0  0  0  0  0  0  0  0  0  # atno 8010 bound_to 7997
  140.7269  143.4004  151.1275 H   0  0  0  0  0  0  0  0  0  0  0  0  # atno 10167 bound_to 10162
  156.2449  130.7118  151.0994 H   0  0  0  0  0  0  0  0  0  0  0  0  # atno 10718 bound_to 10713
  154.8743  135.3797  154.4413 H   0  0  0  0  0  0  0  0  0  0  0  0  # atno 10763 bound_to 10752
  153.5098  135.7030  153.5792 H   0  0  0  0  0  0  0  0  0  0  0  0  # atno 10764 bound_to 10752
  153.4086  135.3930  155.2002 H   0  0  0  0  0  0  0  0  0  0  0  0  # atno 10765 bound_to 10752
  140.0026  134.9472  157.0105 H   0  0  0  0  0  0  0  0  0  0  0  0  # atno 11005 bound_to 11000
  144.9706  140.8365  143.5457 LP  0  0  0  0  0  0  0  0  0  0  0  0  # atno 17320 bound_to 7965
  145.2092  139.2213  143.5152 LP  0  0  0  0  0  0  0  0  0  0  0  0  # atno 17321 bound_to 7965
  139.7622  143.8618  152.3103 LP  0  0  0  0  0  0  0  0  0  0  0  0  # atno 17342 bound_to 10162
  139.8508  144.7165  150.9217 LP  0  0  0  0  0  0  0  0  0  0  0  0  # atno 17343 bound_to 10162
  157.7191  131.0692  150.6210 LP  0  0  0  0  0  0  0  0  0  0  0  0  # atno 17370 bound_to 10713
  156.6286  130.4425  149.5795 LP  0  0  0  0  0  0  0  0  0  0  0  0  # atno 17371 bound_to 10713
  140.4700  134.1396  155.7202 LP  0  0  0  0  0  0  0  0  0  0  0  0  # atno 17394 bound_to 11000
  141.1653  133.8714  157.1732 LP  0  0  0  0  0  0  0  0  0  0  0  0  # atno 17395 bound_to 11000

$$$$
