AV-unprocessed.smi:2268|AV-procd|sdf|9151|dock1
  -GOLD-   2272012353D 1   1.00000     0.00000
 Structure written by MMmdl.
 37 38  0  0  0  0  0  0  0  0  1 V2000
  151.3115  145.2939  160.5600 C   0  0  0  0  0  0  0  0  0  0  0  0
  152.0780  144.0515  160.9810 C   0  0  0  0  0  0  0  0  0  0  0  0
  152.7498  144.0623  162.2226 C   0  0  0  0  0  0  0  0  0  0  0  0
  153.4603  142.9306  162.6625 C   0  0  0  0  0  0  0  0  0  0  0  0
  154.0991  142.9526  163.8562 F   0  0  0  0  0  0  0  0  0  0  0  0
  153.5019  141.7755  161.8627 C   0  0  0  0  0  0  0  0  0  0  0  0
  152.8369  141.7562  160.6229 C   0  0  0  0  0  0  0  0  0  0  0  0
  152.1274  142.8905  160.1636 C   0  0  0  0  0  0  0  0  0  0  0  0
  151.4112  142.8267  158.8146 C   0  0  1  0  0  0  0  0  0  0  0  0
  151.8974  143.8108  157.9223 O   0  0  0  0  0  0  0  0  0  0  0  0
  151.5887  141.4339  158.1679 C   0  0  0  0  0  0  0  0  0  0  0  0
  150.7046  141.2351  157.0057 N   0  0  0  0  0  0  0  0  0  0  0  0
  151.3036  140.7044  155.8508 C   0  0  0  0  0  0  0  0  0  0  0  0
  150.6249  140.4808  154.7738 N   0  0  0  0  0  0  0  0  0  0  0  0
  149.2577  140.7694  154.7395 C   0  0  0  0  0  0  0  0  0  0  0  0
  148.5568  140.4696  153.4263 C   0  0  0  0  0  0  0  0  0  0  0  0
  148.6170  141.2859  155.8234 C   0  0  0  0  0  0  0  0  0  0  0  0
  147.1308  141.6213  155.8434 C   0  0  0  0  0  0  0  0  0  0  0  0
  149.3772  141.5463  157.0569 C   0  0  0  0  0  0  0  0  0  0  0  0
  148.8589  142.0139  158.0724 O   0  0  0  0  0  0  0  0  0  0  0  0
  151.2841  146.0343  161.3601 H   0  0  0  0  0  0  0  0  0  0  0  0
  150.2812  145.0436  160.3078 H   0  0  0  0  0  0  0  0  0  0  0  0
  151.7817  145.7578  159.6927 H   0  0  0  0  0  0  0  0  0  0  0  0
  152.7206  144.9419  162.8491 H   0  0  0  0  0  0  0  0  0  0  0  0
  154.0418  140.9029  162.1997 H   0  0  0  0  0  0  0  0  0  0  0  0
  152.8732  140.8575  160.0247 H   0  0  0  0  0  0  0  0  0  0  0  0
  150.3527  143.0427  158.9523 H   0  0  0  0  0  0  0  0  0  0  0  0
  151.8250  143.4785  157.0406 H   0  0  0  0  0  0  0  0  0  0  0  0
  152.6375  141.2572  157.9214 H   0  0  0  0  0  0  0  0  0  0  0  0
  151.3579  140.6660  158.9093 H   0  0  0  0  0  0  0  0  0  0  0  0
  152.3715  140.4944  155.9307 H   0  0  0  0  0  0  0  0  0  0  0  0
  147.7589  139.7419  153.5770 H   0  0  0  0  0  0  0  0  0  0  0  0
  149.2491  140.0579  152.6908 H   0  0  0  0  0  0  0  0  0  0  0  0
  148.1259  141.3793  153.0075 H   0  0  0  0  0  0  0  0  0  0  0  0
  146.9883  142.6826  156.0499 H   0  0  0  0  0  0  0  0  0  0  0  0
  146.6274  141.0539  156.6266 H   0  0  0  0  0  0  0  0  0  0  0  0
  146.6273  141.4008  154.9036 H   0  0  0  0  0  0  0  0  0  0  0  0
  1  2  1  0  0  0  0
  1 21  1  0  0  0  0
  1 22  1  0  0  0  0
  1 23  1  0  0  0  0
  2  8  1  0  0  0  0
  2  3  2  0  0  0  0
  3  4  1  0  0  0  0
  3 24  1  0  0  0  0
  4  5  1  0  0  0  0
  4  6  2  0  0  0  0
  6  7  1  0  0  0  0
  6 25  1  0  0  0  0
  7  8  2  0  0  0  0
  7 26  1  0  0  0  0
  8  9  1  0  0  0  0
  9 10  1  0  0  0  0
  9 11  1  0  0  0  0
  9 27  1  0  0  0  0
 10 28  1  0  0  0  0
 11 12  1  0  0  0  0
 11 29  1  0  0  0  0
 11 30  1  0  0  0  0
 12 19  1  0  0  0  0
 12 13  1  0  0  0  0
 13 14  2  0  0  0  0
 13 31  1  0  0  0  0
 14 15  1  0  0  0  0
 15 16  1  0  0  0  0
 15 17  2  0  0  0  0
 16 32  1  0  0  0  0
 16 33  1  0  0  0  0
 16 34  1  0  0  0  0
 17 18  1  0  0  0  0
 17 19  1  0  0  0  0
 18 35  1  0  0  0  0
 18 36  1  0  0  0  0
 18 37  1  0  0  0  0
 19 20  2  0  0  0  0
M  END
> <s_m_source_file>
AV-unprocessed.smi

> <i_m_source_file_index>
2268

> <i_lp_mmshare_version>
43012

> <i_f3d_flags>
0

> <s_epik_input>
W0NIM11jMVtjSF1jKEYpW2NIXVtjSF1jMVtDQEhdKFtPSF0pW0NIMl1uMltjSF1uYyhbQ0gzXSljKFtDSDNdKWMyPU8=

> <s_epik_cmdline>
J2VwaWtfcHl0aG9uJywgJy1waCcsICc3LjAnLCAnLXRuJywgJzgnLCAnLW1hJywgJzIwMCcsICctbWV0YWxfYmluZGluZycsICctaW1hZScsICc8aW5maWxlLm1hZT4nLCAnLW9tYWUnLCAnPG91dGZpbGUubWFlPic=

> <r_lp_tautomer_probability>
1

> <r_epik_Ionization_Penalty>
5.07449e-05

> <r_epik_Ionization_Penalty_Charging>
7.56727e-08

> <r_epik_Ionization_Penalty_Neutral>
5.06692e-05

> <r_epik_State_Penalty>
-0

> <r_epik_Charging_Adjusted_Penalty>
7.56727e-08

> <i_epik_Tot_Q>
0

> <i_epik_Tot_abs_Q>
0

> <r_epik_Metal_State_Penalty>
-0

> <b_epik_Metal_Only>
0

> <s_lp_Force_Field>
OPLS_2005

> <r_lp_Energy>
20.6014

> <b_lp_Chiralities_Consistent>
1

> <s_lp_Variant>
AV-unprocessed.smi:2268-2

> <Gold.Version>
5.8.1

> <Gold.Id.Protein>
6NUR|6NUR_protein|mol2

> <Gold.PLP.Fitness>
47.3314

> <Gold.PLP.PLP>
-44.7007

> <Gold.PLP.part.hbond>
-1.0000

> <Gold.PLP.part.metal>
0.0000

> <Gold.PLP.part.buried>
0.1995

> <Gold.PLP.part.nonpolar>
-42.0916

> <Gold.PLP.part.repulsive>
0.2229

> <Gold.PLP.ligand.clash>
0.0000

> <Gold.PLP.ligand.torsion>
0.1966

> <Gold.PLP.Chemscore.Hbond>
1.0000

> <Gold.PLP.Chemscore.CHOScore>
0.0000

> <Gold.PLP.Chemscore.Metal>
0.0000

> <Gold.Chemscore.Hbonds>
donor molecule, donor type, donor heavy atom, donor atom, acceptor molecule, acceptor atom, score
      P1  H  7989  7998       L1    14  1.00

> <Gold.PLP.Chemscore.Internal.Correction>
0.0237

> <Gold.Rescore>
     Score         DG    S(hbond)    S(metal)    S(lipo)     H(rot)  DE(clash)    DE(int)     intcor
     13.36     -16.73       0.73        0.00     118.62       1.98       1.91       1.46       ----

> <Gold.Chemscore.Fitness>
13.3644

> <Gold.Chemscore.DG>
-16.7322

> <Gold.Chemscore.ZeroCoef>
-5.4800

> <Gold.Chemscore.Hbond>
0.7331

> <Gold.Chemscore.Metal>
0.0000

> <Gold.Chemscore.Lipo>
118.6185

> <Gold.Chemscore.Internal_Hbond>
0.0000

> <Gold.Chemscore.DEClash>
1.9121

> <Gold.Chemscore.DEInternal>
1.4557

> <Gold.Chemscore.Rot>
1.9823

> <Gold.Chemscore.Internal.Correction>
   9.000000E+99

> <Gold.Chemscore.Hbonds>
donor molecule, donor type, donor heavy atom, donor atom, acceptor molecule, acceptor atom, score
      P1  H  7989  7998       L1    14  0.53

> <Gold.Chemscore.Hbond.Weighted>
-2.4487

> <Gold.Chemscore.Metal.Weighted>
-0.0000

> <Gold.Chemscore.Lipo.Weighted>
-13.8784

> <Gold.Chemscore.Internal_Hbond.Weighted>
0.0000

> <Gold.Chemscore.DEClash.Weighted>
1.9121

> <Gold.Chemscore.DEInternal.Weighted>
1.4557

> <Gold.Chemscore.Rot.Weighted>
5.0748

> <Gold.Chemscore.Internal.Correction.Weighted>
   9.000000E+99

> <Gold.Protein.RotatedTorsions>
[ 6907 6896 6895 6894 ] final   29.26 input  -60.11 | X-H torsion
[ 7974 7965 7964 7962 ] final  -36.84 input  175.53 | X-H torsion
[ 8008 7997 7996 7995 ] final   66.05 input   59.86 | X-H torsion
[ 10167 10162 10161 10158 ] final   87.01 input  -65.29 | X-H torsion
[ 10718 10713 10712 10709 ] final  140.29 input   66.30 | X-H torsion
[ 10763 10752 10751 10750 ] final  104.80 input  -60.55 | X-H torsion
[ 11005 11000 10999 10996 ] final  133.62 input  -57.11 | X-H torsion

> <Gold.Protein.ActiveResidues>
 VAL166  LYS551  ARG553  GLY616  TRP617  ASP618  TYR619  PRO620  LYS621  CYS622 
 ASP623  PHE694  ASN695  SER759  ASP760  ASP761  ALA762  ILE779  LEU786  VAL792 
 PHE793  MET794  SER795  GLU796  ALA797  LYS798  CYS799  TRP800  GLU811  SER814 

> <Gold.Protein.RotatedAtoms>
  152.0290  134.9779  160.0571 H   0  0  0  0  0  0  0  0  0  0  0  0  # atno 6907 bound_to 6896
  152.1263  133.4377  159.4707 H   0  0  0  0  0  0  0  0  0  0  0  0  # atno 6908 bound_to 6896
  150.6853  134.2393  159.4509 H   0  0  0  0  0  0  0  0  0  0  0  0  # atno 6909 bound_to 6896
  146.0627  140.6325  142.8989 H   0  0  0  0  0  0  0  0  0  0  0  0  # atno 7974 bound_to 7965
  155.6713  140.3497  155.4819 H   0  0  0  0  0  0  0  0  0  0  0  0  # atno 8008 bound_to 7997
  155.9685  140.1151  157.0856 H   0  0  0  0  0  0  0  0  0  0  0  0  # atno 8009 bound_to 7997
  154.4160  140.1161  156.5261 H   0  0  0  0  0  0  0  0  0  0  0  0  # atno 8010 bound_to 7997
  139.8817  144.6436  150.8836 H   0  0  0  0  0  0  0  0  0  0  0  0  # atno 10167 bound_to 10162
  157.4049  131.1021  151.0513 H   0  0  0  0  0  0  0  0  0  0  0  0  # atno 10718 bound_to 10713
  153.3708  135.3931  155.1787 H   0  0  0  0  0  0  0  0  0  0  0  0  # atno 10763 bound_to 10752
  154.8694  135.3702  154.4980 H   0  0  0  0  0  0  0  0  0  0  0  0  # atno 10764 bound_to 10752
  153.5448  135.7084  153.5680 H   0  0  0  0  0  0  0  0  0  0  0  0  # atno 10765 bound_to 10752
  139.9863  134.9531  156.9751 H   0  0  0  0  0  0  0  0  0  0  0  0  # atno 11005 bound_to 11000
  144.7184  140.4290  143.7027 LP  0  0  0  0  0  0  0  0  0  0  0  0  # atno 17320 bound_to 7965
  145.6532  139.1568  143.2850 LP  0  0  0  0  0  0  0  0  0  0  0  0  # atno 17321 bound_to 7965
  140.7743  143.3581  151.1882 LP  0  0  0  0  0  0  0  0  0  0  0  0  # atno 17342 bound_to 10162
  139.7190  143.9254  152.2978 LP  0  0  0  0  0  0  0  0  0  0  0  0  # atno 17343 bound_to 10162
  157.1499  130.6179  149.5579 LP  0  0  0  0  0  0  0  0  0  0  0  0  # atno 17370 bound_to 10713
  155.9834  130.4853  150.6929 LP  0  0  0  0  0  0  0  0  0  0  0  0  # atno 17371 bound_to 10713
  140.4995  134.1111  155.7248 LP  0  0  0  0  0  0  0  0  0  0  0  0  # atno 17394 bound_to 11000
  141.1528  133.8938  157.2055 LP  0  0  0  0  0  0  0  0  0  0  0  0  # atno 17395 bound_to 11000

$$$$
