#       Name:                AV-unprocessed.smi:356
#       Creating user name   scv26
#       Creation time:       Thu Mar 26 22:34:22 2020


#       File generated by GOLD software.
#

@<TRIPOS>MOLECULE
AV-unprocessed.smi:356
    47    49     1
SMALL
NO_CHARGES


@<TRIPOS>ATOM
      1 ****        -2.4538   0.5339   3.3125 C.3            1 S1                 0.0000
      2 ****        -2.5666   1.2878   2.0255 C.2            1 S1                 0.0000
      3 ****        -3.1282   2.4953   1.9574 N.2            1 S1                 0.0000
      4 ****        -3.0220   2.8034   0.6147 C.ar           1 S1                 0.0000
      5 ****        -3.4339   3.9508  -0.1004 C.ar           1 S1                 0.0000
      6 ****        -3.2167   4.0414  -1.4911 C.ar           1 S1                 0.0000
      7 ****        -2.5862   2.9887  -2.1854 C.ar           1 S1                 0.0000
      8 ****        -2.1677   1.8366  -1.4923 C.ar           1 S1                 0.0000
      9 ****        -2.3869   1.7513  -0.1043 C.ar           1 S1                 0.0000
     10 ****        -2.1052   0.7834   0.8541 N.pl3          1 S1                 0.0000
     11 ****        -1.4529  -0.4971   0.6140 C.3            1 S1                 0.0000
     12 ****         0.0737  -0.3636   0.4502 C.3            1 S1                 0.0000
     13 ****         0.6285   0.1695   1.6365 O.3            1 S1                 0.0000
     14 ****         0.7321  -1.7299   0.1749 C.3            1 S1                 0.0000
     15 ****         2.1640  -1.6929  -0.1290 N.3            1 S1                 0.0000
     16 ****         2.4564  -1.0643  -1.4164 C.3            1 S1                 0.0000
     17 ****         3.9638  -1.0662  -1.7271 C.3            1 S1                 0.0000
     18 ****         4.4614  -2.3994  -1.6869 O.3            1 S1                 0.0000
     19 ****         4.2376  -3.0301  -0.4304 C.3            1 S1                 0.0000
     20 ****         2.7307  -3.0378  -0.1222 C.3            1 S1                 0.0000
     21 ****        -2.8167   1.1393   4.1438 H              1 S1                 0.0000
     22 ****        -1.4148   0.2709   3.5102 H              1 S1                 0.0000
     23 ****        -3.0480  -0.3789   3.2671 H              1 S1                 0.0000
     24 ****        -3.9179   4.7625   0.4224 H              1 S1                 0.0000
     25 ****        -3.5359   4.9230  -2.0274 H              1 S1                 0.0000
     26 ****        -2.4235   3.0662  -3.2505 H              1 S1                 0.0000
     27 ****        -1.6836   1.0287  -2.0203 H              1 S1                 0.0000
     28 ****        -1.6936  -1.1889   1.4212 H              1 S1                 0.0000
     29 ****        -1.8853  -0.9274  -0.2902 H              1 S1                 0.0000
     30 ****         0.2722   0.3315  -0.3646 H              1 S1                 0.0000
     31 ****         1.5654   0.2299   1.5243 H              1 S1                 0.0000
     32 ****         0.5674  -2.3626   1.0486 H              1 S1                 0.0000
     33 ****         0.2076  -2.2208  -0.6463 H              1 S1                 0.0000
     34 ****         1.9239  -1.5861  -2.2131 H              1 S1                 0.0000
     35 ****         2.1051  -0.0336  -1.4280 H              1 S1                 0.0000
     36 ****         4.1477  -0.6469  -2.7164 H              1 S1                 0.0000
     37 ****         4.5064  -0.4474  -1.0107 H              1 S1                 0.0000
     38 ****         4.6228  -4.0491  -0.4690 H              1 S1                 0.0000
     39 ****         4.7898  -2.5070   0.3521 H              1 S1                 0.0000
     40 ****         2.5663  -3.5041   0.8499 H              1 S1                 0.0000
     41 ****         2.2166  -3.6599  -0.8567 H              1 S1                 0.0000
     42 ****        -3.5267   3.0415   2.6942 LP             1 S1                 0.0000
     43 ****         0.4182  -0.4310   2.4079 LP             1 S1                 0.0000
     44 ****         0.2491   1.0786   1.8086 LP             1 S1                 0.0000
     45 ****         2.5828  -1.1373   0.5893 LP             1 S1                 0.0000
     46 ****         5.4453  -2.3794  -1.8644 LP             1 S1                 0.0000
     47 ****         4.0050  -2.9331  -2.3989 LP             1 S1                 0.0000
@<TRIPOS>BOND
    1    1    2 1     
    2    1   21 1     
    3    1   22 1     
    4    1   23 1     
    5    2   10 1     
    6    2    3 2     
    7    3    4 1     
    8    4    9 ar    
    9    4    5 ar    
   10    5    6 ar    
   11    5   24 1     
   12    6    7 ar    
   13    6   25 1     
   14    7    8 ar    
   15    7   26 1     
   16    8    9 ar    
   17    8   27 1     
   18    9   10 1     
   19   10   11 1     
   20   11   12 1     
   21   11   28 1     
   22   11   29 1     
   23   12   13 1     
   24   12   14 1     
   25   12   30 1     
   26   13   31 1     
   27   14   15 1     
   28   14   32 1     
   29   14   33 1     
   30   15   20 1     
   31   15   16 1     
   32   16   17 1     
   33   16   34 1     
   34   16   35 1     
   35   17   18 1     
   36   17   36 1     
   37   17   37 1     
   38   18   19 1     
   39   19   20 1     
   40   19   38 1     
   41   19   39 1     
   42   20   40 1     
   43   20   41 1     
   44    3   42 1     
   45   13   43 1     
   46   13   44 1     
   47   15   45 1     
   48   18   46 1     
   49   18   47 1     
@<TRIPOS>SUBSTRUCTURE
      1 S1             1
@<TRIPOS>SET
LONE_PAIRS      STATIC     ATOMS    <user>   **** ""
6 42 43 44 45 46 47
DONOR_HYDROGENS      STATIC     ATOMS    <user>   **** ""
1 31
ATOM$BLUE        STATIC     ATOMS    COLORGROUP SYSTEM
6 42 43 44 45 46 47
ATOM$RED        STATIC     ATOMS    COLORGROUP SYSTEM
1 31
