AV-unprocessed.smi:48|AV-procd|sdf|456|dock6
  -GOLD-   2262016323D 1   1.00000     0.00000
 Structure written by MMmdl.
 30 32  0  0  0  0  0  0  0  0  1 V2000
  146.2913  139.2936  155.2311 O   0  0  0  0  0  0  0  0  0  0  0  0
  147.4357  138.4781  155.3656 C   0  0  0  0  0  0  0  0  0  0  0  0
  148.6955  139.3491  155.4828 C   0  0  2  0  0  0  0  0  0  0  0  0
  148.5465  140.2647  156.5580 O   0  0  0  0  0  0  0  0  0  0  0  0
  149.3914  141.3540  156.3685 C   0  0  1  0  0  0  0  0  0  0  0  0
  150.6688  141.1001  157.1237 N   0  0  0  0  0  0  0  0  0  0  0  0
  151.5144  140.0727  156.8997 C   0  0  0  0  0  0  0  0  0  0  0  0
  152.6232  140.0082  157.6330 N   0  0  0  0  0  0  0  0  0  0  0  0
  152.4982  141.1402  158.4181 C   0  0  0  0  0  0  0  0  0  0  0  0
  153.3259  141.6994  159.4220 C   0  0  0  0  0  0  0  0  0  0  0  0
  154.8085  140.9412  159.8755 Cl  0  0  0  0  0  0  0  0  0  0  0  0
  152.9299  142.8467  160.0210 N   0  0  0  0  0  0  0  0  0  0  0  0
  151.7771  143.4137  159.6486 C   0  0  0  0  0  0  0  0  0  0  0  0
  150.8995  143.0027  158.7270 N   0  0  0  0  0  0  0  0  0  0  0  0
  151.2950  141.8443  158.1194 C   0  0  0  0  0  0  0  0  0  0  0  0
  149.5924  141.5175  154.8519 C   0  0  2  0  0  0  0  0  0  0  0  0
  148.9543  142.6850  154.3759 O   0  0  0  0  0  0  0  0  0  0  0  0
  148.9121  140.2727  154.2739 C   0  0  1  0  0  0  0  0  0  0  0  0
  149.7452  139.6451  153.3202 O   0  0  0  0  0  0  0  0  0  0  0  0
  149.5745  138.7275  155.6544 H   0  0  0  0  0  0  0  0  0  0  0  0
  148.9752  142.2413  156.8481 H   0  0  0  0  0  0  0  0  0  0  0  0
  150.6515  141.5873  154.6058 H   0  0  0  0  0  0  0  0  0  0  0  0
  147.9534  140.5285  153.8188 H   0  0  0  0  0  0  0  0  0  0  0  0
  146.3829  139.8125  154.4466 H   0  0  0  0  0  0  0  0  0  0  0  0
  147.3069  137.8836  156.2706 H   0  0  0  0  0  0  0  0  0  0  0  0
  147.5091  137.7831  154.5286 H   0  0  0  0  0  0  0  0  0  0  0  0
  151.3034  139.3243  156.1498 H   0  0  0  0  0  0  0  0  0  0  0  0
  151.5179  144.3262  160.1646 H   0  0  0  0  0  0  0  0  0  0  0  0
  149.0499  143.3651  155.0251 H   0  0  0  0  0  0  0  0  0  0  0  0
  149.3857  139.8026  152.4606 H   0  0  0  0  0  0  0  0  0  0  0  0
  1  2  1  0  0  0  0
  1 24  1  0  0  0  0
  2  3  1  0  0  0  0
  2 25  1  0  0  0  0
  2 26  1  0  0  0  0
  3 20  1  0  0  0  0
  3 18  1  0  0  0  0
  3  4  1  0  0  0  0
  4  5  1  0  0  0  0
  5 21  1  0  0  0  0
  5  6  1  0  0  0  0
  5 16  1  0  0  0  0
  6 15  1  0  0  0  0
  6  7  1  0  0  0  0
  7  8  2  0  0  0  0
  7 27  1  0  0  0  0
  8  9  1  0  0  0  0
  9 15  2  0  0  0  0
  9 10  1  0  0  0  0
 10 11  1  0  0  0  0
 10 12  2  0  0  0  0
 12 13  1  0  0  0  0
 13 14  2  0  0  0  0
 13 28  1  0  0  0  0
 14 15  1  0  0  0  0
 16 22  1  0  0  0  0
 16 17  1  0  0  0  0
 16 18  1  0  0  0  0
 17 29  1  0  0  0  0
 18 23  1  0  0  0  0
 18 19  1  0  0  0  0
 19 30  1  0  0  0  0
M  END
> <s_m_source_file>
AV-unprocessed.smi

> <i_m_source_file_index>
48

> <i_lp_mmshare_version>
43012

> <i_f3d_flags>
0

> <s_epik_input>
W09IXVtDSDJdW0NASF0xT1tDQEhdKFtDQEhdKFtPSF0pW0NAQEhdMVtPSF0pbihbY0hdbjIpYyhjMjMpbltjSF1uYzNDbA==

> <s_epik_cmdline>
J2VwaWtfcHl0aG9uJywgJy1waCcsICc3LjAnLCAnLXRuJywgJzgnLCAnLW1hJywgJzIwMCcsICctbWV0YWxfYmluZGluZycsICctaW1hZScsICc8aW5maWxlLm1hZT4nLCAnLW9tYWUnLCAnPG91dGZpbGUubWFlPic=

> <r_lp_tautomer_probability>
1

> <r_epik_Ionization_Penalty>
3.45505e-06

> <r_epik_Ionization_Penalty_Charging>
0

> <r_epik_Ionization_Penalty_Neutral>
3.45505e-06

> <r_epik_State_Penalty>
-0

> <r_epik_Charging_Adjusted_Penalty>
0

> <i_epik_Tot_Q>
0

> <i_epik_Tot_abs_Q>
0

> <r_epik_Metal_State_Penalty>
-0

> <b_epik_Metal_Only>
0

> <s_epik_Chemistry_Notes>
This compound contains an acetal/aminal-like group ( X-CH(R)-Y where X, Y are N, S, or O) that may be acid/base labile, releasing an aldehyde.

> <s_lp_Force_Field>
OPLS_2005

> <r_lp_Energy>
32.3387

> <b_lp_Chiralities_Consistent>
1

> <s_lp_Variant>
AV-unprocessed.smi:48-10

> <Gold.Version>
5.8.1

> <Gold.Id.Protein>
6NUR|6NUR_protein|mol2

> <Gold.PLP.Fitness>
40.4993

> <Gold.PLP.PLP>
-29.6792

> <Gold.PLP.part.hbond>
-4.3877

> <Gold.PLP.part.metal>
0.0000

> <Gold.PLP.part.buried>
-2.5108

> <Gold.PLP.part.nonpolar>
-20.9624

> <Gold.PLP.part.repulsive>
0.0873

> <Gold.PLP.ligand.clash>
0.0000

> <Gold.PLP.ligand.torsion>
0.0137

> <Gold.PLP.Chemscore.Hbond>
3.6079

> <Gold.PLP.Chemscore.CHOScore>
0.0000

> <Gold.PLP.Chemscore.Metal>
0.0000

> <Gold.Chemscore.Hbonds>
donor molecule, donor type, donor heavy atom, donor atom, acceptor molecule, acceptor atom, score
      L1  H    17    29       P1  8028  0.89
      L1  H    19    30       P1  7957  0.50
      P1  H  7989  7998       L1    19  0.32
      P1  H  7997  8010       L1     8  0.98
      P1  H  8011  8017       L1    17  0.01

> <Gold.PLP.Chemscore.Internal.Correction>
0.0238

> <Gold.Rescore>
     Score         DG    S(hbond)    S(metal)    S(lipo)     H(rot)  DE(clash)    DE(int)     intcor
     10.49     -10.71       2.82        0.00      47.27       3.80       0.18       0.05       ----

> <Gold.Chemscore.Fitness>
10.4858

> <Gold.Chemscore.DG>
-10.7131

> <Gold.Chemscore.ZeroCoef>
-5.4800

> <Gold.Chemscore.Hbond>
2.8247

> <Gold.Chemscore.Metal>
0.0000

> <Gold.Chemscore.Lipo>
47.2729

> <Gold.Chemscore.Internal_Hbond>
0.0000

> <Gold.Chemscore.DEClash>
0.1772

> <Gold.Chemscore.DEInternal>
0.0501

> <Gold.Chemscore.Rot>
3.8017

> <Gold.Chemscore.Internal.Correction>
   9.000000E+99

> <Gold.Chemscore.Hbonds>
donor molecule, donor type, donor heavy atom, donor atom, acceptor molecule, acceptor atom, score
      L1  H    17    29       P1  8028  0.86
      L1  H    19    30       P1  7957  0.48
      P1  H  7989  7998       L1    19  0.06
      P1  H  7997  8010       L1     8  0.43

> <Gold.Chemscore.Hbond.Weighted>
-9.4345

> <Gold.Chemscore.Metal.Weighted>
-0.0000

> <Gold.Chemscore.Lipo.Weighted>
-5.5309

> <Gold.Chemscore.Internal_Hbond.Weighted>
0.0000

> <Gold.Chemscore.DEClash.Weighted>
0.1772

> <Gold.Chemscore.DEInternal.Weighted>
0.0501

> <Gold.Chemscore.Rot.Weighted>
9.7324

> <Gold.Chemscore.Internal.Correction.Weighted>
   9.000000E+99

> <Gold.Protein.RotatedTorsions>
[ 6907 6896 6895 6894 ] final   86.37 input  -60.11 | X-H torsion
[ 7974 7965 7964 7962 ] final  104.03 input  175.53 | X-H torsion
[ 8008 7997 7996 7995 ] final   38.00 input   59.86 | X-H torsion
[ 10167 10162 10161 10158 ] final -173.12 input  -65.29 | X-H torsion
[ 10718 10713 10712 10709 ] final -153.67 input   66.30 | X-H torsion
[ 10763 10752 10751 10750 ] final  -54.35 input  -60.55 | X-H torsion
[ 11005 11000 10999 10996 ] final   27.27 input  -57.11 | X-H torsion

> <Gold.Protein.ActiveResidues>
 VAL166  LYS551  ARG553  GLY616  TRP617  ASP618  TYR619  PRO620  LYS621  CYS622 
 ASP623  PHE694  ASN695  SER759  ASP760  ASP761  ALA762  ILE779  LEU786  VAL792 
 PHE793  MET794  SER795  GLU796  ALA797  LYS798  CYS799  TRP800  GLU811  SER814 

> <Gold.Protein.RotatedAtoms>
  152.5393  134.2442  159.8873 H   0  0  0  0  0  0  0  0  0  0  0  0  # atno 6907 bound_to 6896
  151.2408  133.4394  159.2615 H   0  0  0  0  0  0  0  0  0  0  0  0  # atno 6908 bound_to 6896
  151.0629  134.9762  159.8325 H   0  0  0  0  0  0  0  0  0  0  0  0  # atno 6909 bound_to 6896
  145.3382  139.2469  143.3624 H   0  0  0  0  0  0  0  0  0  0  0  0  # atno 7974 bound_to 7965
  155.2131  140.3325  155.4326 H   0  0  0  0  0  0  0  0  0  0  0  0  # atno 8008 bound_to 7997
  156.2363  140.1874  156.7159 H   0  0  0  0  0  0  0  0  0  0  0  0  # atno 8009 bound_to 7997
  154.6065  140.0615  156.9423 H   0  0  0  0  0  0  0  0  0  0  0  0  # atno 8010 bound_to 7997
  139.5706  144.1651  152.1378 H   0  0  0  0  0  0  0  0  0  0  0  0  # atno 10167 bound_to 10162
  156.4889  130.8338  151.2562 H   0  0  0  0  0  0  0  0  0  0  0  0  # atno 10718 bound_to 10713
  154.1735  135.6455  153.5015 H   0  0  0  0  0  0  0  0  0  0  0  0  # atno 10763 bound_to 10752
  153.0078  135.5389  154.6588 H   0  0  0  0  0  0  0  0  0  0  0  0  # atno 10764 bound_to 10752
  154.5933  135.2936  155.0584 H   0  0  0  0  0  0  0  0  0  0  0  0  # atno 10765 bound_to 10752
  140.3280  134.2469  155.7706 H   0  0  0  0  0  0  0  0  0  0  0  0  # atno 11005 bound_to 11000
  146.3018  140.3974  142.8701 LP  0  0  0  0  0  0  0  0  0  0  0  0  # atno 17320 bound_to 7965
  144.8811  140.7401  143.5986 LP  0  0  0  0  0  0  0  0  0  0  0  0  # atno 17321 bound_to 7965
  140.1183  144.5396  150.6879 LP  0  0  0  0  0  0  0  0  0  0  0  0  # atno 17342 bound_to 10162
  140.6990  143.2422  151.4918 LP  0  0  0  0  0  0  0  0  0  0  0  0  # atno 17343 bound_to 10162
  157.7476  131.0020  150.2984 LP  0  0  0  0  0  0  0  0  0  0  0  0  # atno 17370 bound_to 10713
  156.3446  130.3821  149.7380 LP  0  0  0  0  0  0  0  0  0  0  0  0  # atno 17371 bound_to 10713
  141.2070  133.7817  157.0142 LP  0  0  0  0  0  0  0  0  0  0  0  0  # atno 17394 bound_to 11000
  140.0885  134.9607  157.1738 LP  0  0  0  0  0  0  0  0  0  0  0  0  # atno 17395 bound_to 11000

$$$$
