#       Name:                AV-unprocessed.smi:2215
#       Creating user name   scv26
#       Creation time:       Fri Mar 27 12:18:07 2020


#       File generated by GOLD software.
#

@<TRIPOS>MOLECULE
AV-unprocessed.smi:2215
    45    46     1
SMALL
NO_CHARGES


@<TRIPOS>ATOM
      1 ****        -6.0325   3.7945   0.9802 C.3            1 S1                 0.0000
      2 ****        -4.8702   2.8264   1.0509 C.ar           1 S1                 0.0000
      3 ****        -5.0738   1.4595   1.3190 C.ar           1 S1                 0.0000
      4 ****        -3.9555   0.6057   1.3766 C.ar           1 S1                 0.0000
      5 ****        -2.6630   1.1361   1.1646 C.ar           1 S1                 0.0000
      6 ****        -1.6052   0.1921   1.2516 N.am           1 S1                 0.0000
      7 ****        -0.2849   0.4058   1.1129 C.2            1 S1                 0.0000
      8 ****         0.2394   1.4899   0.8553 O.2            1 S1                 0.0000
      9 ****         0.4095  -0.7275   1.2894 N.am           1 S1                 0.0000
     10 ****         1.8622  -0.8449   1.2067 C.3            1 S1                 0.0000
     11 ****         2.3755  -0.9026  -0.2507 C.3            1 S1                 0.0000
     12 ****         1.7752  -2.0746  -1.0613 C.3            1 S1                 0.0000
     13 ****         2.2739  -2.0692  -2.5153 C.3            1 S1                 0.0000
     14 ****         3.8080  -2.0941  -2.5843 C.3            1 S1                 0.0000
     15 ****         4.4219  -0.9352  -1.7798 C.3            1 S1                 0.0000
     16 ****         3.9220  -0.9114  -0.3224 C.3            1 S1                 0.0000
     17 ****         4.4591  -2.0232   0.3699 O.3            1 S1                 0.0000
     18 ****        -2.4775   2.4540   0.9028 N.ar           1 S1                 0.0000
     19 ****        -3.5497   3.2718   0.8483 C.ar           1 S1                 0.0000
     20 ****        -6.9571   3.3281   1.3217 H              1 S1                 0.0000
     21 ****        -6.1784   4.1342  -0.0453 H              1 S1                 0.0000
     22 ****        -5.8395   4.6652   1.6072 H              1 S1                 0.0000
     23 ****        -6.0674   1.0677   1.4796 H              1 S1                 0.0000
     24 ****        -4.0938  -0.4455   1.5838 H              1 S1                 0.0000
     25 ****        -1.8863  -0.7551   1.4564 H              1 S1                 0.0000
     26 ****        -0.1023  -1.5725   1.4971 H              1 S1                 0.0000
     27 ****         2.3265  -0.0126   1.7387 H              1 S1                 0.0000
     28 ****         2.1503  -1.7489   1.7437 H              1 S1                 0.0000
     29 ****         2.0508   0.0181  -0.7386 H              1 S1                 0.0000
     30 ****         2.0298  -3.0240  -0.5889 H              1 S1                 0.0000
     31 ****         0.6866  -2.0166  -1.0635 H              1 S1                 0.0000
     32 ****         1.8643  -2.9258  -3.0513 H              1 S1                 0.0000
     33 ****         1.9008  -1.1797  -3.0247 H              1 S1                 0.0000
     34 ****         4.1761  -3.0466  -2.2014 H              1 S1                 0.0000
     35 ****         4.1329  -2.0360  -3.6234 H              1 S1                 0.0000
     36 ****         5.5106  -0.9957  -1.8062 H              1 S1                 0.0000
     37 ****         4.1596   0.0079  -2.2609 H              1 S1                 0.0000
     38 ****         4.3077  -0.0151   0.1648 H              1 S1                 0.0000
     39 ****         4.1419  -2.8123  -0.0419 H              1 S1                 0.0000
     40 ****        -3.3463   4.3116   0.6383 H              1 S1                 0.0000
     41 ****        -0.3290   2.3033   0.7315 LP             1 S1                 0.0000
     42 ****         1.2335   1.5568   0.7699 LP             1 S1                 0.0000
     43 ****         4.1660  -1.9997   1.3257 LP             1 S1                 0.0000
     44 ****         5.4578  -1.9977   0.3268 LP             1 S1                 0.0000
     45 ****        -1.5574   2.8153   0.7520 LP             1 S1                 0.0000
@<TRIPOS>BOND
    1    1    2 1     
    2    1   20 1     
    3    1   21 1     
    4    1   22 1     
    5    2   19 ar    
    6    2    3 ar    
    7    3    4 ar    
    8    3   23 1     
    9    4    5 ar    
   10    4   24 1     
   11    5    6 1     
   12    5   18 ar    
   13    6    7 am    
   14    6   25 1     
   15    7    8 2     
   16    7    9 am    
   17    9   10 1     
   18    9   26 1     
   19   10   11 1     
   20   10   27 1     
   21   10   28 1     
   22   11   16 1     
   23   11   12 1     
   24   11   29 1     
   25   12   13 1     
   26   12   30 1     
   27   12   31 1     
   28   13   14 1     
   29   13   32 1     
   30   13   33 1     
   31   14   15 1     
   32   14   34 1     
   33   14   35 1     
   34   15   16 1     
   35   15   36 1     
   36   15   37 1     
   37   16   17 1     
   38   16   38 1     
   39   17   39 1     
   40   18   19 ar    
   41   19   40 1     
   42    8   41 1     
   43    8   42 1     
   44   17   43 1     
   45   17   44 1     
   46   18   45 1     
@<TRIPOS>SUBSTRUCTURE
      1 S1             1
@<TRIPOS>SET
LONE_PAIRS      STATIC     ATOMS    <user>   **** ""
5 41 42 43 44 45
DONOR_HYDROGENS      STATIC     ATOMS    <user>   **** ""
3 25 26 39
ATOM$BLUE        STATIC     ATOMS    COLORGROUP SYSTEM
5 41 42 43 44 45
ATOM$RED        STATIC     ATOMS    COLORGROUP SYSTEM
3 25 26 39
