AV-unprocessed.smi:79|AV-procd|sdf|779|dock1
  -GOLD-   2262017133D 1   1.00000     0.00000
 Structure written by MMmdl.
 56 59  0  0  0  0  0  0  0  0  2 V2000
  143.8875  132.5894  151.1919 C   0  0  0  0  0  0  0  0  0  0  0  0
  144.8234  133.7430  150.8078 C   0  0  2  0  0  0  0  0  0  0  0  0
  144.4978  134.1445  149.4920 O   0  0  0  0  0  0  0  0  0  0  0  0
  146.3050  133.3185  150.8638 C   0  0  0  0  0  0  0  0  0  0  0  0
  147.0281  133.8905  152.0285 N   0  3  1  0  0  0  0  0  0  0  0  0
  146.1279  134.4881  153.0473 C   0  0  0  0  0  0  0  0  0  0  0  0
  146.9377  135.1365  154.1794 C   0  0  0  0  0  0  0  0  0  0  0  0
  147.8896  134.1920  154.7552 N   0  0  0  0  0  0  0  0  0  0  0  0
  148.4844  134.7061  155.8549 C   0  0  0  0  0  0  0  0  0  0  0  0
  149.7834  135.0740  155.7394 N   0  0  0  0  0  0  0  0  0  0  0  0
  150.4258  135.5914  156.7914 C   0  0  0  0  0  0  0  0  0  0  0  0
  149.9640  135.8162  158.0237 N   0  0  0  0  0  0  0  0  0  0  0  0
  148.6578  135.4417  158.1421 C   0  0  0  0  0  0  0  0  0  0  0  0
  147.8474  134.8813  157.1157 C   0  0  0  0  0  0  0  0  0  0  0  0
  146.5730  134.6220  157.6049 N   0  0  0  0  0  0  0  0  0  0  0  0
  146.6275  135.0071  158.8510 C   0  0  0  0  0  0  0  0  0  0  0  0
  147.8396  135.5204  159.2558 N   0  0  0  0  0  0  0  0  0  0  0  0
  148.1788  136.0169  160.5807 C   0  0  0  0  0  0  0  0  0  0  0  0
  147.0930  135.7515  161.6426 C   0  0  0  0  0  0  0  0  0  0  0  0
  145.8052  136.5243  161.3073 C   0  0  0  0  0  0  0  0  0  0  0  0
  146.0896  137.8031  160.7775 O   0  0  0  0  0  0  0  0  0  0  0  0
  146.8678  134.2789  162.0146 C   0  0  0  0  0  0  0  0  0  0  0  0
  147.0167  134.5507  163.4237 O   0  0  0  0  0  0  0  0  0  0  0  0
  147.5466  135.8550  163.1051 C   0  0  0  0  0  0  0  0  0  0  0  0
  148.7867  133.5548  153.7842 C   0  0  1  0  0  0  0  0  0  0  0  0
  149.7079  132.4975  154.4262 C   0  0  0  0  0  0  0  0  0  0  0  0
  147.9659  132.9175  152.6429 C   0  0  0  0  0  0  0  0  0  0  0  0
  144.0793  132.2530  152.2111 H   0  0  0  0  0  0  0  0  0  0  0  0
  144.0168  131.7323  150.5300 H   0  0  0  0  0  0  0  0  0  0  0  0
  142.8422  132.8963  151.1387 H   0  0  0  0  0  0  0  0  0  0  0  0
  144.6285  134.5773  151.4806 H   0  0  0  0  0  0  0  0  0  0  0  0
  145.2659  134.0685  148.9472 H   0  0  0  0  0  0  0  0  0  0  0  0
  146.3898  132.2310  150.8920 H   0  0  0  0  0  0  0  0  0  0  0  0
  146.7882  133.6341  149.9376 H   0  0  0  0  0  0  0  0  0  0  0  0
  145.4821  135.2412  152.5976 H   0  0  0  0  0  0  0  0  0  0  0  0
  145.4757  133.7142  153.4551 H   0  0  0  0  0  0  0  0  0  0  0  0
  147.4731  136.0053  153.7934 H   0  0  0  0  0  0  0  0  0  0  0  0
  146.2595  135.4991  154.9537 H   0  0  0  0  0  0  0  0  0  0  0  0
  151.4571  135.8640  156.6217 H   0  0  0  0  0  0  0  0  0  0  0  0
  145.7780  134.9245  159.5132 H   0  0  0  0  0  0  0  0  0  0  0  0
  149.1198  135.5501  160.8747 H   0  0  0  0  0  0  0  0  0  0  0  0
  148.3971  137.0828  160.5074 H   0  0  0  0  0  0  0  0  0  0  0  0
  145.1768  135.9776  160.6042 H   0  0  0  0  0  0  0  0  0  0  0  0
  145.2006  136.6655  162.2040 H   0  0  0  0  0  0  0  0  0  0  0  0
  145.8584  137.8070  159.8609 H   0  0  0  0  0  0  0  0  0  0  0  0
  145.8761  133.9020  161.7612 H   0  0  0  0  0  0  0  0  0  0  0  0
  147.6444  133.6026  161.6546 H   0  0  0  0  0  0  0  0  0  0  0  0
  148.6296  135.8939  163.2322 H   0  0  0  0  0  0  0  0  0  0  0  0
  147.0607  136.6532  163.6673 H   0  0  0  0  0  0  0  0  0  0  0  0
  149.4155  134.3306  153.3456 H   0  0  0  0  0  0  0  0  0  0  0  0
  150.3268  132.0098  153.6725 H   0  0  0  0  0  0  0  0  0  0  0  0
  149.1294  131.7226  154.9306 H   0  0  0  0  0  0  0  0  0  0  0  0
  150.3869  132.9366  155.1578 H   0  0  0  0  0  0  0  0  0  0  0  0
  147.3983  132.0642  153.0191 H   0  0  0  0  0  0  0  0  0  0  0  0
  148.6456  132.5349  151.8801 H   0  0  0  0  0  0  0  0  0  0  0  0
  147.6031  134.6378  151.6674 H   0  0  0  0  0  0  0  0  0  0  0  0
  1  2  1  0  0  0  0
  1 28  1  0  0  0  0
  1 29  1  0  0  0  0
  1 30  1  0  0  0  0
  2  3  1  0  0  0  0
  2  4  1  0  0  0  0
  2 31  1  0  0  0  0
  3 32  1  0  0  0  0
  4  5  1  0  0  0  0
  4 33  1  0  0  0  0
  4 34  1  0  0  0  0
  5 27  1  0  0  0  0
  5  6  1  0  0  0  0
  5 56  1  0  0  0  0
  6  7  1  0  0  0  0
  6 35  1  0  0  0  0
  6 36  1  0  0  0  0
  7  8  1  0  0  0  0
  7 37  1  0  0  0  0
  7 38  1  0  0  0  0
  8  9  1  0  0  0  0
  8 25  1  0  0  0  0
  9 14  1  0  0  0  0
  9 10  2  0  0  0  0
 10 11  1  0  0  0  0
 11 12  2  0  0  0  0
 11 39  1  0  0  0  0
 12 13  1  0  0  0  0
 13 17  1  0  0  0  0
 13 14  2  0  0  0  0
 14 15  1  0  0  0  0
 15 16  2  0  0  0  0
 16 17  1  0  0  0  0
 16 40  1  0  0  0  0
 17 18  1  0  0  0  0
 18 19  1  0  0  0  0
 18 41  1  0  0  0  0
 18 42  1  0  0  0  0
 19 24  1  0  0  0  0
 19 20  1  0  0  0  0
 19 22  1  0  0  0  0
 20 21  1  0  0  0  0
 20 43  1  0  0  0  0
 20 44  1  0  0  0  0
 21 45  1  0  0  0  0
 22 23  1  0  0  0  0
 22 46  1  0  0  0  0
 22 47  1  0  0  0  0
 23 24  1  0  0  0  0
 24 48  1  0  0  0  0
 24 49  1  0  0  0  0
 25 26  1  0  0  0  0
 25 27  1  0  0  0  0
 25 50  1  0  0  0  0
 26 51  1  0  0  0  0
 26 52  1  0  0  0  0
 26 53  1  0  0  0  0
 27 54  1  0  0  0  0
 27 55  1  0  0  0  0
M  CHG  1   5   1
M  END
> <s_m_source_file>
AV-unprocessed.smi

> <i_m_source_file_index>
79

> <i_lp_mmshare_version>
43012

> <i_f3d_flags>
0

> <s_epik_input>
W0NIM11bQ0BIXShbT0hdKVtDSDJdTjFbQ0gyXVtDSDJdTihbQ0BASF0oW0NIM10pW0NIMl0xKWMobltjSF1uMiljKGMyMyluW2NIXW4zW0NIMl1DNChbQ0gyXVtPSF0pW0NIMl1PW0NIMl00

> <s_epik_cmdline>
J2VwaWtfcHl0aG9uJywgJy1waCcsICc3LjAnLCAnLXRuJywgJzgnLCAnLW1hJywgJzIwMCcsICctbWV0YWxfYmluZGluZycsICctaW1hZScsICc8aW5maWxlLm1hZT4nLCAnLW9tYWUnLCAnPG91dGZpbGUubWFlPic=

> <r_lp_tautomer_probability>
1

> <r_epik_Ionization_Penalty>
0.00515943

> <r_epik_Ionization_Penalty_Charging>
0.00509693

> <r_epik_Ionization_Penalty_Neutral>
6.25007e-05

> <r_epik_State_Penalty>
-0

> <r_epik_Charging_Adjusted_Penalty>
0.00509693

> <i_epik_Tot_Q>
1

> <i_epik_Tot_abs_Q>
1

> <r_epik_Metal_State_Penalty>
-0

> <b_epik_Metal_Only>
0

> <s_lp_Force_Field>
OPLS_2005

> <r_lp_Energy>
50.7064

> <b_lp_Chiralities_Consistent>
1

> <s_lp_Variant>
AV-unprocessed.smi:79-3

> <Gold.Version>
5.8.1

> <Gold.Id.Protein>
6NUR|6NUR_protein|mol2

> <Gold.PLP.Fitness>
51.4148

> <Gold.PLP.PLP>
-42.2080

> <Gold.PLP.part.hbond>
-4.8490

> <Gold.PLP.part.metal>
0.0000

> <Gold.PLP.part.buried>
-6.3896

> <Gold.PLP.part.nonpolar>
-31.6820

> <Gold.PLP.part.repulsive>
0.1906

> <Gold.PLP.ligand.clash>
1.9161

> <Gold.PLP.ligand.torsion>
2.3102

> <Gold.PLP.Chemscore.Hbond>
4.9200

> <Gold.PLP.Chemscore.CHOScore>
0.0000

> <Gold.PLP.Chemscore.Metal>
0.0000

> <Gold.Chemscore.Hbonds>
donor molecule, donor type, donor heavy atom, donor atom, acceptor molecule, acceptor atom, score
      L1  H     3    32       P1  7921  0.88
      L1  H     5    56       P1  7948  1.95
      P1  H  6896  6907       L1    12  0.70
      P1  H  6934  6947       L1    21  1.00

> <Gold.PLP.Chemscore.Internal.Correction>
0.9833

> <Gold.Rescore>
     Score         DG    S(hbond)    S(metal)    S(lipo)     H(rot)  DE(clash)    DE(int)     intcor
      9.81     -16.06       3.24        0.00      79.42       3.72       1.40       4.85       ----

> <Gold.Chemscore.Fitness>
9.8098

> <Gold.Chemscore.DG>
-16.0613

> <Gold.Chemscore.ZeroCoef>
-5.4800

> <Gold.Chemscore.Hbond>
3.2393

> <Gold.Chemscore.Metal>
0.0000

> <Gold.Chemscore.Lipo>
79.4173

> <Gold.Chemscore.Internal_Hbond>
0.0000

> <Gold.Chemscore.DEClash>
1.3974

> <Gold.Chemscore.DEInternal>
4.8541

> <Gold.Chemscore.Rot>
3.7226

> <Gold.Chemscore.Internal.Correction>
   9.000000E+99

> <Gold.Chemscore.Hbonds>
donor molecule, donor type, donor heavy atom, donor atom, acceptor molecule, acceptor atom, score
      L1  H     3    32       P1  7921  0.82
      L1  H     5    56       P1  7948  0.31
      P1  H  6896  6907       L1    12  0.11
      P1  H  6934  6947       L1    21  0.44

> <Gold.Chemscore.Hbond.Weighted>
-10.8193

> <Gold.Chemscore.Metal.Weighted>
-0.0000

> <Gold.Chemscore.Lipo.Weighted>
-9.2918

> <Gold.Chemscore.Internal_Hbond.Weighted>
0.0000

> <Gold.Chemscore.DEClash.Weighted>
1.3974

> <Gold.Chemscore.DEInternal.Weighted>
4.8541

> <Gold.Chemscore.Rot.Weighted>
9.5298

> <Gold.Chemscore.Internal.Correction.Weighted>
   9.000000E+99

> <Gold.Protein.RotatedTorsions>
[ 6907 6896 6895 6894 ] final  -67.23 input  -60.11 | X-H torsion
[ 7974 7965 7964 7962 ] final  149.18 input  175.53 | X-H torsion
[ 8008 7997 7996 7995 ] final  -72.50 input   59.86 | X-H torsion
[ 10167 10162 10161 10158 ] final -117.80 input  -65.29 | X-H torsion
[ 10718 10713 10712 10709 ] final   19.46 input   66.30 | X-H torsion
[ 10763 10752 10751 10750 ] final  163.39 input  -60.55 | X-H torsion
[ 11005 11000 10999 10996 ] final  -12.26 input  -57.11 | X-H torsion

> <Gold.Protein.ActiveResidues>
 VAL166  LYS551  ARG553  GLY616  TRP617  ASP618  TYR619  PRO620  LYS621  CYS622 
 ASP623  PHE694  ASN695  SER759  ASP760  ASP761  ALA762  ILE779  LEU786  VAL792 
 PHE793  MET794  SER795  GLU796  ALA797  LYS798  CYS799  TRP800  GLU811  SER814 

> <Gold.Protein.RotatedAtoms>
  150.7421  134.5909  159.5986 H   0  0  0  0  0  0  0  0  0  0  0  0  # atno 6907 bound_to 6896
  152.3297  134.7272  160.0301 H   0  0  0  0  0  0  0  0  0  0  0  0  # atno 6908 bound_to 6896
  151.7760  133.3309  159.3494 H   0  0  0  0  0  0  0  0  0  0  0  0  # atno 6909 bound_to 6896
  144.8457  139.6247  143.5996 H   0  0  0  0  0  0  0  0  0  0  0  0  # atno 7974 bound_to 7965
  154.5171  140.0796  156.8102 H   0  0  0  0  0  0  0  0  0  0  0  0  # atno 8008 bound_to 7997
  155.3656  140.3420  155.4223 H   0  0  0  0  0  0  0  0  0  0  0  0  # atno 8009 bound_to 7997
  156.1640  140.1598  156.8550 H   0  0  0  0  0  0  0  0  0  0  0  0  # atno 8010 bound_to 7997
  140.0645  143.4936  152.2014 H   0  0  0  0  0  0  0  0  0  0  0  0  # atno 10167 bound_to 10162
  157.1107  130.6507  149.5897 H   0  0  0  0  0  0  0  0  0  0  0  0  # atno 10718 bound_to 10713
  154.2930  135.2760  155.2646 H   0  0  0  0  0  0  0  0  0  0  0  0  # atno 10763 bound_to 10752
  154.5117  135.5780  153.6613 H   0  0  0  0  0  0  0  0  0  0  0  0  # atno 10764 bound_to 10752
  152.9911  135.6182  154.3095 H   0  0  0  0  0  0  0  0  0  0  0  0  # atno 10765 bound_to 10752
  140.7639  133.8493  155.9148 H   0  0  0  0  0  0  0  0  0  0  0  0  # atno 11005 bound_to 11000
  146.2742  139.6711  142.9274 LP  0  0  0  0  0  0  0  0  0  0  0  0  # atno 17320 bound_to 7965
  145.4601  141.0432  143.2756 LP  0  0  0  0  0  0  0  0  0  0  0  0  # atno 17321 bound_to 7965
  139.5874  144.7536  151.3487 LP  0  0  0  0  0  0  0  0  0  0  0  0  # atno 17342 bound_to 10162
  140.7156  143.7275  150.7648 LP  0  0  0  0  0  0  0  0  0  0  0  0  # atno 17343 bound_to 10162
  155.9851  130.4879  150.7015 LP  0  0  0  0  0  0  0  0  0  0  0  0  # atno 17370 bound_to 10713
  157.4561  131.0878  151.0795 LP  0  0  0  0  0  0  0  0  0  0  0  0  # atno 17371 bound_to 10713
  140.9638  134.1621  157.4633 LP  0  0  0  0  0  0  0  0  0  0  0  0  # atno 17394 bound_to 11000
  139.8766  134.9954  156.5742 LP  0  0  0  0  0  0  0  0  0  0  0  0  # atno 17395 bound_to 11000

$$$$
