AV-unprocessed.smi:249|AV-procd|sdf|1907|dock9
  -GOLD-   2262020593D 1   1.00000     0.00000
 Structure written by MMmdl.
 64 67  0  0  0  0  0  0  0  0  2 V2000
  143.2678  132.7648  151.3803 C   0  0  0  0  0  0  0  0  0  0  0  0
  144.4968  133.4289  152.0199 C   0  0  0  0  0  0  0  0  0  0  0  0
  144.2605  133.8700  153.4263 N   0  3  1  0  0  0  0  0  0  0  0  0
  145.4922  133.9179  154.2646 C   0  0  0  0  0  0  0  0  0  0  0  0
  146.3971  135.1081  153.8917 C   0  0  0  0  0  0  0  0  0  0  0  0
  145.6203  136.4349  153.9850 C   0  0  1  0  0  0  0  0  0  0  0  0
  146.4470  137.5875  153.6186 N   0  0  0  0  0  0  0  0  0  0  0  0
  146.2921  138.2522  152.3267 C   0  0  0  0  0  0  0  0  0  0  0  0
  147.4918  137.9495  154.4088 C   0  0  0  0  0  0  0  0  0  0  0  0
  148.2503  136.9695  154.9672 N   0  0  0  0  0  0  0  0  0  0  0  0
  149.2779  137.2774  155.7633 C   0  0  0  0  0  0  0  0  0  0  0  0
  149.7219  138.4823  156.1228 N   0  0  0  0  0  0  0  0  0  0  0  0
  148.9811  139.4731  155.5503 C   0  0  0  0  0  0  0  0  0  0  0  0
  147.8588  139.2991  154.6901 C   0  0  0  0  0  0  0  0  0  0  0  0
  147.3724  140.5429  154.3002 N   0  0  0  0  0  0  0  0  0  0  0  0
  148.1492  141.3983  154.9061 C   0  0  0  0  0  0  0  0  0  0  0  0
  149.1543  140.8419  155.6634 N   0  0  0  0  0  0  0  0  0  0  0  0
  150.1470  141.5580  156.4459 C   0  0  0  0  0  0  0  0  0  0  0  0
  149.7926  141.7473  157.9477 C   0  0  2  0  0  0  0  0  0  0  0  0
  148.4288  142.4717  158.0575 C   0  0  0  0  0  0  0  0  0  0  0  0
  148.0690  142.6927  159.4059 O   0  0  0  0  0  0  0  0  0  0  0  0
  150.9009  142.4926  158.7506 C   0  0  1  0  0  0  0  0  0  0  0  0
  152.2220  141.7468  158.8718 C   0  0  0  0  0  0  0  0  0  0  0  0
  153.1890  142.8560  159.2572 C   0  0  0  0  0  0  0  0  0  0  0  0
  152.7613  143.9746  158.4976 O   0  0  0  0  0  0  0  0  0  0  0  0
  151.3908  143.8182  158.1418 C   0  0  0  0  0  0  0  0  0  0  0  0
  144.3217  136.3636  153.1588 C   0  0  0  0  0  0  0  0  0  0  0  0
  143.4809  135.1379  153.5721 C   0  0  1  0  0  0  0  0  0  0  0  0
  142.1074  135.1020  152.8787 C   0  0  0  0  0  0  0  0  0  0  0  0
  143.4346  132.6034  150.3150 H   0  0  0  0  0  0  0  0  0  0  0  0
  142.3807  133.3906  151.4824 H   0  0  0  0  0  0  0  0  0  0  0  0
  143.0511  131.7906  151.8171 H   0  0  0  0  0  0  0  0  0  0  0  0
  145.3570  132.7627  151.9581 H   0  0  0  0  0  0  0  0  0  0  0  0
  144.7362  134.2905  151.4000 H   0  0  0  0  0  0  0  0  0  0  0  0
  145.1908  134.0114  155.3089 H   0  0  0  0  0  0  0  0  0  0  0  0
  146.0483  132.9835  154.2101 H   0  0  0  0  0  0  0  0  0  0  0  0
  147.2560  135.1373  154.5632 H   0  0  0  0  0  0  0  0  0  0  0  0
  146.8015  134.9639  152.8900 H   0  0  0  0  0  0  0  0  0  0  0  0
  145.3356  136.5252  155.0325 H   0  0  0  0  0  0  0  0  0  0  0  0
  146.4316  139.3292  152.4271 H   0  0  0  0  0  0  0  0  0  0  0  0
  145.3003  138.0844  151.9082 H   0  0  0  0  0  0  0  0  0  0  0  0
  147.0259  137.8747  151.6137 H   0  0  0  0  0  0  0  0  0  0  0  0
  149.8225  136.4381  156.1700 H   0  0  0  0  0  0  0  0  0  0  0  0
  148.0165  142.4659  154.8064 H   0  0  0  0  0  0  0  0  0  0  0  0
  151.1007  141.0364  156.3550 H   0  0  0  0  0  0  0  0  0  0  0  0
  150.2854  142.5247  155.9612 H   0  0  0  0  0  0  0  0  0  0  0  0
  149.6643  140.7640  158.4019 H   0  0  0  0  0  0  0  0  0  0  0  0
  148.4561  143.4522  157.5842 H   0  0  0  0  0  0  0  0  0  0  0  0
  147.6436  141.8984  157.5637 H   0  0  0  0  0  0  0  0  0  0  0  0
  147.1295  142.6252  159.4825 H   0  0  0  0  0  0  0  0  0  0  0  0
  150.5378  142.6890  159.7610 H   0  0  0  0  0  0  0  0  0  0  0  0
  152.2017  140.9483  159.6139 H   0  0  0  0  0  0  0  0  0  0  0  0
  152.5103  141.3177  157.9108 H   0  0  0  0  0  0  0  0  0  0  0  0
  153.0984  143.0918  160.3184 H   0  0  0  0  0  0  0  0  0  0  0  0
  154.2287  142.6028  159.0492 H   0  0  0  0  0  0  0  0  0  0  0  0
  151.3293  143.8013  157.0534 H   0  0  0  0  0  0  0  0  0  0  0  0
  150.8175  144.6720  158.5008 H   0  0  0  0  0  0  0  0  0  0  0  0
  143.7425  137.2747  153.3144 H   0  0  0  0  0  0  0  0  0  0  0  0
  144.5418  136.3230  152.0920 H   0  0  0  0  0  0  0  0  0  0  0  0
  143.2681  135.2368  154.6380 H   0  0  0  0  0  0  0  0  0  0  0  0
  141.4998  135.9520  153.1906 H   0  0  0  0  0  0  0  0  0  0  0  0
  141.5572  134.1963  153.1355 H   0  0  0  0  0  0  0  0  0  0  0  0
  142.1902  135.1554  151.7932 H   0  0  0  0  0  0  0  0  0  0  0  0
  143.6799  133.1496  153.8316 H   0  0  0  0  0  0  0  0  0  0  0  0
  1  2  1  0  0  0  0
  1 30  1  0  0  0  0
  1 31  1  0  0  0  0
  1 32  1  0  0  0  0
  2  3  1  0  0  0  0
  2 33  1  0  0  0  0
  2 34  1  0  0  0  0
  3 28  1  0  0  0  0
  3  4  1  0  0  0  0
  3 64  1  0  0  0  0
  4  5  1  0  0  0  0
  4 35  1  0  0  0  0
  4 36  1  0  0  0  0
  5  6  1  0  0  0  0
  5 37  1  0  0  0  0
  5 38  1  0  0  0  0
  6  7  1  0  0  0  0
  6 27  1  0  0  0  0
  6 39  1  0  0  0  0
  7  8  1  0  0  0  0
  7  9  1  0  0  0  0
  8 40  1  0  0  0  0
  8 41  1  0  0  0  0
  8 42  1  0  0  0  0
  9 14  1  0  0  0  0
  9 10  2  0  0  0  0
 10 11  1  0  0  0  0
 11 12  2  0  0  0  0
 11 43  1  0  0  0  0
 12 13  1  0  0  0  0
 13 17  1  0  0  0  0
 13 14  2  0  0  0  0
 14 15  1  0  0  0  0
 15 16  2  0  0  0  0
 16 17  1  0  0  0  0
 16 44  1  0  0  0  0
 17 18  1  0  0  0  0
 18 19  1  0  0  0  0
 18 45  1  0  0  0  0
 18 46  1  0  0  0  0
 19 20  1  0  0  0  0
 19 22  1  0  0  0  0
 19 47  1  0  0  0  0
 20 21  1  0  0  0  0
 20 48  1  0  0  0  0
 20 49  1  0  0  0  0
 21 50  1  0  0  0  0
 22 26  1  0  0  0  0
 22 23  1  0  0  0  0
 22 51  1  0  0  0  0
 23 24  1  0  0  0  0
 23 52  1  0  0  0  0
 23 53  1  0  0  0  0
 24 25  1  0  0  0  0
 24 54  1  0  0  0  0
 24 55  1  0  0  0  0
 25 26  1  0  0  0  0
 26 56  1  0  0  0  0
 26 57  1  0  0  0  0
 27 28  1  0  0  0  0
 27 58  1  0  0  0  0
 27 59  1  0  0  0  0
 28 29  1  0  0  0  0
 28 60  1  0  0  0  0
 29 61  1  0  0  0  0
 29 62  1  0  0  0  0
 29 63  1  0  0  0  0
M  CHG  1   3   1
M  END
> <s_m_source_file>
AV-unprocessed.smi

> <i_m_source_file_index>
249

> <i_lp_mmshare_version>
43012

> <i_f3d_flags>
0

> <s_epik_input>
W0NIM11bQ0gyXU4xW0NIMl1bQ0gyXVtDQEhdKFtDSDJdW0NASF0xW0NIM10pTihbQ0gzXSljKG5bY0hdbjIpYyhjMjMpbltjSF1uM1tDSDJdW0NASF0oW0NIMl1bT0hdKVtDQEBIXTRbQ0gyXVtDSDJdT1tDSDJdNA==

> <s_epik_cmdline>
J2VwaWtfcHl0aG9uJywgJy1waCcsICc3LjAnLCAnLXRuJywgJzgnLCAnLW1hJywgJzIwMCcsICctbWV0YWxfYmluZGluZycsICctaW1hZScsICc8aW5maWxlLm1hZT4nLCAnLW9tYWUnLCAnPG91dGZpbGUubWFlPic=

> <r_lp_tautomer_probability>
1

> <r_epik_Ionization_Penalty>
0.00294688

> <r_epik_Ionization_Penalty_Charging>
0.00169971

> <r_epik_Ionization_Penalty_Neutral>
0.00124717

> <r_epik_State_Penalty>
-0

> <r_epik_Charging_Adjusted_Penalty>
0.00169971

> <i_epik_Tot_Q>
1

> <i_epik_Tot_abs_Q>
1

> <r_epik_Metal_State_Penalty>
-0

> <b_epik_Metal_Only>
0

> <s_lp_Force_Field>
OPLS_2005

> <r_lp_Energy>
54.7906

> <b_lp_Chiralities_Consistent>
1

> <s_lp_Variant>
AV-unprocessed.smi:249-10

> <Gold.Version>
5.8.1

> <Gold.Id.Protein>
6NUR|6NUR_protein|mol2

> <Gold.PLP.Fitness>
45.2671

> <Gold.PLP.PLP>
-38.4329

> <Gold.PLP.part.hbond>
-2.3281

> <Gold.PLP.part.metal>
0.0000

> <Gold.PLP.part.buried>
-8.3844

> <Gold.PLP.part.nonpolar>
-30.6886

> <Gold.PLP.part.repulsive>
0.2557

> <Gold.PLP.ligand.clash>
0.0000

> <Gold.PLP.ligand.torsion>
1.7125

> <Gold.PLP.Chemscore.Hbond>
2.3182

> <Gold.PLP.Chemscore.CHOScore>
1.0000

> <Gold.PLP.Chemscore.Metal>
0.0000

> <Gold.Chemscore.Hbonds>
donor molecule, donor type, donor heavy atom, donor atom, acceptor molecule, acceptor atom, score
      L1  H     3    64       P1 10957  2.00
      P1  H  6933  6944       L1    21  0.35
      L1  C    16    44       P1  8028  0.99

> <Gold.PLP.Chemscore.Internal.Correction>
0.3044

> <Gold.Rescore>
     Score         DG    S(hbond)    S(metal)    S(lipo)     H(rot)  DE(clash)    DE(int)     intcor
     12.04     -14.31       1.62        0.00      87.32       2.65       0.13       2.13       ----

> <Gold.Chemscore.Fitness>
12.0441

> <Gold.Chemscore.DG>
-14.3053

> <Gold.Chemscore.ZeroCoef>
-5.4800

> <Gold.Chemscore.Hbond>
1.6159

> <Gold.Chemscore.Metal>
0.0000

> <Gold.Chemscore.Lipo>
87.3183

> <Gold.Chemscore.Internal_Hbond>
0.0000

> <Gold.Chemscore.DEClash>
0.1276

> <Gold.Chemscore.DEInternal>
2.1335

> <Gold.Chemscore.Rot>
2.6515

> <Gold.Chemscore.Internal.Correction>
   9.000000E+99

> <Gold.Chemscore.Hbonds>
donor molecule, donor type, donor heavy atom, donor atom, acceptor molecule, acceptor atom, score
      L1  H     3    64       P1 10957  0.98
      P1  H  6933  6944       L1    21  0.06

> <Gold.Chemscore.Hbond.Weighted>
-5.3970

> <Gold.Chemscore.Metal.Weighted>
-0.0000

> <Gold.Chemscore.Lipo.Weighted>
-10.2162

> <Gold.Chemscore.Internal_Hbond.Weighted>
0.0000

> <Gold.Chemscore.DEClash.Weighted>
0.1276

> <Gold.Chemscore.DEInternal.Weighted>
2.1335

> <Gold.Chemscore.Rot.Weighted>
6.7880

> <Gold.Chemscore.Internal.Correction.Weighted>
   9.000000E+99

> <Gold.Protein.RotatedTorsions>
[ 6907 6896 6895 6894 ] final   94.47 input  -60.11 | X-H torsion
[ 7974 7965 7964 7962 ] final  -56.91 input  175.53 | X-H torsion
[ 8008 7997 7996 7995 ] final -109.64 input   59.86 | X-H torsion
[ 10167 10162 10161 10158 ] final -173.23 input  -65.29 | X-H torsion
[ 10718 10713 10712 10709 ] final  104.65 input   66.30 | X-H torsion
[ 10763 10752 10751 10750 ] final  -32.78 input  -60.55 | X-H torsion
[ 11005 11000 10999 10996 ] final  174.33 input  -57.11 | X-H torsion

> <Gold.Protein.ActiveResidues>
 VAL166  LYS551  ARG553  GLY616  TRP617  ASP618  TYR619  PRO620  LYS621  CYS622 
 ASP623  PHE694  ASN695  SER759  ASP760  ASP761  ALA762  ILE779  LEU786  VAL792 
 PHE793  MET794  SER795  GLU796  ALA797  LYS798  CYS799  TRP800  GLU811  SER814 

> <Gold.Protein.RotatedAtoms>
  152.5449  134.1188  159.8389 H   0  0  0  0  0  0  0  0  0  0  0  0  # atno 6907 bound_to 6896
  151.1247  133.5072  159.2608 H   0  0  0  0  0  0  0  0  0  0  0  0  # atno 6908 bound_to 6896
  151.1741  135.0341  159.8819 H   0  0  0  0  0  0  0  0  0  0  0  0  # atno 6909 bound_to 6896
  145.8572  140.8311  142.9955 H   0  0  0  0  0  0  0  0  0  0  0  0  # atno 7974 bound_to 7965
  154.9625  140.0399  157.2196 H   0  0  0  0  0  0  0  0  0  0  0  0  # atno 8008 bound_to 7997
  154.7876  140.2830  155.5994 H   0  0  0  0  0  0  0  0  0  0  0  0  # atno 8009 bound_to 7997
  156.2945  140.2579  156.2716 H   0  0  0  0  0  0  0  0  0  0  0  0  # atno 8010 bound_to 7997
  139.5700  144.1664  152.1370 H   0  0  0  0  0  0  0  0  0  0  0  0  # atno 10167 bound_to 10162
  157.6733  131.0809  150.5738 H   0  0  0  0  0  0  0  0  0  0  0  0  # atno 10718 bound_to 10713
  153.8194  135.6875  153.4829 H   0  0  0  0  0  0  0  0  0  0  0  0  # atno 10763 bound_to 10752
  153.1578  135.4592  154.9728 H   0  0  0  0  0  0  0  0  0  0  0  0  # atno 10764 bound_to 10752
  154.7934  135.3310  154.7668 H   0  0  0  0  0  0  0  0  0  0  0  0  # atno 10765 bound_to 10752
  140.3501  134.7202  157.4262 H   0  0  0  0  0  0  0  0  0  0  0  0  # atno 11005 bound_to 11000
  144.6727  140.1041  143.7459 LP  0  0  0  0  0  0  0  0  0  0  0  0  # atno 17320 bound_to 7965
  145.9290  139.2594  143.1336 LP  0  0  0  0  0  0  0  0  0  0  0  0  # atno 17321 bound_to 7965
  140.1195  144.5386  150.6872 LP  0  0  0  0  0  0  0  0  0  0  0  0  # atno 17342 bound_to 10162
  140.6984  143.2419  151.4934 LP  0  0  0  0  0  0  0  0  0  0  0  0  # atno 17343 bound_to 10162
  156.6039  130.4362  149.5886 LP  0  0  0  0  0  0  0  0  0  0  0  0  # atno 17370 bound_to 10713
  156.2484  130.6893  151.1622 LP  0  0  0  0  0  0  0  0  0  0  0  0  # atno 17371 bound_to 10713
  140.0710  134.5863  155.8642 LP  0  0  0  0  0  0  0  0  0  0  0  0  # atno 17394 bound_to 11000
  141.2014  133.6618  156.5950 LP  0  0  0  0  0  0  0  0  0  0  0  0  # atno 17395 bound_to 11000

$$$$
