AV-unprocessed.smi:282|AV-procd|sdf|2123|dock10
  -GOLD-   2262021423D 1   1.00000     0.00000
 Structure written by MMmdl.
 65 69  0  0  0  0  0  0  0  0  2 V2000
  149.1431  128.8094  153.6647 C   0  0  0  0  0  0  0  0  0  0  0  0
  148.0378  129.3119  154.6081 C   0  0  0  0  0  0  0  0  0  0  0  0
  147.2527  130.5520  154.1047 C   0  0  2  0  0  0  0  0  0  0  0  0
  146.7029  130.3229  152.6798 C   0  0  0  0  0  0  0  0  0  0  0  0
  145.9655  131.5054  152.1727 N   0  3  2  0  0  0  0  0  0  0  0  0
  145.3788  131.2562  150.8306 C   0  0  0  0  0  0  0  0  0  0  0  0
  144.5423  132.4533  150.3536 C   0  0  0  0  0  0  0  0  0  0  0  0
  145.3856  133.7330  150.3448 C   0  0  0  0  0  0  0  0  0  0  0  0
  145.9912  133.9650  151.7344 C   0  0  0  0  0  0  0  0  0  0  0  0
  146.7978  132.7408  152.2136 C   0  0  1  0  0  0  0  0  0  0  0  0
  147.3415  132.9766  153.6341 C   0  0  0  0  0  0  0  0  0  0  0  0
  148.0259  131.8003  154.1626 N   0  0  0  0  0  0  0  0  0  0  0  0
  148.6191  132.1056  155.3408 C   0  0  0  0  0  0  0  0  0  0  0  0
  149.9712  132.2222  155.4178 N   0  0  0  0  0  0  0  0  0  0  0  0
  150.5499  132.5077  156.5882 C   0  0  0  0  0  0  0  0  0  0  0  0
  149.9759  132.7054  157.7771 N   0  0  0  0  0  0  0  0  0  0  0  0
  148.6195  132.5799  157.7020 C   0  0  0  0  0  0  0  0  0  0  0  0
  147.8685  132.2754  156.5332 C   0  0  0  0  0  0  0  0  0  0  0  0
  146.5150  132.2123  156.8356 N   0  0  0  0  0  0  0  0  0  0  0  0
  146.4674  132.4674  158.1150 C   0  0  0  0  0  0  0  0  0  0  0  0
  147.6831  132.7190  158.7125 N   0  0  0  0  0  0  0  0  0  0  0  0
  147.9168  133.0324  160.1154 C   0  0  0  0  0  0  0  0  0  0  0  0
  147.3766  134.4197  160.5754 C   0  0  0  0  0  0  0  0  0  0  0  0
  145.8405  134.5193  160.3492 C   0  0  0  0  0  0  0  0  0  0  0  0
  145.1240  133.5631  161.1045 O   0  0  0  0  0  0  0  0  0  0  0  0
  147.7396  134.6144  162.0692 C   0  0  0  0  0  0  0  0  0  0  0  0
  147.5181  136.0567  162.5596 C   0  0  0  0  0  0  0  0  0  0  0  0
  148.2603  136.9623  161.7535 O   0  0  0  0  0  0  0  0  0  0  0  0
  147.8569  136.9451  160.3906 C   0  0  0  0  0  0  0  0  0  0  0  0
  148.0894  135.5476  159.7874 C   0  0  0  0  0  0  0  0  0  0  0  0
  149.6729  127.9684  154.1123 H   0  0  0  0  0  0  0  0  0  0  0  0
  149.8804  129.5853  153.4589 H   0  0  0  0  0  0  0  0  0  0  0  0
  148.7400  128.4660  152.7127 H   0  0  0  0  0  0  0  0  0  0  0  0
  147.3349  128.4977  154.7875 H   0  0  0  0  0  0  0  0  0  0  0  0
  148.4815  129.5194  155.5817 H   0  0  0  0  0  0  0  0  0  0  0  0
  146.3893  130.6791  154.7600 H   0  0  0  0  0  0  0  0  0  0  0  0
  147.5159  130.1046  151.9864 H   0  0  0  0  0  0  0  0  0  0  0  0
  146.0420  129.4551  152.6764 H   0  0  0  0  0  0  0  0  0  0  0  0
  146.1771  131.0511  150.1154 H   0  0  0  0  0  0  0  0  0  0  0  0
  144.7498  130.3659  150.8667 H   0  0  0  0  0  0  0  0  0  0  0  0
  144.1484  132.2598  149.3554 H   0  0  0  0  0  0  0  0  0  0  0  0
  143.6791  132.5841  151.0077 H   0  0  0  0  0  0  0  0  0  0  0  0
  146.1809  133.6487  149.6031 H   0  0  0  0  0  0  0  0  0  0  0  0
  144.7734  134.5866  150.0526 H   0  0  0  0  0  0  0  0  0  0  0  0
  146.6304  134.8486  151.7127 H   0  0  0  0  0  0  0  0  0  0  0  0
  145.1915  134.1811  152.4443 H   0  0  0  0  0  0  0  0  0  0  0  0
  147.6448  132.5967  151.5400 H   0  0  0  0  0  0  0  0  0  0  0  0
  148.0236  133.8283  153.6236 H   0  0  0  0  0  0  0  0  0  0  0  0
  146.5214  133.2379  154.3054 H   0  0  0  0  0  0  0  0  0  0  0  0
  151.6268  132.5888  156.5702 H   0  0  0  0  0  0  0  0  0  0  0  0
  145.5355  132.4872  158.6613 H   0  0  0  0  0  0  0  0  0  0  0  0
  147.4725  132.2364  160.7145 H   0  0  0  0  0  0  0  0  0  0  0  0
  148.9906  132.9676  160.2967 H   0  0  0  0  0  0  0  0  0  0  0  0
  145.4562  135.5016  160.6182 H   0  0  0  0  0  0  0  0  0  0  0  0
  145.5932  134.3835  159.2962 H   0  0  0  0  0  0  0  0  0  0  0  0
  144.6628  134.0117  161.7968 H   0  0  0  0  0  0  0  0  0  0  0  0
  147.1805  133.9202  162.6971 H   0  0  0  0  0  0  0  0  0  0  0  0
  148.7916  134.3682  162.2207 H   0  0  0  0  0  0  0  0  0  0  0  0
  146.4614  136.3249  162.5571 H   0  0  0  0  0  0  0  0  0  0  0  0
  147.8594  136.1521  163.5906 H   0  0  0  0  0  0  0  0  0  0  0  0
  146.8150  137.2542  160.3013 H   0  0  0  0  0  0  0  0  0  0  0  0
  148.4454  137.6836  159.8460 H   0  0  0  0  0  0  0  0  0  0  0  0
  149.1640  135.3609  159.7808 H   0  0  0  0  0  0  0  0  0  0  0  0
  147.7748  135.5470  158.7434 H   0  0  0  0  0  0  0  0  0  0  0  0
  145.1927  131.6577  152.8048 H   0  0  0  0  0  0  0  0  0  0  0  0
  1  2  1  0  0  0  0
  1 31  1  0  0  0  0
  1 32  1  0  0  0  0
  1 33  1  0  0  0  0
  2  3  1  0  0  0  0
  2 34  1  0  0  0  0
  2 35  1  0  0  0  0
  3 12  1  0  0  0  0
  3  4  1  0  0  0  0
  3 36  1  0  0  0  0
  4  5  1  0  0  0  0
  4 37  1  0  0  0  0
  4 38  1  0  0  0  0
  5 10  1  0  0  0  0
  5  6  1  0  0  0  0
  5 65  1  0  0  0  0
  6  7  1  0  0  0  0
  6 39  1  0  0  0  0
  6 40  1  0  0  0  0
  7  8  1  0  0  0  0
  7 41  1  0  0  0  0
  7 42  1  0  0  0  0
  8  9  1  0  0  0  0
  8 43  1  0  0  0  0
  8 44  1  0  0  0  0
  9 10  1  0  0  0  0
  9 45  1  0  0  0  0
  9 46  1  0  0  0  0
 10 11  1  0  0  0  0
 10 47  1  0  0  0  0
 11 12  1  0  0  0  0
 11 48  1  0  0  0  0
 11 49  1  0  0  0  0
 12 13  1  0  0  0  0
 13 18  1  0  0  0  0
 13 14  2  0  0  0  0
 14 15  1  0  0  0  0
 15 16  2  0  0  0  0
 15 50  1  0  0  0  0
 16 17  1  0  0  0  0
 17 21  1  0  0  0  0
 17 18  2  0  0  0  0
 18 19  1  0  0  0  0
 19 20  2  0  0  0  0
 20 21  1  0  0  0  0
 20 51  1  0  0  0  0
 21 22  1  0  0  0  0
 22 23  1  0  0  0  0
 22 52  1  0  0  0  0
 22 53  1  0  0  0  0
 23 30  1  0  0  0  0
 23 24  1  0  0  0  0
 23 26  1  0  0  0  0
 24 25  1  0  0  0  0
 24 54  1  0  0  0  0
 24 55  1  0  0  0  0
 25 56  1  0  0  0  0
 26 27  1  0  0  0  0
 26 57  1  0  0  0  0
 26 58  1  0  0  0  0
 27 28  1  0  0  0  0
 27 59  1  0  0  0  0
 27 60  1  0  0  0  0
 28 29  1  0  0  0  0
 29 30  1  0  0  0  0
 29 61  1  0  0  0  0
 29 62  1  0  0  0  0
 30 63  1  0  0  0  0
 30 64  1  0  0  0  0
M  CHG  1   5   1
M  END
> <s_m_source_file>
AV-unprocessed.smi

> <i_m_source_file_index>
282

> <i_lp_mmshare_version>
43012

> <i_f3d_flags>
0

> <s_epik_input>
W0NIMl0xW0NIMl1bQ0gyXVtDSDJdW0NAQEhdKE4xMilbQ0gyXU4oW0NAQEhdKFtDSDJdMilbQ0gyXVtDSDNdKWMobltjSF1uMyljKGMzNCluW2NIXW40W0NIMl1DNShbQ0gyXVtPSF0pW0NIMl1bQ0gyXU9bQ0gyXVtDSDJdNQ==

> <s_epik_cmdline>
J2VwaWtfcHl0aG9uJywgJy1waCcsICc3LjAnLCAnLXRuJywgJzgnLCAnLW1hJywgJzIwMCcsICctbWV0YWxfYmluZGluZycsICctaW1hZScsICc8aW5maWxlLm1hZT4nLCAnLW9tYWUnLCAnPG91dGZpbGUubWFlPic=

> <r_lp_tautomer_probability>
1

> <r_epik_Ionization_Penalty>
0.00308583

> <r_epik_Ionization_Penalty_Charging>
0.00300384

> <r_epik_Ionization_Penalty_Neutral>
8.19894e-05

> <r_epik_State_Penalty>
-0

> <r_epik_Charging_Adjusted_Penalty>
0.00300384

> <i_epik_Tot_Q>
1

> <i_epik_Tot_abs_Q>
1

> <r_epik_Metal_State_Penalty>
-0

> <b_epik_Metal_Only>
0

> <s_lp_Force_Field>
OPLS_2005

> <r_lp_Energy>
57.4125

> <b_lp_Chiralities_Consistent>
1

> <s_lp_Variant>
AV-unprocessed.smi:282-7

> <Gold.Version>
5.8.1

> <Gold.Id.Protein>
6NUR|6NUR_protein|mol2

> <Gold.PLP.Fitness>
45.7365

> <Gold.PLP.PLP>
-40.3768

> <Gold.PLP.part.hbond>
-2.0000

> <Gold.PLP.part.metal>
0.0000

> <Gold.PLP.part.buried>
-7.0618

> <Gold.PLP.part.nonpolar>
-30.6743

> <Gold.PLP.part.repulsive>
0.0980

> <Gold.PLP.ligand.clash>
0.0000

> <Gold.PLP.ligand.torsion>
0.2728

> <Gold.PLP.Chemscore.Hbond>
1.9000

> <Gold.PLP.Chemscore.CHOScore>
0.0000

> <Gold.PLP.Chemscore.Metal>
0.0000

> <Gold.Chemscore.Hbonds>
donor molecule, donor type, donor heavy atom, donor atom, acceptor molecule, acceptor atom, score
      P1  H  6896  6907       L1    16  1.00
      P1  H  6931  6943       L1    28  0.94

> <Gold.PLP.Chemscore.Internal.Correction>
0.2052

> <Gold.Rescore>
     Score         DG    S(hbond)    S(metal)    S(lipo)     H(rot)  DE(clash)    DE(int)     intcor
     17.20     -17.59       1.93        0.00     102.27       2.46       0.03       0.36       ----

> <Gold.Chemscore.Fitness>
17.1952

> <Gold.Chemscore.DG>
-17.5855

> <Gold.Chemscore.ZeroCoef>
-5.4800

> <Gold.Chemscore.Hbond>
1.9257

> <Gold.Chemscore.Metal>
0.0000

> <Gold.Chemscore.Lipo>
102.2661

> <Gold.Chemscore.Internal_Hbond>
0.0000

> <Gold.Chemscore.DEClash>
0.0329

> <Gold.Chemscore.DEInternal>
0.3574

> <Gold.Chemscore.Rot>
2.4576

> <Gold.Chemscore.Internal.Correction>
   9.000000E+99

> <Gold.Chemscore.Hbonds>
donor molecule, donor type, donor heavy atom, donor atom, acceptor molecule, acceptor atom, score
      P1  H  6896  6907       L1    16  0.94
      P1  H  6931  6943       L1    28  0.45

> <Gold.Chemscore.Hbond.Weighted>
-6.4319

> <Gold.Chemscore.Metal.Weighted>
-0.0000

> <Gold.Chemscore.Lipo.Weighted>
-11.9651

> <Gold.Chemscore.Internal_Hbond.Weighted>
0.0000

> <Gold.Chemscore.DEClash.Weighted>
0.0329

> <Gold.Chemscore.DEInternal.Weighted>
0.3574

> <Gold.Chemscore.Rot.Weighted>
6.2915

> <Gold.Chemscore.Internal.Correction.Weighted>
   9.000000E+99

> <Gold.Protein.RotatedTorsions>
[ 6907 6896 6895 6894 ] final -142.59 input  -60.11 | X-H torsion
[ 7974 7965 7964 7962 ] final  -82.45 input  175.53 | X-H torsion
[ 8008 7997 7996 7995 ] final   59.09 input   59.86 | X-H torsion
[ 10167 10162 10161 10158 ] final   -1.64 input  -65.29 | X-H torsion
[ 10718 10713 10712 10709 ] final  153.35 input   66.30 | X-H torsion
[ 10763 10752 10751 10750 ] final  127.75 input  -60.55 | X-H torsion
[ 11005 11000 10999 10996 ] final   23.98 input  -57.11 | X-H torsion

> <Gold.Protein.ActiveResidues>
 VAL166  LYS551  ARG553  GLY616  TRP617  ASP618  TYR619  PRO620  LYS621  CYS622 
 ASP623  PHE694  ASN695  SER759  ASP760  ASP761  ALA762  ILE779  LEU786  VAL792 
 PHE793  MET794  SER795  GLU796  ALA797  LYS798  CYS799  TRP800  GLU811  SER814 

> <Gold.Protein.RotatedAtoms>
  151.0891  133.5329  159.2615 H   0  0  0  0  0  0  0  0  0  0  0  0  # atno 6907 bound_to 6896
  151.2203  135.0515  159.8957 H   0  0  0  0  0  0  0  0  0  0  0  0  # atno 6908 bound_to 6896
  152.5432  134.0695  159.8241 H   0  0  0  0  0  0  0  0  0  0  0  0  # atno 6909 bound_to 6896
  145.5331  140.9519  143.1592 H   0  0  0  0  0  0  0  0  0  0  0  0  # atno 7974 bound_to 7965
  155.5606  140.3488  155.4490 H   0  0  0  0  0  0  0  0  0  0  0  0  # atno 8008 bound_to 7997
  156.0517  140.1319  157.0068 H   0  0  0  0  0  0  0  0  0  0  0  0  # atno 8009 bound_to 7997
  154.4437  140.1003  156.6371 H   0  0  0  0  0  0  0  0  0  0  0  0  # atno 8010 bound_to 7997
  140.6818  143.6751  150.8152 H   0  0  0  0  0  0  0  0  0  0  0  0  # atno 10167 bound_to 10162
  157.2459  131.0769  151.1762 H   0  0  0  0  0  0  0  0  0  0  0  0  # atno 10718 bound_to 10713
  153.7144  135.3263  155.3253 H   0  0  0  0  0  0  0  0  0  0  0  0  # atno 10763 bound_to 10752
  154.8375  135.4484  154.1281 H   0  0  0  0  0  0  0  0  0  0  0  0  # atno 10764 bound_to 10752
  153.2384  135.6968  153.7890 H   0  0  0  0  0  0  0  0  0  0  0  0  # atno 10765 bound_to 10752
  140.3637  134.2098  155.7670 H   0  0  0  0  0  0  0  0  0  0  0  0  # atno 11005 bound_to 11000
  144.7615  139.6945  143.7232 LP  0  0  0  0  0  0  0  0  0  0  0  0  # atno 17320 bound_to 7965
  146.2031  139.5338  142.9730 LP  0  0  0  0  0  0  0  0  0  0  0  0  # atno 17321 bound_to 7965
  140.0453  143.5305  152.2699 LP  0  0  0  0  0  0  0  0  0  0  0  0  # atno 17342 bound_to 10162
  139.6147  144.7616  151.2874 LP  0  0  0  0  0  0  0  0  0  0  0  0  # atno 17343 bound_to 10162
  157.3329  130.6994  149.6335 LP  0  0  0  0  0  0  0  0  0  0  0  0  # atno 17370 bound_to 10713
  155.9668  130.4302  150.4866 LP  0  0  0  0  0  0  0  0  0  0  0  0  # atno 17371 bound_to 10713
  141.1976  133.8055  157.0619 LP  0  0  0  0  0  0  0  0  0  0  0  0  # atno 17394 bound_to 11000
  140.0606  134.9756  157.1299 LP  0  0  0  0  0  0  0  0  0  0  0  0  # atno 17395 bound_to 11000

$$$$
