AV-unprocessed.smi:1099|AV-procd|sdf|4758|dock1
  -GOLD-   22720 3293D 1   1.00000     0.00000
 Structure written by MMmdl.
 41 43  0  0  0  0  0  0  0  0  1 V2000
  150.9772  140.8190  156.3694 C   0  0  0  0  0  0  0  0  0  0  0  0
  150.0997  139.5965  156.0856 C   0  0  0  0  0  0  0  0  0  0  0  0
  149.0532  139.8631  155.0559 C   0  0  0  0  0  0  0  0  0  0  0  0
  148.7458  139.0068  154.0782 N   0  0  0  0  0  0  0  0  0  0  0  0
  147.7369  139.4882  153.2373 C   0  0  0  0  0  0  0  0  0  0  0  0
  147.2546  138.6513  152.0874 C   0  0  0  0  0  0  0  0  0  0  0  0
  146.1198  137.6752  152.4544 C   0  0  0  0  0  0  0  0  0  0  0  0
  146.2663  136.3666  151.8199 N   0  0  0  0  0  0  0  0  0  0  0  0
  145.2925  135.6977  151.1810 C   0  0  0  0  0  0  0  0  0  0  0  0
  144.1444  136.1290  151.0700 O   0  0  0  0  0  0  0  0  0  0  0  0
  145.6824  134.3334  150.5856 C   0  0  1  0  0  0  0  0  0  0  0  0
  146.0744  133.2856  151.6561 C   0  0  0  0  0  0  0  0  0  0  0  0
  145.1255  132.1067  151.3638 C   0  0  2  0  0  0  0  0  0  0  0  0
  145.5237  131.4499  150.0287 C   0  0  0  0  0  0  0  0  0  0  0  0
  145.0699  132.4932  148.9889 C   0  0  0  0  0  0  0  0  0  0  0  0
  144.5047  133.6233  149.8709 C   0  0  1  0  0  0  0  0  0  0  0  0
  143.8355  132.8208  150.9863 C   0  0  0  0  0  0  0  0  0  0  0  0
  147.2620  140.7200  153.6130 C   0  0  0  0  0  0  0  0  0  0  0  0
  148.0629  141.3175  155.0397 S   0  0  0  0  0  0  0  0  0  0  0  0
  151.7414  140.5855  157.1110 H   0  0  0  0  0  0  0  0  0  0  0  0
  150.3797  141.6434  156.7576 H   0  0  0  0  0  0  0  0  0  0  0  0
  151.4812  141.1624  155.4654 H   0  0  0  0  0  0  0  0  0  0  0  0
  150.7200  138.7670  155.7450 H   0  0  0  0  0  0  0  0  0  0  0  0
  149.6139  139.2657  157.0042 H   0  0  0  0  0  0  0  0  0  0  0  0
  146.9164  139.2984  151.2777 H   0  0  0  0  0  0  0  0  0  0  0  0
  148.0874  138.0808  151.6737 H   0  0  0  0  0  0  0  0  0  0  0  0
  146.0652  137.5685  153.5390 H   0  0  0  0  0  0  0  0  0  0  0  0
  145.1628  138.0979  152.1483 H   0  0  0  0  0  0  0  0  0  0  0  0
  147.1780  135.9356  151.8722 H   0  0  0  0  0  0  0  0  0  0  0  0
  146.5086  134.4818  149.8879 H   0  0  0  0  0  0  0  0  0  0  0  0
  147.1200  132.9899  151.5695 H   0  0  0  0  0  0  0  0  0  0  0  0
  145.9228  133.6536  152.6724 H   0  0  0  0  0  0  0  0  0  0  0  0
  145.0381  131.4010  152.1902 H   0  0  0  0  0  0  0  0  0  0  0  0
  146.5931  131.2424  149.9730 H   0  0  0  0  0  0  0  0  0  0  0  0
  144.9922  130.5085  149.8839 H   0  0  0  0  0  0  0  0  0  0  0  0
  145.8864  132.8289  148.3483 H   0  0  0  0  0  0  0  0  0  0  0  0
  144.2920  132.0788  148.3462 H   0  0  0  0  0  0  0  0  0  0  0  0
  143.8366  134.2979  149.3335 H   0  0  0  0  0  0  0  0  0  0  0  0
  143.0580  132.1451  150.6254 H   0  0  0  0  0  0  0  0  0  0  0  0
  143.4243  133.4266  151.7939 H   0  0  0  0  0  0  0  0  0  0  0  0
  146.4794  141.3017  153.1489 H   0  0  0  0  0  0  0  0  0  0  0  0
  1  2  1  0  0  0  0
  1 20  1  0  0  0  0
  1 21  1  0  0  0  0
  1 22  1  0  0  0  0
  2  3  1  0  0  0  0
  2 23  1  0  0  0  0
  2 24  1  0  0  0  0
  3 19  1  0  0  0  0
  3  4  2  0  0  0  0
  4  5  1  0  0  0  0
  5  6  1  0  0  0  0
  5 18  2  0  0  0  0
  6  7  1  0  0  0  0
  6 25  1  0  0  0  0
  6 26  1  0  0  0  0
  7  8  1  0  0  0  0
  7 27  1  0  0  0  0
  7 28  1  0  0  0  0
  8  9  1  0  0  0  0
  8 29  1  0  0  0  0
  9 10  2  0  0  0  0
  9 11  1  0  0  0  0
 11 16  1  0  0  0  0
 11 12  1  0  0  0  0
 11 30  1  0  0  0  0
 12 13  1  0  0  0  0
 12 31  1  0  0  0  0
 12 32  1  0  0  0  0
 13 17  1  0  0  0  0
 13 14  1  0  0  0  0
 13 33  1  0  0  0  0
 14 15  1  0  0  0  0
 14 34  1  0  0  0  0
 14 35  1  0  0  0  0
 15 16  1  0  0  0  0
 15 36  1  0  0  0  0
 15 37  1  0  0  0  0
 16 17  1  0  0  0  0
 16 38  1  0  0  0  0
 17 39  1  0  0  0  0
 17 40  1  0  0  0  0
 18 19  1  0  0  0  0
 18 41  1  0  0  0  0
M  END
> <s_m_source_file>
AV-unprocessed.smi

> <i_m_source_file_index>
1099

> <i_lp_mmshare_version>
43012

> <i_f3d_flags>
0

> <s_epik_input>
W0NIM11bQ0gyXWMxbmMoW2NIXXMxKVtDSDJdW0NIMl1bTkhdQyg9TylbQ0BIXShbQ0gyXVtDQEBIXTIzKVtDQEBIXShbQ0gyXTMpW0NIMl1bQ0gyXTI=

> <s_epik_cmdline>
J2VwaWtfcHl0aG9uJywgJy1waCcsICc3LjAnLCAnLXRuJywgJzgnLCAnLW1hJywgJzIwMCcsICctbWV0YWxfYmluZGluZycsICctaW1hZScsICc8aW5maWxlLm1hZT4nLCAnLW9tYWUnLCAnPG91dGZpbGUubWFlPic=

> <r_epik_Ionization_Penalty>
0.00110131

> <r_epik_Ionization_Penalty_Charging>
0

> <r_epik_Ionization_Penalty_Neutral>
0.00110131

> <r_epik_State_Penalty>
0.00072257

> <r_epik_Charging_Adjusted_Penalty>
0.00072257

> <i_epik_Tot_Q>
0

> <i_epik_Tot_abs_Q>
0

> <r_epik_Metal_State_Penalty>
-0

> <b_epik_Metal_Only>
0

> <s_lp_Force_Field>
OPLS_2005

> <r_lp_Energy>
38.7505

> <b_lp_Chiralities_Consistent>
1

> <s_lp_Variant>
AV-unprocessed.smi:1099-4

> <Gold.Version>
5.8.1

> <Gold.Id.Protein>
6NUR|6NUR_protein|mol2

> <Gold.PLP.Fitness>
42.1398

> <Gold.PLP.PLP>
-38.1007

> <Gold.PLP.part.hbond>
-1.0000

> <Gold.PLP.part.metal>
0.0000

> <Gold.PLP.part.buried>
-4.3651

> <Gold.PLP.part.nonpolar>
-34.1904

> <Gold.PLP.part.repulsive>
0.9254

> <Gold.PLP.ligand.clash>
0.0000

> <Gold.PLP.ligand.torsion>
0.9684

> <Gold.PLP.Chemscore.Hbond>
1.0000

> <Gold.PLP.Chemscore.CHOScore>
0.9728

> <Gold.PLP.Chemscore.Metal>
0.0000

> <Gold.Chemscore.Hbonds>
donor molecule, donor type, donor heavy atom, donor atom, acceptor molecule, acceptor atom, score
      L1  H     8    29       P1  7948  0.91

> <Gold.PLP.Chemscore.Internal.Correction>
0.0575

> <Gold.Rescore>
     Score         DG    S(hbond)    S(metal)    S(lipo)     H(rot)  DE(clash)    DE(int)     intcor
     17.04     -18.32       0.97        0.00     112.92       1.42       0.80       0.49       ----

> <Gold.Chemscore.Fitness>
17.0363

> <Gold.Chemscore.DG>
-18.3184

> <Gold.Chemscore.ZeroCoef>
-5.4800

> <Gold.Chemscore.Hbond>
0.9740

> <Gold.Chemscore.Metal>
0.0000

> <Gold.Chemscore.Lipo>
112.9179

> <Gold.Chemscore.Internal_Hbond>
0.0000

> <Gold.Chemscore.DEClash>
0.7954

> <Gold.Chemscore.DEInternal>
0.4867

> <Gold.Chemscore.Rot>
1.4165

> <Gold.Chemscore.Internal.Correction>
   9.000000E+99

> <Gold.Chemscore.Hbonds>
donor molecule, donor type, donor heavy atom, donor atom, acceptor molecule, acceptor atom, score
      L1  H     8    29       P1  7948  0.90

> <Gold.Chemscore.Hbond.Weighted>
-3.2532

> <Gold.Chemscore.Metal.Weighted>
-0.0000

> <Gold.Chemscore.Lipo.Weighted>
-13.2114

> <Gold.Chemscore.Internal_Hbond.Weighted>
0.0000

> <Gold.Chemscore.DEClash.Weighted>
0.7954

> <Gold.Chemscore.DEInternal.Weighted>
0.4867

> <Gold.Chemscore.Rot.Weighted>
3.6262

> <Gold.Chemscore.Internal.Correction.Weighted>
   9.000000E+99

> <Gold.Protein.RotatedTorsions>
[ 6907 6896 6895 6894 ] final  -54.57 input  -60.11 | X-H torsion
[ 7974 7965 7964 7962 ] final  176.61 input  175.53 | X-H torsion
[ 8008 7997 7996 7995 ] final  127.36 input   59.86 | X-H torsion
[ 10167 10162 10161 10158 ] final -171.35 input  -65.29 | X-H torsion
[ 10718 10713 10712 10709 ] final    4.73 input   66.30 | X-H torsion
[ 10763 10752 10751 10750 ] final   16.65 input  -60.55 | X-H torsion
[ 11005 11000 10999 10996 ] final  -47.43 input  -57.11 | X-H torsion

> <Gold.Protein.ActiveResidues>
 VAL166  LYS551  ARG553  GLY616  TRP617  ASP618  TYR619  PRO620  LYS621  CYS622 
 ASP623  PHE694  ASN695  SER759  ASP760  ASP761  ALA762  ILE779  LEU786  VAL792 
 PHE793  MET794  SER795  GLU796  ALA797  LYS798  CYS799  TRP800  GLU811  SER814 

> <Gold.Protein.RotatedAtoms>
  150.8327  134.7587  159.6866 H   0  0  0  0  0  0  0  0  0  0  0  0  # atno 6907 bound_to 6896
  152.4429  134.5552  159.9888 H   0  0  0  0  0  0  0  0  0  0  0  0  # atno 6908 bound_to 6896
  151.5709  133.3352  159.3025 H   0  0  0  0  0  0  0  0  0  0  0  0  # atno 6909 bound_to 6896
  144.7181  140.0123  143.6440 H   0  0  0  0  0  0  0  0  0  0  0  0  # atno 7974 bound_to 7965
  156.2889  140.2671  156.2260 H   0  0  0  0  0  0  0  0  0  0  0  0  # atno 8008 bound_to 7997
  155.0120  140.0387  157.2421 H   0  0  0  0  0  0  0  0  0  0  0  0  # atno 8009 bound_to 7997
  154.7510  140.2743  155.6298 H   0  0  0  0  0  0  0  0  0  0  0  0  # atno 8010 bound_to 7997
  139.5807  144.1429  152.1512 H   0  0  0  0  0  0  0  0  0  0  0  0  # atno 10167 bound_to 10162
  156.8969  130.5707  149.5648 H   0  0  0  0  0  0  0  0  0  0  0  0  # atno 10718 bound_to 10713
  153.1411  135.6760  153.9025 H   0  0  0  0  0  0  0  0  0  0  0  0  # atno 10763 bound_to 10752
  153.8482  135.3096  155.3432 H   0  0  0  0  0  0  0  0  0  0  0  0  # atno 10764 bound_to 10752
  154.7788  135.4900  153.9884 H   0  0  0  0  0  0  0  0  0  0  0  0  # atno 10765 bound_to 10752
  141.0640  133.6700  156.3296 H   0  0  0  0  0  0  0  0  0  0  0  0  # atno 11005 bound_to 11000
  146.0248  139.3283  143.0791 LP  0  0  0  0  0  0  0  0  0  0  0  0  # atno 17320 bound_to 7965
  145.8524  140.9521  143.0743 LP  0  0  0  0  0  0  0  0  0  0  0  0  # atno 17321 bound_to 7965
  140.0981  144.5563  150.7007 LP  0  0  0  0  0  0  0  0  0  0  0  0  # atno 17342 bound_to 10162
  140.7086  143.2487  151.4651 LP  0  0  0  0  0  0  0  0  0  0  0  0  # atno 17343 bound_to 10162
  156.0601  130.5655  150.9175 LP  0  0  0  0  0  0  0  0  0  0  0  0  # atno 17370 bound_to 10713
  157.6050  131.0939  150.8895 LP  0  0  0  0  0  0  0  0  0  0  0  0  # atno 17371 bound_to 10713
  140.5811  134.5744  157.5480 LP  0  0  0  0  0  0  0  0  0  0  0  0  # atno 17394 bound_to 11000
  139.9459  134.7703  156.0564 LP  0  0  0  0  0  0  0  0  0  0  0  0  # atno 17395 bound_to 11000

$$$$
