AV-unprocessed.smi:1226|AV-procd|sdf|5144|dock6
  -GOLD-   22720 4213D 1   1.00000     0.00000
 Structure written by MMmdl.
 37 38  0  0  0  0  0  0  0  0  1 V2000
  150.4748  141.8191  156.6144 C   0  0  0  0  0  0  0  0  0  0  0  0
  150.2927  140.6169  155.7525 C   0  0  0  0  0  0  0  0  0  0  0  0
  151.0838  139.5424  155.8069 N   0  0  0  0  0  0  0  0  0  0  0  0
  150.7062  138.5483  154.8987 C   0  0  0  0  0  0  0  0  0  0  0  0
  151.4813  137.2678  154.8281 C   0  0  0  0  0  0  0  0  0  0  0  0
  150.7037  136.0849  155.4288 C   0  0  0  0  0  0  0  0  0  0  0  0
  149.7805  135.5004  154.4631 N   0  0  0  0  0  0  0  0  0  0  0  0
  149.2715  134.2632  154.5409 C   0  0  0  0  0  0  0  0  0  0  0  0
  149.5230  133.4687  155.4469 O   0  0  0  0  0  0  0  0  0  0  0  0
  148.4616  133.9928  153.5084 N   0  0  0  0  0  0  0  0  0  0  0  0
  147.7759  132.7231  153.2952 C   0  0  0  0  0  0  0  0  0  0  0  0
  147.0525  132.6764  151.9377 C   0  0  2  0  0  0  0  0  0  0  0  0
  145.9715  133.7420  151.7481 C   0  0  0  0  0  0  0  0  0  0  0  0
  145.0008  133.1020  150.7666 C   0  0  0  0  0  0  0  0  0  0  0  0
  145.4326  131.6340  150.7113 C   0  0  0  0  0  0  0  0  0  0  0  0
  146.3203  131.4694  151.8077 O   0  0  0  0  0  0  0  0  0  0  0  0
  149.6091  138.8905  154.1477 C   0  0  0  0  0  0  0  0  0  0  0  0
  149.0107  140.4750  154.5562 S   0  0  0  0  0  0  0  0  0  0  0  0
  151.1949  141.6169  157.4080 H   0  0  0  0  0  0  0  0  0  0  0  0
  149.5247  142.0998  157.0690 H   0  0  0  0  0  0  0  0  0  0  0  0
  150.8386  142.6542  156.0160 H   0  0  0  0  0  0  0  0  0  0  0  0
  151.7353  137.0449  153.7911 H   0  0  0  0  0  0  0  0  0  0  0  0
  152.4325  137.3865  155.3487 H   0  0  0  0  0  0  0  0  0  0  0  0
  151.3907  135.3209  155.7971 H   0  0  0  0  0  0  0  0  0  0  0  0
  150.1240  136.4215  156.2888 H   0  0  0  0  0  0  0  0  0  0  0  0
  149.5140  136.0781  153.6793 H   0  0  0  0  0  0  0  0  0  0  0  0
  148.3160  134.7110  152.8143 H   0  0  0  0  0  0  0  0  0  0  0  0
  148.4849  131.8973  153.3738 H   0  0  0  0  0  0  0  0  0  0  0  0
  147.0566  132.5892  154.1036 H   0  0  0  0  0  0  0  0  0  0  0  0
  147.7740  132.7318  151.1202 H   0  0  0  0  0  0  0  0  0  0  0  0
  145.4600  133.9354  152.6920 H   0  0  0  0  0  0  0  0  0  0  0  0
  146.3778  134.6872  151.3866 H   0  0  0  0  0  0  0  0  0  0  0  0
  143.9742  133.2030  151.1207 H   0  0  0  0  0  0  0  0  0  0  0  0
  145.0615  133.5614  149.7794 H   0  0  0  0  0  0  0  0  0  0  0  0
  144.5899  130.9455  150.7782 H   0  0  0  0  0  0  0  0  0  0  0  0
  145.9683  131.4271  149.7836 H   0  0  0  0  0  0  0  0  0  0  0  0
  149.1175  138.3085  153.3823 H   0  0  0  0  0  0  0  0  0  0  0  0
  1  2  1  0  0  0  0
  1 19  1  0  0  0  0
  1 20  1  0  0  0  0
  1 21  1  0  0  0  0
  2 18  1  0  0  0  0
  2  3  2  0  0  0  0
  3  4  1  0  0  0  0
  4  5  1  0  0  0  0
  4 17  2  0  0  0  0
  5  6  1  0  0  0  0
  5 22  1  0  0  0  0
  5 23  1  0  0  0  0
  6  7  1  0  0  0  0
  6 24  1  0  0  0  0
  6 25  1  0  0  0  0
  7  8  1  0  0  0  0
  7 26  1  0  0  0  0
  8  9  2  0  0  0  0
  8 10  1  0  0  0  0
 10 11  1  0  0  0  0
 10 27  1  0  0  0  0
 11 12  1  0  0  0  0
 11 28  1  0  0  0  0
 11 29  1  0  0  0  0
 12 16  1  0  0  0  0
 12 13  1  0  0  0  0
 12 30  1  0  0  0  0
 13 14  1  0  0  0  0
 13 31  1  0  0  0  0
 13 32  1  0  0  0  0
 14 15  1  0  0  0  0
 14 33  1  0  0  0  0
 14 34  1  0  0  0  0
 15 16  1  0  0  0  0
 15 35  1  0  0  0  0
 15 36  1  0  0  0  0
 17 18  1  0  0  0  0
 17 37  1  0  0  0  0
M  END
> <s_m_source_file>
AV-unprocessed.smi

> <i_m_source_file_index>
1226

> <i_lp_mmshare_version>
43012

> <i_f3d_flags>
0

> <s_epik_input>
W0NIM11jMW5jKFtjSF1zMSlbQ0gyXVtDSDJdW05IXUMoPU8pW05IXVtDSDJdW0NAQEhdMltDSDJdW0NIMl1bQ0gyXU8y

> <s_epik_cmdline>
J2VwaWtfcHl0aG9uJywgJy1waCcsICc3LjAnLCAnLXRuJywgJzgnLCAnLW1hJywgJzIwMCcsICctbWV0YWxfYmluZGluZycsICctaW1hZScsICc8aW5maWxlLm1hZT4nLCAnLW9tYWUnLCAnPG91dGZpbGUubWFlPic=

> <r_epik_Ionization_Penalty>
0.00199722

> <r_epik_Ionization_Penalty_Charging>
0

> <r_epik_Ionization_Penalty_Neutral>
0.00199722

> <r_epik_State_Penalty>
0.00132705

> <r_epik_Charging_Adjusted_Penalty>
0.00132705

> <i_epik_Tot_Q>
0

> <i_epik_Tot_abs_Q>
0

> <r_epik_Metal_State_Penalty>
-0

> <b_epik_Metal_Only>
0

> <s_lp_Force_Field>
OPLS_2005

> <r_lp_Energy>
9.02747

> <b_lp_Chiralities_Consistent>
1

> <s_lp_Variant>
AV-unprocessed.smi:1226-1

> <Gold.Version>
5.8.1

> <Gold.Id.Protein>
6NUR|6NUR_protein|mol2

> <Gold.PLP.Fitness>
41.6733

> <Gold.PLP.PLP>
-33.0069

> <Gold.PLP.part.hbond>
-2.3394

> <Gold.PLP.part.metal>
0.0000

> <Gold.PLP.part.buried>
-1.0520

> <Gold.PLP.part.nonpolar>
-29.7922

> <Gold.PLP.part.repulsive>
0.2205

> <Gold.PLP.ligand.clash>
0.0000

> <Gold.PLP.ligand.torsion>
0.4342

> <Gold.PLP.Chemscore.Hbond>
1.9920

> <Gold.PLP.Chemscore.CHOScore>
1.1770

> <Gold.PLP.Chemscore.Metal>
0.0000

> <Gold.Chemscore.Hbonds>
donor molecule, donor type, donor heavy atom, donor atom, acceptor molecule, acceptor atom, score
      L1  H     7    26       P1  7948  0.98
      L1  H    10    27       P1  7948  0.99
      L1  C    17    37       P1  7948  0.95
      L1  C    17    37       P1  7957  0.08

> <Gold.PLP.Chemscore.Internal.Correction>
0.0278

> <Gold.Rescore>
     Score         DG    S(hbond)    S(metal)    S(lipo)     H(rot)  DE(clash)    DE(int)     intcor
     14.75     -15.49       1.51        0.00      80.68       1.75       0.04       0.70       ----

> <Gold.Chemscore.Fitness>
14.7511

> <Gold.Chemscore.DG>
-15.4880

> <Gold.Chemscore.ZeroCoef>
-5.4800

> <Gold.Chemscore.Hbond>
1.5107

> <Gold.Chemscore.Metal>
0.0000

> <Gold.Chemscore.Lipo>
80.6757

> <Gold.Chemscore.Internal_Hbond>
0.0000

> <Gold.Chemscore.DEClash>
0.0354

> <Gold.Chemscore.DEInternal>
0.7015

> <Gold.Chemscore.Rot>
1.7487

> <Gold.Chemscore.Internal.Correction>
   9.000000E+99

> <Gold.Chemscore.Hbonds>
donor molecule, donor type, donor heavy atom, donor atom, acceptor molecule, acceptor atom, score
      L1  H     7    26       P1  7948  0.47
      L1  H    10    27       P1  7948  0.47

> <Gold.Chemscore.Hbond.Weighted>
-5.0457

> <Gold.Chemscore.Metal.Weighted>
-0.0000

> <Gold.Chemscore.Lipo.Weighted>
-9.4391

> <Gold.Chemscore.Internal_Hbond.Weighted>
0.0000

> <Gold.Chemscore.DEClash.Weighted>
0.0354

> <Gold.Chemscore.DEInternal.Weighted>
0.7015

> <Gold.Chemscore.Rot.Weighted>
4.4768

> <Gold.Chemscore.Internal.Correction.Weighted>
   9.000000E+99

> <Gold.Protein.RotatedTorsions>
[ 6907 6896 6895 6894 ] final  -85.57 input  -60.11 | X-H torsion
[ 7974 7965 7964 7962 ] final  165.75 input  175.53 | X-H torsion
[ 8008 7997 7996 7995 ] final   71.26 input   59.86 | X-H torsion
[ 10167 10162 10161 10158 ] final   85.67 input  -65.29 | X-H torsion
[ 10718 10713 10712 10709 ] final  112.03 input   66.30 | X-H torsion
[ 10763 10752 10751 10750 ] final -134.12 input  -60.55 | X-H torsion
[ 11005 11000 10999 10996 ] final   31.99 input  -57.11 | X-H torsion

> <Gold.Protein.ActiveResidues>
 VAL166  LYS551  ARG553  GLY616  TRP617  ASP618  TYR619  PRO620  LYS621  CYS622 
 ASP623  PHE694  ASN695  SER759  ASP760  ASP761  ALA762  ILE779  LEU786  VAL792 
 PHE793  MET794  SER795  GLU796  ALA797  LYS798  CYS799  TRP800  GLU811  SER814 

> <Gold.Protein.RotatedAtoms>
  150.6870  134.3185  159.4776 H   0  0  0  0  0  0  0  0  0  0  0  0  # atno 6907 bound_to 6896
  152.1063  134.9304  160.0577 H   0  0  0  0  0  0  0  0  0  0  0  0  # atno 6908 bound_to 6896
  152.0563  133.4007  159.4436 H   0  0  0  0  0  0  0  0  0  0  0  0  # atno 6909 bound_to 6896
  144.7490  139.8515  143.6372 H   0  0  0  0  0  0  0  0  0  0  0  0  # atno 7974 bound_to 7965
  155.7512  140.3488  155.5151 H   0  0  0  0  0  0  0  0  0  0  0  0  # atno 8008 bound_to 7997
  155.9002  140.1033  157.1376 H   0  0  0  0  0  0  0  0  0  0  0  0  # atno 8009 bound_to 7997
  154.4043  140.1287  156.4414 H   0  0  0  0  0  0  0  0  0  0  0  0  # atno 8010 bound_to 7997
  139.8953  144.6361  150.8694 H   0  0  0  0  0  0  0  0  0  0  0  0  # atno 10167 bound_to 10162
  157.6414  131.0961  150.6836 H   0  0  0  0  0  0  0  0  0  0  0  0  # atno 10718 bound_to 10713
  154.8723  135.3744  154.4684 H   0  0  0  0  0  0  0  0  0  0  0  0  # atno 10763 bound_to 10752
  153.5347  135.7027  153.5671 H   0  0  0  0  0  0  0  0  0  0  0  0  # atno 10764 bound_to 10752
  153.3860  135.3984  155.1855 H   0  0  0  0  0  0  0  0  0  0  0  0  # atno 10765 bound_to 10752
  140.2781  134.3005  155.7808 H   0  0  0  0  0  0  0  0  0  0  0  0  # atno 11005 bound_to 11000
  146.1412  139.4470  143.0107 LP  0  0  0  0  0  0  0  0  0  0  0  0  # atno 17320 bound_to 7965
  145.7014  141.0134  143.1502 LP  0  0  0  0  0  0  0  0  0  0  0  0  # atno 17321 bound_to 7965
  140.7718  143.3478  151.2076 LP  0  0  0  0  0  0  0  0  0  0  0  0  # atno 17342 bound_to 10162
  139.7073  143.9435  152.2932 LP  0  0  0  0  0  0  0  0  0  0  0  0  # atno 17343 bound_to 10162
  156.7159  130.4666  149.5535 LP  0  0  0  0  0  0  0  0  0  0  0  0  # atno 17370 bound_to 10713
  156.1698  130.6429  151.0823 LP  0  0  0  0  0  0  0  0  0  0  0  0  # atno 17371 bound_to 10713
  141.2167  133.7508  156.9438 LP  0  0  0  0  0  0  0  0  0  0  0  0  # atno 17394 bound_to 11000
  140.1309  134.9356  157.2336 LP  0  0  0  0  0  0  0  0  0  0  0  0  # atno 17395 bound_to 11000

$$$$
