AV-unprocessed.smi:976|AV-procd|sdf|4302|dock8
  -GOLD-   22720 2213D 1   1.00000     0.00000
 Structure written by MMmdl.
 41 42  0  0  0  0  0  0  0  0  1 V2000
  148.3148  136.1746  157.6490 C   0  0  0  0  0  0  0  0  0  0  0  0
  148.2903  137.4549  158.4972 C   0  0  2  0  0  0  0  0  0  0  0  0
  147.4894  137.1930  159.6471 O   0  0  0  0  0  0  0  0  0  0  0  0
  147.8657  136.0516  160.4118 C   0  0  0  0  0  0  0  0  0  0  0  0
  146.8954  135.8849  161.5873 C   0  0  0  0  0  0  0  0  0  0  0  0
  146.9587  134.6310  162.0336 F   0  0  0  0  0  0  0  0  0  0  0  0
  147.2275  136.7093  162.5805 F   0  0  0  0  0  0  0  0  0  0  0  0
  145.6471  136.1365  161.1941 F   0  0  0  0  0  0  0  0  0  0  0  0
  147.7178  138.6411  157.7043 C   0  0  0  0  0  0  0  0  0  0  0  0
  146.7197  139.2303  158.1190 O   0  0  0  0  0  0  0  0  0  0  0  0
  148.3736  138.9568  156.5731 N   0  0  0  0  0  0  0  0  0  0  0  0
  148.0785  139.9917  155.6408 C   0  0  0  0  0  0  0  0  0  0  0  0
  146.8050  140.6067  155.5705 C   0  0  0  0  0  0  0  0  0  0  0  0
  146.5991  141.6577  154.6592 C   0  0  0  0  0  0  0  0  0  0  0  0
  147.6782  142.0659  153.8562 C   0  0  0  0  0  0  0  0  0  0  0  0
  148.9010  141.5011  153.9213 N   0  0  0  0  0  0  0  0  0  0  0  0
  149.1083  140.4850  154.7945 C   0  0  0  0  0  0  0  0  0  0  0  0
  150.3922  139.9043  154.8206 N   0  0  0  0  0  0  0  0  0  0  0  0
  151.1033  140.1188  156.0755 C   0  0  0  0  0  0  0  0  0  0  0  0
  152.5729  139.6913  155.9254 C   0  0  0  0  0  0  0  0  0  0  0  0
  152.6367  138.3371  155.4866 O   0  0  0  0  0  0  0  0  0  0  0  0
  152.0026  138.1505  154.2242 C   0  0  0  0  0  0  0  0  0  0  0  0
  150.5169  138.5347  154.3313 C   0  0  0  0  0  0  0  0  0  0  0  0
  148.9045  136.3112  156.7419 H   0  0  0  0  0  0  0  0  0  0  0  0
  147.3102  135.8687  157.3539 H   0  0  0  0  0  0  0  0  0  0  0  0
  148.7575  135.3501  158.2081 H   0  0  0  0  0  0  0  0  0  0  0  0
  149.3127  137.6758  158.8107 H   0  0  0  0  0  0  0  0  0  0  0  0
  147.8415  135.1594  159.7846 H   0  0  0  0  0  0  0  0  0  0  0  0
  148.8821  136.1537  160.7938 H   0  0  0  0  0  0  0  0  0  0  0  0
  149.1160  138.3287  156.3008 H   0  0  0  0  0  0  0  0  0  0  0  0
  145.9913  140.3048  156.2119 H   0  0  0  0  0  0  0  0  0  0  0  0
  145.6383  142.1452  154.5846 H   0  0  0  0  0  0  0  0  0  0  0  0
  147.5590  142.8713  153.1469 H   0  0  0  0  0  0  0  0  0  0  0  0
  151.0506  141.1637  156.3815 H   0  0  0  0  0  0  0  0  0  0  0  0
  150.6231  139.5338  156.8610 H   0  0  0  0  0  0  0  0  0  0  0  0
  153.0951  140.3392  155.2193 H   0  0  0  0  0  0  0  0  0  0  0  0
  153.0892  139.7799  156.8812 H   0  0  0  0  0  0  0  0  0  0  0  0
  152.5051  138.7465  153.4607 H   0  0  0  0  0  0  0  0  0  0  0  0
  152.1006  137.1058  153.9287 H   0  0  0  0  0  0  0  0  0  0  0  0
  150.0094  137.8515  155.0138 H   0  0  0  0  0  0  0  0  0  0  0  0
  150.0348  138.4420  153.3573 H   0  0  0  0  0  0  0  0  0  0  0  0
  1  2  1  0  0  0  0
  1 24  1  0  0  0  0
  1 25  1  0  0  0  0
  1 26  1  0  0  0  0
  2  3  1  0  0  0  0
  2  9  1  0  0  0  0
  2 27  1  0  0  0  0
  3  4  1  0  0  0  0
  4  5  1  0  0  0  0
  4 28  1  0  0  0  0
  4 29  1  0  0  0  0
  5  6  1  0  0  0  0
  5  7  1  0  0  0  0
  5  8  1  0  0  0  0
  9 10  2  0  0  0  0
  9 11  1  0  0  0  0
 11 12  1  0  0  0  0
 11 30  1  0  0  0  0
 12 17  1  0  0  0  0
 12 13  2  0  0  0  0
 13 14  1  0  0  0  0
 13 31  1  0  0  0  0
 14 15  2  0  0  0  0
 14 32  1  0  0  0  0
 15 16  1  0  0  0  0
 15 33  1  0  0  0  0
 16 17  2  0  0  0  0
 17 18  1  0  0  0  0
 18 23  1  0  0  0  0
 18 19  1  0  0  0  0
 19 20  1  0  0  0  0
 19 34  1  0  0  0  0
 19 35  1  0  0  0  0
 20 21  1  0  0  0  0
 20 36  1  0  0  0  0
 20 37  1  0  0  0  0
 21 22  1  0  0  0  0
 22 23  1  0  0  0  0
 22 38  1  0  0  0  0
 22 39  1  0  0  0  0
 23 40  1  0  0  0  0
 23 41  1  0  0  0  0
M  END
> <s_m_source_file>
AV-unprocessed.smi

> <i_m_source_file_index>
976

> <i_lp_mmshare_version>
43012

> <i_f3d_flags>
0

> <s_epik_input>
RkMoRikoRilbQ0gyXU9bQ0BASF0oW0NIM10pQyg9TylbTkhdYzFbY0hdW2NIXVtjSF1uYzFOMltDSDJdW0NIMl1PW0NIMl1bQ0gyXTI=

> <s_epik_cmdline>
J2VwaWtfcHl0aG9uJywgJy1waCcsICc3LjAnLCAnLXRuJywgJzgnLCAnLW1hJywgJzIwMCcsICctbWV0YWxfYmluZGluZycsICctaW1hZScsICc8aW5maWxlLm1hZT4nLCAnLW9tYWUnLCAnPG91dGZpbGUubWFlPic=

> <r_lp_tautomer_probability>
1

> <r_epik_Ionization_Penalty>
0.000443367

> <r_epik_Ionization_Penalty_Charging>
0

> <r_epik_Ionization_Penalty_Neutral>
0.000443367

> <r_epik_State_Penalty>
0.00027288

> <r_epik_Charging_Adjusted_Penalty>
0.00027288

> <i_epik_Tot_Q>
0

> <i_epik_Tot_abs_Q>
0

> <r_epik_Metal_State_Penalty>
-0

> <b_epik_Metal_Only>
0

> <s_lp_Force_Field>
OPLS_2005

> <r_lp_Energy>
26.1193

> <b_lp_Chiralities_Consistent>
1

> <s_lp_Variant>
AV-unprocessed.smi:976-1

> <Gold.Version>
5.8.1

> <Gold.Id.Protein>
6NUR|6NUR_protein|mol2

> <Gold.PLP.Fitness>
44.2640

> <Gold.PLP.PLP>
-37.9193

> <Gold.PLP.part.hbond>
-4.0848

> <Gold.PLP.part.metal>
0.0000

> <Gold.PLP.part.buried>
-2.9046

> <Gold.PLP.part.nonpolar>
-30.3626

> <Gold.PLP.part.repulsive>
0.4104

> <Gold.PLP.ligand.clash>
0.0000

> <Gold.PLP.ligand.torsion>
0.4959

> <Gold.PLP.Chemscore.Hbond>
2.3604

> <Gold.PLP.Chemscore.CHOScore>
0.0000

> <Gold.PLP.Chemscore.Metal>
0.0000

> <Gold.Chemscore.Hbonds>
donor molecule, donor type, donor heavy atom, donor atom, acceptor molecule, acceptor atom, score
      P1  H  6934  6947       L1     3  0.41
      P1  H  7989  7998       L1    18  0.94
      P1  H  8011  8017       L1    16  0.70

> <Gold.PLP.Chemscore.Internal.Correction>
0.2555

> <Gold.Rescore>
     Score         DG    S(hbond)    S(metal)    S(lipo)     H(rot)  DE(clash)    DE(int)     intcor
      7.27     -10.18       0.75        0.00      61.40       1.95       0.03       2.88       ----

> <Gold.Chemscore.Fitness>
7.2685

> <Gold.Chemscore.DG>
-10.1793

> <Gold.Chemscore.ZeroCoef>
-5.4800

> <Gold.Chemscore.Hbond>
0.7501

> <Gold.Chemscore.Metal>
0.0000

> <Gold.Chemscore.Lipo>
61.3998

> <Gold.Chemscore.Internal_Hbond>
0.0000

> <Gold.Chemscore.DEClash>
0.0332

> <Gold.Chemscore.DEInternal>
2.8776

> <Gold.Chemscore.Rot>
1.9491

> <Gold.Chemscore.Internal.Correction>
   9.000000E+99

> <Gold.Chemscore.Hbonds>
donor molecule, donor type, donor heavy atom, donor atom, acceptor molecule, acceptor atom, score
      P1  H  6934  6947       L1     3  0.28
      P1  H  7989  7998       L1    18  0.05
      P1  H  8011  8017       L1    16  0.17

> <Gold.Chemscore.Hbond.Weighted>
-2.5052

> <Gold.Chemscore.Metal.Weighted>
-0.0000

> <Gold.Chemscore.Lipo.Weighted>
-7.1838

> <Gold.Chemscore.Internal_Hbond.Weighted>
0.0000

> <Gold.Chemscore.DEClash.Weighted>
0.0332

> <Gold.Chemscore.DEInternal.Weighted>
2.8776

> <Gold.Chemscore.Rot.Weighted>
4.9897

> <Gold.Chemscore.Internal.Correction.Weighted>
   9.000000E+99

> <Gold.Protein.RotatedTorsions>
[ 6907 6896 6895 6894 ] final    0.29 input  -60.11 | X-H torsion
[ 7974 7965 7964 7962 ] final -159.68 input  175.53 | X-H torsion
[ 8008 7997 7996 7995 ] final   72.18 input   59.86 | X-H torsion
[ 10167 10162 10161 10158 ] final -137.48 input  -65.29 | X-H torsion
[ 10718 10713 10712 10709 ] final -141.35 input   66.30 | X-H torsion
[ 10763 10752 10751 10750 ] final  -18.26 input  -60.55 | X-H torsion
[ 11005 11000 10999 10996 ] final -150.22 input  -57.11 | X-H torsion

> <Gold.Protein.ActiveResidues>
 VAL166  LYS551  ARG553  GLY616  TRP617  ASP618  TYR619  PRO620  LYS621  CYS622 
 ASP623  PHE694  ASN695  SER759  ASP760  ASP761  ALA762  ILE779  LEU786  VAL792 
 PHE793  MET794  SER795  GLU796  ALA797  LYS798  CYS799  TRP800  GLU811  SER814 

> <Gold.Protein.RotatedAtoms>
  151.5741  135.1061  160.0001 H   0  0  0  0  0  0  0  0  0  0  0  0  # atno 6907 bound_to 6896
  152.4386  133.7403  159.6648 H   0  0  0  0  0  0  0  0  0  0  0  0  # atno 6908 bound_to 6896
  150.8288  133.8057  159.3130 H   0  0  0  0  0  0  0  0  0  0  0  0  # atno 6909 bound_to 6896
  144.7456  140.3650  143.6088 H   0  0  0  0  0  0  0  0  0  0  0  0  # atno 7974 bound_to 7965
  155.7649  140.3485  155.5217 H   0  0  0  0  0  0  0  0  0  0  0  0  # atno 8008 bound_to 7997
  155.8878  140.1013  157.1461 H   0  0  0  0  0  0  0  0  0  0  0  0  # atno 8009 bound_to 7997
  154.4030  140.1310  156.4264 H   0  0  0  0  0  0  0  0  0  0  0  0  # atno 8010 bound_to 7997
  139.8574  143.7121  152.2653 H   0  0  0  0  0  0  0  0  0  0  0  0  # atno 10167 bound_to 10162
  156.3330  130.7596  151.1718 H   0  0  0  0  0  0  0  0  0  0  0  0  # atno 10718 bound_to 10713
  153.5866  135.7003  153.5441 H   0  0  0  0  0  0  0  0  0  0  0  0  # atno 10763 bound_to 10752
  153.3215  135.4073  155.1420 H   0  0  0  0  0  0  0  0  0  0  0  0  # atno 10764 bound_to 10752
  154.8608  135.3696  154.5396 H   0  0  0  0  0  0  0  0  0  0  0  0  # atno 10765 bound_to 10752
  140.7425  134.3498  157.5144 H   0  0  0  0  0  0  0  0  0  0  0  0  # atno 11005 bound_to 11000
  145.7138  139.1691  143.2524 LP  0  0  0  0  0  0  0  0  0  0  0  0  # atno 17320 bound_to 7965
  146.1328  140.7163  142.9404 LP  0  0  0  0  0  0  0  0  0  0  0  0  # atno 17321 bound_to 7965
  139.7407  144.7560  151.0657 LP  0  0  0  0  0  0  0  0  0  0  0  0  # atno 17342 bound_to 10162
  140.7780  143.4976  150.9812 LP  0  0  0  0  0  0  0  0  0  0  0  0  # atno 17343 bound_to 10162
  157.7434  131.0476  150.4951 LP  0  0  0  0  0  0  0  0  0  0  0  0  # atno 17370 bound_to 10713
  156.5120  130.4141  149.6296 LP  0  0  0  0  0  0  0  0  0  0  0  0  # atno 17371 bound_to 10713
  139.8803  134.9090  156.2980 LP  0  0  0  0  0  0  0  0  0  0  0  0  # atno 17394 bound_to 11000
  140.9824  133.7259  156.0691 LP  0  0  0  0  0  0  0  0  0  0  0  0  # atno 17395 bound_to 11000

$$$$
