AV-unprocessed.smi:148|AV-procd|sdf|1209|dock5
  -GOLD-   2262018383D 1   1.00000     0.00000
 Structure written by MMmdl.
 63 67  0  0  0  0  0  0  0  0  1 V2000
  147.2488  136.2614  153.5732 O   0  0  0  0  0  0  0  0  0  0  0  0
  146.1933  135.3721  153.8723 C   0  0  0  0  0  0  0  0  0  0  0  0
  146.5187  133.9476  153.3642 C   0  0  1  0  0  0  0  0  0  0  0  0
  145.9199  132.8838  154.3186 C   0  0  0  0  0  0  0  0  0  0  0  0
  146.0743  133.2180  155.7232 N   0  0  0  0  0  0  0  0  0  0  0  0
  145.0669  133.4533  156.6325 C   0  0  0  0  0  0  0  0  0  0  0  0
  145.4646  133.7274  157.8451 N   0  0  0  0  0  0  0  0  0  0  0  0
  146.8500  133.6843  157.7598 C   0  0  0  0  0  0  0  0  0  0  0  0
  147.9016  133.8874  158.6903 C   0  0  0  0  0  0  0  0  0  0  0  0
  147.6590  134.1892  159.9839 N   0  0  0  0  0  0  0  0  0  0  0  0
  147.3906  135.6210  160.1309 C   0  0  0  0  0  0  0  0  0  0  0  0
  147.4317  136.0468  161.6015 C   0  0  0  0  0  0  0  0  0  0  0  0
  146.4492  135.2011  162.4132 C   0  0  0  0  0  0  0  0  0  0  0  0
  146.7592  133.7102  162.2231 C   0  0  0  0  0  0  0  0  0  0  0  0
  146.7625  133.2823  160.7300 C   0  0  2  0  0  0  0  0  0  0  0  0
  147.1390  131.7647  160.5915 C   0  0  1  0  0  0  0  0  0  0  0  0
  148.1755  131.2462  161.6060 C   0  0  0  0  0  0  0  0  0  0  0  0
  148.0764  129.7168  161.5800 C   0  0  0  0  0  0  0  0  0  0  0  0
  146.7193  129.3874  160.9479 C   0  0  0  0  0  0  0  0  0  0  0  0
  146.0024  130.7281  160.7552 C   0  0  1  0  0  0  0  0  0  0  0  0
  145.2231  130.9970  161.9060 O   0  0  0  0  0  0  0  0  0  0  0  0
  149.1809  133.7646  158.2471 N   0  0  0  0  0  0  0  0  0  0  0  0
  149.4144  133.4714  156.9641 C   0  0  0  0  0  0  0  0  0  0  0  0
  148.5345  133.2589  155.9821 N   0  0  0  0  0  0  0  0  0  0  0  0
  147.2518  133.3748  156.4317 C   0  0  0  0  0  0  0  0  0  0  0  0
  146.1215  133.7122  151.8795 C   0  0  2  0  0  0  0  0  0  0  0  0
  144.6810  134.0763  151.5141 C   0  0  0  0  0  0  0  0  0  0  0  0
  144.1531  132.8355  150.7945 C   0  0  0  0  0  0  0  0  0  0  0  0
  145.3235  132.1877  150.3235 O   0  0  0  0  0  0  0  0  0  0  0  0
  146.2792  132.2747  151.3668 C   0  0  0  0  0  0  0  0  0  0  0  0
  147.7605  135.8961  152.8676 H   0  0  0  0  0  0  0  0  0  0  0  0
  146.0248  135.3786  154.9491 H   0  0  0  0  0  0  0  0  0  0  0  0
  145.2913  135.7693  153.4092 H   0  0  0  0  0  0  0  0  0  0  0  0
  147.6037  133.8374  153.3995 H   0  0  0  0  0  0  0  0  0  0  0  0
  144.8551  132.7520  154.1245 H   0  0  0  0  0  0  0  0  0  0  0  0
  146.3872  131.9141  154.1423 H   0  0  0  0  0  0  0  0  0  0  0  0
  144.0203  133.4057  156.3694 H   0  0  0  0  0  0  0  0  0  0  0  0
  148.1244  136.1988  159.5661 H   0  0  0  0  0  0  0  0  0  0  0  0
  146.4107  135.8534  159.7107 H   0  0  0  0  0  0  0  0  0  0  0  0
  148.4419  135.9232  161.9940 H   0  0  0  0  0  0  0  0  0  0  0  0
  147.1853  137.1049  161.6935 H   0  0  0  0  0  0  0  0  0  0  0  0
  146.5077  135.4666  163.4689 H   0  0  0  0  0  0  0  0  0  0  0  0
  145.4279  135.4100  162.0924 H   0  0  0  0  0  0  0  0  0  0  0  0
  147.7294  133.4862  162.6690 H   0  0  0  0  0  0  0  0  0  0  0  0
  146.0202  133.1431  162.7881 H   0  0  0  0  0  0  0  0  0  0  0  0
  145.7515  133.4334  160.3505 H   0  0  0  0  0  0  0  0  0  0  0  0
  147.5789  131.6211  159.6027 H   0  0  0  0  0  0  0  0  0  0  0  0
  149.1875  131.5846  161.3807 H   0  0  0  0  0  0  0  0  0  0  0  0
  147.9247  131.6020  162.6066 H   0  0  0  0  0  0  0  0  0  0  0  0
  148.8809  129.2885  160.9809 H   0  0  0  0  0  0  0  0  0  0  0  0
  148.1622  129.3043  162.5855 H   0  0  0  0  0  0  0  0  0  0  0  0
  146.8838  128.9241  159.9742 H   0  0  0  0  0  0  0  0  0  0  0  0
  146.1406  128.6793  161.5426 H   0  0  0  0  0  0  0  0  0  0  0  0
  145.3415  130.6706  159.8931 H   0  0  0  0  0  0  0  0  0  0  0  0
  145.8045  131.1046  162.6430 H   0  0  0  0  0  0  0  0  0  0  0  0
  150.4549  133.3986  156.6838 H   0  0  0  0  0  0  0  0  0  0  0  0
  146.7440  134.3454  151.2466 H   0  0  0  0  0  0  0  0  0  0  0  0
  144.0572  134.3434  152.3665 H   0  0  0  0  0  0  0  0  0  0  0  0
  144.6791  134.9322  150.8378 H   0  0  0  0  0  0  0  0  0  0  0  0
  143.6323  132.1778  151.4921 H   0  0  0  0  0  0  0  0  0  0  0  0
  143.4707  133.0792  149.9801 H   0  0  0  0  0  0  0  0  0  0  0  0
  147.2859  132.0676  151.0035 H   0  0  0  0  0  0  0  0  0  0  0  0
  146.0347  131.5329  152.1269 H   0  0  0  0  0  0  0  0  0  0  0  0
  1  2  1  0  0  0  0
  1 31  1  0  0  0  0
  2  3  1  0  0  0  0
  2 32  1  0  0  0  0
  2 33  1  0  0  0  0
  3  4  1  0  0  0  0
  3 26  1  0  0  0  0
  3 34  1  0  0  0  0
  4  5  1  0  0  0  0
  4 35  1  0  0  0  0
  4 36  1  0  0  0  0
  5 25  1  0  0  0  0
  5  6  1  0  0  0  0
  6  7  2  0  0  0  0
  6 37  1  0  0  0  0
  7  8  1  0  0  0  0
  8 25  2  0  0  0  0
  8  9  1  0  0  0  0
  9 10  1  0  0  0  0
  9 22  2  0  0  0  0
 10 15  1  0  0  0  0
 10 11  1  0  0  0  0
 11 12  1  0  0  0  0
 11 38  1  0  0  0  0
 11 39  1  0  0  0  0
 12 13  1  0  0  0  0
 12 40  1  0  0  0  0
 12 41  1  0  0  0  0
 13 14  1  0  0  0  0
 13 42  1  0  0  0  0
 13 43  1  0  0  0  0
 14 15  1  0  0  0  0
 14 44  1  0  0  0  0
 14 45  1  0  0  0  0
 15 16  1  0  0  0  0
 15 46  1  0  0  0  0
 16 20  1  0  0  0  0
 16 17  1  0  0  0  0
 16 47  1  0  0  0  0
 17 18  1  0  0  0  0
 17 48  1  0  0  0  0
 17 49  1  0  0  0  0
 18 19  1  0  0  0  0
 18 50  1  0  0  0  0
 18 51  1  0  0  0  0
 19 20  1  0  0  0  0
 19 52  1  0  0  0  0
 19 53  1  0  0  0  0
 20 21  1  0  0  0  0
 20 54  1  0  0  0  0
 21 55  1  0  0  0  0
 22 23  1  0  0  0  0
 23 24  2  0  0  0  0
 23 56  1  0  0  0  0
 24 25  1  0  0  0  0
 26 30  1  0  0  0  0
 26 27  1  0  0  0  0
 26 57  1  0  0  0  0
 27 28  1  0  0  0  0
 27 58  1  0  0  0  0
 27 59  1  0  0  0  0
 28 29  1  0  0  0  0
 28 60  1  0  0  0  0
 28 61  1  0  0  0  0
 29 30  1  0  0  0  0
 30 62  1  0  0  0  0
 30 63  1  0  0  0  0
M  END
> <s_m_source_file>
AV-unprocessed.smi

> <i_m_source_file_index>
148

> <i_lp_mmshare_version>
43012

> <i_f3d_flags>
0

> <s_epik_input>
W0NIMl0xT1tDSDJdW0NIMl1bQ0BIXTFbQ0BIXShbQ0gyXVtPSF0pW0NIMl1uKFtjSF1uMiljKGMyMyluW2NIXW5jM040W0NIMl1bQ0gyXVtDSDJdW0NIMl1bQ0BIXTRbQ0BASF01W0NIMl1bQ0gyXVtDSDJdW0NASF01W09IXQ==

> <s_epik_cmdline>
J2VwaWtfcHl0aG9uJywgJy1waCcsICc3LjAnLCAnLXRuJywgJzgnLCAnLW1hJywgJzIwMCcsICctbWV0YWxfYmluZGluZycsICctaW1hZScsICc8aW5maWxlLm1hZT4nLCAnLW9tYWUnLCAnPG91dGZpbGUubWFlPic=

> <r_lp_tautomer_probability>
1

> <r_epik_Ionization_Penalty>
0.00556303

> <r_epik_Ionization_Penalty_Charging>
0

> <r_epik_Ionization_Penalty_Neutral>
0.00556303

> <r_epik_State_Penalty>
0.00401767

> <r_epik_Charging_Adjusted_Penalty>
0.00401767

> <i_epik_Tot_Q>
0

> <i_epik_Tot_abs_Q>
0

> <r_epik_Metal_State_Penalty>
-0

> <b_epik_Metal_Only>
0

> <s_lp_Force_Field>
OPLS_2005

> <r_lp_Energy>
71.0858

> <b_lp_Chiralities_Consistent>
1

> <s_lp_Variant>
AV-unprocessed.smi:148-8

> <Gold.Version>
5.8.1

> <Gold.Id.Protein>
6NUR|6NUR_protein|mol2

> <Gold.PLP.Fitness>
41.7520

> <Gold.PLP.PLP>
-35.7767

> <Gold.PLP.part.hbond>
-2.5923

> <Gold.PLP.part.metal>
0.0000

> <Gold.PLP.part.buried>
-6.3038

> <Gold.PLP.part.nonpolar>
-27.8750

> <Gold.PLP.part.repulsive>
0.1434

> <Gold.PLP.ligand.clash>
0.0000

> <Gold.PLP.ligand.torsion>
1.5416

> <Gold.PLP.Chemscore.Hbond>
2.0000

> <Gold.PLP.Chemscore.CHOScore>
0.7414

> <Gold.PLP.Chemscore.Metal>
0.0000

> <Gold.Chemscore.Hbonds>
donor molecule, donor type, donor heavy atom, donor atom, acceptor molecule, acceptor atom, score
      L1  H     1    31       P1  7948  0.88
      P1  H  6896  6908       L1    22  1.00
      L1  C     6    37       P1 10957  0.76

> <Gold.PLP.Chemscore.Internal.Correction>
0.8342

> <Gold.Rescore>
     Score         DG    S(hbond)    S(metal)    S(lipo)     H(rot)  DE(clash)    DE(int)     intcor
     12.42     -13.70       1.95        0.00      87.25       3.32       0.01       1.27       ----

> <Gold.Chemscore.Fitness>
12.4173

> <Gold.Chemscore.DG>
-13.7024

> <Gold.Chemscore.ZeroCoef>
-5.4800

> <Gold.Chemscore.Hbond>
1.9505

> <Gold.Chemscore.Metal>
0.0000

> <Gold.Chemscore.Lipo>
87.2467

> <Gold.Chemscore.Internal_Hbond>
0.0000

> <Gold.Chemscore.DEClash>
0.0102

> <Gold.Chemscore.DEInternal>
1.2749

> <Gold.Chemscore.Rot>
3.3203

> <Gold.Chemscore.Internal.Correction>
   9.000000E+99

> <Gold.Chemscore.Hbonds>
donor molecule, donor type, donor heavy atom, donor atom, acceptor molecule, acceptor atom, score
      L1  H     1    31       P1  7948  0.85
      P1  H  6896  6908       L1    22  0.94

> <Gold.Chemscore.Hbond.Weighted>
-6.5145

> <Gold.Chemscore.Metal.Weighted>
-0.0000

> <Gold.Chemscore.Lipo.Weighted>
-10.2079

> <Gold.Chemscore.Internal_Hbond.Weighted>
0.0000

> <Gold.Chemscore.DEClash.Weighted>
0.0102

> <Gold.Chemscore.DEInternal.Weighted>
1.2749

> <Gold.Chemscore.Rot.Weighted>
8.5000

> <Gold.Chemscore.Internal.Correction.Weighted>
   9.000000E+99

> <Gold.Protein.RotatedTorsions>
[ 6907 6896 6895 6894 ] final  137.59 input  -60.11 | X-H torsion
[ 7974 7965 7964 7962 ] final  -65.25 input  175.53 | X-H torsion
[ 8008 7997 7996 7995 ] final  -26.93 input   59.86 | X-H torsion
[ 10167 10162 10161 10158 ] final  120.90 input  -65.29 | X-H torsion
[ 10718 10713 10712 10709 ] final  136.05 input   66.30 | X-H torsion
[ 10763 10752 10751 10750 ] final  152.10 input  -60.55 | X-H torsion
[ 11005 11000 10999 10996 ] final  -22.37 input  -57.11 | X-H torsion

> <Gold.Protein.ActiveResidues>
 VAL166  LYS551  ARG553  GLY616  TRP617  ASP618  TYR619  PRO620  LYS621  CYS622 
 ASP623  PHE694  ASN695  SER759  ASP760  ASP761  ALA762  ILE779  LEU786  VAL792 
 PHE793  MET794  SER795  GLU796  ALA797  LYS798  CYS799  TRP800  GLU811  SER814 

> <Gold.Protein.RotatedAtoms>
  152.2763  133.5429  159.5469 H   0  0  0  0  0  0  0  0  0  0  0  0  # atno 6907 bound_to 6896
  150.7178  134.0627  159.3846 H   0  0  0  0  0  0  0  0  0  0  0  0  # atno 6908 bound_to 6896
  151.8539  135.0548  160.0513 H   0  0  0  0  0  0  0  0  0  0  0  0  # atno 6909 bound_to 6896
  145.7566  140.8882  143.0452 H   0  0  0  0  0  0  0  0  0  0  0  0  # atno 7974 bound_to 7965
  154.4401  140.1886  156.0852 H   0  0  0  0  0  0  0  0  0  0  0  0  # atno 8008 bound_to 7997
  156.0408  140.3320  155.7215 H   0  0  0  0  0  0  0  0  0  0  0  0  # atno 8009 bound_to 7997
  155.5703  140.0612  157.2799 H   0  0  0  0  0  0  0  0  0  0  0  0  # atno 8010 bound_to 7997
  139.5953  144.7039  151.3192 H   0  0  0  0  0  0  0  0  0  0  0  0  # atno 10167 bound_to 10162
  157.4506  131.1065  151.0037 H   0  0  0  0  0  0  0  0  0  0  0  0  # atno 10718 bound_to 10713
  154.1146  135.2837  155.3223 H   0  0  0  0  0  0  0  0  0  0  0  0  # atno 10763 bound_to 10752
  154.6466  135.5384  153.7855 H   0  0  0  0  0  0  0  0  0  0  0  0  # atno 10764 bound_to 10752
  153.0334  135.6499  154.1303 H   0  0  0  0  0  0  0  0  0  0  0  0  # atno 10765 bound_to 10752
  140.8650  133.7761  156.0119 H   0  0  0  0  0  0  0  0  0  0  0  0  # atno 11005 bound_to 11000
  144.6839  139.9665  143.7481 LP  0  0  0  0  0  0  0  0  0  0  0  0  # atno 17320 bound_to 7965
  146.0305  139.3330  143.0758 LP  0  0  0  0  0  0  0  0  0  0  0  0  # atno 17321 bound_to 7965
  140.7206  143.7145  150.7744 LP  0  0  0  0  0  0  0  0  0  0  0  0  # atno 17342 bound_to 10162
  140.0710  143.5061  152.2580 LP  0  0  0  0  0  0  0  0  0  0  0  0  # atno 17343 bound_to 10162
  157.0868  130.5926  149.5431 LP  0  0  0  0  0  0  0  0  0  0  0  0  # atno 17370 bound_to 10713
  155.9986  130.5060  150.7576 LP  0  0  0  0  0  0  0  0  0  0  0  0  # atno 17371 bound_to 10713
  140.8639  134.2808  157.5222 LP  0  0  0  0  0  0  0  0  0  0  0  0  # atno 17394 bound_to 11000
  139.8709  134.9532  156.4138 LP  0  0  0  0  0  0  0  0  0  0  0  0  # atno 17395 bound_to 11000

$$$$
