AV-unprocessed.smi:1199|AV-procd|sdf|5017|dock6
  -GOLD-   22720 4 33D 1   1.00000     0.00000
 Structure written by MMmdl.
 41 42  0  0  0  0  0  0  0  0  3 V2000
  149.0711  134.2215  155.2912 C   0  0  0  0  0  0  0  0  0  0  0  0
  148.5552  135.6679  155.2663 C   0  0  1  0  0  0  0  0  0  0  0  0
  147.0680  135.7488  154.8557 C   0  0  0  0  0  0  0  0  0  0  0  0
  146.8095  135.3433  153.4474 N   0  3  0  0  0  0  0  0  0  0  0  0
  146.7209  133.8758  153.2490 C   0  0  0  0  0  0  0  0  0  0  0  0
  146.4980  133.5514  151.7623 C   0  0  0  0  0  0  0  0  0  0  0  0
  145.3187  134.2017  151.3052 O   0  0  0  0  0  0  0  0  0  0  0  0
  145.4198  135.6165  151.4074 C   0  0  0  0  0  0  0  0  0  0  0  0
  145.6188  136.0177  152.8781 C   0  0  0  0  0  0  0  0  0  0  0  0
  148.7470  136.3011  156.5660 N   0  0  0  0  0  0  0  0  0  0  0  0
  148.1398  135.9610  157.7140 C   0  0  0  0  0  0  0  0  0  0  0  0
  147.2333  135.1310  157.7719 O   0  0  0  0  0  0  0  0  0  0  0  0
  148.6483  136.6196  159.0075 C   0  0  0  0  0  0  0  0  0  0  0  0
  148.0050  136.1211  160.2353 N   0  0  0  0  0  0  0  0  0  0  0  0
  147.4179  137.1755  161.0594 N   0  5  0  0  0  0  0  0  0  0  0  0
  146.8334  136.8443  162.2407 C   0  0  0  0  0  0  0  0  0  0  0  0
  146.3578  137.6808  163.0043 O   0  0  0  0  0  0  0  0  0  0  0  0
  146.7606  135.4373  162.5968 C   0  0  0  0  0  0  0  0  0  0  0  0
  147.2674  134.4814  161.7932 C   0  0  0  0  0  0  0  0  0  0  0  0
  147.9266  134.7922  160.5306 C   0  0  0  0  0  0  0  0  0  0  0  0
  148.3746  133.9234  159.7833 O   0  0  0  0  0  0  0  0  0  0  0  0
  148.9410  133.7429  154.3203 H   0  0  0  0  0  0  0  0  0  0  0  0
  148.5405  133.6221  156.0318 H   0  0  0  0  0  0  0  0  0  0  0  0
  150.1336  134.1863  155.5347 H   0  0  0  0  0  0  0  0  0  0  0  0
  149.1364  136.2147  154.5218 H   0  0  0  0  0  0  0  0  0  0  0  0
  146.4534  135.1545  155.5334 H   0  0  0  0  0  0  0  0  0  0  0  0
  146.7385  136.7827  154.9700 H   0  0  0  0  0  0  0  0  0  0  0  0
  147.6373  133.3907  153.5842 H   0  0  0  0  0  0  0  0  0  0  0  0
  145.9043  133.4716  153.8487 H   0  0  0  0  0  0  0  0  0  0  0  0
  147.3556  133.8569  151.1612 H   0  0  0  0  0  0  0  0  0  0  0  0
  146.3826  132.4760  151.6263 H   0  0  0  0  0  0  0  0  0  0  0  0
  146.2397  135.9830  150.7906 H   0  0  0  0  0  0  0  0  0  0  0  0
  144.5059  136.0644  151.0170 H   0  0  0  0  0  0  0  0  0  0  0  0
  144.7351  135.7508  153.4600 H   0  0  0  0  0  0  0  0  0  0  0  0
  145.7360  137.0996  152.9486 H   0  0  0  0  0  0  0  0  0  0  0  0
  149.4664  137.0074  156.6253 H   0  0  0  0  0  0  0  0  0  0  0  0
  149.7312  136.4964  159.0580 H   0  0  0  0  0  0  0  0  0  0  0  0
  148.4857  137.6958  158.9266 H   0  0  0  0  0  0  0  0  0  0  0  0
  146.2868  135.1517  163.5243 H   0  0  0  0  0  0  0  0  0  0  0  0
  147.1879  133.4478  162.0959 H   0  0  0  0  0  0  0  0  0  0  0  0
  147.6032  135.6576  152.9055 H   0  0  0  0  0  0  0  0  0  0  0  0
  1  2  1  0  0  0  0
  1 22  1  0  0  0  0
  1 23  1  0  0  0  0
  1 24  1  0  0  0  0
  2  3  1  0  0  0  0
  2 10  1  0  0  0  0
  2 25  1  0  0  0  0
  3  4  1  0  0  0  0
  3 26  1  0  0  0  0
  3 27  1  0  0  0  0
  4  9  1  0  0  0  0
  4  5  1  0  0  0  0
  4 41  1  0  0  0  0
  5  6  1  0  0  0  0
  5 28  1  0  0  0  0
  5 29  1  0  0  0  0
  6  7  1  0  0  0  0
  6 30  1  0  0  0  0
  6 31  1  0  0  0  0
  7  8  1  0  0  0  0
  8  9  1  0  0  0  0
  8 32  1  0  0  0  0
  8 33  1  0  0  0  0
  9 34  1  0  0  0  0
  9 35  1  0  0  0  0
 10 11  1  0  0  0  0
 10 36  1  0  0  0  0
 11 12  2  0  0  0  0
 11 13  1  0  0  0  0
 13 37  1  0  0  0  0
 13 38  1  0  0  0  0
 13 14  1  0  0  0  0
 14 15  1  0  0  0  0
 14 20  1  0  0  0  0
 15 16  1  0  0  0  0
 16 17  2  0  0  0  0
 16 18  1  0  0  0  0
 18 39  1  0  0  0  0
 18 19  2  0  0  0  0
 19 40  1  0  0  0  0
 19 20  1  0  0  0  0
 20 21  2  0  0  0  0
M  CHG  1   4   1
M  CHG  1  15  -1
M  END
> <s_m_source_file>
AV-unprocessed.smi

> <i_m_source_file_index>
1199

> <i_lp_mmshare_version>
43012

> <i_f3d_flags>
0

> <s_epik_input>
W0NIMl0xW0NIMl1PW0NIMl1bQ0gyXU4xW0NIMl1bQ0BASF0oW0NIM10pW05IXUMoPU8pW0NIMl1uMltuSF1jKD1PKVtjSF1bY0hdYzI9Tw==

> <s_epik_cmdline>
J2VwaWtfcHl0aG9uJywgJy1waCcsICc3LjAnLCAnLXRuJywgJzgnLCAnLW1hJywgJzIwMCcsICctbWV0YWxfYmluZGluZycsICctaW1hZScsICc8aW5maWxlLm1hZT4nLCAnLW9tYWUnLCAnPG91dGZpbGUubWFlPic=

> <r_lp_tautomer_probability>
1

> <r_epik_Ionization_Penalty>
0.741876

> <r_epik_Ionization_Penalty_Charging>
0.741876

> <r_epik_Ionization_Penalty_Neutral>
9.12373e-08

> <r_epik_State_Penalty>
0.692284

> <r_epik_Charging_Adjusted_Penalty>
1.43416

> <i_epik_Tot_Q>
0

> <i_epik_Tot_abs_Q>
2

> <r_epik_Metal_State_Penalty>
0.692284

> <b_epik_Metal_Only>
0

> <s_lp_Force_Field>
OPLS_2005

> <r_lp_Energy>
27.3091

> <b_lp_Chiralities_Consistent>
1

> <s_lp_Variant>
AV-unprocessed.smi:1199-4

> <Gold.Version>
5.8.1

> <Gold.Id.Protein>
6NUR|6NUR_protein|mol2

> <Gold.PLP.Fitness>
45.1816

> <Gold.PLP.PLP>
-28.4470

> <Gold.PLP.part.hbond>
-4.5259

> <Gold.PLP.part.metal>
0.0000

> <Gold.PLP.part.buried>
-2.8691

> <Gold.PLP.part.nonpolar>
-22.4228

> <Gold.PLP.part.repulsive>
0.1647

> <Gold.PLP.ligand.clash>
0.0000

> <Gold.PLP.ligand.torsion>
0.3933

> <Gold.PLP.Chemscore.Hbond>
5.8220

> <Gold.PLP.Chemscore.CHOScore>
0.0000

> <Gold.PLP.Chemscore.Metal>
0.0000

> <Gold.Chemscore.Hbonds>
donor molecule, donor type, donor heavy atom, donor atom, acceptor molecule, acceptor atom, score
      L1  H     4    41       P1  7948  2.00
      P1  H  6896  6909       L1    21  0.27
      P1  H  6931  6943       L1    15  1.10
      P1  H  6934  6947       L1    15  2.00

> <Gold.PLP.Chemscore.Internal.Correction>
0.0551

> <Gold.Rescore>
     Score         DG    S(hbond)    S(metal)    S(lipo)     H(rot)  DE(clash)    DE(int)     intcor
     10.47     -13.50       2.57        0.00      47.17       2.37       0.14       2.89       ----

> <Gold.Chemscore.Fitness>
10.4650

> <Gold.Chemscore.DG>
-13.4997

> <Gold.Chemscore.ZeroCoef>
-5.4800

> <Gold.Chemscore.Hbond>
2.5688

> <Gold.Chemscore.Metal>
0.0000

> <Gold.Chemscore.Lipo>
47.1701

> <Gold.Chemscore.Internal_Hbond>
0.0000

> <Gold.Chemscore.DEClash>
0.1425

> <Gold.Chemscore.DEInternal>
2.8922

> <Gold.Chemscore.Rot>
2.3747

> <Gold.Chemscore.Internal.Correction>
   9.000000E+99

> <Gold.Chemscore.Hbonds>
donor molecule, donor type, donor heavy atom, donor atom, acceptor molecule, acceptor atom, score
      L1  H     4    41       P1  7948  1.00
      P1  H  6896  6909       L1    21  0.22
      P1  H  6931  6943       L1    15  0.05
      P1  H  6934  6947       L1    15  0.43

> <Gold.Chemscore.Hbond.Weighted>
-8.5799

> <Gold.Chemscore.Metal.Weighted>
-0.0000

> <Gold.Chemscore.Lipo.Weighted>
-5.5189

> <Gold.Chemscore.Internal_Hbond.Weighted>
0.0000

> <Gold.Chemscore.DEClash.Weighted>
0.1425

> <Gold.Chemscore.DEInternal.Weighted>
2.8922

> <Gold.Chemscore.Rot.Weighted>
6.0791

> <Gold.Chemscore.Internal.Correction.Weighted>
   9.000000E+99

> <Gold.Protein.RotatedTorsions>
[ 6907 6896 6895 6894 ] final   25.05 input  -60.11 | X-H torsion
[ 7974 7965 7964 7962 ] final -161.54 input  175.53 | X-H torsion
[ 8008 7997 7996 7995 ] final -114.68 input   59.86 | X-H torsion
[ 10167 10162 10161 10158 ] final   76.08 input  -65.29 | X-H torsion
[ 10718 10713 10712 10709 ] final -177.46 input   66.30 | X-H torsion
[ 10763 10752 10751 10750 ] final -126.49 input  -60.55 | X-H torsion
[ 11005 11000 10999 10996 ] final  -39.47 input  -57.11 | X-H torsion

> <Gold.Protein.ActiveResidues>
 VAL166  LYS551  ARG553  GLY616  TRP617  ASP618  TYR619  PRO620  LYS621  CYS622 
 ASP623  PHE694  ASN695  SER759  ASP760  ASP761  ALA762  ILE779  LEU786  VAL792 
 PHE793  MET794  SER795  GLU796  ALA797  LYS798  CYS799  TRP800  GLU811  SER814 

> <Gold.Protein.RotatedAtoms>
  151.9667  135.0097  160.0550 H   0  0  0  0  0  0  0  0  0  0  0  0  # atno 6907 bound_to 6896
  152.1820  133.4709  159.4971 H   0  0  0  0  0  0  0  0  0  0  0  0  # atno 6908 bound_to 6896
  150.6919  134.1739  159.4265 H   0  0  0  0  0  0  0  0  0  0  0  0  # atno 6909 bound_to 6896
  144.7387  140.3382  143.6140 H   0  0  0  0  0  0  0  0  0  0  0  0  # atno 7974 bound_to 7965
  155.0402  140.0392  157.2506 H   0  0  0  0  0  0  0  0  0  0  0  0  # atno 8008 bound_to 7997
  154.7223  140.2714  155.6506 H   0  0  0  0  0  0  0  0  0  0  0  0  # atno 8009 bound_to 7997
  156.2820  140.2700  156.1898 H   0  0  0  0  0  0  0  0  0  0  0  0  # atno 8010 bound_to 7997
  139.9960  144.5721  150.7777 H   0  0  0  0  0  0  0  0  0  0  0  0  # atno 10167 bound_to 10162
  156.8298  130.9649  151.3107 H   0  0  0  0  0  0  0  0  0  0  0  0  # atno 10718 bound_to 10713
  154.8746  135.3994  154.3439 H   0  0  0  0  0  0  0  0  0  0  0  0  # atno 10763 bound_to 10752
  153.4234  135.7023  153.6284 H   0  0  0  0  0  0  0  0  0  0  0  0  # atno 10764 bound_to 10752
  153.4936  135.3743  155.2474 H   0  0  0  0  0  0  0  0  0  0  0  0  # atno 10765 bound_to 10752
  141.0104  133.6911  156.2191 H   0  0  0  0  0  0  0  0  0  0  0  0  # atno 11005 bound_to 11000
  145.7402  139.1762  143.2380 LP  0  0  0  0  0  0  0  0  0  0  0  0  # atno 17320 bound_to 7965
  146.1140  140.7393  142.9489 LP  0  0  0  0  0  0  0  0  0  0  0  0  # atno 17321 bound_to 7965
  140.7437  143.2849  151.3491 LP  0  0  0  0  0  0  0  0  0  0  0  0  # atno 17342 bound_to 10162
  139.6305  144.0729  152.2472 LP  0  0  0  0  0  0  0  0  0  0  0  0  # atno 17343 bound_to 10162
  157.6413  130.8808  149.9453 LP  0  0  0  0  0  0  0  0  0  0  0  0  # atno 17370 bound_to 10713
  156.0941  130.3661  150.0340 LP  0  0  0  0  0  0  0  0  0  0  0  0  # atno 17371 bound_to 10713
  140.6743  134.4835  157.5588 LP  0  0  0  0  0  0  0  0  0  0  0  0  # atno 17394 bound_to 11000
  139.9087  134.8393  156.1610 LP  0  0  0  0  0  0  0  0  0  0  0  0  # atno 17395 bound_to 11000

$$$$
