AV-unprocessed.smi:3209|AV-procd|sdf|12269|dock5
  -GOLD-   2272018103D 1   1.00000     0.00000
 Structure written by MMmdl.
 37 39  0  0  0  0  0  0  0  0  2 V2000
  153.6326  138.5210  154.5468 C   0  0  0  0  0  0  0  0  0  0  0  0
  152.1654  138.7482  154.6797 C   0  0  0  0  0  0  0  0  0  0  0  0
  151.6243  139.9344  154.9699 N   0  0  0  0  0  0  0  0  0  0  0  0
  150.2288  139.8872  155.0423 C   0  0  0  0  0  0  0  0  0  0  0  0
  149.4576  141.1318  155.3612 C   0  0  0  0  0  0  0  0  0  0  0  0
  149.6094  141.5485  156.8303 C   0  0  0  0  0  0  0  0  0  0  0  0
  150.5404  142.6872  156.9654 N   0  3  0  0  0  0  0  0  0  0  0  0
  150.7482  143.1501  158.3550 C   0  0  1  0  0  0  0  0  0  0  0  0
  151.8777  142.3770  159.0751 C   0  0  0  0  0  0  0  0  0  0  0  0
  152.8460  143.4968  159.4979 C   0  0  2  0  0  0  0  0  0  0  0  0
  152.1992  144.3510  160.6040 C   0  0  0  0  0  0  0  0  0  0  0  0
  151.1211  145.1400  159.8366 C   0  0  0  0  0  0  0  0  0  0  0  0
  151.2663  144.6045  158.3994 C   0  0  1  0  0  0  0  0  0  0  0  0
  152.7788  144.4300  158.2955 C   0  0  0  0  0  0  0  0  0  0  0  0
  149.7158  138.6382  154.7938 C   0  0  0  0  0  0  0  0  0  0  0  0
  150.9706  137.4749  154.4642 S   0  0  0  0  0  0  0  0  0  0  0  0
  154.1897  139.3899  154.8985 H   0  0  0  0  0  0  0  0  0  0  0  0
  153.8878  138.3400  153.5027 H   0  0  0  0  0  0  0  0  0  0  0  0
  153.9310  137.6543  155.1366 H   0  0  0  0  0  0  0  0  0  0  0  0
  149.7870  141.9471  154.7158 H   0  0  0  0  0  0  0  0  0  0  0  0
  148.4015  140.9791  155.1342 H   0  0  0  0  0  0  0  0  0  0  0  0
  148.6391  141.8318  157.2405 H   0  0  0  0  0  0  0  0  0  0  0  0
  149.9737  140.7051  157.4181 H   0  0  0  0  0  0  0  0  0  0  0  0
  151.4353  142.4344  156.5716 H   0  0  0  0  0  0  0  0  0  0  0  0
  149.8036  143.0706  158.8956 H   0  0  0  0  0  0  0  0  0  0  0  0
  151.5095  141.8049  159.9276 H   0  0  0  0  0  0  0  0  0  0  0  0
  152.3831  141.6808  158.4038 H   0  0  0  0  0  0  0  0  0  0  0  0
  153.8449  143.1393  159.7492 H   0  0  0  0  0  0  0  0  0  0  0  0
  151.7786  143.7403  161.4041 H   0  0  0  0  0  0  0  0  0  0  0  0
  152.9274  145.0305  161.0487 H   0  0  0  0  0  0  0  0  0  0  0  0
  150.1210  144.9846  160.2430 H   0  0  0  0  0  0  0  0  0  0  0  0
  151.3320  146.2096  159.8732 H   0  0  0  0  0  0  0  0  0  0  0  0
  150.8214  145.2599  157.6496 H   0  0  0  0  0  0  0  0  0  0  0  0
  153.3331  145.3595  158.4384 H   0  0  0  0  0  0  0  0  0  0  0  0
  153.1012  143.9615  157.3639 H   0  0  0  0  0  0  0  0  0  0  0  0
  148.6805  138.3306  154.7850 H   0  0  0  0  0  0  0  0  0  0  0  0
  150.1611  143.4577  156.4336 H   0  0  0  0  0  0  0  0  0  0  0  0
  1  2  1  0  0  0  0
  1 17  1  0  0  0  0
  1 18  1  0  0  0  0
  1 19  1  0  0  0  0
  2 16  1  0  0  0  0
  2  3  2  0  0  0  0
  3  4  1  0  0  0  0
  4  5  1  0  0  0  0
  4 15  2  0  0  0  0
  5  6  1  0  0  0  0
  5 20  1  0  0  0  0
  5 21  1  0  0  0  0
  6  7  1  0  0  0  0
  6 22  1  0  0  0  0
  6 23  1  0  0  0  0
  7  8  1  0  0  0  0
  7 24  1  0  0  0  0
  7 37  1  0  0  0  0
  8 13  1  0  0  0  0
  8  9  1  0  0  0  0
  8 25  1  0  0  0  0
  9 10  1  0  0  0  0
  9 26  1  0  0  0  0
  9 27  1  0  0  0  0
 10 14  1  0  0  0  0
 10 11  1  0  0  0  0
 10 28  1  0  0  0  0
 11 12  1  0  0  0  0
 11 29  1  0  0  0  0
 11 30  1  0  0  0  0
 12 13  1  0  0  0  0
 12 31  1  0  0  0  0
 12 32  1  0  0  0  0
 13 14  1  0  0  0  0
 13 33  1  0  0  0  0
 14 34  1  0  0  0  0
 14 35  1  0  0  0  0
 15 16  1  0  0  0  0
 15 36  1  0  0  0  0
M  CHG  1   7   1
M  END
> <s_m_source_file>
AV-unprocessed.smi

> <i_m_source_file_index>
3209

> <i_lp_mmshare_version>
43012

> <i_f3d_flags>
0

> <s_epik_input>
W0NIM11jMW5jKFtjSF1zMSlbQ0gyXVtDSDJdW05IXVtDQEhdKFtDSDJdW0NASF0yMylbQ0BIXShbQ0gyXTMpW0NIMl1bQ0gyXTI=

> <s_epik_cmdline>
J2VwaWtfcHl0aG9uJywgJy1waCcsICc3LjAnLCAnLXRuJywgJzgnLCAnLW1hJywgJzIwMCcsICctbWV0YWxfYmluZGluZycsICctaW1hZScsICc8aW5maWxlLm1hZT4nLCAnLW9tYWUnLCAnPG91dGZpbGUubWFlPic=

> <r_lp_tautomer_probability>
1

> <r_epik_Ionization_Penalty>
0.000342479

> <r_epik_Ionization_Penalty_Charging>
0.000317129

> <r_epik_Ionization_Penalty_Neutral>
2.535e-05

> <r_epik_State_Penalty>
-0

> <r_epik_Charging_Adjusted_Penalty>
0.000317129

> <i_epik_Tot_Q>
1

> <i_epik_Tot_abs_Q>
1

> <r_epik_Metal_State_Penalty>
-0

> <b_epik_Metal_Only>
0

> <s_lp_Force_Field>
OPLS_2005

> <r_lp_Energy>
48.296

> <b_lp_Chiralities_Consistent>
1

> <s_lp_Variant>
AV-unprocessed.smi:3209-2

> <Gold.Version>
5.8.1

> <Gold.Id.Protein>
6NUR|6NUR_protein|mol2

> <Gold.PLP.Fitness>
50.9214

> <Gold.PLP.PLP>
-43.7582

> <Gold.PLP.part.hbond>
-2.0000

> <Gold.PLP.part.metal>
0.0000

> <Gold.PLP.part.buried>
-5.1774

> <Gold.PLP.part.nonpolar>
-37.6792

> <Gold.PLP.part.repulsive>
0.0754

> <Gold.PLP.ligand.clash>
0.0000

> <Gold.PLP.ligand.torsion>
0.7023

> <Gold.PLP.Chemscore.Hbond>
2.8500

> <Gold.PLP.Chemscore.CHOScore>
0.0000

> <Gold.PLP.Chemscore.Metal>
0.0000

> <Gold.Chemscore.Hbonds>
donor molecule, donor type, donor heavy atom, donor atom, acceptor molecule, acceptor atom, score
      L1  H     7    37       P1  8028  2.00
      P1  H  7989  7998       L1     3  0.75

> <Gold.PLP.Chemscore.Internal.Correction>
0.0179

> <Gold.Rescore>
     Score         DG    S(hbond)    S(metal)    S(lipo)     H(rot)  DE(clash)    DE(int)     intcor
     21.51     -22.29       1.42        0.00     131.92       1.31       0.04       0.73       ----

> <Gold.Chemscore.Fitness>
21.5090

> <Gold.Chemscore.DG>
-22.2867

> <Gold.Chemscore.ZeroCoef>
-5.4800

> <Gold.Chemscore.Hbond>
1.4156

> <Gold.Chemscore.Metal>
0.0000

> <Gold.Chemscore.Lipo>
131.9177

> <Gold.Chemscore.Internal_Hbond>
0.0000

> <Gold.Chemscore.DEClash>
0.0437

> <Gold.Chemscore.DEInternal>
0.7340

> <Gold.Chemscore.Rot>
1.3108

> <Gold.Chemscore.Internal.Correction>
   9.000000E+99

> <Gold.Chemscore.Hbonds>
donor molecule, donor type, donor heavy atom, donor atom, acceptor molecule, acceptor atom, score
      L1  H     7    37       P1  8028  0.99
      P1  H  7989  7998       L1     3  0.06

> <Gold.Chemscore.Hbond.Weighted>
-4.7281

> <Gold.Chemscore.Metal.Weighted>
-0.0000

> <Gold.Chemscore.Lipo.Weighted>
-15.4344

> <Gold.Chemscore.Internal_Hbond.Weighted>
0.0000

> <Gold.Chemscore.DEClash.Weighted>
0.0437

> <Gold.Chemscore.DEInternal.Weighted>
0.7340

> <Gold.Chemscore.Rot.Weighted>
3.3558

> <Gold.Chemscore.Internal.Correction.Weighted>
   9.000000E+99

> <Gold.Protein.RotatedTorsions>
[ 6907 6896 6895 6894 ] final -136.03 input  -60.11 | X-H torsion
[ 7974 7965 7964 7962 ] final   83.08 input  175.53 | X-H torsion
[ 8008 7997 7996 7995 ] final  102.55 input   59.86 | X-H torsion
[ 10167 10162 10161 10158 ] final  107.35 input  -65.29 | X-H torsion
[ 10718 10713 10712 10709 ] final -177.61 input   66.30 | X-H torsion
[ 10763 10752 10751 10750 ] final  164.63 input  -60.55 | X-H torsion
[ 11005 11000 10999 10996 ] final -141.77 input  -57.11 | X-H torsion

> <Gold.Protein.ActiveResidues>
 VAL166  LYS551  ARG553  GLY616  TRP617  ASP618  TYR619  PRO620  LYS621  CYS622 
 ASP623  PHE694  ASN695  SER759  ASP760  ASP761  ALA762  ILE779  LEU786  VAL792 
 PHE793  MET794  SER795  GLU796  ALA797  LYS798  CYS799  TRP800  GLU811  SER814 

> <Gold.Protein.RotatedAtoms>
  151.0051  133.6019  159.2689 H   0  0  0  0  0  0  0  0  0  0  0  0  # atno 6907 bound_to 6896
  151.3191  135.0813  159.9309 H   0  0  0  0  0  0  0  0  0  0  0  0  # atno 6908 bound_to 6896
  152.5284  133.9702  159.7812 H   0  0  0  0  0  0  0  0  0  0  0  0  # atno 6909 bound_to 6896
  145.6166  139.2378  143.2162 H   0  0  0  0  0  0  0  0  0  0  0  0  # atno 7974 bound_to 7965
  156.1403  140.3179  155.8484 H   0  0  0  0  0  0  0  0  0  0  0  0  # atno 8008 bound_to 7997
  155.4167  140.0509  157.3045 H   0  0  0  0  0  0  0  0  0  0  0  0  # atno 8009 bound_to 7997
  154.4970  140.2115  155.9438 H   0  0  0  0  0  0  0  0  0  0  0  0  # atno 8010 bound_to 7997
  139.6934  144.7105  151.1308 H   0  0  0  0  0  0  0  0  0  0  0  0  # atno 10167 bound_to 10162
  156.8320  130.9656  151.3106 H   0  0  0  0  0  0  0  0  0  0  0  0  # atno 10718 bound_to 10713
  154.3118  135.2757  155.2562 H   0  0  0  0  0  0  0  0  0  0  0  0  # atno 10763 bound_to 10752
  154.4954  135.5822  153.6494 H   0  0  0  0  0  0  0  0  0  0  0  0  # atno 10764 bound_to 10752
  152.9887  135.6145  154.3296 H   0  0  0  0  0  0  0  0  0  0  0  0  # atno 10765 bound_to 10752
  140.8291  134.2538  157.4865 H   0  0  0  0  0  0  0  0  0  0  0  0  # atno 11005 bound_to 11000
  146.1463  140.6987  142.9343 LP  0  0  0  0  0  0  0  0  0  0  0  0  # atno 17320 bound_to 7965
  144.7248  140.4490  143.6981 LP  0  0  0  0  0  0  0  0  0  0  0  0  # atno 17321 bound_to 7965
  140.7689  143.5526  150.9188 LP  0  0  0  0  0  0  0  0  0  0  0  0  # atno 17342 bound_to 10162
  139.9204  143.6612  152.3098 LP  0  0  0  0  0  0  0  0  0  0  0  0  # atno 17343 bound_to 10162
  157.6402  130.8799  149.9433 LP  0  0  0  0  0  0  0  0  0  0  0  0  # atno 17370 bound_to 10713
  156.0929  130.3662  150.0361 LP  0  0  0  0  0  0  0  0  0  0  0  0  # atno 17371 bound_to 10713
  139.8705  134.9577  156.4276 LP  0  0  0  0  0  0  0  0  0  0  0  0  # atno 17394 bound_to 11000
  140.9017  133.7775  155.9688 LP  0  0  0  0  0  0  0  0  0  0  0  0  # atno 17395 bound_to 11000

$$$$
