AV-unprocessed.smi:59|AV-procd|sdf|586|dock1
  -GOLD-   2262016483D 1   1.00000     0.00000
 Structure written by MMmdl.
 29 30  0  0  0  0  0  0  0  0  2 V2000
  147.7523  141.9211  157.6826 C   0  0  0  0  0  0  0  0  0  0  0  0
  148.6051  141.3929  156.6225 N   0  0  0  0  0  0  0  0  0  0  0  0
  148.2378  141.2454  155.3432 C   0  0  0  0  0  0  0  0  0  0  0  0
  147.1625  141.5886  154.8513 O   0  0  0  0  0  0  0  0  0  0  0  0
  149.3252  140.5304  154.5592 C   0  0  1  0  0  0  0  0  0  0  0  0
  149.5105  141.0988  153.2762 O   0  0  0  0  0  0  0  0  0  0  0  0
  150.5531  140.6903  155.4741 C   0  0  2  0  0  0  0  0  0  0  0  0
  151.5590  139.5282  155.3606 C   0  0  0  0  0  0  0  0  0  0  0  0
  151.1501  138.3769  155.6282 O   0  0  0  0  0  0  0  0  0  0  0  0
  152.7313  139.8069  155.0249 O   0  5  0  0  0  0  0  0  0  0  0  0
  149.9679  140.9304  156.8882 C   0  0  1  0  0  0  0  0  0  0  0  0
  150.8056  141.9041  157.6888 C   0  0  0  0  0  0  0  0  0  0  0  0
  151.4854  141.6565  158.9159 C   0  0  0  0  0  0  0  0  0  0  0  0
  152.1354  142.7159  159.3703 N   0  0  0  0  0  0  0  0  0  0  0  0
  151.9059  143.6707  158.4468 N   0  0  0  0  0  0  0  0  0  0  0  0
  152.4772  144.9884  158.6239 C   0  0  0  0  0  0  0  0  0  0  0  0
  151.1112  143.2099  157.4203 C   0  0  0  0  0  0  0  0  0  0  0  0
  149.0361  139.4836  154.4522 H   0  0  0  0  0  0  0  0  0  0  0  0
  151.0804  141.5941  155.1613 H   0  0  0  0  0  0  0  0  0  0  0  0
  149.8714  139.9826  157.4213 H   0  0  0  0  0  0  0  0  0  0  0  0
  146.7416  141.5172  157.6096 H   0  0  0  0  0  0  0  0  0  0  0  0
  147.6935  143.0078  157.6149 H   0  0  0  0  0  0  0  0  0  0  0  0
  148.1428  141.6602  158.6667 H   0  0  0  0  0  0  0  0  0  0  0  0
  149.4378  140.4100  152.6335 H   0  0  0  0  0  0  0  0  0  0  0  0
  151.5207  140.7415  159.4884 H   0  0  0  0  0  0  0  0  0  0  0  0
  152.3781  145.5647  157.7036 H   0  0  0  0  0  0  0  0  0  0  0  0
  153.5347  144.9049  158.8769 H   0  0  0  0  0  0  0  0  0  0  0  0
  151.9556  145.5090  159.4274 H   0  0  0  0  0  0  0  0  0  0  0  0
  150.8282  143.8416  156.5912 H   0  0  0  0  0  0  0  0  0  0  0  0
  1  2  1  0  0  0  0
  1 21  1  0  0  0  0
  1 22  1  0  0  0  0
  1 23  1  0  0  0  0
  2 11  1  0  0  0  0
  2  3  1  0  0  0  0
  3  4  2  0  0  0  0
  3  5  1  0  0  0  0
  5 18  1  0  0  0  0
  5  6  1  0  0  0  0
  5  7  1  0  0  0  0
  6 24  1  0  0  0  0
  7 19  1  0  0  0  0
  7  8  1  0  0  0  0
  7 11  1  0  0  0  0
  8  9  2  0  0  0  0
  8 10  1  0  0  0  0
 11 20  1  0  0  0  0
 11 12  1  0  0  0  0
 12 17  2  0  0  0  0
 12 13  1  0  0  0  0
 13 14  2  0  0  0  0
 13 25  1  0  0  0  0
 14 15  1  0  0  0  0
 15 16  1  0  0  0  0
 15 17  1  0  0  0  0
 16 26  1  0  0  0  0
 16 27  1  0  0  0  0
 16 28  1  0  0  0  0
 17 29  1  0  0  0  0
M  CHG  1  10  -1
M  END
> <s_m_source_file>
AV-unprocessed.smi

> <i_m_source_file_index>
59

> <i_lp_mmshare_version>
43012

> <i_f3d_flags>
0

> <s_epik_input>
W0NIM11OMUMoPU8pW0NASF0oW09IXSlbQ0BIXShDKD1PKVtPSF0pW0NASF0xYzJbY0hdbm4oW0NIM10pW2NIXTI=

> <s_epik_cmdline>
J2VwaWtfcHl0aG9uJywgJy1waCcsICc3LjAnLCAnLXRuJywgJzgnLCAnLW1hJywgJzIwMCcsICctbWV0YWxfYmluZGluZycsICctaW1hZScsICc8aW5maWxlLm1hZT4nLCAnLW9tYWUnLCAnPG91dGZpbGUubWFlPic=

> <r_lp_tautomer_probability>
1

> <r_epik_Ionization_Penalty>
0.00173515

> <r_epik_Ionization_Penalty_Charging>
0.00120567

> <r_epik_Ionization_Penalty_Neutral>
0.000529476

> <r_epik_State_Penalty>
-0

> <r_epik_Charging_Adjusted_Penalty>
0.00120567

> <i_epik_Tot_Q>
-1

> <i_epik_Tot_abs_Q>
1

> <r_epik_Metal_State_Penalty>
-0

> <b_epik_Metal_Only>
0

> <s_lp_Force_Field>
OPLS_2005

> <r_lp_Energy>
8.65674

> <b_lp_Chiralities_Consistent>
1

> <s_lp_Variant>
AV-unprocessed.smi:59-2

> <Gold.Version>
5.8.1

> <Gold.Id.Protein>
6NUR|6NUR_protein|mol2

> <Gold.PLP.Fitness>
49.4774

> <Gold.PLP.PLP>
-34.6907

> <Gold.PLP.part.hbond>
-4.4552

> <Gold.PLP.part.metal>
0.0000

> <Gold.PLP.part.buried>
-2.9415

> <Gold.PLP.part.nonpolar>
-26.6068

> <Gold.PLP.part.repulsive>
0.1487

> <Gold.PLP.ligand.clash>
0.0000

> <Gold.PLP.ligand.torsion>
0.0225

> <Gold.PLP.Chemscore.Hbond>
3.9401

> <Gold.PLP.Chemscore.CHOScore>
1.0000

> <Gold.PLP.Chemscore.Metal>
0.0000

> <Gold.Chemscore.Hbonds>
donor molecule, donor type, donor heavy atom, donor atom, acceptor molecule, acceptor atom, score
      L1  H     6    24       P1  7957  0.89
      P1  H  7989  7998       L1     6  0.05
      P1  H  7997  8009       L1    10  2.00
      P1  H  8011  8017       L1     6  1.00
      L1  C    17    29       P1  8028  1.00

> <Gold.PLP.Chemscore.Internal.Correction>
0.0112

> <Gold.Rescore>
     Score         DG    S(hbond)    S(metal)    S(lipo)     H(rot)  DE(clash)    DE(int)     intcor
     15.03     -15.09       2.35        0.00      60.20       2.06       0.04       0.02       ----

> <Gold.Chemscore.Fitness>
15.0313

> <Gold.Chemscore.DG>
-15.0872

> <Gold.Chemscore.ZeroCoef>
-5.4800

> <Gold.Chemscore.Hbond>
2.3496

> <Gold.Chemscore.Metal>
0.0000

> <Gold.Chemscore.Lipo>
60.1977

> <Gold.Chemscore.Internal_Hbond>
0.0000

> <Gold.Chemscore.DEClash>
0.0354

> <Gold.Chemscore.DEInternal>
0.0205

> <Gold.Chemscore.Rot>
2.0639

> <Gold.Chemscore.Internal.Correction>
   9.000000E+99

> <Gold.Chemscore.Hbonds>
donor molecule, donor type, donor heavy atom, donor atom, acceptor molecule, acceptor atom, score
      L1  H     6    24       P1  7957  0.81
      P1  H  7997  8009       L1    10  0.98
      P1  H  8011  8017       L1     6  0.34

> <Gold.Chemscore.Hbond.Weighted>
-7.8477

> <Gold.Chemscore.Metal.Weighted>
-0.0000

> <Gold.Chemscore.Lipo.Weighted>
-7.0431

> <Gold.Chemscore.Internal_Hbond.Weighted>
0.0000

> <Gold.Chemscore.DEClash.Weighted>
0.0354

> <Gold.Chemscore.DEInternal.Weighted>
0.0205

> <Gold.Chemscore.Rot.Weighted>
5.2837

> <Gold.Chemscore.Internal.Correction.Weighted>
   9.000000E+99

> <Gold.Protein.RotatedTorsions>
[ 6907 6896 6895 6894 ] final   98.02 input  -60.11 | X-H torsion
[ 7974 7965 7964 7962 ] final -174.49 input  175.53 | X-H torsion
[ 8008 7997 7996 7995 ] final -144.67 input   59.86 | X-H torsion
[ 10167 10162 10161 10158 ] final -162.08 input  -65.29 | X-H torsion
[ 10718 10713 10712 10709 ] final  106.05 input   66.30 | X-H torsion
[ 10763 10752 10751 10750 ] final  110.76 input  -60.55 | X-H torsion
[ 11005 11000 10999 10996 ] final   55.50 input  -57.11 | X-H torsion

> <Gold.Protein.ActiveResidues>
 VAL166  LYS551  ARG553  GLY616  TRP617  ASP618  TYR619  PRO620  LYS621  CYS622 
 ASP623  PHE694  ASN695  SER759  ASP760  ASP761  ALA762  ILE779  LEU786  VAL792 
 PHE793  MET794  SER795  GLU796  ALA797  LYS798  CYS799  TRP800  GLU811  SER814 

> <Gold.Protein.RotatedAtoms>
  152.5415  134.0645  159.8166 H   0  0  0  0  0  0  0  0  0  0  0  0  # atno 6907 bound_to 6896
  151.0768  133.5414  159.2630 H   0  0  0  0  0  0  0  0  0  0  0  0  # atno 6908 bound_to 6896
  151.2257  135.0544  159.9021 H   0  0  0  0  0  0  0  0  0  0  0  0  # atno 6909 bound_to 6896
  144.7131  140.1463  143.6388 H   0  0  0  0  0  0  0  0  0  0  0  0  # atno 7974 bound_to 7965
  155.5308  140.0599  157.2889 H   0  0  0  0  0  0  0  0  0  0  0  0  # atno 8008 bound_to 7997
  154.4485  140.1936  156.0537 H   0  0  0  0  0  0  0  0  0  0  0  0  # atno 8009 bound_to 7997
  156.0654  140.3267  155.7515 H   0  0  0  0  0  0  0  0  0  0  0  0  # atno 8010 bound_to 7997
  139.6418  144.0246  152.2097 H   0  0  0  0  0  0  0  0  0  0  0  0  # atno 10167 bound_to 10162
  157.6682  131.0842  150.5949 H   0  0  0  0  0  0  0  0  0  0  0  0  # atno 10718 bound_to 10713
  153.4536  135.3738  155.2298 H   0  0  0  0  0  0  0  0  0  0  0  0  # atno 10763 bound_to 10752
  154.8756  135.3891  154.4009 H   0  0  0  0  0  0  0  0  0  0  0  0  # atno 10764 bound_to 10752
  153.4572  135.7086  153.6136 H   0  0  0  0  0  0  0  0  0  0  0  0  # atno 10765 bound_to 10752
  140.0602  134.5613  155.9161 H   0  0  0  0  0  0  0  0  0  0  0  0  # atno 11005 bound_to 11000
  145.9157  139.2514  143.1411 LP  0  0  0  0  0  0  0  0  0  0  0  0  # atno 17320 bound_to 7965
  145.9671  140.8789  143.0181 LP  0  0  0  0  0  0  0  0  0  0  0  0  # atno 17321 bound_to 7965
  139.9937  144.6343  150.7791 LP  0  0  0  0  0  0  0  0  0  0  0  0  # atno 17342 bound_to 10162
  140.7494  143.2939  151.3257 LP  0  0  0  0  0  0  0  0  0  0  0  0  # atno 17343 bound_to 10162
  156.6250  130.4416  149.5808 LP  0  0  0  0  0  0  0  0  0  0  0  0  # atno 17370 bound_to 10713
  156.2326  130.6804  151.1478 LP  0  0  0  0  0  0  0  0  0  0  0  0  # atno 17371 bound_to 10713
  141.1970  133.6594  156.5718 LP  0  0  0  0  0  0  0  0  0  0  0  0  # atno 17394 bound_to 11000
  140.3782  134.7546  157.4644 LP  0  0  0  0  0  0  0  0  0  0  0  0  # atno 17395 bound_to 11000

$$$$
