AV-unprocessed.smi:2812|AV-procd|sdf|10836|dock6
  -GOLD-   2272015273D 1   1.00000     0.00000
 Structure written by MMmdl.
 55 56  0  0  0  0  0  0  0  0  2 V2000
  152.9950  139.9985  159.3635 C   0  0  0  0  0  0  0  0  0  0  0  0
  152.6465  141.4712  159.5101 C   0  0  0  0  0  0  0  0  0  0  0  0
  153.0448  142.1733  160.7126 C   0  0  0  0  0  0  0  0  0  0  0  0
  152.7316  143.4682  160.8545 C   0  0  0  0  0  0  0  0  0  0  0  0
  152.0389  144.1716  159.8588 N   0  0  0  0  0  0  0  0  0  0  0  0
  151.7571  145.5891  160.1009 C   0  0  0  0  0  0  0  0  0  0  0  0
  151.6583  143.5895  158.6855 C   0  0  0  0  0  0  0  0  0  0  0  0
  151.1181  144.2535  157.7974 O   0  0  0  0  0  0  0  0  0  0  0  0
  151.9536  142.1416  158.5524 C   0  0  0  0  0  0  0  0  0  0  0  0
  151.5820  141.4640  157.3801 N   0  0  0  0  0  0  0  0  0  0  0  0
  150.3452  141.0347  157.0729 C   0  0  0  0  0  0  0  0  0  0  0  0
  149.3548  141.1660  157.7936 O   0  0  0  0  0  0  0  0  0  0  0  0
  150.3143  140.4310  155.8769 N   0  0  0  0  0  0  0  0  0  0  0  0
  149.1108  139.8868  155.2566 C   0  0  0  0  0  0  0  0  0  0  0  0
  149.4271  138.7417  154.2542 C   0  0  1  0  0  0  0  0  0  0  0  0
  150.8680  138.1937  154.3775 C   0  0  0  0  0  0  0  0  0  0  0  0
  151.0598  137.3639  155.6557 C   0  0  0  0  0  0  0  0  0  0  0  0
  150.0086  136.2486  155.7217 C   0  0  0  0  0  0  0  0  0  0  0  0
  148.5851  136.8118  155.5780 C   0  0  0  0  0  0  0  0  0  0  0  0
  148.4539  137.6128  154.3308 N   0  3  1  0  0  0  0  0  0  0  0  0
  147.0551  138.0001  154.0105 C   0  0  0  0  0  0  0  0  0  0  0  0
  146.9445  138.7694  152.6774 C   0  0  0  0  0  0  0  0  0  0  0  0
  146.5155  140.2304  152.8959 C   0  0  0  0  0  0  0  0  0  0  0  0
  145.9707  138.0613  151.7238 C   0  0  0  0  0  0  0  0  0  0  0  0
  153.4851  139.6179  160.2599 H   0  0  0  0  0  0  0  0  0  0  0  0
  153.6708  139.8489  158.5211 H   0  0  0  0  0  0  0  0  0  0  0  0
  152.0957  139.4047  159.1971 H   0  0  0  0  0  0  0  0  0  0  0  0
  153.5838  141.6608  161.4959 H   0  0  0  0  0  0  0  0  0  0  0  0
  152.9991  144.0428  161.7293 H   0  0  0  0  0  0  0  0  0  0  0  0
  150.6934  145.7987  159.9771 H   0  0  0  0  0  0  0  0  0  0  0  0
  152.3112  146.2128  159.3982 H   0  0  0  0  0  0  0  0  0  0  0  0
  152.0311  145.9063  161.1076 H   0  0  0  0  0  0  0  0  0  0  0  0
  152.3385  141.1904  156.7707 H   0  0  0  0  0  0  0  0  0  0  0  0
  151.1752  140.3569  155.3543 H   0  0  0  0  0  0  0  0  0  0  0  0
  148.4613  139.5376  156.0582 H   0  0  0  0  0  0  0  0  0  0  0  0
  148.5736  140.7008  154.7680 H   0  0  0  0  0  0  0  0  0  0  0  0
  149.3390  139.1508  153.2466 H   0  0  0  0  0  0  0  0  0  0  0  0
  151.0816  137.5629  153.5136 H   0  0  0  0  0  0  0  0  0  0  0  0
  151.5994  139.0013  154.3403 H   0  0  0  0  0  0  0  0  0  0  0  0
  152.0617  136.9341  155.6766 H   0  0  0  0  0  0  0  0  0  0  0  0
  150.9809  138.0033  156.5354 H   0  0  0  0  0  0  0  0  0  0  0  0
  150.1949  135.5262  154.9258 H   0  0  0  0  0  0  0  0  0  0  0  0
  150.1018  135.7031  156.6612 H   0  0  0  0  0  0  0  0  0  0  0  0
  147.8809  135.9806  155.5648 H   0  0  0  0  0  0  0  0  0  0  0  0
  148.3250  137.4183  156.4459 H   0  0  0  0  0  0  0  0  0  0  0  0
  146.4293  137.1063  153.9931 H   0  0  0  0  0  0  0  0  0  0  0  0
  146.6555  138.6349  154.8031 H   0  0  0  0  0  0  0  0  0  0  0  0
  147.9178  138.7768  152.1873 H   0  0  0  0  0  0  0  0  0  0  0  0
  145.5397  140.2899  153.3790 H   0  0  0  0  0  0  0  0  0  0  0  0
  146.4484  140.7646  151.9478 H   0  0  0  0  0  0  0  0  0  0  0  0
  147.2292  140.7686  153.5200 H   0  0  0  0  0  0  0  0  0  0  0  0
  144.9666  138.0115  152.1463 H   0  0  0  0  0  0  0  0  0  0  0  0
  146.2949  137.0413  151.5157 H   0  0  0  0  0  0  0  0  0  0  0  0
  145.9041  138.5846  150.7695 H   0  0  0  0  0  0  0  0  0  0  0  0
  148.7280  136.9939  153.5811 H   0  0  0  0  0  0  0  0  0  0  0  0
  1  2  1  0  0  0  0
  1 25  1  0  0  0  0
  1 26  1  0  0  0  0
  1 27  1  0  0  0  0
  2  9  2  0  0  0  0
  2  3  1  0  0  0  0
  3  4  2  0  0  0  0
  3 28  1  0  0  0  0
  4  5  1  0  0  0  0
  4 29  1  0  0  0  0
  5  6  1  0  0  0  0
  5  7  1  0  0  0  0
  6 30  1  0  0  0  0
  6 31  1  0  0  0  0
  6 32  1  0  0  0  0
  7  8  2  0  0  0  0
  7  9  1  0  0  0  0
  9 10  1  0  0  0  0
 10 11  1  0  0  0  0
 10 33  1  0  0  0  0
 11 12  2  0  0  0  0
 11 13  1  0  0  0  0
 13 14  1  0  0  0  0
 13 34  1  0  0  0  0
 14 15  1  0  0  0  0
 14 35  1  0  0  0  0
 14 36  1  0  0  0  0
 15 20  1  0  0  0  0
 15 16  1  0  0  0  0
 15 37  1  0  0  0  0
 16 17  1  0  0  0  0
 16 38  1  0  0  0  0
 16 39  1  0  0  0  0
 17 18  1  0  0  0  0
 17 40  1  0  0  0  0
 17 41  1  0  0  0  0
 18 19  1  0  0  0  0
 18 42  1  0  0  0  0
 18 43  1  0  0  0  0
 19 20  1  0  0  0  0
 19 44  1  0  0  0  0
 19 45  1  0  0  0  0
 20 21  1  0  0  0  0
 20 55  1  0  0  0  0
 21 22  1  0  0  0  0
 21 46  1  0  0  0  0
 21 47  1  0  0  0  0
 22 23  1  0  0  0  0
 22 24  1  0  0  0  0
 22 48  1  0  0  0  0
 23 49  1  0  0  0  0
 23 50  1  0  0  0  0
 23 51  1  0  0  0  0
 24 52  1  0  0  0  0
 24 53  1  0  0  0  0
 24 54  1  0  0  0  0
M  CHG  1  20   1
M  END
> <s_m_source_file>
AV-unprocessed.smi

> <i_m_source_file_index>
2812

> <i_lp_mmshare_version>
43012

> <i_f3d_flags>
0

> <s_epik_input>
W0NIM11jMVtjSF1bY0hdbihbQ0gzXSljKD1PKWMxW05IXUMoPU8pW05IXVtDSDJdW0NAQEhdMltDSDJdW0NIMl1bQ0gyXVtDSDJdTjJbQ0gyXVtDSF0oW0NIM10pW0NIM10=

> <s_epik_cmdline>
J2VwaWtfcHl0aG9uJywgJy1waCcsICc3LjAnLCAnLXRuJywgJzgnLCAnLW1hJywgJzIwMCcsICctbWV0YWxfYmluZGluZycsICctaW1hZScsICc8aW5maWxlLm1hZT4nLCAnLW9tYWUnLCAnPG91dGZpbGUubWFlPic=

> <r_lp_tautomer_probability>
1

> <r_epik_Ionization_Penalty>
0.0010902

> <r_epik_Ionization_Penalty_Charging>
0.00107091

> <r_epik_Ionization_Penalty_Neutral>
1.92854e-05

> <r_epik_State_Penalty>
0.000697184

> <r_epik_Charging_Adjusted_Penalty>
0.0017681

> <i_epik_Tot_Q>
1

> <i_epik_Tot_abs_Q>
1

> <r_epik_Metal_State_Penalty>
-0

> <b_epik_Metal_Only>
0

> <s_lp_Force_Field>
OPLS_2005

> <r_lp_Energy>
38.3811

> <b_lp_Chiralities_Consistent>
1

> <s_lp_Variant>
AV-unprocessed.smi:2812-4

> <Gold.Version>
5.8.1

> <Gold.Id.Protein>
6NUR|6NUR_protein|mol2

> <Gold.PLP.Fitness>
47.6902

> <Gold.PLP.PLP>
-45.5395

> <Gold.PLP.part.hbond>
-1.0000

> <Gold.PLP.part.metal>
0.0000

> <Gold.PLP.part.buried>
0.5895

> <Gold.PLP.part.nonpolar>
-44.5371

> <Gold.PLP.part.repulsive>
0.4030

> <Gold.PLP.ligand.clash>
0.0176

> <Gold.PLP.ligand.torsion>
2.2551

> <Gold.PLP.Chemscore.Hbond>
2.0000

> <Gold.PLP.Chemscore.CHOScore>
0.0000

> <Gold.PLP.Chemscore.Metal>
0.0000

> <Gold.Chemscore.Hbonds>
donor molecule, donor type, donor heavy atom, donor atom, acceptor molecule, acceptor atom, score
      L1  H    20    55       P1  7948  2.00

> <Gold.PLP.Chemscore.Internal.Correction>
0.6786

> <Gold.Rescore>
     Score         DG    S(hbond)    S(metal)    S(lipo)     H(rot)  DE(clash)    DE(int)     intcor
     15.76     -19.41       1.00        0.00     123.73       1.52       1.38       2.27       ----

> <Gold.Chemscore.Fitness>
15.7602

> <Gold.Chemscore.DG>
-19.4131

> <Gold.Chemscore.ZeroCoef>
-5.4800

> <Gold.Chemscore.Hbond>
0.9991

> <Gold.Chemscore.Metal>
0.0000

> <Gold.Chemscore.Lipo>
123.7301

> <Gold.Chemscore.Internal_Hbond>
0.0000

> <Gold.Chemscore.DEClash>
1.3823

> <Gold.Chemscore.DEInternal>
2.2707

> <Gold.Chemscore.Rot>
1.5157

> <Gold.Chemscore.Internal.Correction>
   9.000000E+99

> <Gold.Chemscore.Hbonds>
donor molecule, donor type, donor heavy atom, donor atom, acceptor molecule, acceptor atom, score
      L1  H    20    55       P1  7948  1.00

> <Gold.Chemscore.Hbond.Weighted>
-3.3369

> <Gold.Chemscore.Metal.Weighted>
-0.0000

> <Gold.Chemscore.Lipo.Weighted>
-14.4764

> <Gold.Chemscore.Internal_Hbond.Weighted>
0.0000

> <Gold.Chemscore.DEClash.Weighted>
1.3823

> <Gold.Chemscore.DEInternal.Weighted>
2.2707

> <Gold.Chemscore.Rot.Weighted>
3.8803

> <Gold.Chemscore.Internal.Correction.Weighted>
   9.000000E+99

> <Gold.Protein.RotatedTorsions>
[ 6907 6896 6895 6894 ] final -149.16 input  -60.11 | X-H torsion
[ 7974 7965 7964 7962 ] final -113.42 input  175.53 | X-H torsion
[ 8008 7997 7996 7995 ] final  106.48 input   59.86 | X-H torsion
[ 10167 10162 10161 10158 ] final  -77.05 input  -65.29 | X-H torsion
[ 10718 10713 10712 10709 ] final -167.53 input   66.30 | X-H torsion
[ 10763 10752 10751 10750 ] final  113.21 input  -60.55 | X-H torsion
[ 11005 11000 10999 10996 ] final   59.42 input  -57.11 | X-H torsion

> <Gold.Protein.ActiveResidues>
 VAL166  LYS551  ARG553  GLY616  TRP617  ASP618  TYR619  PRO620  LYS621  CYS622 
 ASP623  PHE694  ASN695  SER759  ASP760  ASP761  ALA762  ILE779  LEU786  VAL792 
 PHE793  MET794  SER795  GLU796  ALA797  LYS798  CYS799  TRP800  GLU811  SER814 

> <Gold.Protein.RotatedAtoms>
  151.1801  133.4730  159.2593 H   0  0  0  0  0  0  0  0  0  0  0  0  # atno 6907 bound_to 6896
  151.1268  135.0109  159.8574 H   0  0  0  0  0  0  0  0  0  0  0  0  # atno 6908 bound_to 6896
  152.5458  134.1707  159.8649 H   0  0  0  0  0  0  0  0  0  0  0  0  # atno 6909 bound_to 6896
  145.1322  140.8731  143.3751 H   0  0  0  0  0  0  0  0  0  0  0  0  # atno 7974 bound_to 7965
  156.1746  140.3112  155.9035 H   0  0  0  0  0  0  0  0  0  0  0  0  # atno 8008 bound_to 7997
  155.3515  140.0471  157.3063 H   0  0  0  0  0  0  0  0  0  0  0  0  # atno 8009 bound_to 7997
  154.5277  140.2220  155.8871 H   0  0  0  0  0  0  0  0  0  0  0  0  # atno 8010 bound_to 7997
  140.4804  143.2403  151.8067 H   0  0  0  0  0  0  0  0  0  0  0  0  # atno 10167 bound_to 10162
  156.6838  130.9132  151.3060 H   0  0  0  0  0  0  0  0  0  0  0  0  # atno 10718 bound_to 10713
  153.4891  135.3662  155.2482 H   0  0  0  0  0  0  0  0  0  0  0  0  # atno 10763 bound_to 10752
  154.8753  135.3973  154.3610 H   0  0  0  0  0  0  0  0  0  0  0  0  # atno 10764 bound_to 10752
  153.4227  135.7080  153.6349 H   0  0  0  0  0  0  0  0  0  0  0  0  # atno 10765 bound_to 10752
  140.0305  134.6019  155.9514 H   0  0  0  0  0  0  0  0  0  0  0  0  # atno 11005 bound_to 11000
  145.0623  139.3096  143.5874 LP  0  0  0  0  0  0  0  0  0  0  0  0  # atno 17320 bound_to 7965
  146.3513  140.0069  142.8671 LP  0  0  0  0  0  0  0  0  0  0  0  0  # atno 17321 bound_to 7965
  139.4832  144.4780  151.9343 LP  0  0  0  0  0  0  0  0  0  0  0  0  # atno 17342 bound_to 10162
  140.3865  144.2670  150.5903 LP  0  0  0  0  0  0  0  0  0  0  0  0  # atno 17343 bound_to 10162
  157.7034  130.9358  150.0855 LP  0  0  0  0  0  0  0  0  0  0  0  0  # atno 17370 bound_to 10713
  156.1848  130.3652  149.8987 LP  0  0  0  0  0  0  0  0  0  0  0  0  # atno 17371 bound_to 10713
  141.1828  133.6549  156.5091 LP  0  0  0  0  0  0  0  0  0  0  0  0  # atno 17394 bound_to 11000
  140.4234  134.7167  157.4902 LP  0  0  0  0  0  0  0  0  0  0  0  0  # atno 17395 bound_to 11000

$$$$
