AV-unprocessed.smi:1041|AV-procd|sdf|4528|dock7
  -GOLD-   22720 2543D 1   1.00000     0.00000
 Structure written by MMmdl.
 53 54  0  0  0  0  0  0  0  0  2 V2000
  140.8321  136.2129  153.7447 C   0  0  0  0  0  0  0  0  0  0  0  0
  142.1326  136.1269  153.1879 O   0  0  0  0  0  0  0  0  0  0  0  0
  142.8975  137.2997  153.4111 C   0  0  0  0  0  0  0  0  0  0  0  0
  144.2092  137.2004  152.6161 C   0  0  0  0  0  0  0  0  0  0  0  0
  145.1861  138.2567  152.9859 N   0  3  2  0  0  0  0  0  0  0  0  0
  146.3363  138.3070  152.0471 C   0  0  0  0  0  0  0  0  0  0  0  0
  147.2676  139.4894  152.3631 C   0  0  0  0  0  0  0  0  0  0  0  0
  147.7680  139.4381  153.8206 C   0  0  1  0  0  0  0  0  0  0  0  0
  148.6706  140.6326  154.1820 C   0  0  0  0  0  0  0  0  0  0  0  0
  149.1808  140.5120  155.5401 N   0  0  0  0  0  0  0  0  0  0  0  0
  150.4483  140.2201  155.8630 C   0  0  0  0  0  0  0  0  0  0  0  0
  151.3423  140.0641  155.0322 O   0  0  0  0  0  0  0  0  0  0  0  0
  150.7474  140.0773  157.3559 C   0  0  0  0  0  0  0  0  0  0  0  0
  151.0926  141.3797  158.0768 C   0  0  0  0  0  0  0  0  0  0  0  0
  152.2380  141.5460  158.8008 C   0  0  0  0  0  0  0  0  0  0  0  0
  153.2822  140.4534  158.9521 C   0  0  0  0  0  0  0  0  0  0  0  0
  152.5242  142.7518  159.4560 N   0  0  0  0  0  0  0  0  0  0  0  0
  151.6789  143.7250  159.3652 C   0  0  0  0  0  0  0  0  0  0  0  0
  151.8717  145.0756  160.0218 C   0  0  0  0  0  0  0  0  0  0  0  0
  150.4904  143.6197  158.6450 N   0  0  0  0  0  0  0  0  0  0  0  0
  150.1283  142.4939  157.9905 C   0  0  0  0  0  0  0  0  0  0  0  0
  149.0553  142.4414  157.3912 O   0  0  0  0  0  0  0  0  0  0  0  0
  146.5544  139.3531  154.7615 C   0  0  0  0  0  0  0  0  0  0  0  0
  145.6424  138.1697  154.3985 C   0  0  0  0  0  0  0  0  0  0  0  0
  149.8660  144.4124  158.6126 H   0  0  0  0  0  0  0  0  0  0  0  0
  140.2873  135.2893  153.5495 H   0  0  0  0  0  0  0  0  0  0  0  0
  140.2679  137.0358  153.3035 H   0  0  0  0  0  0  0  0  0  0  0  0
  140.8732  136.3565  154.8252 H   0  0  0  0  0  0  0  0  0  0  0  0
  142.3284  138.1891  153.1409 H   0  0  0  0  0  0  0  0  0  0  0  0
  143.1285  137.3829  154.4742 H   0  0  0  0  0  0  0  0  0  0  0  0
  144.6639  136.2182  152.7532 H   0  0  0  0  0  0  0  0  0  0  0  0
  143.9653  137.2787  151.5556 H   0  0  0  0  0  0  0  0  0  0  0  0
  146.8901  137.3682  152.0976 H   0  0  0  0  0  0  0  0  0  0  0  0
  145.9724  138.4059  151.0235 H   0  0  0  0  0  0  0  0  0  0  0  0
  148.1089  139.4754  151.6694 H   0  0  0  0  0  0  0  0  0  0  0  0
  146.7396  140.4275  152.1858 H   0  0  0  0  0  0  0  0  0  0  0  0
  148.3537  138.5258  153.9464 H   0  0  0  0  0  0  0  0  0  0  0  0
  149.5018  140.6985  153.4775 H   0  0  0  0  0  0  0  0  0  0  0  0
  148.1111  141.5656  154.1031 H   0  0  0  0  0  0  0  0  0  0  0  0
  148.5177  140.6347  156.2922 H   0  0  0  0  0  0  0  0  0  0  0  0
  149.8830  139.6216  157.8396 H   0  0  0  0  0  0  0  0  0  0  0  0
  151.5480  139.3474  157.4819 H   0  0  0  0  0  0  0  0  0  0  0  0
  153.7249  140.2123  157.9856 H   0  0  0  0  0  0  0  0  0  0  0  0
  152.8381  139.5483  159.3669 H   0  0  0  0  0  0  0  0  0  0  0  0
  154.0873  140.7644  159.6189 H   0  0  0  0  0  0  0  0  0  0  0  0
  151.9219  144.9622  161.1049 H   0  0  0  0  0  0  0  0  0  0  0  0
  151.0544  145.7587  159.7868 H   0  0  0  0  0  0  0  0  0  0  0  0
  152.8030  145.5286  159.6808 H   0  0  0  0  0  0  0  0  0  0  0  0
  146.8907  139.2494  155.7937 H   0  0  0  0  0  0  0  0  0  0  0  0
  145.9829  140.2813  154.7150 H   0  0  0  0  0  0  0  0  0  0  0  0
  144.7895  138.1665  155.0758 H   0  0  0  0  0  0  0  0  0  0  0  0
  146.1719  137.2283  154.5543 H   0  0  0  0  0  0  0  0  0  0  0  0
  144.7022  139.1379  152.8843 H   0  0  0  0  0  0  0  0  0  0  0  0
  1  2  1  0  0  0  0
  1 26  1  0  0  0  0
  1 27  1  0  0  0  0
  1 28  1  0  0  0  0
  2  3  1  0  0  0  0
  3  4  1  0  0  0  0
  3 29  1  0  0  0  0
  3 30  1  0  0  0  0
  4  5  1  0  0  0  0
  4 31  1  0  0  0  0
  4 32  1  0  0  0  0
  5 24  1  0  0  0  0
  5  6  1  0  0  0  0
  5 53  1  0  0  0  0
  6  7  1  0  0  0  0
  6 33  1  0  0  0  0
  6 34  1  0  0  0  0
  7  8  1  0  0  0  0
  7 35  1  0  0  0  0
  7 36  1  0  0  0  0
  8  9  1  0  0  0  0
  8 23  1  0  0  0  0
  8 37  1  0  0  0  0
  9 10  1  0  0  0  0
  9 38  1  0  0  0  0
  9 39  1  0  0  0  0
 10 11  1  0  0  0  0
 10 40  1  0  0  0  0
 11 12  2  0  0  0  0
 11 13  1  0  0  0  0
 13 14  1  0  0  0  0
 13 41  1  0  0  0  0
 13 42  1  0  0  0  0
 14 21  1  0  0  0  0
 14 15  2  0  0  0  0
 15 16  1  0  0  0  0
 15 17  1  0  0  0  0
 16 43  1  0  0  0  0
 16 44  1  0  0  0  0
 16 45  1  0  0  0  0
 17 18  2  0  0  0  0
 18 19  1  0  0  0  0
 18 20  1  0  0  0  0
 19 46  1  0  0  0  0
 19 47  1  0  0  0  0
 19 48  1  0  0  0  0
 20 25  1  0  0  0  0
 20 21  1  0  0  0  0
 21 22  2  0  0  0  0
 23 24  1  0  0  0  0
 23 49  1  0  0  0  0
 23 50  1  0  0  0  0
 24 51  1  0  0  0  0
 24 52  1  0  0  0  0
M  CHG  1   5   1
M  END
> <s_m_source_file>
AV-unprocessed.smi

> <i_m_source_file_index>
1041

> <i_lp_mmshare_version>
43012

> <i_f3d_flags>
0

> <s_epik_input>
W0NIM11PW0NIMl1bQ0gyXU4xW0NIMl1bQ0gyXVtDSF0oW0NIMl1bQ0gyXTEpW0NIMl1bTkhdQyg9TylbQ0gyXWMyYyhbQ0gzXSluYyhbQ0gzXSlbbkhdYzI9Tw==

> <s_epik_cmdline>
J2VwaWtfcHl0aG9uJywgJy1waCcsICc3LjAnLCAnLXRuJywgJzgnLCAnLW1hJywgJzIwMCcsICctbWV0YWxfYmluZGluZycsICctaW1hZScsICc8aW5maWxlLm1hZT4nLCAnLW9tYWUnLCAnPG91dGZpbGUubWFlPic=

> <r_lp_tautomer_probability>
0.839158

> <r_epik_Ionization_Penalty>
0.00964357

> <r_epik_Ionization_Penalty_Charging>
0.00961423

> <r_epik_Ionization_Penalty_Neutral>
2.93415e-05

> <r_epik_State_Penalty>
0.0972512

> <r_epik_Charging_Adjusted_Penalty>
0.106865

> <i_epik_Tot_Q>
1

> <i_epik_Tot_abs_Q>
1

> <r_epik_Metal_State_Penalty>
0.270886

> <b_epik_Metal_Only>
0

> <s_lp_Force_Field>
OPLS_2005

> <r_lp_Energy>
21.4676

> <b_lp_Chiralities_Consistent>
1

> <s_lp_Variant>
AV-unprocessed.smi:1041-1

> <Gold.Version>
5.8.1

> <Gold.Id.Protein>
6NUR|6NUR_protein|mol2

> <Gold.PLP.Fitness>
44.7991

> <Gold.PLP.PLP>
-36.7219

> <Gold.PLP.part.hbond>
-2.0000

> <Gold.PLP.part.metal>
0.0000

> <Gold.PLP.part.buried>
-2.3061

> <Gold.PLP.part.nonpolar>
-34.3905

> <Gold.PLP.part.repulsive>
2.0192

> <Gold.PLP.ligand.clash>
0.0000

> <Gold.PLP.ligand.torsion>
0.5345

> <Gold.PLP.Chemscore.Hbond>
3.0000

> <Gold.PLP.Chemscore.CHOScore>
0.0000

> <Gold.PLP.Chemscore.Metal>
0.0000

> <Gold.Chemscore.Hbonds>
donor molecule, donor type, donor heavy atom, donor atom, acceptor molecule, acceptor atom, score
      L1  H     5    53       P1 10175  2.00
      P1  H  7989  7998       L1    12  1.00

> <Gold.PLP.Chemscore.Internal.Correction>
0.1461

> <Gold.Rescore>
     Score         DG    S(hbond)    S(metal)    S(lipo)     H(rot)  DE(clash)    DE(int)     intcor
     12.70     -16.01       1.98        0.00      86.80       2.43       1.43       1.88       ----

> <Gold.Chemscore.Fitness>
12.6995

> <Gold.Chemscore.DG>
-16.0138

> <Gold.Chemscore.ZeroCoef>
-5.4800

> <Gold.Chemscore.Hbond>
1.9751

> <Gold.Chemscore.Metal>
0.0000

> <Gold.Chemscore.Lipo>
86.7986

> <Gold.Chemscore.Internal_Hbond>
0.0000

> <Gold.Chemscore.DEClash>
1.4332

> <Gold.Chemscore.DEInternal>
1.8812

> <Gold.Chemscore.Rot>
2.4291

> <Gold.Chemscore.Internal.Correction>
   9.000000E+99

> <Gold.Chemscore.Hbonds>
donor molecule, donor type, donor heavy atom, donor atom, acceptor molecule, acceptor atom, score
      L1  H     5    53       P1 10175  1.00
      P1  H  7989  7998       L1    12  0.99

> <Gold.Chemscore.Hbond.Weighted>
-6.5970

> <Gold.Chemscore.Metal.Weighted>
-0.0000

> <Gold.Chemscore.Lipo.Weighted>
-10.1554

> <Gold.Chemscore.Internal_Hbond.Weighted>
0.0000

> <Gold.Chemscore.DEClash.Weighted>
1.4332

> <Gold.Chemscore.DEInternal.Weighted>
1.8812

> <Gold.Chemscore.Rot.Weighted>
6.2186

> <Gold.Chemscore.Internal.Correction.Weighted>
   9.000000E+99

> <Gold.Protein.RotatedTorsions>
[ 6907 6896 6895 6894 ] final  -34.64 input  -60.11 | X-H torsion
[ 7974 7965 7964 7962 ] final   44.68 input  175.53 | X-H torsion
[ 8008 7997 7996 7995 ] final -125.56 input   59.86 | X-H torsion
[ 10167 10162 10161 10158 ] final   66.59 input  -65.29 | X-H torsion
[ 10718 10713 10712 10709 ] final -170.92 input   66.30 | X-H torsion
[ 10763 10752 10751 10750 ] final -175.18 input  -60.55 | X-H torsion
[ 11005 11000 10999 10996 ] final  -28.75 input  -57.11 | X-H torsion

> <Gold.Protein.ActiveResidues>
 VAL166  LYS551  ARG553  GLY616  TRP617  ASP618  TYR619  PRO620  LYS621  CYS622 
 ASP623  PHE694  ASN695  SER759  ASP760  ASP761  ALA762  ILE779  LEU786  VAL792 
 PHE793  MET794  SER795  GLU796  ALA797  LYS798  CYS799  TRP800  GLU811  SER814 

> <Gold.Protein.RotatedAtoms>
  151.0501  134.9667  159.8206 H   0  0  0  0  0  0  0  0  0  0  0  0  # atno 6907 bound_to 6896
  152.5379  134.2549  159.8923 H   0  0  0  0  0  0  0  0  0  0  0  0  # atno 6908 bound_to 6896
  151.2564  133.4281  159.2648 H   0  0  0  0  0  0  0  0  0  0  0  0  # atno 6909 bound_to 6896
  146.0547  139.5047  142.9696 H   0  0  0  0  0  0  0  0  0  0  0  0  # atno 7974 bound_to 7965
  155.2153  140.0420  157.2940 H   0  0  0  0  0  0  0  0  0  0  0  0  # atno 8008 bound_to 7997
  154.5985  140.2445  155.7796 H   0  0  0  0  0  0  0  0  0  0  0  0  # atno 8009 bound_to 7997
  156.2305  140.2940  156.0186 H   0  0  0  0  0  0  0  0  0  0  0  0  # atno 8010 bound_to 7997
  140.0987  144.4923  150.7051 H   0  0  0  0  0  0  0  0  0  0  0  0  # atno 10167 bound_to 10162
  156.7332  130.9314  151.3106 H   0  0  0  0  0  0  0  0  0  0  0  0  # atno 10718 bound_to 10713
  154.5875  135.2842  155.0670 H   0  0  0  0  0  0  0  0  0  0  0  0  # atno 10763 bound_to 10752
  154.1983  135.6429  153.5083 H   0  0  0  0  0  0  0  0  0  0  0  0  # atno 10764 bound_to 10752
  153.0109  135.5463  154.6549 H   0  0  0  0  0  0  0  0  0  0  0  0  # atno 10765 bound_to 10752
  140.9236  133.7383  156.0836 H   0  0  0  0  0  0  0  0  0  0  0  0  # atno 11005 bound_to 11000
  145.6665  141.0227  143.1681 LP  0  0  0  0  0  0  0  0  0  0  0  0  # atno 17320 bound_to 7965
  144.7141  139.8260  143.7404 LP  0  0  0  0  0  0  0  0  0  0  0  0  # atno 17321 bound_to 7965
  140.6989  143.2422  151.4921 LP  0  0  0  0  0  0  0  0  0  0  0  0  # atno 17342 bound_to 10162
  139.5683  144.1989  152.1798 LP  0  0  0  0  0  0  0  0  0  0  0  0  # atno 17343 bound_to 10162
  157.6850  130.9176  150.0362 LP  0  0  0  0  0  0  0  0  0  0  0  0  # atno 17370 bound_to 10713
  156.1514  130.3642  149.9432 LP  0  0  0  0  0  0  0  0  0  0  0  0  # atno 17371 bound_to 10713
  140.7956  134.3568  157.5453 LP  0  0  0  0  0  0  0  0  0  0  0  0  # atno 17394 bound_to 11000
  139.8780  134.9166  156.3159 LP  0  0  0  0  0  0  0  0  0  0  0  0  # atno 17395 bound_to 11000

$$$$
