#       Name:                AV-unprocessed.smi:2187
#       Creating user name   scv26
#       Creation time:       Fri Mar 27 12:07:53 2020


#       File generated by GOLD software.
#

@<TRIPOS>MOLECULE
AV-unprocessed.smi:2187
    47    48     1
SMALL
NO_CHARGES


@<TRIPOS>ATOM
      1 ****        -1.3721   2.3100   1.8550 C.3            1 S1                 0.0000
      2 ****        -2.2255   1.0776   1.7588 C.2            1 S1                 0.0000
      3 ****        -3.5150   1.2068   1.4952 N.2            1 S1                 0.0000
      4 ****        -3.9888  -0.0547   1.4634 N.pl3          1 S1                 0.0000
      5 ****        -5.3952  -0.2759   1.1884 C.3            1 S1                 0.0000
      6 ****        -2.9947  -0.9841   1.7014 C.2            1 S1                 0.0000
      7 ****        -3.2617  -2.4549   1.7064 C.3            1 S1                 0.0000
      8 ****        -1.8334  -0.2865   1.9029 C.2            1 S1                 0.0000
      9 ****        -0.4554  -0.8229   2.1985 C.3            1 S1                 0.0000
     10 ****         0.3098  -1.0139   0.8896 C.2            1 S1                 0.0000
     11 ****         0.2760  -2.0986   0.3087 O.2            1 S1                 0.0000
     12 ****         0.9902   0.0508   0.4371 N.am           1 S1                 0.0000
     13 ****         1.7503   0.1155  -0.8102 C.3            1 S1                 0.0000
     14 ****         3.1371  -0.5576  -0.6449 C.3            1 S1                 0.0000
     15 ****         4.2385  -0.0888  -1.6191 C.3            1 S1                 0.0000
     16 ****         3.8725  -0.1517  -3.1162 C.3            1 S1                 0.0000
     17 ****         2.5932   0.6023  -3.5539 C.3            1 S1                 0.0000
     18 ****         2.1970   1.6908  -2.6613 N.am           1 S1                 0.0000
     19 ****         1.7750   1.5416  -1.3938 C.2            1 S1                 0.0000
     20 ****         1.4406   2.5088  -0.7104 O.2            1 S1                 0.0000
     21 ****        -0.8939   2.5262   0.8999 H              1 S1                 0.0000
     22 ****        -0.5860   2.1896   2.5999 H              1 S1                 0.0000
     23 ****        -1.9595   3.1845   2.1372 H              1 S1                 0.0000
     24 ****        -5.7811  -1.0648   1.8342 H              1 S1                 0.0000
     25 ****        -5.5202  -0.5735   0.1474 H              1 S1                 0.0000
     26 ****        -5.9682   0.6343   1.3697 H              1 S1                 0.0000
     27 ****        -2.3332  -3.0254   1.7151 H              1 S1                 0.0000
     28 ****        -3.8233  -2.7519   0.8205 H              1 S1                 0.0000
     29 ****        -3.8393  -2.7396   2.5859 H              1 S1                 0.0000
     30 ****         0.1044  -0.1523   2.8514 H              1 S1                 0.0000
     31 ****        -0.5018  -1.7773   2.7240 H              1 S1                 0.0000
     32 ****         0.9534   0.9003   0.9819 H              1 S1                 0.0000
     33 ****         1.1857  -0.4758  -1.5322 H              1 S1                 0.0000
     34 ****         3.5030  -0.3875   0.3688 H              1 S1                 0.0000
     35 ****         3.0162  -1.6379  -0.7347 H              1 S1                 0.0000
     36 ****         4.5381   0.9288  -1.3646 H              1 S1                 0.0000
     37 ****         5.1300  -0.6945  -1.4526 H              1 S1                 0.0000
     38 ****         4.7164   0.2532  -3.6759 H              1 S1                 0.0000
     39 ****         3.7917  -1.1934  -3.4284 H              1 S1                 0.0000
     40 ****         2.7377   1.0134  -4.5532 H              1 S1                 0.0000
     41 ****         1.7625  -0.0975  -3.6514 H              1 S1                 0.0000
     42 ****         2.2277   2.6264  -3.0399 H              1 S1                 0.0000
     43 ****        -4.0261   2.0541   1.3512 LP             1 S1                 0.0000
     44 ****        -0.2524  -2.8555   0.6933 LP             1 S1                 0.0000
     45 ****         0.7770  -2.2229  -0.5478 LP             1 S1                 0.0000
     46 ****         1.1481   2.3748   0.2364 LP             1 S1                 0.0000
     47 ****         1.4614   3.4288  -1.1018 LP             1 S1                 0.0000
@<TRIPOS>BOND
    1    1    2 1     
    2    1   21 1     
    3    1   22 1     
    4    1   23 1     
    5    2    8 1     
    6    2    3 2     
    7    3    4 1     
    8    4    5 1     
    9    4    6 1     
   10    5   24 1     
   11    5   25 1     
   12    5   26 1     
   13    6    7 1     
   14    6    8 2     
   15    7   27 1     
   16    7   28 1     
   17    7   29 1     
   18    8    9 1     
   19    9   10 1     
   20    9   30 1     
   21    9   31 1     
   22   10   11 2     
   23   10   12 am    
   24   12   13 1     
   25   12   32 1     
   26   13   19 1     
   27   13   14 1     
   28   13   33 1     
   29   14   15 1     
   30   14   34 1     
   31   14   35 1     
   32   15   16 1     
   33   15   36 1     
   34   15   37 1     
   35   16   17 1     
   36   16   38 1     
   37   16   39 1     
   38   17   18 1     
   39   17   40 1     
   40   17   41 1     
   41   18   19 am    
   42   18   42 1     
   43   19   20 2     
   44    3   43 1     
   45   11   44 1     
   46   11   45 1     
   47   20   46 1     
   48   20   47 1     
@<TRIPOS>SUBSTRUCTURE
      1 S1             1
@<TRIPOS>SET
LONE_PAIRS      STATIC     ATOMS    <user>   **** ""
5 43 44 45 46 47
DONOR_HYDROGENS      STATIC     ATOMS    <user>   **** ""
2 32 42
ATOM$BLUE        STATIC     ATOMS    COLORGROUP SYSTEM
5 43 44 45 46 47
ATOM$RED        STATIC     ATOMS    COLORGROUP SYSTEM
2 32 42
