AV-unprocessed.smi:213|AV-procd|sdf|1648|dock7
  -GOLD-   2262020 23D 1   1.00000     0.00000
 Structure written by MMmdl.
 58 61  0  0  0  0  0  0  0  0  1 V2000
  145.2941  136.3651  154.4126 C   0  0  0  0  0  0  0  0  0  0  0  0
  146.1958  136.5357  153.1733 C   0  0  1  0  0  0  0  0  0  0  0  0
  145.4083  136.4278  151.8446 C   0  0  0  0  0  0  0  0  0  0  0  0
  145.1389  135.0682  151.3736 N   0  0  0  0  0  0  0  0  0  0  0  0
  146.3608  134.2713  151.3589 C   0  0  0  0  0  0  0  0  0  0  0  0
  146.1017  132.8284  150.8952 C   0  0  0  0  0  0  0  0  0  0  0  0
  145.5019  132.8480  149.6045 O   0  0  0  0  0  0  0  0  0  0  0  0
  144.2777  133.5742  149.5824 C   0  0  0  0  0  0  0  0  0  0  0  0
  144.5175  135.0196  150.0536 C   0  0  0  0  0  0  0  0  0  0  0  0
  146.9156  137.8102  153.2536 N   0  0  0  0  0  0  0  0  0  0  0  0
  146.7314  138.8406  152.2336 C   0  0  0  0  0  0  0  0  0  0  0  0
  147.9127  137.9938  154.1612 C   0  0  0  0  0  0  0  0  0  0  0  0
  148.4327  136.8888  154.7593 N   0  0  0  0  0  0  0  0  0  0  0  0
  149.4207  136.9978  155.6514 C   0  0  0  0  0  0  0  0  0  0  0  0
  150.0285  138.0997  156.0911 N   0  0  0  0  0  0  0  0  0  0  0  0
  149.5061  139.2165  155.5100 C   0  0  0  0  0  0  0  0  0  0  0  0
  148.4569  139.2574  154.5457 C   0  0  0  0  0  0  0  0  0  0  0  0
  148.1925  140.5814  154.2088 N   0  0  0  0  0  0  0  0  0  0  0  0
  149.0393  141.2761  154.9159 C   0  0  0  0  0  0  0  0  0  0  0  0
  149.8666  140.5350  155.7257 N   0  0  0  0  0  0  0  0  0  0  0  0
  150.8919  141.0495  156.6159 C   0  0  0  0  0  0  0  0  0  0  0  0
  150.2999  141.8439  157.7959 C   0  0  1  0  0  0  0  0  0  0  0  0
  149.7559  140.9686  158.7657 O   0  0  0  0  0  0  0  0  0  0  0  0
  151.3197  142.8070  158.4376 C   0  0  1  0  0  0  0  0  0  0  0  0
  150.7556  143.8708  159.3828 C   0  0  0  0  0  0  0  0  0  0  0  0
  151.9833  144.2176  160.1953 C   0  0  0  0  0  0  0  0  0  0  0  0
  152.6523  142.8534  160.3514 C   0  0  0  0  0  0  0  0  0  0  0  0
  152.3235  142.1159  159.1766 O   0  0  0  0  0  0  0  0  0  0  0  0
  144.8063  135.3926  154.4346 H   0  0  0  0  0  0  0  0  0  0  0  0
  144.5068  137.1181  154.4498 H   0  0  0  0  0  0  0  0  0  0  0  0
  145.8772  136.4517  155.3300 H   0  0  0  0  0  0  0  0  0  0  0  0
  146.9269  135.7293  153.2195 H   0  0  0  0  0  0  0  0  0  0  0  0
  144.4786  136.9946  151.9126 H   0  0  0  0  0  0  0  0  0  0  0  0
  145.9919  136.9295  151.0711 H   0  0  0  0  0  0  0  0  0  0  0  0
  147.0966  134.7349  150.6997 H   0  0  0  0  0  0  0  0  0  0  0  0
  146.8025  134.2527  152.3559 H   0  0  0  0  0  0  0  0  0  0  0  0
  147.0372  132.2710  150.8466 H   0  0  0  0  0  0  0  0  0  0  0  0
  145.4523  132.3063  151.5999 H   0  0  0  0  0  0  0  0  0  0  0  0
  143.8767  133.5680  148.5687 H   0  0  0  0  0  0  0  0  0  0  0  0
  143.5438  133.0793  150.2203 H   0  0  0  0  0  0  0  0  0  0  0  0
  143.5557  135.5297  150.0741 H   0  0  0  0  0  0  0  0  0  0  0  0
  145.1426  135.5423  149.3284 H   0  0  0  0  0  0  0  0  0  0  0  0
  147.6874  139.2675  151.9281 H   0  0  0  0  0  0  0  0  0  0  0  0
  146.1014  139.6433  152.6177 H   0  0  0  0  0  0  0  0  0  0  0  0
  146.2562  138.4334  151.3413 H   0  0  0  0  0  0  0  0  0  0  0  0
  149.7758  136.0690  156.0725 H   0  0  0  0  0  0  0  0  0  0  0  0
  149.0805  142.3545  154.8685 H   0  0  0  0  0  0  0  0  0  0  0  0
  151.4944  140.2148  156.9762 H   0  0  0  0  0  0  0  0  0  0  0  0
  151.5587  141.6852  156.0323 H   0  0  0  0  0  0  0  0  0  0  0  0
  149.4687  142.4443  157.4239 H   0  0  0  0  0  0  0  0  0  0  0  0
  148.8725  141.2436  158.9573 H   0  0  0  0  0  0  0  0  0  0  0  0
  151.8484  143.3249  157.6354 H   0  0  0  0  0  0  0  0  0  0  0  0
  150.3340  144.7275  158.8563 H   0  0  0  0  0  0  0  0  0  0  0  0
  149.9880  143.4616  160.0404 H   0  0  0  0  0  0  0  0  0  0  0  0
  152.6288  144.8910  159.6295 H   0  0  0  0  0  0  0  0  0  0  0  0
  151.7488  144.6897  161.1498 H   0  0  0  0  0  0  0  0  0  0  0  0
  153.7315  142.9320  160.4848 H   0  0  0  0  0  0  0  0  0  0  0  0
  152.2427  142.3265  161.2141 H   0  0  0  0  0  0  0  0  0  0  0  0
  1  2  1  0  0  0  0
  1 29  1  0  0  0  0
  1 30  1  0  0  0  0
  1 31  1  0  0  0  0
  2  3  1  0  0  0  0
  2 10  1  0  0  0  0
  2 32  1  0  0  0  0
  3  4  1  0  0  0  0
  3 33  1  0  0  0  0
  3 34  1  0  0  0  0
  4  9  1  0  0  0  0
  4  5  1  0  0  0  0
  5  6  1  0  0  0  0
  5 35  1  0  0  0  0
  5 36  1  0  0  0  0
  6  7  1  0  0  0  0
  6 37  1  0  0  0  0
  6 38  1  0  0  0  0
  7  8  1  0  0  0  0
  8  9  1  0  0  0  0
  8 39  1  0  0  0  0
  8 40  1  0  0  0  0
  9 41  1  0  0  0  0
  9 42  1  0  0  0  0
 10 11  1  0  0  0  0
 10 12  1  0  0  0  0
 11 43  1  0  0  0  0
 11 44  1  0  0  0  0
 11 45  1  0  0  0  0
 12 17  1  0  0  0  0
 12 13  2  0  0  0  0
 13 14  1  0  0  0  0
 14 15  2  0  0  0  0
 14 46  1  0  0  0  0
 15 16  1  0  0  0  0
 16 20  1  0  0  0  0
 16 17  2  0  0  0  0
 17 18  1  0  0  0  0
 18 19  2  0  0  0  0
 19 20  1  0  0  0  0
 19 47  1  0  0  0  0
 20 21  1  0  0  0  0
 21 22  1  0  0  0  0
 21 48  1  0  0  0  0
 21 49  1  0  0  0  0
 22 23  1  0  0  0  0
 22 24  1  0  0  0  0
 22 50  1  0  0  0  0
 23 51  1  0  0  0  0
 24 28  1  0  0  0  0
 24 25  1  0  0  0  0
 24 52  1  0  0  0  0
 25 26  1  0  0  0  0
 25 53  1  0  0  0  0
 25 54  1  0  0  0  0
 26 27  1  0  0  0  0
 26 55  1  0  0  0  0
 26 56  1  0  0  0  0
 27 28  1  0  0  0  0
 27 57  1  0  0  0  0
 27 58  1  0  0  0  0
M  END
> <s_m_source_file>
AV-unprocessed.smi

> <i_m_source_file_index>
213

> <i_lp_mmshare_version>
43012

> <i_f3d_flags>
0

> <s_epik_input>
W0NIMl0xW0NIMl1PW0NIMl1bQ0gyXU4xW0NIMl1bQ0BASF0oW0NIM10pTihbQ0gzXSljKG5bY0hdbjIpYyhjMjMpbltjSF1uM1tDSDJdW0NASF0oW09IXSlbQ0BASF00W0NIMl1bQ0gyXVtDSDJdTzQ=

> <s_epik_cmdline>
J2VwaWtfcHl0aG9uJywgJy1waCcsICc3LjAnLCAnLXRuJywgJzgnLCAnLW1hJywgJzIwMCcsICctbWV0YWxfYmluZGluZycsICctaW1hZScsICc8aW5maWxlLm1hZT4nLCAnLW9tYWUnLCAnPG91dGZpbGUubWFlPic=

> <r_lp_tautomer_probability>
1

> <r_epik_Ionization_Penalty>
0.423322

> <r_epik_Ionization_Penalty_Charging>
0

> <r_epik_Ionization_Penalty_Neutral>
0.423322

> <r_epik_State_Penalty>
0.569486

> <r_epik_Charging_Adjusted_Penalty>
0.569486

> <i_epik_Tot_Q>
0

> <i_epik_Tot_abs_Q>
0

> <r_epik_Metal_State_Penalty>
0.568671

> <b_epik_Metal_Only>
0

> <s_lp_Force_Field>
OPLS_2005

> <r_lp_Energy>
55.4432

> <b_lp_Chiralities_Consistent>
1

> <s_lp_Variant>
AV-unprocessed.smi:213-16

> <Gold.Version>
5.8.1

> <Gold.Id.Protein>
6NUR|6NUR_protein|mol2

> <Gold.PLP.Fitness>
47.0966

> <Gold.PLP.PLP>
-45.4650

> <Gold.PLP.part.hbond>
0.0000

> <Gold.PLP.part.metal>
0.0000

> <Gold.PLP.part.buried>
-2.3628

> <Gold.PLP.part.nonpolar>
-43.1975

> <Gold.PLP.part.repulsive>
0.9280

> <Gold.PLP.ligand.clash>
0.0000

> <Gold.PLP.ligand.torsion>
0.9876

> <Gold.PLP.Chemscore.Hbond>
0.0000

> <Gold.PLP.Chemscore.CHOScore>
1.0000

> <Gold.PLP.Chemscore.Metal>
0.0000

> <Gold.Chemscore.Hbonds>
donor molecule, donor type, donor heavy atom, donor atom, acceptor molecule, acceptor atom, score
      L1  C    19    47       P1  8028  1.00

> <Gold.PLP.Chemscore.Internal.Correction>
0.6068

> <Gold.Rescore>
     Score         DG    S(hbond)    S(metal)    S(lipo)     H(rot)  DE(clash)    DE(int)     intcor
      9.29     -11.25       0.00        0.00     109.26       2.74       0.06       1.90       ----

> <Gold.Chemscore.Fitness>
9.2886

> <Gold.Chemscore.DG>
-11.2547

> <Gold.Chemscore.ZeroCoef>
-5.4800

> <Gold.Chemscore.Hbond>
0.0000

> <Gold.Chemscore.Metal>
0.0000

> <Gold.Chemscore.Lipo>
109.2595

> <Gold.Chemscore.Internal_Hbond>
0.0000

> <Gold.Chemscore.DEClash>
0.0613

> <Gold.Chemscore.DEInternal>
1.9048

> <Gold.Chemscore.Rot>
2.7378

> <Gold.Chemscore.Internal.Correction>
   9.000000E+99

> <Gold.Chemscore.Hbond.Weighted>
-0.0000

> <Gold.Chemscore.Metal.Weighted>
-0.0000

> <Gold.Chemscore.Lipo.Weighted>
-12.7834

> <Gold.Chemscore.Internal_Hbond.Weighted>
0.0000

> <Gold.Chemscore.DEClash.Weighted>
0.0613

> <Gold.Chemscore.DEInternal.Weighted>
1.9048

> <Gold.Chemscore.Rot.Weighted>
7.0087

> <Gold.Chemscore.Internal.Correction.Weighted>
   9.000000E+99

> <Gold.Protein.RotatedTorsions>
[ 6907 6896 6895 6894 ] final  -53.04 input  -60.11 | X-H torsion
[ 7974 7965 7964 7962 ] final  165.34 input  175.53 | X-H torsion
[ 8008 7997 7996 7995 ] final  -59.07 input   59.86 | X-H torsion
[ 10167 10162 10161 10158 ] final   47.30 input  -65.29 | X-H torsion
[ 10718 10713 10712 10709 ] final -123.85 input   66.30 | X-H torsion
[ 10763 10752 10751 10750 ] final -105.28 input  -60.55 | X-H torsion
[ 11005 11000 10999 10996 ] final  159.54 input  -57.11 | X-H torsion

> <Gold.Protein.ActiveResidues>
 VAL166  LYS551  ARG553  GLY616  TRP617  ASP618  TYR619  PRO620  LYS621  CYS622 
 ASP623  PHE694  ASN695  SER759  ASP760  ASP761  ALA762  ILE779  LEU786  VAL792 
 PHE793  MET794  SER795  GLU796  ALA797  LYS798  CYS799  TRP800  GLU811  SER814 

> <Gold.Protein.RotatedAtoms>
  150.8462  134.7772  159.6972 H   0  0  0  0  0  0  0  0  0  0  0  0  # atno 6907 bound_to 6896
  152.4538  134.5332  159.9827 H   0  0  0  0  0  0  0  0  0  0  0  0  # atno 6908 bound_to 6896
  151.5462  133.3387  159.2980 H   0  0  0  0  0  0  0  0  0  0  0  0  # atno 6909 bound_to 6896
  144.7507  139.8456  143.6367 H   0  0  0  0  0  0  0  0  0  0  0  0  # atno 7974 bound_to 7965
  154.4336  140.1070  156.6058 H   0  0  0  0  0  0  0  0  0  0  0  0  # atno 8008 bound_to 7997
  155.5863  140.3491  155.4535 H   0  0  0  0  0  0  0  0  0  0  0  0  # atno 8009 bound_to 7997
  156.0281  140.1254  157.0277 H   0  0  0  0  0  0  0  0  0  0  0  0  # atno 8010 bound_to 7997
  140.3050  144.2889  150.6211 H   0  0  0  0  0  0  0  0  0  0  0  0  # atno 10167 bound_to 10162
  156.1537  130.6553  150.9951 H   0  0  0  0  0  0  0  0  0  0  0  0  # atno 10718 bound_to 10713
  154.7936  135.4755  154.0109 H   0  0  0  0  0  0  0  0  0  0  0  0  # atno 10763 bound_to 10752
  153.1668  135.6818  153.8670 H   0  0  0  0  0  0  0  0  0  0  0  0  # atno 10764 bound_to 10752
  153.8266  135.3197  155.3393 H   0  0  0  0  0  0  0  0  0  0  0  0  # atno 10765 bound_to 10752
  140.1972  134.8364  157.2977 H   0  0  0  0  0  0  0  0  0  0  0  0  # atno 11005 bound_to 11000
  146.1452  139.4519  143.0084 LP  0  0  0  0  0  0  0  0  0  0  0  0  # atno 17320 bound_to 7965
  145.6956  141.0151  143.1531 LP  0  0  0  0  0  0  0  0  0  0  0  0  # atno 17321 bound_to 7965
  140.5618  143.2191  151.7752 LP  0  0  0  0  0  0  0  0  0  0  0  0  # atno 17342 bound_to 10162
  139.4906  144.4338  151.9842 LP  0  0  0  0  0  0  0  0  0  0  0  0  # atno 17343 bound_to 10162
  157.6678  131.0868  150.7687 LP  0  0  0  0  0  0  0  0  0  0  0  0  # atno 17370 bound_to 10713
  156.7753  130.4842  149.5411 LP  0  0  0  0  0  0  0  0  0  0  0  0  # atno 17371 bound_to 10713
  140.2094  134.4157  155.7620 LP  0  0  0  0  0  0  0  0  0  0  0  0  # atno 17394 bound_to 11000
  141.2227  133.7111  156.8314 LP  0  0  0  0  0  0  0  0  0  0  0  0  # atno 17395 bound_to 11000

$$$$
