AV-unprocessed.smi:653|AV-procd|sdf|3205|dock8
  -GOLD-   22720 0143D 1   1.00000     0.00000
 Structure written by MMmdl.
 44 45  0  0  0  0  0  0  0  0  1 V2000
  153.7683  142.8051  163.2116 C   0  0  0  0  0  0  0  0  0  0  0  0
  153.1636  142.9540  161.8310 C   0  0  0  0  0  0  0  0  0  0  0  0
  153.5695  142.1133  160.7734 C   0  0  0  0  0  0  0  0  0  0  0  0
  152.9726  142.2887  159.5104 C   0  0  0  0  0  0  0  0  0  0  0  0
  151.9956  143.2937  159.3533 C   0  0  0  0  0  0  0  0  0  0  0  0
  151.3200  143.5210  158.0136 C   0  0  0  0  0  0  0  0  0  0  0  0
  150.6083  142.2476  157.5554 C   0  0  0  0  0  0  0  0  0  0  0  0
  150.9833  141.1511  157.9708 O   0  0  0  0  0  0  0  0  0  0  0  0
  149.5859  142.4082  156.7008 N   0  0  0  0  0  0  0  0  0  0  0  0
  148.7571  141.3364  156.1564 C   0  0  0  0  0  0  0  0  0  0  0  0
  148.6399  141.4110  154.6136 C   0  0  1  0  0  0  0  0  0  0  0  0
  148.9107  140.0801  153.9251 C   0  0  0  0  0  0  0  0  0  0  0  0
  147.5558  139.3730  153.9860 C   0  0  0  0  0  0  0  0  0  0  0  0
  146.5891  140.3969  154.2067 O   0  0  0  0  0  0  0  0  0  0  0  0
  147.2125  141.6715  154.0985 C   0  0  1  0  0  0  0  0  0  0  0  0
  146.3849  142.7703  154.8041 C   0  0  0  0  0  0  0  0  0  0  0  0
  145.7514  142.2370  156.0993 C   0  0  0  0  0  0  0  0  0  0  0  0
  145.2910  143.3394  153.8845 C   0  0  0  0  0  0  0  0  0  0  0  0
  151.6610  144.0802  160.4761 C   0  0  0  0  0  0  0  0  0  0  0  0
  152.2279  143.9190  161.6910 N   0  0  0  0  0  0  0  0  0  0  0  0
  154.7674  142.3722  163.1530 H   0  0  0  0  0  0  0  0  0  0  0  0
  153.1469  142.1528  163.8255 H   0  0  0  0  0  0  0  0  0  0  0  0
  153.8487  143.7723  163.7092 H   0  0  0  0  0  0  0  0  0  0  0  0
  154.3187  141.3499  160.9243 H   0  0  0  0  0  0  0  0  0  0  0  0
  153.2583  141.6603  158.6796 H   0  0  0  0  0  0  0  0  0  0  0  0
  150.6136  144.3491  158.0914 H   0  0  0  0  0  0  0  0  0  0  0  0
  152.0617  143.8090  157.2676 H   0  0  0  0  0  0  0  0  0  0  0  0
  149.3542  143.3487  156.4158 H   0  0  0  0  0  0  0  0  0  0  0  0
  149.1192  140.3564  156.4715 H   0  0  0  0  0  0  0  0  0  0  0  0
  147.7747  141.4517  156.6126 H   0  0  0  0  0  0  0  0  0  0  0  0
  149.3240  142.1761  154.2444 H   0  0  0  0  0  0  0  0  0  0  0  0
  149.1776  140.2608  152.8829 H   0  0  0  0  0  0  0  0  0  0  0  0
  149.7164  139.4940  154.3647 H   0  0  0  0  0  0  0  0  0  0  0  0
  147.3455  138.8279  153.0656 H   0  0  0  0  0  0  0  0  0  0  0  0
  147.5170  138.6671  154.8162 H   0  0  0  0  0  0  0  0  0  0  0  0
  147.2691  141.9106  153.0344 H   0  0  0  0  0  0  0  0  0  0  0  0
  147.0505  143.5857  155.0879 H   0  0  0  0  0  0  0  0  0  0  0  0
  145.0738  141.4066  155.8971 H   0  0  0  0  0  0  0  0  0  0  0  0
  145.1811  143.0152  156.6072 H   0  0  0  0  0  0  0  0  0  0  0  0
  146.5109  141.8842  156.7975 H   0  0  0  0  0  0  0  0  0  0  0  0
  144.5913  142.5618  153.5761 H   0  0  0  0  0  0  0  0  0  0  0  0
  145.7101  143.7832  152.9821 H   0  0  0  0  0  0  0  0  0  0  0  0
  144.7192  144.1173  154.3914 H   0  0  0  0  0  0  0  0  0  0  0  0
  150.9166  144.8591  160.3984 H   0  0  0  0  0  0  0  0  0  0  0  0
  1  2  1  0  0  0  0
  1 21  1  0  0  0  0
  1 22  1  0  0  0  0
  1 23  1  0  0  0  0
  2 20  1  0  0  0  0
  2  3  2  0  0  0  0
  3  4  1  0  0  0  0
  3 24  1  0  0  0  0
  4  5  2  0  0  0  0
  4 25  1  0  0  0  0
  5  6  1  0  0  0  0
  5 19  1  0  0  0  0
  6  7  1  0  0  0  0
  6 26  1  0  0  0  0
  6 27  1  0  0  0  0
  7  8  2  0  0  0  0
  7  9  1  0  0  0  0
  9 10  1  0  0  0  0
  9 28  1  0  0  0  0
 10 11  1  0  0  0  0
 10 29  1  0  0  0  0
 10 30  1  0  0  0  0
 11 15  1  0  0  0  0
 11 12  1  0  0  0  0
 11 31  1  0  0  0  0
 12 13  1  0  0  0  0
 12 32  1  0  0  0  0
 12 33  1  0  0  0  0
 13 14  1  0  0  0  0
 13 34  1  0  0  0  0
 13 35  1  0  0  0  0
 14 15  1  0  0  0  0
 15 16  1  0  0  0  0
 15 36  1  0  0  0  0
 16 17  1  0  0  0  0
 16 18  1  0  0  0  0
 16 37  1  0  0  0  0
 17 38  1  0  0  0  0
 17 39  1  0  0  0  0
 17 40  1  0  0  0  0
 18 41  1  0  0  0  0
 18 42  1  0  0  0  0
 18 43  1  0  0  0  0
 19 20  2  0  0  0  0
 19 44  1  0  0  0  0
M  END
> <s_m_source_file>
AV-unprocessed.smi

> <i_m_source_file_index>
653

> <i_lp_mmshare_version>
43012

> <i_f3d_flags>
0

> <s_epik_input>
W0NIM11jMVtjSF1bY0hdYyhbY0hdbjEpW0NIMl1DKD1PKVtOSF1bQ0gyXVtDQEBIXTJbQ0gyXVtDSDJdT1tDQEhdMltDSF0oW0NIM10pW0NIM10=

> <s_epik_cmdline>
J2VwaWtfcHl0aG9uJywgJy1waCcsICc3LjAnLCAnLXRuJywgJzgnLCAnLW1hJywgJzIwMCcsICctbWV0YWxfYmluZGluZycsICctaW1hZScsICc8aW5maWxlLm1hZT4nLCAnLW9tYWUnLCAnPG91dGZpbGUubWFlPic=

> <r_epik_Ionization_Penalty>
0.0166429

> <r_epik_Ionization_Penalty_Charging>
0

> <r_epik_Ionization_Penalty_Neutral>
0.0166429

> <r_epik_State_Penalty>
0.0131478

> <r_epik_Charging_Adjusted_Penalty>
0.0131478

> <i_epik_Tot_Q>
0

> <i_epik_Tot_abs_Q>
0

> <r_epik_Metal_State_Penalty>
0.012786

> <b_epik_Metal_Only>
0

> <s_lp_Force_Field>
OPLS_2005

> <r_lp_Energy>
21.9695

> <b_lp_Chiralities_Consistent>
1

> <s_lp_Variant>
AV-unprocessed.smi:653-2

> <Gold.Version>
5.8.1

> <Gold.Id.Protein>
6NUR|6NUR_protein|mol2

> <Gold.PLP.Fitness>
47.7102

> <Gold.PLP.PLP>
-47.8715

> <Gold.PLP.part.hbond>
-1.0000

> <Gold.PLP.part.metal>
0.0000

> <Gold.PLP.part.buried>
-5.1275

> <Gold.PLP.part.nonpolar>
-42.7263

> <Gold.PLP.part.repulsive>
0.3588

> <Gold.PLP.ligand.clash>
0.0000

> <Gold.PLP.ligand.torsion>
1.5964

> <Gold.PLP.Chemscore.Hbond>
1.0000

> <Gold.PLP.Chemscore.CHOScore>
0.0000

> <Gold.PLP.Chemscore.Metal>
0.0000

> <Gold.Chemscore.Hbonds>
donor molecule, donor type, donor heavy atom, donor atom, acceptor molecule, acceptor atom, score
      L1  H     9    28       P1  8028  1.00

> <Gold.PLP.Chemscore.Internal.Correction>
0.0316

> <Gold.Rescore>
     Score         DG    S(hbond)    S(metal)    S(lipo)     H(rot)  DE(clash)    DE(int)     intcor
     17.58     -19.99       1.00        0.00     128.10       1.48       0.57       1.83       ----

> <Gold.Chemscore.Fitness>
17.5849

> <Gold.Chemscore.DG>
-19.9901

> <Gold.Chemscore.ZeroCoef>
-5.4800

> <Gold.Chemscore.Hbond>
0.9950

> <Gold.Chemscore.Metal>
0.0000

> <Gold.Chemscore.Lipo>
128.1048

> <Gold.Chemscore.Internal_Hbond>
0.0000

> <Gold.Chemscore.DEClash>
0.5717

> <Gold.Chemscore.DEInternal>
1.8336

> <Gold.Chemscore.Rot>
1.4850

> <Gold.Chemscore.Internal.Correction>
   9.000000E+99

> <Gold.Chemscore.Hbonds>
donor molecule, donor type, donor heavy atom, donor atom, acceptor molecule, acceptor atom, score
      L1  H     9    28       P1  8028  1.00

> <Gold.Chemscore.Hbond.Weighted>
-3.3234

> <Gold.Chemscore.Metal.Weighted>
-0.0000

> <Gold.Chemscore.Lipo.Weighted>
-14.9883

> <Gold.Chemscore.Internal_Hbond.Weighted>
0.0000

> <Gold.Chemscore.DEClash.Weighted>
0.5717

> <Gold.Chemscore.DEInternal.Weighted>
1.8336

> <Gold.Chemscore.Rot.Weighted>
3.8015

> <Gold.Chemscore.Internal.Correction.Weighted>
   9.000000E+99

> <Gold.Protein.RotatedTorsions>
[ 6907 6896 6895 6894 ] final  -54.46 input  -60.11 | X-H torsion
[ 7974 7965 7964 7962 ] final   64.66 input  175.53 | X-H torsion
[ 8008 7997 7996 7995 ] final   51.16 input   59.86 | X-H torsion
[ 10167 10162 10161 10158 ] final   44.00 input  -65.29 | X-H torsion
[ 10718 10713 10712 10709 ] final   95.81 input   66.30 | X-H torsion
[ 10763 10752 10751 10750 ] final   85.63 input  -60.55 | X-H torsion
[ 11005 11000 10999 10996 ] final    6.38 input  -57.11 | X-H torsion

> <Gold.Protein.ActiveResidues>
 VAL166  LYS551  ARG553  GLY616  TRP617  ASP618  TYR619  PRO620  LYS621  CYS622 
 ASP623  PHE694  ASN695  SER759  ASP760  ASP761  ALA762  ILE779  LEU786  VAL792 
 PHE793  MET794  SER795  GLU796  ALA797  LYS798  CYS799  TRP800  GLU811  SER814 

> <Gold.Protein.RotatedAtoms>
  150.8336  134.7600  159.6873 H   0  0  0  0  0  0  0  0  0  0  0  0  # atno 6907 bound_to 6896
  152.4436  134.5536  159.9884 H   0  0  0  0  0  0  0  0  0  0  0  0  # atno 6908 bound_to 6896
  151.5692  133.3354  159.3022 H   0  0  0  0  0  0  0  0  0  0  0  0  # atno 6909 bound_to 6896
  145.8476  139.3234  143.0894 H   0  0  0  0  0  0  0  0  0  0  0  0  # atno 7974 bound_to 7965
  155.4307  140.3450  155.4280 H   0  0  0  0  0  0  0  0  0  0  0  0  # atno 8008 bound_to 7997
  156.1338  140.1522  156.9056 H   0  0  0  0  0  0  0  0  0  0  0  0  # atno 8009 bound_to 7997
  154.4915  140.0839  156.7586 H   0  0  0  0  0  0  0  0  0  0  0  0  # atno 8010 bound_to 7997
  140.3387  144.2498  150.6158 H   0  0  0  0  0  0  0  0  0  0  0  0  # atno 10167 bound_to 10162
  157.6934  131.0558  150.4396 H   0  0  0  0  0  0  0  0  0  0  0  0  # atno 10718 bound_to 10713
  153.1493  135.4610  154.9613 H   0  0  0  0  0  0  0  0  0  0  0  0  # atno 10763 bound_to 10752
  154.7812  135.3189  154.7988 H   0  0  0  0  0  0  0  0  0  0  0  0  # atno 10764 bound_to 10752
  153.8496  135.6922  153.4848 H   0  0  0  0  0  0  0  0  0  0  0  0  # atno 10765 bound_to 10752
  140.5601  134.0200  155.7969 H   0  0  0  0  0  0  0  0  0  0  0  0  # atno 11005 bound_to 11000
  145.9394  140.8990  143.0315 LP  0  0  0  0  0  0  0  0  0  0  0  0  # atno 17320 bound_to 7965
  144.6730  140.1528  143.7428 LP  0  0  0  0  0  0  0  0  0  0  0  0  # atno 17321 bound_to 7965
  140.5329  143.2239  151.8209 LP  0  0  0  0  0  0  0  0  0  0  0  0  # atno 17342 bound_to 10162
  139.4844  144.4697  151.9440 LP  0  0  0  0  0  0  0  0  0  0  0  0  # atno 17343 bound_to 10162
  156.4756  130.4062  149.6492 LP  0  0  0  0  0  0  0  0  0  0  0  0  # atno 17370 bound_to 10713
  156.3557  130.7455  151.2420 LP  0  0  0  0  0  0  0  0  0  0  0  0  # atno 17371 bound_to 10713
  141.1119  133.9602  157.2894 LP  0  0  0  0  0  0  0  0  0  0  0  0  # atno 17394 bound_to 11000
  139.9412  135.0191  156.8713 LP  0  0  0  0  0  0  0  0  0  0  0  0  # atno 17395 bound_to 11000

$$$$
