#       Name:                AV-unprocessed.smi:967
#       Creating user name   scv26
#       Creation time:       Fri Mar 27 02:19:14 2020


#       File generated by GOLD software.
#

@<TRIPOS>MOLECULE
AV-unprocessed.smi:967
    48    49     1
SMALL
NO_CHARGES


@<TRIPOS>ATOM
      1 ****        -6.3382  -1.6042  -1.3607 C.3            1 S1                 0.0000
      2 ****        -5.7100  -0.3717  -1.8124 N.3            1 S1                 0.0000
      3 ****        -6.3611   0.8640  -1.4049 C.3            1 S1                 0.0000
      4 ****        -4.3248  -0.3534  -1.5991 C.ar           1 S1                 0.0000
      5 ****        -3.4183  -0.3536  -2.6791 C.ar           1 S1                 0.0000
      6 ****        -2.0329  -0.3342  -2.4185 C.ar           1 S1                 0.0000
      7 ****        -1.5700  -0.3043  -1.0851 C.ar           1 S1                 0.0000
      8 ****        -0.1648  -0.2981  -0.8737 N.am           1 S1                 0.0000
      9 ****         0.5154   0.0661   0.2269 C.2            1 S1                 0.0000
     10 ****         0.0097   0.4887   1.2663 O.2            1 S1                 0.0000
     11 ****         1.8365  -0.0707   0.0423 N.am           1 S1                 0.0000
     12 ****         2.8782   0.2574   1.0122 C.3            1 S1                 0.0000
     13 ****         3.7617   1.3909   0.4563 C.3            1 S1                 0.0000
     14 ****         4.9358   1.7063   1.3969 C.3            1 S1                 0.0000
     15 ****         5.7695   0.4458   1.6841 C.3            1 S1                 0.0000
     16 ****         6.7967   0.7581   2.6007 O.3            1 S1                 0.0000
     17 ****         4.8905  -0.6783   2.2586 C.3            1 S1                 0.0000
     18 ****         3.7171  -0.9986   1.3182 C.3            1 S1                 0.0000
     19 ****        -2.5263  -0.3167  -0.0400 C.ar           1 S1                 0.0000
     20 ****        -3.8450  -0.3378  -0.3329 N.pl3          1 S1                 1.0000
     21 ****        -5.7964  -2.4750  -1.7320 H              1 S1                 0.0000
     22 ****        -7.3622  -1.6626  -1.7305 H              1 S1                 0.0000
     23 ****        -6.3655  -1.6531  -0.2715 H              1 S1                 0.0000
     24 ****        -5.8240   1.7318  -1.7898 H              1 S1                 0.0000
     25 ****        -6.4075   0.9412  -0.3181 H              1 S1                 0.0000
     26 ****        -7.3792   0.8992  -1.7936 H              1 S1                 0.0000
     27 ****        -3.7784  -0.3691  -3.6976 H              1 S1                 0.0000
     28 ****        -1.3327  -0.3365  -3.2413 H              1 S1                 0.0000
     29 ****         0.3950  -0.5522  -1.6746 H              1 S1                 0.0000
     30 ****         2.1524  -0.4221  -0.8499 H              1 S1                 0.0000
     31 ****         2.4337   0.6016   1.9480 H              1 S1                 0.0000
     32 ****         4.1525   1.1084  -0.5224 H              1 S1                 0.0000
     33 ****         3.1634   2.2897   0.3022 H              1 S1                 0.0000
     34 ****         5.5647   2.4797   0.9538 H              1 S1                 0.0000
     35 ****         4.5497   2.1176   2.3308 H              1 S1                 0.0000
     36 ****         6.2374   0.1031   0.7602 H              1 S1                 0.0000
     37 ****         6.4007   1.0582   3.4045 H              1 S1                 0.0000
     38 ****         5.4880  -1.5760   2.4214 H              1 S1                 0.0000
     39 ****         4.5012  -0.3837   3.2344 H              1 S1                 0.0000
     40 ****         3.0879  -1.7687   1.7664 H              1 S1                 0.0000
     41 ****         4.1060  -1.4195   0.3897 H              1 S1                 0.0000
     42 ****        -2.2967  -0.3227   1.0149 H              1 S1                 0.0000
     43 ****        -4.5112  -0.3442   0.4395 H              1 S1                 0.0000
     44 ****        -5.8553  -0.3922  -2.8016 LP             1 S1                 0.0000
     45 ****        -0.9833   0.5830   1.3368 LP             1 S1                 0.0000
     46 ****         0.5919   0.7377   2.0403 LP             1 S1                 0.0000
     47 ****         7.3790   1.4777   2.2224 LP             1 S1                 0.0000
     48 ****         7.3479  -0.0568   2.7800 LP             1 S1                 0.0000
@<TRIPOS>BOND
    1    1    2 1     
    2    1   21 1     
    3    1   22 1     
    4    1   23 1     
    5    2    3 1     
    6    2    4 1     
    7    3   24 1     
    8    3   25 1     
    9    3   26 1     
   10    4   20 ar    
   11    4    5 ar    
   12    5    6 ar    
   13    5   27 1     
   14    6    7 ar    
   15    6   28 1     
   16    7    8 1     
   17    7   19 ar    
   18    8    9 am    
   19    8   29 1     
   20    9   10 2     
   21    9   11 am    
   22   11   12 1     
   23   11   30 1     
   24   12   18 1     
   25   12   13 1     
   26   12   31 1     
   27   13   14 1     
   28   13   32 1     
   29   13   33 1     
   30   14   15 1     
   31   14   34 1     
   32   14   35 1     
   33   15   16 1     
   34   15   17 1     
   35   15   36 1     
   36   16   37 1     
   37   17   18 1     
   38   17   38 1     
   39   17   39 1     
   40   18   40 1     
   41   18   41 1     
   42   19   20 ar    
   43   19   42 1     
   44   20   43 1     
   45    2   44 1     
   46   10   45 1     
   47   10   46 1     
   48   16   47 1     
   49   16   48 1     
@<TRIPOS>SUBSTRUCTURE
      1 S1             1
@<TRIPOS>SET
LONE_PAIRS      STATIC     ATOMS    <user>   **** ""
5 44 45 46 47 48
DONOR_HYDROGENS      STATIC     ATOMS    <user>   **** ""
4 29 30 37 43
ATOM$BLUE        STATIC     ATOMS    COLORGROUP SYSTEM
5 44 45 46 47 48
ATOM$RED        STATIC     ATOMS    COLORGROUP SYSTEM
4 29 30 37 43
