AV-unprocessed.smi:3253|AV-procd|sdf|12446|dock9
  -GOLD-   2272018343D 1   1.00000     0.00000
 Structure written by MMmdl.
 37 38  0  0  0  0  0  0  0  0  2 V2000
  146.9524  141.4532  156.7262 C   0  0  0  0  0  0  0  0  0  0  0  0
  148.3307  141.5145  156.0546 C   0  0  1  0  0  0  0  0  0  0  0  0
  148.2018  141.7058  154.5271 C   0  0  0  0  0  0  0  0  0  0  0  0
  147.9327  140.4542  153.8108 N   0  0  0  0  0  0  0  0  0  0  0  0
  146.8439  140.1585  153.0307 C   0  0  0  0  0  0  0  0  0  0  0  0
  147.0377  138.8873  152.5552 C   0  0  0  0  0  0  0  0  0  0  0  0
  148.2309  138.4581  153.0716 N   0  3  0  0  0  0  0  0  0  0  0  0
  148.7712  139.4104  153.8388 C   0  0  0  0  0  0  0  0  0  0  0  0
  149.1030  142.6007  156.6570 N   0  0  0  0  0  0  0  0  0  0  0  0
  149.4725  142.6775  157.9455 C   0  0  0  0  0  0  0  0  0  0  0  0
  149.1784  141.8254  158.7850 O   0  0  0  0  0  0  0  0  0  0  0  0
  150.3266  143.8909  158.3426 C   0  0  2  0  0  0  0  0  0  0  0  0
  151.7932  143.7037  157.9038 C   0  0  0  0  0  0  0  0  0  0  0  0
  152.5522  143.5565  159.2119 C   0  0  0  0  0  0  0  0  0  0  0  0
  153.7488  143.2772  159.2611 O   0  0  0  0  0  0  0  0  0  0  0  0
  151.7456  143.7576  160.2575 N   0  0  0  0  0  0  0  0  0  0  0  0
  152.1317  143.6799  161.6598 C   0  0  0  0  0  0  0  0  0  0  0  0
  150.3872  144.0998  159.8719 C   0  0  0  0  0  0  0  0  0  0  0  0
  146.3569  140.6322  156.3256 H   0  0  0  0  0  0  0  0  0  0  0  0
  146.3921  142.3761  156.5716 H   0  0  0  0  0  0  0  0  0  0  0  0
  147.0455  141.2955  157.8014 H   0  0  0  0  0  0  0  0  0  0  0  0
  148.8240  140.5608  156.2508 H   0  0  0  0  0  0  0  0  0  0  0  0
  147.3861  142.3930  154.2973 H   0  0  0  0  0  0  0  0  0  0  0  0
  149.1104  142.1455  154.1128 H   0  0  0  0  0  0  0  0  0  0  0  0
  146.0384  140.8597  152.8675 H   0  0  0  0  0  0  0  0  0  0  0  0
  146.4327  138.2725  151.9048 H   0  0  0  0  0  0  0  0  0  0  0  0
  149.7066  139.3524  154.3663 H   0  0  0  0  0  0  0  0  0  0  0  0
  149.3865  143.3498  156.0418 H   0  0  0  0  0  0  0  0  0  0  0  0
  149.9133  144.7850  157.8723 H   0  0  0  0  0  0  0  0  0  0  0  0
  151.9551  142.8305  157.2693 H   0  0  0  0  0  0  0  0  0  0  0  0
  152.1587  144.5808  157.3688 H   0  0  0  0  0  0  0  0  0  0  0  0
  153.0262  144.2742  161.8492 H   0  0  0  0  0  0  0  0  0  0  0  0
  152.3391  142.6463  161.9392 H   0  0  0  0  0  0  0  0  0  0  0  0
  151.3369  144.0534  162.3062 H   0  0  0  0  0  0  0  0  0  0  0  0
  150.1909  145.1417  160.1286 H   0  0  0  0  0  0  0  0  0  0  0  0
  149.6684  143.4860  160.4181 H   0  0  0  0  0  0  0  0  0  0  0  0
  148.6488  137.5529  152.8963 H   0  0  0  0  0  0  0  0  0  0  0  0
  1  2  1  0  0  0  0
  1 19  1  0  0  0  0
  1 20  1  0  0  0  0
  1 21  1  0  0  0  0
  2  3  1  0  0  0  0
  2  9  1  0  0  0  0
  2 22  1  0  0  0  0
  3  4  1  0  0  0  0
  3 23  1  0  0  0  0
  3 24  1  0  0  0  0
  4  8  1  0  0  0  0
  4  5  1  0  0  0  0
  5  6  2  0  0  0  0
  5 25  1  0  0  0  0
  6  7  1  0  0  0  0
  6 26  1  0  0  0  0
  7  8  2  0  0  0  0
  7 37  1  0  0  0  0
  8 27  1  0  0  0  0
  9 10  1  0  0  0  0
  9 28  1  0  0  0  0
 10 11  2  0  0  0  0
 10 12  1  0  0  0  0
 12 18  1  0  0  0  0
 12 13  1  0  0  0  0
 12 29  1  0  0  0  0
 13 14  1  0  0  0  0
 13 30  1  0  0  0  0
 13 31  1  0  0  0  0
 14 15  2  0  0  0  0
 14 16  1  0  0  0  0
 16 17  1  0  0  0  0
 16 18  1  0  0  0  0
 17 32  1  0  0  0  0
 17 33  1  0  0  0  0
 17 34  1  0  0  0  0
 18 35  1  0  0  0  0
 18 36  1  0  0  0  0
M  CHG  1   7   1
M  END
> <s_m_source_file>
AV-unprocessed.smi

> <i_m_source_file_index>
3253

> <i_lp_mmshare_version>
43012

> <i_f3d_flags>
0

> <s_epik_input>
W2NIXTFuW2NIXVtjSF1uMVtDSDJdW0NAQEhdKFtDSDNdKVtOSF1DKD1PKVtDQEBIXTJbQ0gyXUMoPU8pTihbQ0gzXSlbQ0gyXTI=

> <s_epik_cmdline>
J2VwaWtfcHl0aG9uJywgJy1waCcsICc3LjAnLCAnLXRuJywgJzgnLCAnLW1hJywgJzIwMCcsICctbWV0YWxfYmluZGluZycsICctaW1hZScsICc8aW5maWxlLm1hZT4nLCAnLW9tYWUnLCAnPG91dGZpbGUubWFlPic=

> <r_lp_tautomer_probability>
1

> <r_epik_Ionization_Penalty>
0.251561

> <r_epik_Ionization_Penalty_Charging>
0

> <r_epik_Ionization_Penalty_Neutral>
0.251561

> <r_epik_State_Penalty>
0.242926

> <r_epik_Charging_Adjusted_Penalty>
0.242926

> <i_epik_Tot_Q>
1

> <i_epik_Tot_abs_Q>
1

> <r_epik_Metal_State_Penalty>
0.533885

> <b_epik_Metal_Only>
0

> <s_lp_Force_Field>
OPLS_2005

> <r_lp_Energy>
13.6979

> <b_lp_Chiralities_Consistent>
1

> <s_lp_Variant>
AV-unprocessed.smi:3253-2

> <Gold.Version>
5.8.1

> <Gold.Id.Protein>
6NUR|6NUR_protein|mol2

> <Gold.PLP.Fitness>
41.4133

> <Gold.PLP.PLP>
-31.6796

> <Gold.PLP.part.hbond>
-3.5612

> <Gold.PLP.part.metal>
0.0000

> <Gold.PLP.part.buried>
5.8674

> <Gold.PLP.part.nonpolar>
-33.0112

> <Gold.PLP.part.repulsive>
0.1322

> <Gold.PLP.ligand.clash>
0.0000

> <Gold.PLP.ligand.torsion>
0.6964

> <Gold.PLP.Chemscore.Hbond>
2.7040

> <Gold.PLP.Chemscore.CHOScore>
0.9982

> <Gold.PLP.Chemscore.Metal>
0.0000

> <Gold.Chemscore.Hbonds>
donor molecule, donor type, donor heavy atom, donor atom, acceptor molecule, acceptor atom, score
      L1  H     7    37       P1  7948  2.00
      L1  H     9    28       P1  8028  0.71
      L1  C     5    25       P1 10175  1.00

> <Gold.PLP.Chemscore.Internal.Correction>
0.0199

> <Gold.Rescore>
     Score         DG    S(hbond)    S(metal)    S(lipo)     H(rot)  DE(clash)    DE(int)     intcor
     13.26     -14.23       1.75        0.00      69.30       2.03       0.35       0.62       ----

> <Gold.Chemscore.Fitness>
13.2611

> <Gold.Chemscore.DG>
-14.2279

> <Gold.Chemscore.ZeroCoef>
-5.4800

> <Gold.Chemscore.Hbond>
1.7508

> <Gold.Chemscore.Metal>
0.0000

> <Gold.Chemscore.Lipo>
69.2950

> <Gold.Chemscore.Internal_Hbond>
0.0000

> <Gold.Chemscore.DEClash>
0.3513

> <Gold.Chemscore.DEInternal>
0.6155

> <Gold.Chemscore.Rot>
2.0341

> <Gold.Chemscore.Internal.Correction>
   9.000000E+99

> <Gold.Chemscore.Hbonds>
donor molecule, donor type, donor heavy atom, donor atom, acceptor molecule, acceptor atom, score
      L1  H     7    37       P1  7948  0.94
      L1  H     9    28       P1  8028  0.66

> <Gold.Chemscore.Hbond.Weighted>
-5.8476

> <Gold.Chemscore.Metal.Weighted>
-0.0000

> <Gold.Chemscore.Lipo.Weighted>
-8.1075

> <Gold.Chemscore.Internal_Hbond.Weighted>
0.0000

> <Gold.Chemscore.DEClash.Weighted>
0.3513

> <Gold.Chemscore.DEInternal.Weighted>
0.6155

> <Gold.Chemscore.Rot.Weighted>
5.2072

> <Gold.Chemscore.Internal.Correction.Weighted>
   9.000000E+99

> <Gold.Protein.RotatedTorsions>
[ 6907 6896 6895 6894 ] final  -22.52 input  -60.11 | X-H torsion
[ 7974 7965 7964 7962 ] final -179.27 input  175.53 | X-H torsion
[ 8008 7997 7996 7995 ] final -136.12 input   59.86 | X-H torsion
[ 10167 10162 10161 10158 ] final  128.39 input  -65.29 | X-H torsion
[ 10718 10713 10712 10709 ] final -139.40 input   66.30 | X-H torsion
[ 10763 10752 10751 10750 ] final  129.24 input  -60.55 | X-H torsion
[ 11005 11000 10999 10996 ] final -120.66 input  -57.11 | X-H torsion

> <Gold.Protein.ActiveResidues>
 VAL166  LYS551  ARG553  GLY616  TRP617  ASP618  TYR619  PRO620  LYS621  CYS622 
 ASP623  PHE694  ASN695  SER759  ASP760  ASP761  ALA762  ILE779  LEU786  VAL792 
 PHE793  MET794  SER795  GLU796  ALA797  LYS798  CYS799  TRP800  GLU811  SER814 

> <Gold.Protein.RotatedAtoms>
  151.2174  135.0505  159.8935 H   0  0  0  0  0  0  0  0  0  0  0  0  # atno 6907 bound_to 6896
  152.5419  134.0678  159.8190 H   0  0  0  0  0  0  0  0  0  0  0  0  # atno 6908 bound_to 6896
  151.0839  133.5320  159.2650 H   0  0  0  0  0  0  0  0  0  0  0  0  # atno 6909 bound_to 6896
  144.7135  140.0743  143.6428 H   0  0  0  0  0  0  0  0  0  0  0  0  # atno 7974 bound_to 7965
  155.3900  140.0499  157.3041 H   0  0  0  0  0  0  0  0  0  0  0  0  # atno 8008 bound_to 7997
  154.5041  140.2167  155.9248 H   0  0  0  0  0  0  0  0  0  0  0  0  # atno 8009 bound_to 7997
  156.1503  140.3137  155.8643 H   0  0  0  0  0  0  0  0  0  0  0  0  # atno 8010 bound_to 7997
  139.5530  144.6827  151.4268 H   0  0  0  0  0  0  0  0  0  0  0  0  # atno 10167 bound_to 10162
  156.3104  130.7478  151.1552 H   0  0  0  0  0  0  0  0  0  0  0  0  # atno 10718 bound_to 10713
  153.7386  135.3227  155.3299 H   0  0  0  0  0  0  0  0  0  0  0  0  # atno 10763 bound_to 10752
  154.8302  135.4539  154.1050 H   0  0  0  0  0  0  0  0  0  0  0  0  # atno 10764 bound_to 10752
  153.2218  135.6949  153.8073 H   0  0  0  0  0  0  0  0  0  0  0  0  # atno 10765 bound_to 10752
  141.0127  134.0240  157.3391 H   0  0  0  0  0  0  0  0  0  0  0  0  # atno 11005 bound_to 11000
  145.9757  139.2903  143.1072 LP  0  0  0  0  0  0  0  0  0  0  0  0  # atno 17320 bound_to 7965
  145.9067  140.9207  143.0475 LP  0  0  0  0  0  0  0  0  0  0  0  0  # atno 17321 bound_to 7965
  140.6796  143.8111  150.7104 LP  0  0  0  0  0  0  0  0  0  0  0  0  # atno 17342 bound_to 10162
  140.1560  143.4316  152.2099 LP  0  0  0  0  0  0  0  0  0  0  0  0  # atno 17343 bound_to 10162
  157.7389  131.0535  150.5263 LP  0  0  0  0  0  0  0  0  0  0  0  0  # atno 17370 bound_to 10713
  156.5401  130.4206  149.6158 LP  0  0  0  0  0  0  0  0  0  0  0  0  # atno 17371 bound_to 10713
  139.9099  135.0188  156.7647 LP  0  0  0  0  0  0  0  0  0  0  0  0  # atno 17394 bound_to 11000
  140.6706  133.9563  155.7854 LP  0  0  0  0  0  0  0  0  0  0  0  0  # atno 17395 bound_to 11000

$$$$
