AV-unprocessed.smi:1645|AV-procd|sdf|6608|dock1
  -GOLD-   22720 7313D 1   1.00000     0.00000
 Structure written by MMmdl.
 56 59  0  0  0  0  0  0  0  0  3 V2000
  146.4746  139.1537  154.0211 O   0  0  0  0  0  0  0  0  0  0  0  0
  147.2676  138.2960  153.6338 C   0  0  0  0  0  0  0  0  0  0  0  0
  148.5804  138.2675  153.9215 N   0  0  0  0  0  0  0  0  0  0  0  0
  149.3162  139.1460  154.7626 C   0  0  0  0  0  0  0  0  0  0  0  0
  150.7076  138.9449  154.8736 C   0  0  0  0  0  0  0  0  0  0  0  0
  151.4734  139.7806  155.7123 C   0  0  0  0  0  0  0  0  0  0  0  0
  150.8405  140.8116  156.4519 C   0  0  0  0  0  0  0  0  0  0  0  0
  151.5228  141.6961  157.3182 N   0  0  0  0  0  0  0  0  0  0  0  0
  151.0063  143.0679  157.3760 C   0  0  0  0  0  0  0  0  0  0  0  0
  152.0262  144.0309  158.0068 C   0  0  0  0  0  0  0  0  0  0  0  0
  152.5022  143.5163  159.3717 C   0  0  0  0  0  0  0  0  0  0  0  0
  153.0665  142.0975  159.2222 C   0  0  0  0  0  0  0  0  0  0  0  0
  152.0363  141.1539  158.5780 C   0  0  0  0  0  0  0  0  0  0  0  0
  149.4997  140.9572  156.3179 N   0  3  0  0  0  0  0  0  0  0  0  0
  148.7289  140.1833  155.5245 C   0  0  0  0  0  0  0  0  0  0  0  0
  146.9182  137.2747  152.8386 N   0  0  0  0  0  0  0  0  0  0  0  0
  145.5685  137.0331  152.3354 C   0  0  2  0  0  0  0  0  0  0  0  0
  144.4713  137.3926  153.3519 C   0  0  0  0  0  0  0  0  0  0  0  0
  143.3613  136.3436  153.1386 C   0  0  0  0  0  0  0  0  0  0  0  0
  143.8318  135.4935  152.0273 N   0  3  2  0  0  0  0  0  0  0  0  0
  143.3097  134.1112  151.9659 C   0  0  0  0  0  0  0  0  0  0  0  0
  143.8444  133.4228  150.6939 C   0  0  0  0  0  0  0  0  0  0  0  0
  145.3818  133.5061  150.6016 C   0  0  0  0  0  0  0  0  0  0  0  0
  145.8713  134.9581  150.7643 C   0  0  0  0  0  0  0  0  0  0  0  0
  145.3009  135.5511  152.0639 C   0  0  1  0  0  0  0  0  0  0  0  0
  149.1239  137.5539  153.4581 H   0  0  0  0  0  0  0  0  0  0  0  0
  151.1920  138.1553  154.3178 H   0  0  0  0  0  0  0  0  0  0  0  0
  152.5358  139.6020  155.7806 H   0  0  0  0  0  0  0  0  0  0  0  0
  150.7494  143.4441  156.3862 H   0  0  0  0  0  0  0  0  0  0  0  0
  150.0852  143.0671  157.9602 H   0  0  0  0  0  0  0  0  0  0  0  0
  152.8824  144.1443  157.3401 H   0  0  0  0  0  0  0  0  0  0  0  0
  151.5845  145.0221  158.1139 H   0  0  0  0  0  0  0  0  0  0  0  0
  153.2608  144.1832  159.7827 H   0  0  0  0  0  0  0  0  0  0  0  0
  151.6706  143.5125  160.0776 H   0  0  0  0  0  0  0  0  0  0  0  0
  153.9677  142.1279  158.6080 H   0  0  0  0  0  0  0  0  0  0  0  0
  153.3688  141.7104  160.1955 H   0  0  0  0  0  0  0  0  0  0  0  0
  151.2021  140.9874  159.2608 H   0  0  0  0  0  0  0  0  0  0  0  0
  152.5163  140.1900  158.4070 H   0  0  0  0  0  0  0  0  0  0  0  0
  147.6762  140.4215  155.5472 H   0  0  0  0  0  0  0  0  0  0  0  0
  147.6334  136.6167  152.5640 H   0  0  0  0  0  0  0  0  0  0  0  0
  145.3894  137.6075  151.4236 H   0  0  0  0  0  0  0  0  0  0  0  0
  144.8439  137.3275  154.3753 H   0  0  0  0  0  0  0  0  0  0  0  0
  144.1073  138.4094  153.1994 H   0  0  0  0  0  0  0  0  0  0  0  0
  143.2292  135.7470  154.0427 H   0  0  0  0  0  0  0  0  0  0  0  0
  142.4023  136.7996  152.8906 H   0  0  0  0  0  0  0  0  0  0  0  0
  143.6127  133.5588  152.8565 H   0  0  0  0  0  0  0  0  0  0  0  0
  142.2194  134.1320  151.9525 H   0  0  0  0  0  0  0  0  0  0  0  0
  143.5241  132.3809  150.6697 H   0  0  0  0  0  0  0  0  0  0  0  0
  143.4066  133.8990  149.8156 H   0  0  0  0  0  0  0  0  0  0  0  0
  145.8255  132.8847  151.3808 H   0  0  0  0  0  0  0  0  0  0  0  0
  145.7238  133.0985  149.6497 H   0  0  0  0  0  0  0  0  0  0  0  0
  146.9611  134.9815  150.7815 H   0  0  0  0  0  0  0  0  0  0  0  0
  145.5576  135.5561  149.9076 H   0  0  0  0  0  0  0  0  0  0  0  0
  145.6511  134.9622  152.9151 H   0  0  0  0  0  0  0  0  0  0  0  0
  143.5530  135.9576  151.1746 H   0  0  0  0  0  0  0  0  0  0  0  0
  149.0423  141.6973  156.8509 H   0  0  0  0  0  0  0  0  0  0  0  0
  1  2  2  0  0  0  0
  2  3  1  0  0  0  0
  2 16  1  0  0  0  0
  3  4  1  0  0  0  0
  3 26  1  0  0  0  0
  4 15  1  0  0  0  0
  4  5  2  0  0  0  0
  5  6  1  0  0  0  0
  5 27  1  0  0  0  0
  6  7  2  0  0  0  0
  6 28  1  0  0  0  0
  7  8  1  0  0  0  0
  7 14  1  0  0  0  0
  8 13  1  0  0  0  0
  8  9  1  0  0  0  0
  9 10  1  0  0  0  0
  9 29  1  0  0  0  0
  9 30  1  0  0  0  0
 10 11  1  0  0  0  0
 10 31  1  0  0  0  0
 10 32  1  0  0  0  0
 11 12  1  0  0  0  0
 11 33  1  0  0  0  0
 11 34  1  0  0  0  0
 12 13  1  0  0  0  0
 12 35  1  0  0  0  0
 12 36  1  0  0  0  0
 13 37  1  0  0  0  0
 13 38  1  0  0  0  0
 14 15  2  0  0  0  0
 14 56  1  0  0  0  0
 15 39  1  0  0  0  0
 16 17  1  0  0  0  0
 16 40  1  0  0  0  0
 17 25  1  0  0  0  0
 17 18  1  0  0  0  0
 17 41  1  0  0  0  0
 18 19  1  0  0  0  0
 18 42  1  0  0  0  0
 18 43  1  0  0  0  0
 19 20  1  0  0  0  0
 19 44  1  0  0  0  0
 19 45  1  0  0  0  0
 20 25  1  0  0  0  0
 20 21  1  0  0  0  0
 20 55  1  0  0  0  0
 21 22  1  0  0  0  0
 21 46  1  0  0  0  0
 21 47  1  0  0  0  0
 22 23  1  0  0  0  0
 22 48  1  0  0  0  0
 22 49  1  0  0  0  0
 23 24  1  0  0  0  0
 23 50  1  0  0  0  0
 23 51  1  0  0  0  0
 24 25  1  0  0  0  0
 24 52  1  0  0  0  0
 24 53  1  0  0  0  0
 25 54  1  0  0  0  0
M  CHG  1  14   1
M  CHG  1  20   1
M  END
> <s_m_source_file>
AV-unprocessed.smi

> <i_m_source_file_index>
1645

> <i_lp_mmshare_version>
43012

> <i_f3d_flags>
0

> <s_epik_input>
W0NIMl0xW0NIMl1bQ0gyXVtDSDJdW0NASF0oTjEyKVtDQEBIXShbQ0gyXVtDSDJdMilbTkhdQyg9TylbTkhdYzNbY0hdW2NIXWMobltjSF0zKU40W0NIMl1bQ0gyXVtDSDJdW0NIMl1bQ0gyXTQ=

> <s_epik_cmdline>
J2VwaWtfcHl0aG9uJywgJy1waCcsICc3LjAnLCAnLXRuJywgJzgnLCAnLW1hJywgJzIwMCcsICctbWV0YWxfYmluZGluZycsICctaW1hZScsICc8aW5maWxlLm1hZT4nLCAnLW9tYWUnLCAnPG91dGZpbGUubWFlPic=

> <r_lp_tautomer_probability>
0.999994

> <r_epik_Ionization_Penalty>
1.26838

> <r_epik_Ionization_Penalty_Charging>
1.26836

> <r_epik_Ionization_Penalty_Neutral>
1.95562e-05

> <r_epik_State_Penalty>
1.33841

> <r_epik_Charging_Adjusted_Penalty>
2.60677

> <i_epik_Tot_Q>
2

> <i_epik_Tot_abs_Q>
2

> <r_epik_Metal_State_Penalty>
1.40601

> <b_epik_Metal_Only>
0

> <s_lp_Force_Field>
OPLS_2005

> <r_lp_Energy>
57.8286

> <b_lp_Chiralities_Consistent>
1

> <s_lp_Variant>
AV-unprocessed.smi:1645-9

> <Gold.Version>
5.8.1

> <Gold.Id.Protein>
6NUR|6NUR_protein|mol2

> <Gold.PLP.Fitness>
47.4201

> <Gold.PLP.PLP>
-43.2858

> <Gold.PLP.part.hbond>
-1.8881

> <Gold.PLP.part.metal>
0.0000

> <Gold.PLP.part.buried>
-4.3541

> <Gold.PLP.part.nonpolar>
-37.8247

> <Gold.PLP.part.repulsive>
0.2529

> <Gold.PLP.ligand.clash>
0.0020

> <Gold.PLP.ligand.torsion>
0.8223

> <Gold.PLP.Chemscore.Hbond>
1.7558

> <Gold.PLP.Chemscore.CHOScore>
0.0000

> <Gold.PLP.Chemscore.Metal>
0.0000

> <Gold.Chemscore.Hbonds>
donor molecule, donor type, donor heavy atom, donor atom, acceptor molecule, acceptor atom, score
      L1  H     3    26       P1  7948  0.74
      L1  H    16    40       P1  7948  1.00

> <Gold.PLP.Chemscore.Internal.Correction>
0.5135

> <Gold.Rescore>
     Score         DG    S(hbond)    S(metal)    S(lipo)     H(rot)  DE(clash)    DE(int)     intcor
     18.69     -22.30       1.75        0.00     119.56       1.18       0.11       3.50       ----

> <Gold.Chemscore.Fitness>
18.6897

> <Gold.Chemscore.DG>
-22.2995

> <Gold.Chemscore.ZeroCoef>
-5.4800

> <Gold.Chemscore.Hbond>
1.7547

> <Gold.Chemscore.Metal>
0.0000

> <Gold.Chemscore.Lipo>
119.5571

> <Gold.Chemscore.Internal_Hbond>
0.0000

> <Gold.Chemscore.DEClash>
0.1085

> <Gold.Chemscore.DEInternal>
3.5013

> <Gold.Chemscore.Rot>
1.1833

> <Gold.Chemscore.Internal.Correction>
   9.000000E+99

> <Gold.Chemscore.Hbonds>
donor molecule, donor type, donor heavy atom, donor atom, acceptor molecule, acceptor atom, score
      L1  H     3    26       P1  7948  0.70
      L1  H    16    40       P1  7948  0.92

> <Gold.Chemscore.Hbond.Weighted>
-5.8606

> <Gold.Chemscore.Metal.Weighted>
-0.0000

> <Gold.Chemscore.Lipo.Weighted>
-13.9882

> <Gold.Chemscore.Internal_Hbond.Weighted>
0.0000

> <Gold.Chemscore.DEClash.Weighted>
0.1085

> <Gold.Chemscore.DEInternal.Weighted>
3.5013

> <Gold.Chemscore.Rot.Weighted>
3.0293

> <Gold.Chemscore.Internal.Correction.Weighted>
   9.000000E+99

> <Gold.Protein.RotatedTorsions>
[ 6907 6896 6895 6894 ] final   53.28 input  -60.11 | X-H torsion
[ 7974 7965 7964 7962 ] final -120.65 input  175.53 | X-H torsion
[ 8008 7997 7996 7995 ] final -179.38 input   59.86 | X-H torsion
[ 10167 10162 10161 10158 ] final  -73.39 input  -65.29 | X-H torsion
[ 10718 10713 10712 10709 ] final  -36.61 input   66.30 | X-H torsion
[ 10763 10752 10751 10750 ] final  -71.52 input  -60.55 | X-H torsion
[ 11005 11000 10999 10996 ] final  127.28 input  -57.11 | X-H torsion

> <Gold.Protein.ActiveResidues>
 VAL166  LYS551  ARG553  GLY616  TRP617  ASP618  TYR619  PRO620  LYS621  CYS622 
 ASP623  PHE694  ASN695  SER759  ASP760  ASP761  ALA762  ILE779  LEU786  VAL792 
 PHE793  MET794  SER795  GLU796  ALA797  LYS798  CYS799  TRP800  GLU811  SER814 

> <Gold.Protein.RotatedAtoms>
  152.3321  134.7246  160.0286 H   0  0  0  0  0  0  0  0  0  0  0  0  # atno 6907 bound_to 6896
  151.7659  133.3332  159.3439 H   0  0  0  0  0  0  0  0  0  0  0  0  # atno 6908 bound_to 6896
  150.7429  134.5995  159.6073 H   0  0  0  0  0  0  0  0  0  0  0  0  # atno 6909 bound_to 6896
  145.0490  140.8204  143.4220 H   0  0  0  0  0  0  0  0  0  0  0  0  # atno 7974 bound_to 7965
  156.0298  140.1279  157.0270 H   0  0  0  0  0  0  0  0  0  0  0  0  # atno 8008 bound_to 7997
  154.4345  140.1052  156.6153 H   0  0  0  0  0  0  0  0  0  0  0  0  # atno 8009 bound_to 7997
  155.5824  140.3468  155.4546 H   0  0  0  0  0  0  0  0  0  0  0  0  # atno 8010 bound_to 7997
  140.5114  143.2344  151.7586 H   0  0  0  0  0  0  0  0  0  0  0  0  # atno 10167 bound_to 10162
  156.3248  130.4271  149.7927 H   0  0  0  0  0  0  0  0  0  0  0  0  # atno 10718 bound_to 10713
  154.4329  135.5959  153.6080 H   0  0  0  0  0  0  0  0  0  0  0  0  # atno 10763 bound_to 10752
  152.9800  135.5979  154.3817 H   0  0  0  0  0  0  0  0  0  0  0  0  # atno 10764 bound_to 10752
  154.3657  135.2841  155.2273 H   0  0  0  0  0  0  0  0  0  0  0  0  # atno 10765 bound_to 10752
  139.9499  134.9623  156.8832 H   0  0  0  0  0  0  0  0  0  0  0  0  # atno 11005 bound_to 11000
  145.1551  139.2491  143.5421 LP  0  0  0  0  0  0  0  0  0  0  0  0  # atno 17320 bound_to 7965
  146.3516  140.1263  142.8598 LP  0  0  0  0  0  0  0  0  0  0  0  0  # atno 17321 bound_to 7965
  139.4897  144.4385  151.9792 LP  0  0  0  0  0  0  0  0  0  0  0  0  # atno 17342 bound_to 10162
  140.3477  144.3127  150.5955 LP  0  0  0  0  0  0  0  0  0  0  0  0  # atno 17343 bound_to 10162
  156.5221  130.8220  151.3207 LP  0  0  0  0  0  0  0  0  0  0  0  0  # atno 17370 bound_to 10713
  157.7419  130.9879  150.2478 LP  0  0  0  0  0  0  0  0  0  0  0  0  # atno 17371 bound_to 10713
  140.5743  134.0413  155.7441 LP  0  0  0  0  0  0  0  0  0  0  0  0  # atno 17394 bound_to 11000
  141.1160  133.9540  157.2822 LP  0  0  0  0  0  0  0  0  0  0  0  0  # atno 17395 bound_to 11000

$$$$
