AV-unprocessed.smi:2711|AV-procd|sdf|10473|dock9
  -GOLD-   2272014513D 1   1.00000     0.00000
 Structure written by MMmdl.
 33 34  0  0  0  0  0  0  0  0  2 V2000
  154.3401  133.6182  164.6508 C   0  0  0  0  0  0  0  0  0  0  0  0
  154.5243  134.9320  163.9699 C   0  0  0  0  0  0  0  0  0  0  0  0
  154.1245  136.1666  164.4118 C   0  0  0  0  0  0  0  0  0  0  0  0
  154.4470  137.2071  163.5391 N   0  0  0  0  0  0  0  0  0  0  0  0
  155.0924  136.7987  162.4415 C   0  0  0  0  0  0  0  0  0  0  0  0
  155.4861  137.6376  161.4694 N   0  5  0  0  0  0  0  0  0  0  0  0
  155.3410  138.9730  161.6273 C   0  0  0  0  0  0  0  0  0  0  0  0
  156.0367  139.7058  162.3346 O   0  0  0  0  0  0  0  0  0  0  0  0
  154.3252  139.4924  160.9217 N   0  0  0  0  0  0  0  0  0  0  0  0
  153.9296  140.8996  160.8952 C   0  0  0  0  0  0  0  0  0  0  0  0
  153.3168  141.3409  159.5530 C   0  0  0  0  0  0  0  0  0  0  0  0
  153.3377  140.5788  158.5847 O   0  0  0  0  0  0  0  0  0  0  0  0
  152.7507  142.5639  159.4853 N   0  0  0  0  0  0  0  0  0  0  0  0
  152.6531  143.5226  160.5853 C   0  0  0  0  0  0  0  0  0  0  0  0
  151.7170  144.6255  160.0902 C   0  0  0  0  0  0  0  0  0  0  0  0
  151.8508  144.5753  158.5746 C   0  0  0  0  0  0  0  0  0  0  0  0
  152.1375  143.1041  158.2735 C   0  0  0  0  0  0  0  0  0  0  0  0
  155.3268  135.0489  162.4269 S   0  0  0  0  0  0  0  0  0  0  0  0
  155.0824  133.4852  165.4377 H   0  0  0  0  0  0  0  0  0  0  0  0
  154.4429  132.7923  163.9466 H   0  0  0  0  0  0  0  0  0  0  0  0
  153.3509  133.5512  165.1036 H   0  0  0  0  0  0  0  0  0  0  0  0
  153.6056  136.3968  165.3306 H   0  0  0  0  0  0  0  0  0  0  0  0
  153.7874  138.8573  160.3508 H   0  0  0  0  0  0  0  0  0  0  0  0
  153.1915  141.0549  161.6822 H   0  0  0  0  0  0  0  0  0  0  0  0
  154.7897  141.5236  161.1427 H   0  0  0  0  0  0  0  0  0  0  0  0
  152.2725  143.0676  161.5007 H   0  0  0  0  0  0  0  0  0  0  0  0
  153.6442  143.9293  160.7914 H   0  0  0  0  0  0  0  0  0  0  0  0
  150.6905  144.3881  160.3730 H   0  0  0  0  0  0  0  0  0  0  0  0
  151.9599  145.6044  160.5050 H   0  0  0  0  0  0  0  0  0  0  0  0
  150.9663  144.9484  158.0578 H   0  0  0  0  0  0  0  0  0  0  0  0
  152.7011  145.1843  158.2641 H   0  0  0  0  0  0  0  0  0  0  0  0
  152.7858  142.9963  157.4025 H   0  0  0  0  0  0  0  0  0  0  0  0
  151.2100  142.5648  158.0751 H   0  0  0  0  0  0  0  0  0  0  0  0
  1  2  1  0  0  0  0
  1 19  1  0  0  0  0
  1 20  1  0  0  0  0
  1 21  1  0  0  0  0
  2 18  1  0  0  0  0
  2  3  2  0  0  0  0
  3  4  1  0  0  0  0
  3 22  1  0  0  0  0
  4  5  2  0  0  0  0
  5  6  1  0  0  0  0
  5 18  1  0  0  0  0
  6  7  1  0  0  0  0
  7  8  2  0  0  0  0
  7  9  1  0  0  0  0
  9 10  1  0  0  0  0
  9 23  1  0  0  0  0
 10 11  1  0  0  0  0
 10 24  1  0  0  0  0
 10 25  1  0  0  0  0
 11 12  2  0  0  0  0
 11 13  1  0  0  0  0
 13 17  1  0  0  0  0
 13 14  1  0  0  0  0
 14 15  1  0  0  0  0
 14 26  1  0  0  0  0
 14 27  1  0  0  0  0
 15 16  1  0  0  0  0
 15 28  1  0  0  0  0
 15 29  1  0  0  0  0
 16 17  1  0  0  0  0
 16 30  1  0  0  0  0
 16 31  1  0  0  0  0
 17 32  1  0  0  0  0
 17 33  1  0  0  0  0
M  CHG  1   6  -1
M  END
> <s_m_source_file>
AV-unprocessed.smi

> <i_m_source_file_index>
2711

> <i_lp_mmshare_version>
43012

> <i_f3d_flags>
0

> <s_epik_input>
W0NIM11jMVtjSF1uYyhzMSlbTkhdQyg9TylbTkhdW0NIMl1DKD1PKU4yW0NIMl1bQ0gyXVtDSDJdW0NIMl0y

> <s_epik_cmdline>
J2VwaWtfcHl0aG9uJywgJy1waCcsICc3LjAnLCAnLXRuJywgJzgnLCAnLW1hJywgJzIwMCcsICctbWV0YWxfYmluZGluZycsICctaW1hZScsICc8aW5maWxlLm1hZT4nLCAnLW9tYWUnLCAnPG91dGZpbGUubWFlPic=

> <r_lp_tautomer_probability>
1

> <r_epik_Ionization_Penalty>
6.8506

> <r_epik_Ionization_Penalty_Charging>
5.74941

> <r_epik_Ionization_Penalty_Neutral>
1.10119

> <r_epik_State_Penalty>
5.74937

> <r_epik_Charging_Adjusted_Penalty>
11.4988

> <i_epik_Tot_Q>
-1

> <i_epik_Tot_abs_Q>
1

> <r_epik_Metal_State_Penalty>
1.72493

> <b_epik_Metal_Only>
1

> <s_lp_Force_Field>
OPLS_2005

> <r_lp_Energy>
20.4432

> <b_lp_Chiralities_Consistent>
1

> <s_lp_Variant>
AV-unprocessed.smi:2711-2

> <Gold.Version>
5.8.1

> <Gold.Id.Protein>
6NUR|6NUR_protein|mol2

> <Gold.PLP.Fitness>
40.7969

> <Gold.PLP.PLP>
-40.7302

> <Gold.PLP.part.hbond>
-1.0000

> <Gold.PLP.part.metal>
0.0000

> <Gold.PLP.part.buried>
-3.1910

> <Gold.PLP.part.nonpolar>
-36.1367

> <Gold.PLP.part.repulsive>
0.0482

> <Gold.PLP.ligand.clash>
0.0000

> <Gold.PLP.ligand.torsion>
0.9688

> <Gold.PLP.Chemscore.Hbond>
0.6614

> <Gold.PLP.Chemscore.CHOScore>
0.0000

> <Gold.PLP.Chemscore.Metal>
0.0000

> <Gold.Chemscore.Hbonds>
donor molecule, donor type, donor heavy atom, donor atom, acceptor molecule, acceptor atom, score
      P1  H  7997  8009       L1    12  0.71

> <Gold.PLP.Chemscore.Internal.Correction>
0.0200

> <Gold.Rescore>
     Score         DG    S(hbond)    S(metal)    S(lipo)     H(rot)  DE(clash)    DE(int)     intcor
     14.51     -15.63       0.84        0.00      91.39       1.31       0.13       0.99       ----

> <Gold.Chemscore.Fitness>
14.5104

> <Gold.Chemscore.DG>
-15.6262

> <Gold.Chemscore.ZeroCoef>
-5.4800

> <Gold.Chemscore.Hbond>
0.8369

> <Gold.Chemscore.Metal>
0.0000

> <Gold.Chemscore.Lipo>
91.3934

> <Gold.Chemscore.Internal_Hbond>
0.0000

> <Gold.Chemscore.DEClash>
0.1305

> <Gold.Chemscore.DEInternal>
0.9852

> <Gold.Chemscore.Rot>
1.3056

> <Gold.Chemscore.Internal.Correction>
   9.000000E+99

> <Gold.Chemscore.Hbonds>
donor molecule, donor type, donor heavy atom, donor atom, acceptor molecule, acceptor atom, score
      P1  H  7997  8009       L1    12  0.68

> <Gold.Chemscore.Hbond.Weighted>
-2.7954

> <Gold.Chemscore.Metal.Weighted>
-0.0000

> <Gold.Chemscore.Lipo.Weighted>
-10.6930

> <Gold.Chemscore.Internal_Hbond.Weighted>
0.0000

> <Gold.Chemscore.DEClash.Weighted>
0.1305

> <Gold.Chemscore.DEInternal.Weighted>
0.9852

> <Gold.Chemscore.Rot.Weighted>
3.3422

> <Gold.Chemscore.Internal.Correction.Weighted>
   9.000000E+99

> <Gold.Protein.RotatedTorsions>
[ 6907 6896 6895 6894 ] final   10.06 input  -60.11 | X-H torsion
[ 7974 7965 7964 7962 ] final   54.45 input  175.53 | X-H torsion
[ 8008 7997 7996 7995 ] final  149.50 input   59.86 | X-H torsion
[ 10167 10162 10161 10158 ] final  -67.98 input  -65.29 | X-H torsion
[ 10718 10713 10712 10709 ] final -155.07 input   66.30 | X-H torsion
[ 10763 10752 10751 10750 ] final  166.06 input  -60.55 | X-H torsion
[ 11005 11000 10999 10996 ] final  -60.29 input  -57.11 | X-H torsion

> <Gold.Protein.ActiveResidues>
 VAL166  LYS551  ARG553  GLY616  TRP617  ASP618  TYR619  PRO620  LYS621  CYS622 
 ASP623  PHE694  ASN695  SER759  ASP760  ASP761  ALA762  ILE779  LEU786  VAL792 
 PHE793  MET794  SER795  GLU796  ALA797  LYS798  CYS799  TRP800  GLU811  SER814 

> <Gold.Protein.RotatedAtoms>
  151.7322  135.0872  160.0301 H   0  0  0  0  0  0  0  0  0  0  0  0  # atno 6907 bound_to 6896
  152.3534  133.6202  159.5969 H   0  0  0  0  0  0  0  0  0  0  0  0  # atno 6908 bound_to 6896
  150.7554  133.9455  159.3511 H   0  0  0  0  0  0  0  0  0  0  0  0  # atno 6909 bound_to 6896
  145.9607  139.4056  143.0250 H   0  0  0  0  0  0  0  0  0  0  0  0  # atno 7974 bound_to 7965
  156.2752  140.2100  156.5868 H   0  0  0  0  0  0  0  0  0  0  0  0  # atno 8008 bound_to 7997
  154.7015  140.0520  157.0485 H   0  0  0  0  0  0  0  0  0  0  0  0  # atno 8009 bound_to 7997
  155.0729  140.3178  155.4628 H   0  0  0  0  0  0  0  0  0  0  0  0  # atno 8010 bound_to 7997
  140.5542  143.2312  151.6853 H   0  0  0  0  0  0  0  0  0  0  0  0  # atno 10167 bound_to 10162
  156.5078  130.8421  151.2635 H   0  0  0  0  0  0  0  0  0  0  0  0  # atno 10718 bound_to 10713
  154.3334  135.2754  155.2460 H   0  0  0  0  0  0  0  0  0  0  0  0  # atno 10763 bound_to 10752
  154.4762  135.5870  153.6360 H   0  0  0  0  0  0  0  0  0  0  0  0  # atno 10764 bound_to 10752
  152.9864  135.6100  154.3528 H   0  0  0  0  0  0  0  0  0  0  0  0  # atno 10765 bound_to 10752
  141.1282  133.6621  156.5201 H   0  0  0  0  0  0  0  0  0  0  0  0  # atno 11005 bound_to 11000
  145.8044  140.9756  143.0982 LP  0  0  0  0  0  0  0  0  0  0  0  0  # atno 17320 bound_to 7965
  144.6814  139.9842  143.7484 LP  0  0  0  0  0  0  0  0  0  0  0  0  # atno 17321 bound_to 7965
  139.5040  144.3769  152.0415 LP  0  0  0  0  0  0  0  0  0  0  0  0  # atno 17342 bound_to 10162
  140.2889  144.3776  150.6095 LP  0  0  0  0  0  0  0  0  0  0  0  0  # atno 17343 bound_to 10162
  157.7454  130.9960  150.2763 LP  0  0  0  0  0  0  0  0  0  0  0  0  # atno 17370 bound_to 10713
  156.3269  130.3794  149.7525 LP  0  0  0  0  0  0  0  0  0  0  0  0  # atno 17371 bound_to 10713
  140.4299  134.7111  157.4936 LP  0  0  0  0  0  0  0  0  0  0  0  0  # atno 17394 bound_to 11000
  140.0301  134.6418  155.9118 LP  0  0  0  0  0  0  0  0  0  0  0  0  # atno 17395 bound_to 11000

$$$$
