AV-unprocessed.smi:753|AV-procd|sdf|3605|dock2
  -GOLD-   22720 1 03D 1   1.00000     0.00000
 Structure written by MMmdl.
 44 46  0  0  0  0  0  0  0  0  2 V2000
  151.4649  143.6109  158.1960 C   0  0  0  0  0  0  0  0  0  0  0  0
  151.0827  142.4355  157.3217 C   0  0  0  0  0  0  0  0  0  0  0  0
  151.6415  141.1520  157.5001 C   0  0  0  0  0  0  0  0  0  0  0  0
  151.2448  140.1033  156.6449 C   0  0  0  0  0  0  0  0  0  0  0  0
  150.2963  140.3583  155.6298 C   0  0  0  0  0  0  0  0  0  0  0  0
  149.8727  139.2620  154.6678 C   0  0  0  0  0  0  0  0  0  0  0  0
  148.7406  139.6831  153.7104 C   0  0  0  0  0  0  0  0  0  0  0  0
  148.1199  138.5430  153.0400 N   0  0  0  0  0  0  0  0  0  0  0  0
  146.8012  138.2843  152.9913 C   0  0  0  0  0  0  0  0  0  0  0  0
  145.9482  139.0036  153.5080 O   0  0  0  0  0  0  0  0  0  0  0  0
  146.4725  137.1721  152.3117 N   0  0  0  0  0  0  0  0  0  0  0  0
  145.1339  136.6231  152.0797 C   0  0  2  0  0  0  0  0  0  0  0  0
  144.6611  135.7796  153.2847 C   0  0  0  0  0  0  0  0  0  0  0  0
  144.3856  134.3998  152.6592 C   0  0  2  0  0  0  0  0  0  0  0  0
  145.7197  133.7262  152.2855 C   0  0  0  0  0  0  0  0  0  0  0  0
  146.1710  134.5260  151.0489 C   0  0  0  0  0  0  0  0  0  0  0  0
  145.0660  135.5968  150.9185 C   0  0  1  0  0  0  0  0  0  0  0  0
  143.8309  134.7852  151.2943 C   0  0  0  0  0  0  0  0  0  0  0  0
  149.7645  141.6595  155.5053 C   0  0  0  0  0  0  0  0  0  0  0  0
  150.1728  142.6377  156.3424 N   0  3  0  0  0  0  0  0  0  0  0  0
  152.4170  143.4314  158.6963 H   0  0  0  0  0  0  0  0  0  0  0  0
  150.7033  143.7781  158.9578 H   0  0  0  0  0  0  0  0  0  0  0  0
  151.5624  144.5195  157.6008 H   0  0  0  0  0  0  0  0  0  0  0  0
  152.3693  140.9720  158.2778 H   0  0  0  0  0  0  0  0  0  0  0  0
  151.6740  139.1188  156.7622 H   0  0  0  0  0  0  0  0  0  0  0  0
  150.7382  138.9349  154.0898 H   0  0  0  0  0  0  0  0  0  0  0  0
  149.5540  138.3966  155.2498 H   0  0  0  0  0  0  0  0  0  0  0  0
  147.9653  140.2026  154.2740 H   0  0  0  0  0  0  0  0  0  0  0  0
  149.1125  140.4011  152.9774 H   0  0  0  0  0  0  0  0  0  0  0  0
  148.7426  137.8916  152.5845 H   0  0  0  0  0  0  0  0  0  0  0  0
  147.2336  136.6624  151.8867 H   0  0  0  0  0  0  0  0  0  0  0  0
  144.4211  137.4328  151.9128 H   0  0  0  0  0  0  0  0  0  0  0  0
  145.3956  135.7220  154.0895 H   0  0  0  0  0  0  0  0  0  0  0  0
  143.7468  136.1993  153.7061 H   0  0  0  0  0  0  0  0  0  0  0  0
  143.7311  133.7702  153.2627 H   0  0  0  0  0  0  0  0  0  0  0  0
  146.4459  133.7730  153.0978 H   0  0  0  0  0  0  0  0  0  0  0  0
  145.5710  132.6763  152.0295 H   0  0  0  0  0  0  0  0  0  0  0  0
  147.1734  134.9400  151.1575 H   0  0  0  0  0  0  0  0  0  0  0  0
  146.1822  133.8831  150.1679 H   0  0  0  0  0  0  0  0  0  0  0  0
  145.0230  136.0561  149.9304 H   0  0  0  0  0  0  0  0  0  0  0  0
  143.6570  133.9291  150.6398 H   0  0  0  0  0  0  0  0  0  0  0  0
  142.9197  135.3834  151.3502 H   0  0  0  0  0  0  0  0  0  0  0  0
  149.0427  141.9493  154.7560 H   0  0  0  0  0  0  0  0  0  0  0  0
  149.7804  143.5722  156.2264 H   0  0  0  0  0  0  0  0  0  0  0  0
  1  2  1  0  0  0  0
  1 21  1  0  0  0  0
  1 22  1  0  0  0  0
  1 23  1  0  0  0  0
  2 20  1  0  0  0  0
  2  3  2  0  0  0  0
  3  4  1  0  0  0  0
  3 24  1  0  0  0  0
  4  5  2  0  0  0  0
  4 25  1  0  0  0  0
  5  6  1  0  0  0  0
  5 19  1  0  0  0  0
  6  7  1  0  0  0  0
  6 26  1  0  0  0  0
  6 27  1  0  0  0  0
  7  8  1  0  0  0  0
  7 28  1  0  0  0  0
  7 29  1  0  0  0  0
  8  9  1  0  0  0  0
  8 30  1  0  0  0  0
  9 10  2  0  0  0  0
  9 11  1  0  0  0  0
 11 12  1  0  0  0  0
 11 31  1  0  0  0  0
 12 17  1  0  0  0  0
 12 13  1  0  0  0  0
 12 32  1  0  0  0  0
 13 14  1  0  0  0  0
 13 33  1  0  0  0  0
 13 34  1  0  0  0  0
 14 18  1  0  0  0  0
 14 15  1  0  0  0  0
 14 35  1  0  0  0  0
 15 16  1  0  0  0  0
 15 36  1  0  0  0  0
 15 37  1  0  0  0  0
 16 17  1  0  0  0  0
 16 38  1  0  0  0  0
 16 39  1  0  0  0  0
 17 18  1  0  0  0  0
 17 40  1  0  0  0  0
 18 41  1  0  0  0  0
 18 42  1  0  0  0  0
 19 20  2  0  0  0  0
 19 43  1  0  0  0  0
 20 44  1  0  0  0  0
M  CHG  1  20   1
M  END
> <s_m_source_file>
AV-unprocessed.smi

> <i_m_source_file_index>
753

> <i_lp_mmshare_version>
43012

> <i_f3d_flags>
0

> <s_epik_input>
W0NIM11jMVtjSF1bY0hdYyhbY0hdbjEpW0NIMl1bQ0gyXVtOSF1DKD1PKVtOSF1bQ0BIXShbQ0gyXVtDQEBIXTIzKVtDQEBIXShbQ0gyXTMpW0NIMl1bQ0gyXTI=

> <s_epik_cmdline>
J2VwaWtfcHl0aG9uJywgJy1waCcsICc3LjAnLCAnLXRuJywgJzgnLCAnLW1hJywgJzIwMCcsICctbWV0YWxfYmluZGluZycsICctaW1hZScsICc8aW5maWxlLm1hZT4nLCAnLW9tYWUnLCAnPG91dGZpbGUubWFlPic=

> <r_epik_Ionization_Penalty>
1.41708

> <r_epik_Ionization_Penalty_Charging>
1.41702

> <r_epik_Ionization_Penalty_Neutral>
5.73163e-05

> <r_epik_State_Penalty>
1.50048

> <r_epik_Charging_Adjusted_Penalty>
2.9175

> <i_epik_Tot_Q>
1

> <i_epik_Tot_abs_Q>
1

> <r_epik_Metal_State_Penalty>
1.55295

> <b_epik_Metal_Only>
0

> <s_lp_Force_Field>
OPLS_2005

> <r_lp_Energy>
59.6045

> <b_lp_Chiralities_Consistent>
1

> <s_lp_Variant>
AV-unprocessed.smi:753-7

> <Gold.Version>
5.8.1

> <Gold.Id.Protein>
6NUR|6NUR_protein|mol2

> <Gold.PLP.Fitness>
45.1268

> <Gold.PLP.PLP>
-33.9830

> <Gold.PLP.part.hbond>
-4.0000

> <Gold.PLP.part.metal>
0.0000

> <Gold.PLP.part.buried>
-2.1438

> <Gold.PLP.part.nonpolar>
-30.3073

> <Gold.PLP.part.repulsive>
1.6849

> <Gold.PLP.ligand.clash>
0.0000

> <Gold.PLP.ligand.torsion>
0.4057

> <Gold.PLP.Chemscore.Hbond>
3.9760

> <Gold.PLP.Chemscore.CHOScore>
0.0000

> <Gold.PLP.Chemscore.Metal>
0.0000

> <Gold.Chemscore.Hbonds>
donor molecule, donor type, donor heavy atom, donor atom, acceptor molecule, acceptor atom, score
      L1  H     8    30       P1  7948  0.96
      L1  H    11    31       P1  7948  1.00
      L1  H    20    44       P1  8028  2.00

> <Gold.PLP.Chemscore.Internal.Correction>
0.0271

> <Gold.Rescore>
     Score         DG    S(hbond)    S(metal)    S(lipo)     H(rot)  DE(clash)    DE(int)     intcor
     20.09     -21.66       2.88        0.00      89.11       1.50       1.16       0.41       ----

> <Gold.Chemscore.Fitness>
20.0891

> <Gold.Chemscore.DG>
-21.6627

> <Gold.Chemscore.ZeroCoef>
-5.4800

> <Gold.Chemscore.Hbond>
2.8754

> <Gold.Chemscore.Metal>
0.0000

> <Gold.Chemscore.Lipo>
89.1091

> <Gold.Chemscore.Internal_Hbond>
0.0000

> <Gold.Chemscore.DEClash>
1.1626

> <Gold.Chemscore.DEInternal>
0.4110

> <Gold.Chemscore.Rot>
1.5027

> <Gold.Chemscore.Internal.Correction>
   9.000000E+99

> <Gold.Chemscore.Hbonds>
donor molecule, donor type, donor heavy atom, donor atom, acceptor molecule, acceptor atom, score
      L1  H     8    30       P1  7948  0.92
      L1  H    11    31       P1  7948  0.95
      L1  H    20    44       P1  8028  0.96

> <Gold.Chemscore.Hbond.Weighted>
-9.6037

> <Gold.Chemscore.Metal.Weighted>
-0.0000

> <Gold.Chemscore.Lipo.Weighted>
-10.4258

> <Gold.Chemscore.Internal_Hbond.Weighted>
0.0000

> <Gold.Chemscore.DEClash.Weighted>
1.1626

> <Gold.Chemscore.DEInternal.Weighted>
0.4110

> <Gold.Chemscore.Rot.Weighted>
3.8468

> <Gold.Chemscore.Internal.Correction.Weighted>
   9.000000E+99

> <Gold.Protein.RotatedTorsions>
[ 6907 6896 6895 6894 ] final  100.49 input  -60.11 | X-H torsion
[ 7974 7965 7964 7962 ] final  -60.74 input  175.53 | X-H torsion
[ 8008 7997 7996 7995 ] final  -98.35 input   59.86 | X-H torsion
[ 10167 10162 10161 10158 ] final -120.86 input  -65.29 | X-H torsion
[ 10718 10713 10712 10709 ] final   35.72 input   66.30 | X-H torsion
[ 10763 10752 10751 10750 ] final   91.46 input  -60.55 | X-H torsion
[ 11005 11000 10999 10996 ] final -178.28 input  -57.11 | X-H torsion

> <Gold.Protein.ActiveResidues>
 VAL166  LYS551  ARG553  GLY616  TRP617  ASP618  TYR619  PRO620  LYS621  CYS622 
 ASP623  PHE694  ASN695  SER759  ASP760  ASP761  ALA762  ILE779  LEU786  VAL792 
 PHE793  MET794  SER795  GLU796  ALA797  LYS798  CYS799  TRP800  GLU811  SER814 

> <Gold.Protein.RotatedAtoms>
  152.5371  134.0269  159.8006 H   0  0  0  0  0  0  0  0  0  0  0  0  # atno 6907 bound_to 6896
  151.0446  133.5668  159.2655 H   0  0  0  0  0  0  0  0  0  0  0  0  # atno 6908 bound_to 6896
  151.2625  135.0666  159.9157 H   0  0  0  0  0  0  0  0  0  0  0  0  # atno 6909 bound_to 6896
  145.8119  140.8593  143.0177 H   0  0  0  0  0  0  0  0  0  0  0  0  # atno 7974 bound_to 7965
  154.8000  140.0456  157.1266 H   0  0  0  0  0  0  0  0  0  0  0  0  # atno 8008 bound_to 7997
  154.9489  140.3062  155.5064 H   0  0  0  0  0  0  0  0  0  0  0  0  # atno 8009 bound_to 7997
  156.2960  140.2291  156.4565 H   0  0  0  0  0  0  0  0  0  0  0  0  # atno 8010 bound_to 7997
  140.0313  143.5246  152.2175 H   0  0  0  0  0  0  0  0  0  0  0  0  # atno 10167 bound_to 10162
  157.3261  130.7473  149.6816 H   0  0  0  0  0  0  0  0  0  0  0  0  # atno 10718 bound_to 10713
  153.2085  135.4397  155.0351 H   0  0  0  0  0  0  0  0  0  0  0  0  # atno 10763 bound_to 10752
  154.8187  135.3327  154.7105 H   0  0  0  0  0  0  0  0  0  0  0  0  # atno 10764 bound_to 10752
  153.7545  135.6996  153.4994 H   0  0  0  0  0  0  0  0  0  0  0  0  # atno 10765 bound_to 10752
  140.4316  134.6514  157.4714 H   0  0  0  0  0  0  0  0  0  0  0  0  # atno 11005 bound_to 11000
  144.6756  140.0408  143.7481 LP  0  0  0  0  0  0  0  0  0  0  0  0  # atno 17320 bound_to 7965
  145.9768  139.2911  143.1066 LP  0  0  0  0  0  0  0  0  0  0  0  0  # atno 17321 bound_to 7965
  139.6074  144.7600  151.3030 LP  0  0  0  0  0  0  0  0  0  0  0  0  # atno 17342 bound_to 10162
  140.7301  143.6890  150.7938 LP  0  0  0  0  0  0  0  0  0  0  0  0  # atno 17343 bound_to 10162
  155.9691  130.4209  150.4443 LP  0  0  0  0  0  0  0  0  0  0  0  0  # atno 17370 bound_to 10713
  157.2467  131.0537  151.2404 LP  0  0  0  0  0  0  0  0  0  0  0  0  # atno 17371 bound_to 10713
  140.0131  134.6661  155.9351 LP  0  0  0  0  0  0  0  0  0  0  0  0  # atno 17394 bound_to 11000
  141.1743  133.6539  156.4770 LP  0  0  0  0  0  0  0  0  0  0  0  0  # atno 17395 bound_to 11000

$$$$
