AV-unprocessed.smi:230|AV-procd|sdf|1763|dock9
  -GOLD-   2262020293D 1   1.00000     0.00000
 Structure written by MMmdl.
 56 59  0  0  0  0  0  0  0  0  1 V2000
  148.0417  134.0860  156.4007 C   0  0  0  0  0  0  0  0  0  0  0  0
  148.0882  135.4107  157.1746 C   0  0  0  0  0  0  0  0  0  0  0  0
  148.1713  135.2444  158.7148 C   0  0  2  0  0  0  0  0  0  0  0  0
  146.9346  134.4891  159.2525 C   0  0  0  0  0  0  0  0  0  0  0  0
  146.9494  134.4111  160.6756 O   0  0  0  0  0  0  0  0  0  0  0  0
  147.0088  135.6674  161.3531 C   0  0  0  0  0  0  0  0  0  0  0  0
  145.7147  136.4836  161.1468 C   0  0  0  0  0  0  0  0  0  0  0  0
  147.1599  135.3251  162.8434 C   0  0  0  0  0  0  0  0  0  0  0  0
  148.2574  136.4254  160.8615 C   0  0  0  0  0  0  0  0  0  0  0  0
  148.2784  136.5347  159.4068 N   0  0  0  0  0  0  0  0  0  0  0  0
  149.2758  137.3633  159.0205 C   0  0  0  0  0  0  0  0  0  0  0  0
  150.5647  137.0900  159.3566 N   0  0  0  0  0  0  0  0  0  0  0  0
  151.5420  137.9202  158.9796 C   0  0  0  0  0  0  0  0  0  0  0  0
  151.4516  139.0545  158.2811 N   0  0  0  0  0  0  0  0  0  0  0  0
  150.1572  139.3317  157.9505 C   0  0  0  0  0  0  0  0  0  0  0  0
  149.0181  138.5477  158.2826 C   0  0  0  0  0  0  0  0  0  0  0  0
  147.8659  139.1413  157.7840 N   0  0  0  0  0  0  0  0  0  0  0  0
  148.3009  140.2156  157.1831 C   0  0  0  0  0  0  0  0  0  0  0  0
  149.6645  140.4041  157.2279 N   0  0  0  0  0  0  0  0  0  0  0  0
  150.4118  141.5060  156.6414 C   0  0  0  0  0  0  0  0  0  0  0  0
  150.7785  142.6225  157.6505 C   0  0  0  0  0  0  0  0  0  0  0  0
  149.5694  143.2150  158.0938 O   0  0  0  0  0  0  0  0  0  0  0  0
  151.5048  142.0258  158.8729 C   0  0  0  0  0  0  0  0  0  0  0  0
  152.0377  143.1152  159.8213 C   0  0  0  0  0  0  0  0  0  0  0  0
  152.8787  144.0130  159.1074 O   0  0  0  0  0  0  0  0  0  0  0  0
  152.1883  144.7137  158.0801 C   0  0  0  0  0  0  0  0  0  0  0  0
  151.6617  143.7244  157.0251 C   0  0  0  0  0  0  0  0  0  0  0  0
  148.0840  134.2678  155.3267 H   0  0  0  0  0  0  0  0  0  0  0  0
  147.1238  133.5328  156.5980 H   0  0  0  0  0  0  0  0  0  0  0  0
  148.8863  133.4479  156.6619 H   0  0  0  0  0  0  0  0  0  0  0  0
  148.9517  135.9633  156.8049 H   0  0  0  0  0  0  0  0  0  0  0  0
  147.2162  136.0124  156.9155 H   0  0  0  0  0  0  0  0  0  0  0  0
  149.0593  134.6587  158.9586 H   0  0  0  0  0  0  0  0  0  0  0  0
  146.0102  134.9519  158.9069 H   0  0  0  0  0  0  0  0  0  0  0  0
  146.9211  133.4668  158.8760 H   0  0  0  0  0  0  0  0  0  0  0  0
  145.7235  137.3873  161.7569 H   0  0  0  0  0  0  0  0  0  0  0  0
  144.8356  135.9038  161.4299 H   0  0  0  0  0  0  0  0  0  0  0  0
  145.5817  136.8030  160.1135 H   0  0  0  0  0  0  0  0  0  0  0  0
  147.2428  136.2263  163.4517 H   0  0  0  0  0  0  0  0  0  0  0  0
  148.0512  134.7225  163.0226 H   0  0  0  0  0  0  0  0  0  0  0  0
  146.3024  134.7576  163.2065 H   0  0  0  0  0  0  0  0  0  0  0  0
  148.2909  137.4171  161.3161 H   0  0  0  0  0  0  0  0  0  0  0  0
  149.1587  135.9006  161.1837 H   0  0  0  0  0  0  0  0  0  0  0  0
  152.5391  137.6347  159.2808 H   0  0  0  0  0  0  0  0  0  0  0  0
  147.6355  140.9030  156.6811 H   0  0  0  0  0  0  0  0  0  0  0  0
  151.3133  141.0995  156.1807 H   0  0  0  0  0  0  0  0  0  0  0  0
  149.8174  141.9203  155.8262 H   0  0  0  0  0  0  0  0  0  0  0  0
  149.2402  143.7750  157.4075 H   0  0  0  0  0  0  0  0  0  0  0  0
  150.8469  141.3458  159.4156 H   0  0  0  0  0  0  0  0  0  0  0  0
  152.3492  141.4251  158.5320 H   0  0  0  0  0  0  0  0  0  0  0  0
  151.2200  143.6618  160.2933 H   0  0  0  0  0  0  0  0  0  0  0  0
  152.6152  142.6585  160.6252 H   0  0  0  0  0  0  0  0  0  0  0  0
  151.3753  145.3022  158.5080 H   0  0  0  0  0  0  0  0  0  0  0  0
  152.8761  145.4204  157.6157 H   0  0  0  0  0  0  0  0  0  0  0  0
  152.5154  143.2611  156.5288 H   0  0  0  0  0  0  0  0  0  0  0  0
  151.1176  144.2696  156.2530 H   0  0  0  0  0  0  0  0  0  0  0  0
  1  2  1  0  0  0  0
  1 28  1  0  0  0  0
  1 29  1  0  0  0  0
  1 30  1  0  0  0  0
  2  3  1  0  0  0  0
  2 31  1  0  0  0  0
  2 32  1  0  0  0  0
  3 10  1  0  0  0  0
  3  4  1  0  0  0  0
  3 33  1  0  0  0  0
  4  5  1  0  0  0  0
  4 34  1  0  0  0  0
  4 35  1  0  0  0  0
  5  6  1  0  0  0  0
  6  7  1  0  0  0  0
  6  8  1  0  0  0  0
  6  9  1  0  0  0  0
  7 36  1  0  0  0  0
  7 37  1  0  0  0  0
  7 38  1  0  0  0  0
  8 39  1  0  0  0  0
  8 40  1  0  0  0  0
  8 41  1  0  0  0  0
  9 10  1  0  0  0  0
  9 42  1  0  0  0  0
  9 43  1  0  0  0  0
 10 11  1  0  0  0  0
 11 16  1  0  0  0  0
 11 12  2  0  0  0  0
 12 13  1  0  0  0  0
 13 14  2  0  0  0  0
 13 44  1  0  0  0  0
 14 15  1  0  0  0  0
 15 19  1  0  0  0  0
 15 16  2  0  0  0  0
 16 17  1  0  0  0  0
 17 18  2  0  0  0  0
 18 19  1  0  0  0  0
 18 45  1  0  0  0  0
 19 20  1  0  0  0  0
 20 21  1  0  0  0  0
 20 46  1  0  0  0  0
 20 47  1  0  0  0  0
 21 27  1  0  0  0  0
 21 22  1  0  0  0  0
 21 23  1  0  0  0  0
 22 48  1  0  0  0  0
 23 24  1  0  0  0  0
 23 49  1  0  0  0  0
 23 50  1  0  0  0  0
 24 25  1  0  0  0  0
 24 51  1  0  0  0  0
 24 52  1  0  0  0  0
 25 26  1  0  0  0  0
 26 27  1  0  0  0  0
 26 53  1  0  0  0  0
 26 54  1  0  0  0  0
 27 55  1  0  0  0  0
 27 56  1  0  0  0  0
M  END
> <s_m_source_file>
AV-unprocessed.smi

> <i_m_source_file_index>
230

> <i_lp_mmshare_version>
43012

> <i_f3d_flags>
0

> <s_epik_input>
W0NIM11DMShbQ0gzXSlPW0NIMl1bQ0BASF0oW0NIMl1bQ0gzXSlOKFtDSDJdMSljKG5bY0hdbjIpYyhjMjMpbltjSF1uM1tDSDJdQzQoW09IXSlbQ0gyXVtDSDJdT1tDSDJdW0NIMl00

> <s_epik_cmdline>
J2VwaWtfcHl0aG9uJywgJy1waCcsICc3LjAnLCAnLXRuJywgJzgnLCAnLW1hJywgJzIwMCcsICctbWV0YWxfYmluZGluZycsICctaW1hZScsICc8aW5maWxlLm1hZT4nLCAnLW9tYWUnLCAnPG91dGZpbGUubWFlPic=

> <r_lp_tautomer_probability>
1

> <r_epik_Ionization_Penalty>
0.000120535

> <r_epik_Ionization_Penalty_Charging>
0

> <r_epik_Ionization_Penalty_Neutral>
0.000120535

> <r_epik_State_Penalty>
-0

> <r_epik_Charging_Adjusted_Penalty>
0

> <i_epik_Tot_Q>
0

> <i_epik_Tot_abs_Q>
0

> <r_epik_Metal_State_Penalty>
-0

> <b_epik_Metal_Only>
0

> <s_lp_Force_Field>
OPLS_2005

> <r_lp_Energy>
33.8878

> <b_lp_Chiralities_Consistent>
1

> <s_lp_Variant>
AV-unprocessed.smi:230-1

> <Gold.Version>
5.8.1

> <Gold.Id.Protein>
6NUR|6NUR_protein|mol2

> <Gold.PLP.Fitness>
44.4843

> <Gold.PLP.PLP>
-39.2761

> <Gold.PLP.part.hbond>
-2.0000

> <Gold.PLP.part.metal>
0.0000

> <Gold.PLP.part.buried>
-7.4186

> <Gold.PLP.part.nonpolar>
-30.8166

> <Gold.PLP.part.repulsive>
0.0000

> <Gold.PLP.ligand.clash>
0.0000

> <Gold.PLP.ligand.torsion>
0.4628

> <Gold.PLP.Chemscore.Hbond>
1.9913

> <Gold.PLP.Chemscore.CHOScore>
0.0000

> <Gold.PLP.Chemscore.Metal>
0.0000

> <Gold.Chemscore.Hbonds>
donor molecule, donor type, donor heavy atom, donor atom, acceptor molecule, acceptor atom, score
      L1  H    22    48       P1  8028  1.00
      P1  H  6896  6909       L1    12  0.73

> <Gold.PLP.Chemscore.Internal.Correction>
0.1601

> <Gold.Rescore>
     Score         DG    S(hbond)    S(metal)    S(lipo)     H(rot)  DE(clash)    DE(int)     intcor
     15.25     -16.41       1.50        0.00      98.86       2.21       0.72       0.44       ----

> <Gold.Chemscore.Fitness>
15.2456

> <Gold.Chemscore.DG>
-16.4061

> <Gold.Chemscore.ZeroCoef>
-5.4800

> <Gold.Chemscore.Hbond>
1.5028

> <Gold.Chemscore.Metal>
0.0000

> <Gold.Chemscore.Lipo>
98.8557

> <Gold.Chemscore.Internal_Hbond>
0.0000

> <Gold.Chemscore.DEClash>
0.7218

> <Gold.Chemscore.DEInternal>
0.4386

> <Gold.Chemscore.Rot>
2.2107

> <Gold.Chemscore.Internal.Correction>
   9.000000E+99

> <Gold.Chemscore.Hbonds>
donor molecule, donor type, donor heavy atom, donor atom, acceptor molecule, acceptor atom, score
      L1  H    22    48       P1  8028  0.29
      P1  H  6896  6909       L1    12  0.66

> <Gold.Chemscore.Hbond.Weighted>
-5.0195

> <Gold.Chemscore.Metal.Weighted>
-0.0000

> <Gold.Chemscore.Lipo.Weighted>
-11.5661

> <Gold.Chemscore.Internal_Hbond.Weighted>
0.0000

> <Gold.Chemscore.DEClash.Weighted>
0.7218

> <Gold.Chemscore.DEInternal.Weighted>
0.4386

> <Gold.Chemscore.Rot.Weighted>
5.6595

> <Gold.Chemscore.Internal.Correction.Weighted>
   9.000000E+99

> <Gold.Protein.RotatedTorsions>
[ 6907 6896 6895 6894 ] final   94.85 input  -60.11 | X-H torsion
[ 7974 7965 7964 7962 ] final   29.66 input  175.53 | X-H torsion
[ 8008 7997 7996 7995 ] final  179.96 input   59.86 | X-H torsion
[ 10167 10162 10161 10158 ] final   70.42 input  -65.29 | X-H torsion
[ 10718 10713 10712 10709 ] final  124.60 input   66.30 | X-H torsion
[ 10763 10752 10751 10750 ] final  151.98 input  -60.55 | X-H torsion
[ 11005 11000 10999 10996 ] final   -0.30 input  -57.11 | X-H torsion

> <Gold.Protein.ActiveResidues>
 VAL166  LYS551  ARG553  GLY616  TRP617  ASP618  TYR619  PRO620  LYS621  CYS622 
 ASP623  PHE694  ASN695  SER759  ASP760  ASP761  ALA762  ILE779  LEU786  VAL792 
 PHE793  MET794  SER795  GLU796  ALA797  LYS798  CYS799  TRP800  GLU811  SER814 

> <Gold.Protein.RotatedAtoms>
  152.5447  134.1130  159.8366 H   0  0  0  0  0  0  0  0  0  0  0  0  # atno 6907 bound_to 6896
  151.1195  133.5107  159.2610 H   0  0  0  0  0  0  0  0  0  0  0  0  # atno 6908 bound_to 6896
  151.1795  135.0364  159.8841 H   0  0  0  0  0  0  0  0  0  0  0  0  # atno 6909 bound_to 6896
  146.1658  139.6892  142.9002 H   0  0  0  0  0  0  0  0  0  0  0  0  # atno 7974 bound_to 7965
  156.0375  140.1296  157.0192 H   0  0  0  0  0  0  0  0  0  0  0  0  # atno 8008 bound_to 7997
  154.4376  140.1037  156.6258 H   0  0  0  0  0  0  0  0  0  0  0  0  # atno 8009 bound_to 7997
  155.5717  140.3466  155.4519 H   0  0  0  0  0  0  0  0  0  0  0  0  # atno 8010 bound_to 7997
  140.0572  144.5263  150.7320 H   0  0  0  0  0  0  0  0  0  0  0  0  # atno 10167 bound_to 10162
  157.5571  131.1091  150.8602 H   0  0  0  0  0  0  0  0  0  0  0  0  # atno 10718 bound_to 10713
  154.1126  135.2838  155.3227 H   0  0  0  0  0  0  0  0  0  0  0  0  # atno 10763 bound_to 10752
  154.6479  135.5379  153.7869 H   0  0  0  0  0  0  0  0  0  0  0  0  # atno 10764 bound_to 10752
  153.0340  135.6502  154.1284 H   0  0  0  0  0  0  0  0  0  0  0  0  # atno 10765 bound_to 10752
  140.6347  133.9543  155.8293 H   0  0  0  0  0  0  0  0  0  0  0  0  # atno 11005 bound_to 11000
  145.4470  141.0426  143.2825 LP  0  0  0  0  0  0  0  0  0  0  0  0  # atno 17320 bound_to 7965
  144.8091  139.5996  143.7037 LP  0  0  0  0  0  0  0  0  0  0  0  0  # atno 17321 bound_to 7965
  140.7189  143.2570  151.4344 LP  0  0  0  0  0  0  0  0  0  0  0  0  # atno 17342 bound_to 10162
  139.5916  144.1486  152.2095 LP  0  0  0  0  0  0  0  0  0  0  0  0  # atno 17343 bound_to 10162
  156.9111  130.5281  149.5280 LP  0  0  0  0  0  0  0  0  0  0  0  0  # atno 17370 bound_to 10713
  156.0629  130.5678  150.9229 LP  0  0  0  0  0  0  0  0  0  0  0  0  # atno 17371 bound_to 10713
  141.0650  134.0290  157.3607 LP  0  0  0  0  0  0  0  0  0  0  0  0  # atno 17394 bound_to 11000
  139.9102  135.0188  156.7661 LP  0  0  0  0  0  0  0  0  0  0  0  0  # atno 17395 bound_to 11000

$$$$
