#       Name:                AV-unprocessed.smi:221
#       Creating user name   scv26
#       Creation time:       Thu Mar 26 20:13:08 2020


#       File generated by GOLD software.
#

@<TRIPOS>MOLECULE
AV-unprocessed.smi:221
    59    62     1
SMALL
NO_CHARGES


@<TRIPOS>ATOM
      1 ****        -0.4787   4.1331   2.0504 N.am           1 S1                 0.0000
      2 ****        -1.7816   4.4344   2.0365 C.2            1 S1                 0.0000
      3 ****        -2.2940   5.1085   2.9272 O.2            1 S1                 0.0000
      4 ****        -2.6537   3.9162   0.8755 C.3            1 S1                 0.0000
      5 ****        -3.1465   5.0782  -0.0027 C.3            1 S1                 0.0000
      6 ****        -3.4004   4.4299  -1.3591 C.3            1 S1                 0.0000
      7 ****        -4.5945   3.8352  -1.3520 F              1 S1                 0.0000
      8 ****        -2.3049   3.3683  -1.4506 C.3            1 S1                 0.0000
      9 ****        -1.9637   3.0299  -0.0727 N.pl3          1 S1                 0.0000
     10 ****        -1.6643   1.7361   0.2254 C.ar           1 S1                 0.0000
     11 ****        -2.1318   1.1885   1.3786 N.ar           1 S1                 0.0000
     12 ****        -1.8499  -0.0790   1.6921 C.ar           1 S1                 0.0000
     13 ****        -1.1235  -0.9643   1.0091 N.ar           1 S1                 0.0000
     14 ****        -0.6374  -0.4211  -0.1430 C.ar           1 S1                 0.0000
     15 ****        -0.8579   0.9070  -0.6081 C.ar           1 S1                 0.0000
     16 ****        -0.1942   1.0966  -1.8156 N.2            1 S1                 0.0000
     17 ****         0.3740  -0.0533  -2.0549 C.2            1 S1                 0.0000
     18 ****         0.1673  -1.0189  -1.0972 N.pl3          1 S1                 0.0000
     19 ****         0.6799  -2.3776  -1.1132 C.3            1 S1                 0.0000
     20 ****         2.2207  -2.4364  -0.9212 C.3            1 S1                 0.0000
     21 ****         2.9032  -3.0722  -2.1515 C.3            1 S1                 0.0000
     22 ****         4.3036  -2.8926  -2.1083 O.3            1 S1                 0.0000
     23 ****         2.6527  -3.1174   0.4065 C.3            1 S1                 0.0000
     24 ****         2.2179  -4.5773   0.5627 C.3            1 S1                 0.0000
     25 ****         1.6973  -4.6496   1.9949 C.3            1 S1                 0.0000
     26 ****         1.1704  -3.3521   2.2113 O.3            1 S1                 0.0000
     27 ****         2.1075  -2.4335   1.6704 C.3            1 S1                 0.0000
     28 ****        -3.5222   3.3992   1.2873 H              1 S1                 0.0000
     29 ****        -3.3885   5.1366  -2.1894 H              1 S1                 0.0000
     30 ****         0.1035   4.4591   2.8081 H              1 S1                 0.0000
     31 ****        -0.0840   3.5748   1.3075 H              1 S1                 0.0000
     32 ****        -4.0346   5.5649   0.4022 H              1 S1                 0.0000
     33 ****        -2.3717   5.8398  -0.1098 H              1 S1                 0.0000
     34 ****        -2.6393   2.5093  -2.0350 H              1 S1                 0.0000
     35 ****        -1.4169   3.7788  -1.9324 H              1 S1                 0.0000
     36 ****        -2.2654  -0.4343   2.6234 H              1 S1                 0.0000
     37 ****         0.9707  -0.2288  -2.9384 H              1 S1                 0.0000
     38 ****         0.1549  -2.9488  -0.3483 H              1 S1                 0.0000
     39 ****         0.3863  -2.8283  -2.0619 H              1 S1                 0.0000
     40 ****         2.5902  -1.4105  -0.8699 H              1 S1                 0.0000
     41 ****         2.6763  -4.1362  -2.2236 H              1 S1                 0.0000
     42 ****         2.5395  -2.6056  -3.0678 H              1 S1                 0.0000
     43 ****         4.6830  -3.2965  -2.8740 H              1 S1                 0.0000
     44 ****         3.7409  -3.0756   0.4726 H              1 S1                 0.0000
     45 ****         1.4158  -4.8336  -0.1291 H              1 S1                 0.0000
     46 ****         3.0342  -5.2782   0.3860 H              1 S1                 0.0000
     47 ****         0.9385  -5.4208   2.1292 H              1 S1                 0.0000
     48 ****         2.5102  -4.8378   2.6982 H              1 S1                 0.0000
     49 ****         2.9084  -2.2807   2.3953 H              1 S1                 0.0000
     50 ****         1.6511  -1.4628   1.4789 H              1 S1                 0.0000
     51 ****        -1.7342   5.4449   3.6845 LP             1 S1                 0.0000
     52 ****        -3.2707   5.3206   2.8947 LP             1 S1                 0.0000
     53 ****        -2.6916   1.7394   1.9976 LP             1 S1                 0.0000
     54 ****        -0.9568  -1.9052   1.3039 LP             1 S1                 0.0000
     55 ****        -0.1602   1.9258  -2.3735 LP             1 S1                 0.0000
     56 ****         4.6730  -3.3208  -1.2835 LP             1 S1                 0.0000
     57 ****         4.5180  -1.9159  -2.1014 LP             1 S1                 0.0000
     58 ****         1.0527  -3.1873   3.1906 LP             1 S1                 0.0000
     59 ****         0.2889  -3.2570   1.7489 LP             1 S1                 0.0000
@<TRIPOS>BOND
    1    1    2 am    
    2    1   30 1     
    3    1   31 1     
    4    2    3 2     
    5    2    4 1     
    6    4   28 1     
    7    4    9 1     
    8    4    5 1     
    9    5    6 1     
   10    5   32 1     
   11    5   33 1     
   12    6   29 1     
   13    6    7 1     
   14    6    8 1     
   15    8    9 1     
   16    8   34 1     
   17    8   35 1     
   18    9   10 1     
   19   10   15 ar    
   20   10   11 ar    
   21   11   12 ar    
   22   12   13 ar    
   23   12   36 1     
   24   13   14 ar    
   25   14   18 1     
   26   14   15 ar    
   27   15   16 1     
   28   16   17 2     
   29   17   18 1     
   30   17   37 1     
   31   18   19 1     
   32   19   20 1     
   33   19   38 1     
   34   19   39 1     
   35   20   21 1     
   36   20   23 1     
   37   20   40 1     
   38   21   22 1     
   39   21   41 1     
   40   21   42 1     
   41   22   43 1     
   42   23   27 1     
   43   23   24 1     
   44   23   44 1     
   45   24   25 1     
   46   24   45 1     
   47   24   46 1     
   48   25   26 1     
   49   25   47 1     
   50   25   48 1     
   51   26   27 1     
   52   27   49 1     
   53   27   50 1     
   54    3   51 1     
   55    3   52 1     
   56   11   53 1     
   57   13   54 1     
   58   16   55 1     
   59   22   56 1     
   60   22   57 1     
   61   26   58 1     
   62   26   59 1     
@<TRIPOS>SUBSTRUCTURE
      1 S1             1
@<TRIPOS>SET
LONE_PAIRS      STATIC     ATOMS    <user>   **** ""
9 51 52 53 54 55 56 57 58 59
DONOR_HYDROGENS      STATIC     ATOMS    <user>   **** ""
3 30 31 43
ATOM$BLUE        STATIC     ATOMS    COLORGROUP SYSTEM
9 51 52 53 54 55 56 57 58 59
ATOM$RED        STATIC     ATOMS    COLORGROUP SYSTEM
3 30 31 43
