AV-unprocessed.smi:1381|AV-procd|sdf|5612|dock9
  -GOLD-   22720 5223D 1   1.00000     0.00000
 Structure written by MMmdl.
 42 43  0  0  0  0  0  0  0  0  3 V2000
  146.6392  134.9758  162.9930 C   0  0  0  0  0  0  0  0  0  0  0  0
  147.2897  135.0746  161.6555 C   0  0  0  0  0  0  0  0  0  0  0  0
  147.7746  134.1363  160.7894 C   0  0  0  0  0  0  0  0  0  0  0  0
  148.2558  134.9151  159.7019 C   0  0  0  0  0  0  0  0  0  0  0  0
  148.8451  134.4399  158.5937 N   0  5  0  0  0  0  0  0  0  0  0  0
  148.6177  135.0271  157.3967 C   0  0  0  0  0  0  0  0  0  0  0  0
  147.8070  135.9263  157.1626 O   0  0  0  0  0  0  0  0  0  0  0  0
  149.3746  134.5376  156.4059 N   0  0  0  0  0  0  0  0  0  0  0  0
  149.3237  134.9702  155.0160 C   0  0  0  0  0  0  0  0  0  0  0  0
  149.0846  133.7645  154.0937 C   0  0  0  0  0  0  0  0  0  0  0  0
  147.9595  133.9805  153.1499 N   0  3  1  0  0  0  0  0  0  0  0  0
  147.6228  132.7525  152.3910 C   0  0  0  0  0  0  0  0  0  0  0  0
  146.4895  133.0272  151.3846 C   0  0  1  0  0  0  0  0  0  0  0  0
  146.0571  131.7582  150.6415 C   0  0  0  0  0  0  0  0  0  0  0  0
  145.3594  133.5358  152.0844 O   0  0  0  0  0  0  0  0  0  0  0  0
  145.6347  134.7655  152.7458 C   0  0  1  0  0  0  0  0  0  0  0  0
  144.3339  135.2678  153.3823 C   0  0  0  0  0  0  0  0  0  0  0  0
  146.7429  134.5384  153.7912 C   0  0  0  0  0  0  0  0  0  0  0  0
  148.0914  136.2128  159.8975 N   0  0  0  0  0  0  0  0  0  0  0  0
  147.4664  136.3234  161.1455 O   0  0  0  0  0  0  0  0  0  0  0  0
  147.3276  134.5536  163.7250 H   0  0  0  0  0  0  0  0  0  0  0  0
  145.7597  134.3339  162.9468 H   0  0  0  0  0  0  0  0  0  0  0  0
  146.3238  135.9557  163.3517 H   0  0  0  0  0  0  0  0  0  0  0  0
  147.7819  133.0637  160.9122 H   0  0  0  0  0  0  0  0  0  0  0  0
  150.0290  133.8050  156.6396 H   0  0  0  0  0  0  0  0  0  0  0  0
  148.5274  135.7063  154.9039 H   0  0  0  0  0  0  0  0  0  0  0  0
  150.2625  135.4644  154.7619 H   0  0  0  0  0  0  0  0  0  0  0  0
  149.9974  133.5881  153.5223 H   0  0  0  0  0  0  0  0  0  0  0  0
  148.9066  132.8608  154.6790 H   0  0  0  0  0  0  0  0  0  0  0  0
  148.5060  132.3948  151.8597 H   0  0  0  0  0  0  0  0  0  0  0  0
  147.3268  131.9659  153.0875 H   0  0  0  0  0  0  0  0  0  0  0  0
  146.8193  133.7644  150.6503 H   0  0  0  0  0  0  0  0  0  0  0  0
  146.8850  131.3335  150.0735 H   0  0  0  0  0  0  0  0  0  0  0  0
  145.2495  131.9727  149.9408 H   0  0  0  0  0  0  0  0  0  0  0  0
  145.7007  130.9961  151.3354 H   0  0  0  0  0  0  0  0  0  0  0  0
  145.9667  135.5018  152.0118 H   0  0  0  0  0  0  0  0  0  0  0  0
  144.4896  136.2163  153.8969 H   0  0  0  0  0  0  0  0  0  0  0  0
  143.9468  134.5524  154.1084 H   0  0  0  0  0  0  0  0  0  0  0  0
  143.5646  135.4234  152.6254 H   0  0  0  0  0  0  0  0  0  0  0  0
  146.3947  133.8546  154.5673 H   0  0  0  0  0  0  0  0  0  0  0  0
  146.9699  135.4854  154.2791 H   0  0  0  0  0  0  0  0  0  0  0  0
  148.2767  134.6579  152.4710 H   0  0  0  0  0  0  0  0  0  0  0  0
  1  2  1  0  0  0  0
  1 21  1  0  0  0  0
  1 22  1  0  0  0  0
  1 23  1  0  0  0  0
  2 20  1  0  0  0  0
  2  3  2  0  0  0  0
  3  4  1  0  0  0  0
  3 24  1  0  0  0  0
  4  5  1  0  0  0  0
  4 19  2  0  0  0  0
  5  6  1  0  0  0  0
  6  7  2  0  0  0  0
  6  8  1  0  0  0  0
  8  9  1  0  0  0  0
  8 25  1  0  0  0  0
  9 10  1  0  0  0  0
  9 26  1  0  0  0  0
  9 27  1  0  0  0  0
 10 11  1  0  0  0  0
 10 28  1  0  0  0  0
 10 29  1  0  0  0  0
 11 18  1  0  0  0  0
 11 12  1  0  0  0  0
 11 42  1  0  0  0  0
 12 13  1  0  0  0  0
 12 30  1  0  0  0  0
 12 31  1  0  0  0  0
 13 14  1  0  0  0  0
 13 15  1  0  0  0  0
 13 32  1  0  0  0  0
 14 33  1  0  0  0  0
 14 34  1  0  0  0  0
 14 35  1  0  0  0  0
 15 16  1  0  0  0  0
 16 17  1  0  0  0  0
 16 18  1  0  0  0  0
 16 36  1  0  0  0  0
 17 37  1  0  0  0  0
 17 38  1  0  0  0  0
 17 39  1  0  0  0  0
 18 40  1  0  0  0  0
 18 41  1  0  0  0  0
 19 20  1  0  0  0  0
M  CHG  1   5  -1
M  CHG  1  11   1
M  END
> <s_m_source_file>
AV-unprocessed.smi

> <i_m_source_file_index>
1381

> <i_lp_mmshare_version>
43012

> <i_f3d_flags>
0

> <s_epik_input>
W0NIM11jMVtjSF1jKG5vMSlbTkhdQyg9TylbTkhdW0NIMl1bQ0gyXU4yW0NIMl1bQ0BASF0oW0NIM10pT1tDQEBIXShbQ0gzXSlbQ0gyXTI=

> <s_epik_cmdline>
J2VwaWtfcHl0aG9uJywgJy1waCcsICc3LjAnLCAnLXRuJywgJzgnLCAnLW1hJywgJzIwMCcsICctbWV0YWxfYmluZGluZycsICctaW1hZScsICc8aW5maWxlLm1hZT4nLCAnLW9tYWUnLCAnPG91dGZpbGUubWFlPic=

> <r_epik_Ionization_Penalty>
6.73511

> <r_epik_Ionization_Penalty_Charging>
6.73502

> <r_epik_Ionization_Penalty_Neutral>
9.26583e-05

> <r_epik_State_Penalty>
6.93549

> <r_epik_Charging_Adjusted_Penalty>
13.6705

> <i_epik_Tot_Q>
0

> <i_epik_Tot_abs_Q>
2

> <r_epik_Metal_State_Penalty>
2.87211

> <b_epik_Metal_Only>
1

> <s_lp_Force_Field>
OPLS_2005

> <r_lp_Energy>
2.9367

> <b_lp_Chiralities_Consistent>
1

> <s_lp_Variant>
AV-unprocessed.smi:1381-11

> <Gold.Version>
5.8.1

> <Gold.Id.Protein>
6NUR|6NUR_protein|mol2

> <Gold.PLP.Fitness>
43.7806

> <Gold.PLP.PLP>
-27.7667

> <Gold.PLP.part.hbond>
-4.0000

> <Gold.PLP.part.metal>
0.0000

> <Gold.PLP.part.buried>
-3.8098

> <Gold.PLP.part.nonpolar>
-20.3628

> <Gold.PLP.part.repulsive>
0.1288

> <Gold.PLP.ligand.clash>
0.0000

> <Gold.PLP.ligand.torsion>
0.7106

> <Gold.PLP.Chemscore.Hbond>
5.7920

> <Gold.PLP.Chemscore.CHOScore>
0.0000

> <Gold.PLP.Chemscore.Metal>
0.0000

> <Gold.Chemscore.Hbonds>
donor molecule, donor type, donor heavy atom, donor atom, acceptor molecule, acceptor atom, score
      L1  H    11    42       P1  7948  2.00
      P1  H  6896  6907       L1     5  1.30

> <Gold.PLP.Chemscore.Internal.Correction>
0.0591

> <Gold.Rescore>
     Score         DG    S(hbond)    S(metal)    S(lipo)     H(rot)  DE(clash)    DE(int)     intcor
     13.92     -16.09       2.21        0.00      62.22       1.58       0.09       2.09       ----

> <Gold.Chemscore.Fitness>
13.9185

> <Gold.Chemscore.DG>
-16.0934

> <Gold.Chemscore.ZeroCoef>
-5.4800

> <Gold.Chemscore.Hbond>
2.2085

> <Gold.Chemscore.Metal>
0.0000

> <Gold.Chemscore.Lipo>
62.2202

> <Gold.Chemscore.Internal_Hbond>
0.0000

> <Gold.Chemscore.DEClash>
0.0877

> <Gold.Chemscore.DEInternal>
2.0872

> <Gold.Chemscore.Rot>
1.5792

> <Gold.Chemscore.Internal.Correction>
   9.000000E+99

> <Gold.Chemscore.Hbonds>
donor molecule, donor type, donor heavy atom, donor atom, acceptor molecule, acceptor atom, score
      L1  H    11    42       P1  7948  0.25
      P1  H  6896  6907       L1     5  0.05

> <Gold.Chemscore.Hbond.Weighted>
-7.3765

> <Gold.Chemscore.Metal.Weighted>
-0.0000

> <Gold.Chemscore.Lipo.Weighted>
-7.2798

> <Gold.Chemscore.Internal_Hbond.Weighted>
0.0000

> <Gold.Chemscore.DEClash.Weighted>
0.0877

> <Gold.Chemscore.DEInternal.Weighted>
2.0872

> <Gold.Chemscore.Rot.Weighted>
4.0428

> <Gold.Chemscore.Internal.Correction.Weighted>
   9.000000E+99

> <Gold.Protein.RotatedTorsions>
[ 6907 6896 6895 6894 ] final  -84.56 input  -60.11 | X-H torsion
[ 7974 7965 7964 7962 ] final -125.49 input  175.53 | X-H torsion
[ 8008 7997 7996 7995 ] final   46.05 input   59.86 | X-H torsion
[ 10167 10162 10161 10158 ] final  -95.93 input  -65.29 | X-H torsion
[ 10718 10713 10712 10709 ] final -173.97 input   66.30 | X-H torsion
[ 10763 10752 10751 10750 ] final -102.62 input  -60.55 | X-H torsion
[ 11005 11000 10999 10996 ] final   59.93 input  -57.11 | X-H torsion

> <Gold.Protein.ActiveResidues>
 VAL166  LYS551  ARG553  GLY616  TRP617  ASP618  TYR619  PRO620  LYS621  CYS622 
 ASP623  PHE694  ASN695  SER759  ASP760  ASP761  ALA762  ILE779  LEU786  VAL792 
 PHE793  MET794  SER795  GLU796  ALA797  LYS798  CYS799  TRP800  GLU811  SER814 

> <Gold.Protein.RotatedAtoms>
  150.6875  134.3340  159.4839 H   0  0  0  0  0  0  0  0  0  0  0  0  # atno 6907 bound_to 6896
  152.1201  134.9209  160.0572 H   0  0  0  0  0  0  0  0  0  0  0  0  # atno 6908 bound_to 6896
  152.0418  133.3946  159.4377 H   0  0  0  0  0  0  0  0  0  0  0  0  # atno 6909 bound_to 6896
  144.9971  140.7786  143.4519 H   0  0  0  0  0  0  0  0  0  0  0  0  # atno 7974 bound_to 7965
  155.3460  140.3411  155.4239 H   0  0  0  0  0  0  0  0  0  0  0  0  # atno 8008 bound_to 7997
  156.1788  140.1657  156.8348 H   0  0  0  0  0  0  0  0  0  0  0  0  # atno 8009 bound_to 7997
  154.5311  140.0745  156.8330 H   0  0  0  0  0  0  0  0  0  0  0  0  # atno 8010 bound_to 7997
  140.2990  143.3174  152.0267 H   0  0  0  0  0  0  0  0  0  0  0  0  # atno 10167 bound_to 10162
  156.7782  130.9474  151.3120 H   0  0  0  0  0  0  0  0  0  0  0  0  # atno 10718 bound_to 10713
  154.7747  135.4854  153.9720 H   0  0  0  0  0  0  0  0  0  0  0  0  # atno 10763 bound_to 10752
  153.1413  135.6773  153.9030 H   0  0  0  0  0  0  0  0  0  0  0  0  # atno 10764 bound_to 10752
  153.8703  135.3144  155.3420 H   0  0  0  0  0  0  0  0  0  0  0  0  # atno 10765 bound_to 10752
  140.0268  134.6071  155.9562 H   0  0  0  0  0  0  0  0  0  0  0  0  # atno 11005 bound_to 11000
  145.2205  139.2161  143.5095 LP  0  0  0  0  0  0  0  0  0  0  0  0  # atno 17320 bound_to 7965
  146.3444  140.2062  142.8589 LP  0  0  0  0  0  0  0  0  0  0  0  0  # atno 17321 bound_to 7965
  139.4919  144.6469  151.6758 LP  0  0  0  0  0  0  0  0  0  0  0  0  # atno 17342 bound_to 10162
  140.5667  144.0178  150.6196 LP  0  0  0  0  0  0  0  0  0  0  0  0  # atno 17343 bound_to 10162
  157.6659  130.9007  149.9931 LP  0  0  0  0  0  0  0  0  0  0  0  0  # atno 17370 bound_to 10713
  156.1235  130.3645  149.9849 LP  0  0  0  0  0  0  0  0  0  0  0  0  # atno 17371 bound_to 10713
  141.1807  133.6546  156.5010 LP  0  0  0  0  0  0  0  0  0  0  0  0  # atno 17394 bound_to 11000
  140.4293  134.7116  157.4933 LP  0  0  0  0  0  0  0  0  0  0  0  0  # atno 17395 bound_to 11000

$$$$
