AV-unprocessed.smi:1492|AV-procd|sdf|6038|dock8
  -GOLD-   22720 6143D 1   1.00000     0.00000
 Structure written by MMmdl.
 53 54  0  0  0  0  0  0  0  0  2 V2000
  145.6486  132.9393  151.2360 C   0  0  0  0  0  0  0  0  0  0  0  0
  147.0607  133.1999  151.7913 C   0  0  0  0  0  0  0  0  0  0  0  0
  147.4481  132.3796  153.0606 C   0  0  1  0  0  0  0  0  0  0  0  0
  148.8126  132.9229  153.5604 C   0  0  0  0  0  0  0  0  0  0  0  0
  146.3641  132.5994  154.1615 C   0  0  0  0  0  0  0  0  0  0  0  0
  146.7358  132.0556  155.4667 N   0  0  0  0  0  0  0  0  0  0  0  0
  147.1226  132.7706  156.5348 C   0  0  0  0  0  0  0  0  0  0  0  0
  147.1976  133.9986  156.5408 O   0  0  0  0  0  0  0  0  0  0  0  0
  147.4630  131.9736  157.7940 C   0  0  0  0  0  0  0  0  0  0  0  0
  147.4204  132.7631  159.1011 C   0  0  0  0  0  0  0  0  0  0  0  0
  146.5632  132.4667  160.1214 C   0  0  0  0  0  0  0  0  0  0  0  0
  145.5672  131.3221  160.0543 C   0  0  0  0  0  0  0  0  0  0  0  0
  146.5544  133.2070  161.3120 N   0  0  0  0  0  0  0  0  0  0  0  0
  147.3808  134.1926  161.4375 C   0  0  0  0  0  0  0  0  0  0  0  0
  147.4739  135.0650  162.6715 C   0  0  0  0  0  0  0  0  0  0  0  0
  148.2768  134.5512  160.4318 N   0  0  0  0  0  0  0  0  0  0  0  0
  148.3517  133.8982  159.2507 C   0  0  0  0  0  0  0  0  0  0  0  0
  149.1454  134.2656  158.3854 O   0  0  0  0  0  0  0  0  0  0  0  0
  147.5707  130.9145  152.7201 N   0  3  0  0  0  0  0  0  0  0  0  0
  148.3226  130.0761  153.6970 C   0  0  0  0  0  0  0  0  0  0  0  0
  148.5389  128.6585  153.1401 C   0  0  0  0  0  0  0  0  0  0  0  0
  147.2863  128.0686  152.8226 O   0  0  0  0  0  0  0  0  0  0  0  0
  146.5958  128.8078  151.8255 C   0  0  0  0  0  0  0  0  0  0  0  0
  146.3035  130.2241  152.3462 C   0  0  0  0  0  0  0  0  0  0  0  0
  148.8947  135.3351  160.5834 H   0  0  0  0  0  0  0  0  0  0  0  0
  145.4660  133.5590  150.3579 H   0  0  0  0  0  0  0  0  0  0  0  0
  144.8733  133.1756  151.9646 H   0  0  0  0  0  0  0  0  0  0  0  0
  145.5187  131.9018  150.9296 H   0  0  0  0  0  0  0  0  0  0  0  0
  147.7700  132.9891  150.9899 H   0  0  0  0  0  0  0  0  0  0  0  0
  147.1761  134.2675  151.9761 H   0  0  0  0  0  0  0  0  0  0  0  0
  148.8281  134.0128  153.5886 H   0  0  0  0  0  0  0  0  0  0  0  0
  149.6349  132.6085  152.9172 H   0  0  0  0  0  0  0  0  0  0  0  0
  149.0408  132.5888  154.5726 H   0  0  0  0  0  0  0  0  0  0  0  0
  146.1924  133.6634  154.3206 H   0  0  0  0  0  0  0  0  0  0  0  0
  145.4029  132.1881  153.8525 H   0  0  0  0  0  0  0  0  0  0  0  0
  146.7023  131.0509  155.5654 H   0  0  0  0  0  0  0  0  0  0  0  0
  146.7744  131.1313  157.8638 H   0  0  0  0  0  0  0  0  0  0  0  0
  148.4427  131.5126  157.6612 H   0  0  0  0  0  0  0  0  0  0  0  0
  144.9156  131.4282  159.1871 H   0  0  0  0  0  0  0  0  0  0  0  0
  144.9356  131.2936  160.9430 H   0  0  0  0  0  0  0  0  0  0  0  0
  146.0869  130.3663  159.9843 H   0  0  0  0  0  0  0  0  0  0  0  0
  147.7441  134.4610  163.5379 H   0  0  0  0  0  0  0  0  0  0  0  0
  146.5123  135.5386  162.8703 H   0  0  0  0  0  0  0  0  0  0  0  0
  148.2231  135.8493  162.5555 H   0  0  0  0  0  0  0  0  0  0  0  0
  149.3029  130.4945  153.9175 H   0  0  0  0  0  0  0  0  0  0  0  0
  147.7792  130.0141  154.6400 H   0  0  0  0  0  0  0  0  0  0  0  0
  149.1792  128.6802  152.2568 H   0  0  0  0  0  0  0  0  0  0  0  0
  149.0421  128.0375  153.8815 H   0  0  0  0  0  0  0  0  0  0  0  0
  147.1815  128.8422  150.9054 H   0  0  0  0  0  0  0  0  0  0  0  0
  145.6632  128.2945  151.5905 H   0  0  0  0  0  0  0  0  0  0  0  0
  145.6391  130.1563  153.2078 H   0  0  0  0  0  0  0  0  0  0  0  0
  145.7667  130.7625  151.5679 H   0  0  0  0  0  0  0  0  0  0  0  0
  148.1335  130.9015  151.8814 H   0  0  0  0  0  0  0  0  0  0  0  0
  1  2  1  0  0  0  0
  1 26  1  0  0  0  0
  1 27  1  0  0  0  0
  1 28  1  0  0  0  0
  2  3  1  0  0  0  0
  2 29  1  0  0  0  0
  2 30  1  0  0  0  0
  3  4  1  0  0  0  0
  3  5  1  0  0  0  0
  3 19  1  0  0  0  0
  4 31  1  0  0  0  0
  4 32  1  0  0  0  0
  4 33  1  0  0  0  0
  5  6  1  0  0  0  0
  5 34  1  0  0  0  0
  5 35  1  0  0  0  0
  6  7  1  0  0  0  0
  6 36  1  0  0  0  0
  7  8  2  0  0  0  0
  7  9  1  0  0  0  0
  9 10  1  0  0  0  0
  9 37  1  0  0  0  0
  9 38  1  0  0  0  0
 10 17  1  0  0  0  0
 10 11  2  0  0  0  0
 11 12  1  0  0  0  0
 11 13  1  0  0  0  0
 12 39  1  0  0  0  0
 12 40  1  0  0  0  0
 12 41  1  0  0  0  0
 13 14  2  0  0  0  0
 14 15  1  0  0  0  0
 14 16  1  0  0  0  0
 15 42  1  0  0  0  0
 15 43  1  0  0  0  0
 15 44  1  0  0  0  0
 16 25  1  0  0  0  0
 16 17  1  0  0  0  0
 17 18  2  0  0  0  0
 19 24  1  0  0  0  0
 19 20  1  0  0  0  0
 19 53  1  0  0  0  0
 20 21  1  0  0  0  0
 20 45  1  0  0  0  0
 20 46  1  0  0  0  0
 21 22  1  0  0  0  0
 21 47  1  0  0  0  0
 21 48  1  0  0  0  0
 22 23  1  0  0  0  0
 23 24  1  0  0  0  0
 23 49  1  0  0  0  0
 23 50  1  0  0  0  0
 24 51  1  0  0  0  0
 24 52  1  0  0  0  0
M  CHG  1  19   1
M  END
> <s_m_source_file>
AV-unprocessed.smi

> <i_m_source_file_index>
1492

> <i_lp_mmshare_version>
43012

> <i_f3d_flags>
0

> <s_epik_input>
W0NIMl0xW0NIMl1PW0NIMl1bQ0gyXU4xW0NAQF0oW0NIM10pKFtDSDJdW0NIM10pW0NIMl1bTkhdQyg9TylbQ0gyXWMyYyhbQ0gzXSluYyhbQ0gzXSlbbkhdYzI9Tw==

> <s_epik_cmdline>
J2VwaWtfcHl0aG9uJywgJy1waCcsICc3LjAnLCAnLXRuJywgJzgnLCAnLW1hJywgJzIwMCcsICctbWV0YWxfYmluZGluZycsICctaW1hZScsICc8aW5maWxlLm1hZT4nLCAnLW9tYWUnLCAnPG91dGZpbGUubWFlPic=

> <r_lp_tautomer_probability>
0.839158

> <r_epik_Ionization_Penalty>
0.506959

> <r_epik_Ionization_Penalty_Charging>
0.506936

> <r_epik_Ionization_Penalty_Neutral>
2.27768e-05

> <r_epik_State_Penalty>
0.6046

> <r_epik_Charging_Adjusted_Penalty>
1.11154

> <i_epik_Tot_Q>
1

> <i_epik_Tot_abs_Q>
1

> <r_epik_Metal_State_Penalty>
0.783136

> <b_epik_Metal_Only>
0

> <s_lp_Force_Field>
OPLS_2005

> <r_lp_Energy>
29.8272

> <b_lp_Chiralities_Consistent>
1

> <s_lp_Variant>
AV-unprocessed.smi:1492-3

> <Gold.Version>
5.8.1

> <Gold.Id.Protein>
6NUR|6NUR_protein|mol2

> <Gold.PLP.Fitness>
37.3164

> <Gold.PLP.PLP>
-32.5850

> <Gold.PLP.part.hbond>
-2.0000

> <Gold.PLP.part.metal>
0.0000

> <Gold.PLP.part.buried>
-5.5219

> <Gold.PLP.part.nonpolar>
-25.9010

> <Gold.PLP.part.repulsive>
0.1540

> <Gold.PLP.ligand.clash>
0.0000

> <Gold.PLP.ligand.torsion>
0.7107

> <Gold.PLP.Chemscore.Hbond>
2.0000

> <Gold.PLP.Chemscore.CHOScore>
0.0000

> <Gold.PLP.Chemscore.Metal>
0.0000

> <Gold.Chemscore.Hbonds>
donor molecule, donor type, donor heavy atom, donor atom, acceptor molecule, acceptor atom, score
      L1  H    19    53       P1 10747  1.00
      P1  H  6896  6907       L1    18  0.90

> <Gold.PLP.Chemscore.Internal.Correction>
0.1527

> <Gold.Rescore>
     Score         DG    S(hbond)    S(metal)    S(lipo)     H(rot)  DE(clash)    DE(int)     intcor
     12.56     -15.31       1.98        0.00      75.32       2.19       0.00       2.74       ----

> <Gold.Chemscore.Fitness>
12.5613

> <Gold.Chemscore.DG>
-15.3074

> <Gold.Chemscore.ZeroCoef>
-5.4800

> <Gold.Chemscore.Hbond>
1.9844

> <Gold.Chemscore.Metal>
0.0000

> <Gold.Chemscore.Lipo>
75.3199

> <Gold.Chemscore.Internal_Hbond>
0.0000

> <Gold.Chemscore.DEClash>
0.0015

> <Gold.Chemscore.DEInternal>
2.7446

> <Gold.Chemscore.Rot>
2.1926

> <Gold.Chemscore.Internal.Correction>
   9.000000E+99

> <Gold.Chemscore.Hbonds>
donor molecule, donor type, donor heavy atom, donor atom, acceptor molecule, acceptor atom, score
      L1  H    19    53       P1 10747  1.00
      P1  H  6896  6907       L1    18  0.17

> <Gold.Chemscore.Hbond.Weighted>
-6.6279

> <Gold.Chemscore.Metal.Weighted>
-0.0000

> <Gold.Chemscore.Lipo.Weighted>
-8.8124

> <Gold.Chemscore.Internal_Hbond.Weighted>
0.0000

> <Gold.Chemscore.DEClash.Weighted>
0.0015

> <Gold.Chemscore.DEInternal.Weighted>
2.7446

> <Gold.Chemscore.Rot.Weighted>
5.6129

> <Gold.Chemscore.Internal.Correction.Weighted>
   9.000000E+99

> <Gold.Protein.RotatedTorsions>
[ 6907 6896 6895 6894 ] final -115.59 input  -60.11 | X-H torsion
[ 7974 7965 7964 7962 ] final -149.95 input  175.53 | X-H torsion
[ 8008 7997 7996 7995 ] final -123.55 input   59.86 | X-H torsion
[ 10167 10162 10161 10158 ] final  -99.20 input  -65.29 | X-H torsion
[ 10718 10713 10712 10709 ] final   23.58 input   66.30 | X-H torsion
[ 10763 10752 10751 10750 ] final   50.00 input  -60.55 | X-H torsion
[ 11005 11000 10999 10996 ] final  -12.69 input  -57.11 | X-H torsion

> <Gold.Protein.ActiveResidues>
 VAL166  LYS551  ARG553  GLY616  TRP617  ASP618  TYR619  PRO620  LYS621  CYS622 
 ASP623  PHE694  ASN695  SER759  ASP760  ASP761  ALA762  ILE779  LEU786  VAL792 
 PHE793  MET794  SER795  GLU796  ALA797  LYS798  CYS799  TRP800  GLU811  SER814 

> <Gold.Protein.RotatedAtoms>
  150.7989  133.8637  159.3238 H   0  0  0  0  0  0  0  0  0  0  0  0  # atno 6907 bound_to 6896
  151.6454  135.1006  160.0159 H   0  0  0  0  0  0  0  0  0  0  0  0  # atno 6908 bound_to 6896
  152.4075  133.6871  159.6404 H   0  0  0  0  0  0  0  0  0  0  0  0  # atno 6909 bound_to 6896
  144.7937  140.4997  143.5755 H   0  0  0  0  0  0  0  0  0  0  0  0  # atno 7974 bound_to 7965
  155.1824  140.0411  157.2884 H   0  0  0  0  0  0  0  0  0  0  0  0  # atno 8008 bound_to 7997
  154.6195  140.2497  155.7540 H   0  0  0  0  0  0  0  0  0  0  0  0  # atno 8009 bound_to 7997
  156.2425  140.2898  156.0495 H   0  0  0  0  0  0  0  0  0  0  0  0  # atno 8010 bound_to 7997
  140.2649  143.3382  152.0590 H   0  0  0  0  0  0  0  0  0  0  0  0  # atno 10167 bound_to 10162
  157.1680  130.6747  149.6068 H   0  0  0  0  0  0  0  0  0  0  0  0  # atno 10718 bound_to 10713
  152.9785  135.5893  154.4180 H   0  0  0  0  0  0  0  0  0  0  0  0  # atno 10763 bound_to 10752
  154.3808  135.2767  155.2214 H   0  0  0  0  0  0  0  0  0  0  0  0  # atno 10764 bound_to 10752
  154.4129  135.6077  153.6018 H   0  0  0  0  0  0  0  0  0  0  0  0  # atno 10765 bound_to 10752
  140.7683  133.8459  155.9185 H   0  0  0  0  0  0  0  0  0  0  0  0  # atno 11005 bound_to 11000
  145.5729  139.1484  143.3278 LP  0  0  0  0  0  0  0  0  0  0  0  0  # atno 17320 bound_to 7965
  146.2197  140.5862  142.9022 LP  0  0  0  0  0  0  0  0  0  0  0  0  # atno 17321 bound_to 7965
  139.5006  144.6694  151.6278 LP  0  0  0  0  0  0  0  0  0  0  0  0  # atno 17342 bound_to 10162
  140.5936  143.9735  150.6340 LP  0  0  0  0  0  0  0  0  0  0  0  0  # atno 17343 bound_to 10162
  155.9743  130.4689  150.6375 LP  0  0  0  0  0  0  0  0  0  0  0  0  # atno 17370 bound_to 10713
  157.4070  131.0818  151.1256 LP  0  0  0  0  0  0  0  0  0  0  0  0  # atno 17371 bound_to 10713
  140.9598  134.1671  157.4663 LP  0  0  0  0  0  0  0  0  0  0  0  0  # atno 17394 bound_to 11000
  139.8759  134.9940  156.5674 LP  0  0  0  0  0  0  0  0  0  0  0  0  # atno 17395 bound_to 11000

$$$$
