AV-unprocessed.smi:232|AV-procd|sdf|1777|dock3
  -GOLD-   2262020323D 1   1.00000     0.00000
 Structure written by MMmdl.
 52 55  0  0  0  0  0  0  0  0  1 V2000
  151.2986  138.0755  158.1926 C   0  0  0  0  0  0  0  0  0  0  0  0
  152.2220  139.2995  158.1688 C   0  0  0  0  0  0  0  0  0  0  0  0
  151.4676  140.6301  158.3707 C   0  0  2  0  0  0  0  0  0  0  0  0
  150.6656  141.0857  157.1426 C   0  0  0  0  0  0  0  0  0  0  0  0
  150.7164  142.6179  157.1849 C   0  0  0  0  0  0  0  0  0  0  0  0
  151.5463  142.9427  158.4320 C   0  0  2  0  0  0  0  0  0  0  0  0
  152.3843  144.2247  158.2959 C   0  0  0  0  0  0  0  0  0  0  0  0
  152.3549  141.7513  158.6580 N   0  0  0  0  0  0  0  0  0  0  0  0
  152.9940  141.7032  159.8500 C   0  0  0  0  0  0  0  0  0  0  0  0
  152.6210  142.5225  160.8689 N   0  0  0  0  0  0  0  0  0  0  0  0
  153.2659  142.4672  162.0386 C   0  0  0  0  0  0  0  0  0  0  0  0
  154.2874  141.6837  162.3934 N   0  0  0  0  0  0  0  0  0  0  0  0
  154.6589  140.8608  161.3706 C   0  0  0  0  0  0  0  0  0  0  0  0
  154.0694  140.8066  160.0774 C   0  0  0  0  0  0  0  0  0  0  0  0
  154.7071  139.8488  159.2995 N   0  0  0  0  0  0  0  0  0  0  0  0
  155.6234  139.3600  160.0908 C   0  0  0  0  0  0  0  0  0  0  0  0
  155.6641  139.9103  161.3520 N   0  0  0  0  0  0  0  0  0  0  0  0
  156.5751  139.5516  162.4241 C   0  0  0  0  0  0  0  0  0  0  0  0
  155.8372  139.1882  163.7279 C   0  0  2  0  0  0  0  0  0  0  0  0
  156.6419  139.5443  164.8361 O   0  0  0  0  0  0  0  0  0  0  0  0
  155.5079  137.6861  163.8111 C   0  0  1  0  0  0  0  0  0  0  0  0
  154.4783  137.3222  164.8832 C   0  0  0  0  0  0  0  0  0  0  0  0
  153.9202  136.0246  164.3462 C   0  0  0  0  0  0  0  0  0  0  0  0
  153.8770  136.3029  162.8475 C   0  0  0  0  0  0  0  0  0  0  0  0
  154.9216  137.2379  162.5903 O   0  0  0  0  0  0  0  0  0  0  0  0
  151.8739  137.1554  158.0885 H   0  0  0  0  0  0  0  0  0  0  0  0
  150.5738  138.1057  157.3788 H   0  0  0  0  0  0  0  0  0  0  0  0
  150.7470  138.0181  159.1313 H   0  0  0  0  0  0  0  0  0  0  0  0
  152.9694  139.1768  158.9535 H   0  0  0  0  0  0  0  0  0  0  0  0
  152.7729  139.3240  157.2278 H   0  0  0  0  0  0  0  0  0  0  0  0
  150.7749  140.5183  159.2070 H   0  0  0  0  0  0  0  0  0  0  0  0
  151.1293  140.7331  156.2203 H   0  0  0  0  0  0  0  0  0  0  0  0
  149.6443  140.7044  157.1666 H   0  0  0  0  0  0  0  0  0  0  0  0
  151.2023  142.9923  156.2828 H   0  0  0  0  0  0  0  0  0  0  0  0
  149.7235  143.0653  157.2375 H   0  0  0  0  0  0  0  0  0  0  0  0
  150.8592  143.0623  159.2715 H   0  0  0  0  0  0  0  0  0  0  0  0
  151.7491  145.0820  158.0734 H   0  0  0  0  0  0  0  0  0  0  0  0
  153.1177  144.1349  157.4939 H   0  0  0  0  0  0  0  0  0  0  0  0
  152.9237  144.4474  159.2169 H   0  0  0  0  0  0  0  0  0  0  0  0
  152.9132  143.1482  162.7988 H   0  0  0  0  0  0  0  0  0  0  0  0
  156.2987  138.5779  159.7753 H   0  0  0  0  0  0  0  0  0  0  0  0
  157.1794  138.7099  162.0839 H   0  0  0  0  0  0  0  0  0  0  0  0
  157.2646  140.3801  162.5909 H   0  0  0  0  0  0  0  0  0  0  0  0
  154.9114  139.7620  163.7884 H   0  0  0  0  0  0  0  0  0  0  0  0
  156.2309  140.2671  165.2853 H   0  0  0  0  0  0  0  0  0  0  0  0
  156.4173  137.1052  163.9754 H   0  0  0  0  0  0  0  0  0  0  0  0
  154.9158  137.2190  165.8766 H   0  0  0  0  0  0  0  0  0  0  0  0
  153.6894  138.0743  164.9333 H   0  0  0  0  0  0  0  0  0  0  0  0
  154.6083  135.2049  164.5577 H   0  0  0  0  0  0  0  0  0  0  0  0
  152.9448  135.7704  164.7618 H   0  0  0  0  0  0  0  0  0  0  0  0
  153.9998  135.3967  162.2541 H   0  0  0  0  0  0  0  0  0  0  0  0
  152.9272  136.7624  162.5719 H   0  0  0  0  0  0  0  0  0  0  0  0
  1  2  1  0  0  0  0
  1 26  1  0  0  0  0
  1 27  1  0  0  0  0
  1 28  1  0  0  0  0
  2  3  1  0  0  0  0
  2 29  1  0  0  0  0
  2 30  1  0  0  0  0
  3  8  1  0  0  0  0
  3  4  1  0  0  0  0
  3 31  1  0  0  0  0
  4  5  1  0  0  0  0
  4 32  1  0  0  0  0
  4 33  1  0  0  0  0
  5  6  1  0  0  0  0
  5 34  1  0  0  0  0
  5 35  1  0  0  0  0
  6  7  1  0  0  0  0
  6  8  1  0  0  0  0
  6 36  1  0  0  0  0
  7 37  1  0  0  0  0
  7 38  1  0  0  0  0
  7 39  1  0  0  0  0
  8  9  1  0  0  0  0
  9 14  1  0  0  0  0
  9 10  2  0  0  0  0
 10 11  1  0  0  0  0
 11 12  2  0  0  0  0
 11 40  1  0  0  0  0
 12 13  1  0  0  0  0
 13 17  1  0  0  0  0
 13 14  2  0  0  0  0
 14 15  1  0  0  0  0
 15 16  2  0  0  0  0
 16 17  1  0  0  0  0
 16 41  1  0  0  0  0
 17 18  1  0  0  0  0
 18 19  1  0  0  0  0
 18 42  1  0  0  0  0
 18 43  1  0  0  0  0
 19 20  1  0  0  0  0
 19 21  1  0  0  0  0
 19 44  1  0  0  0  0
 20 45  1  0  0  0  0
 21 25  1  0  0  0  0
 21 22  1  0  0  0  0
 21 46  1  0  0  0  0
 22 23  1  0  0  0  0
 22 47  1  0  0  0  0
 22 48  1  0  0  0  0
 23 24  1  0  0  0  0
 23 49  1  0  0  0  0
 23 50  1  0  0  0  0
 24 25  1  0  0  0  0
 24 51  1  0  0  0  0
 24 52  1  0  0  0  0
M  END
> <s_m_source_file>
AV-unprocessed.smi

> <i_m_source_file_index>
232

> <i_lp_mmshare_version>
43012

> <i_f3d_flags>
0

> <s_epik_input>
W0NIM11bQ0gyXVtDQEBIXTFbQ0gyXVtDSDJdW0NAQEhdKFtDSDNdKU4xYyhuW2NIXW4yKWMoYzIzKW5bY0hdbjNbQ0gyXVtDQEhdKFtPSF0pW0NAQEhdNFtDSDJdW0NIMl1bQ0gyXU80

> <s_epik_cmdline>
J2VwaWtfcHl0aG9uJywgJy1waCcsICc3LjAnLCAnLXRuJywgJzgnLCAnLW1hJywgJzIwMCcsICctbWV0YWxfYmluZGluZycsICctaW1hZScsICc8aW5maWxlLm1hZT4nLCAnLW9tYWUnLCAnPG91dGZpbGUubWFlPic=

> <r_lp_tautomer_probability>
1

> <r_epik_Ionization_Penalty>
0.00258048

> <r_epik_Ionization_Penalty_Charging>
0

> <r_epik_Ionization_Penalty_Neutral>
0.00258048

> <r_epik_State_Penalty>
0.00168551

> <r_epik_Charging_Adjusted_Penalty>
0.00168551

> <i_epik_Tot_Q>
0

> <i_epik_Tot_abs_Q>
0

> <r_epik_Metal_State_Penalty>
-0

> <b_epik_Metal_Only>
0

> <s_lp_Force_Field>
OPLS_2005

> <r_lp_Energy>
51.1515

> <b_lp_Chiralities_Consistent>
1

> <s_lp_Variant>
AV-unprocessed.smi:232-11

> <Gold.Version>
5.8.1

> <Gold.Id.Protein>
6NUR|6NUR_protein|mol2

> <Gold.PLP.Fitness>
48.7834

> <Gold.PLP.PLP>
-47.8365

> <Gold.PLP.part.hbond>
-2.0000

> <Gold.PLP.part.metal>
0.0000

> <Gold.PLP.part.buried>
-4.5974

> <Gold.PLP.part.nonpolar>
-41.7596

> <Gold.PLP.part.repulsive>
0.0293

> <Gold.PLP.ligand.clash>
0.0000

> <Gold.PLP.ligand.torsion>
1.0674

> <Gold.PLP.Chemscore.Hbond>
1.0000

> <Gold.PLP.Chemscore.CHOScore>
0.0000

> <Gold.PLP.Chemscore.Metal>
0.0000

> <Gold.Chemscore.Hbonds>
donor molecule, donor type, donor heavy atom, donor atom, acceptor molecule, acceptor atom, score
      P1  H  7997  8009       L1    15  1.00

> <Gold.PLP.Chemscore.Internal.Correction>
0.0816

> <Gold.Rescore>
     Score         DG    S(hbond)    S(metal)    S(lipo)     H(rot)  DE(clash)    DE(int)     intcor
     13.23     -14.86       0.94        0.00     106.49       2.43       0.12       1.51       ----

> <Gold.Chemscore.Fitness>
13.2339

> <Gold.Chemscore.DG>
-14.8641

> <Gold.Chemscore.ZeroCoef>
-5.4800

> <Gold.Chemscore.Hbond>
0.9389

> <Gold.Chemscore.Metal>
0.0000

> <Gold.Chemscore.Lipo>
106.4870

> <Gold.Chemscore.Internal_Hbond>
0.0000

> <Gold.Chemscore.DEClash>
0.1155

> <Gold.Chemscore.DEInternal>
1.5147

> <Gold.Chemscore.Rot>
2.4260

> <Gold.Chemscore.Internal.Correction>
   9.000000E+99

> <Gold.Chemscore.Hbonds>
donor molecule, donor type, donor heavy atom, donor atom, acceptor molecule, acceptor atom, score
      P1  H  7997  8009       L1    15  0.89

> <Gold.Chemscore.Hbond.Weighted>
-3.1358

> <Gold.Chemscore.Metal.Weighted>
-0.0000

> <Gold.Chemscore.Lipo.Weighted>
-12.4590

> <Gold.Chemscore.Internal_Hbond.Weighted>
0.0000

> <Gold.Chemscore.DEClash.Weighted>
0.1155

> <Gold.Chemscore.DEInternal.Weighted>
1.5147

> <Gold.Chemscore.Rot.Weighted>
6.2107

> <Gold.Chemscore.Internal.Correction.Weighted>
   9.000000E+99

> <Gold.Protein.RotatedTorsions>
[ 6907 6896 6895 6894 ] final  -13.30 input  -60.11 | X-H torsion
[ 7974 7965 7964 7962 ] final -110.34 input  175.53 | X-H torsion
[ 8008 7997 7996 7995 ] final  128.41 input   59.86 | X-H torsion
[ 10167 10162 10161 10158 ] final -165.00 input  -65.29 | X-H torsion
[ 10718 10713 10712 10709 ] final  -37.25 input   66.30 | X-H torsion
[ 10763 10752 10751 10750 ] final   62.37 input  -60.55 | X-H torsion
[ 11005 11000 10999 10996 ] final  -66.55 input  -57.11 | X-H torsion

> <Gold.Protein.ActiveResidues>
 VAL166  LYS551  ARG553  GLY616  TRP617  ASP618  TYR619  PRO620  LYS621  CYS622 
 ASP623  PHE694  ASN695  SER759  ASP760  ASP761  ALA762  ILE779  LEU786  VAL792 
 PHE793  MET794  SER795  GLU796  ALA797  LYS798  CYS799  TRP800  GLU811  SER814 

> <Gold.Protein.RotatedAtoms>
  151.3571  135.0896  159.9421 H   0  0  0  0  0  0  0  0  0  0  0  0  # atno 6907 bound_to 6896
  152.5172  133.9295  159.7584 H   0  0  0  0  0  0  0  0  0  0  0  0  # atno 6908 bound_to 6896
  150.9682  133.6318  159.2772 H   0  0  0  0  0  0  0  0  0  0  0  0  # atno 6909 bound_to 6896
  145.1694  140.8918  143.3544 H   0  0  0  0  0  0  0  0  0  0  0  0  # atno 7974 bound_to 7965
  156.2914  140.2645  156.2431 H   0  0  0  0  0  0  0  0  0  0  0  0  # atno 8008 bound_to 7997
  154.9958  140.0388  157.2357 H   0  0  0  0  0  0  0  0  0  0  0  0  # atno 8009 bound_to 7997
  154.7646  140.2767  155.6191 H   0  0  0  0  0  0  0  0  0  0  0  0  # atno 8010 bound_to 7997
  139.6212  144.0621  152.1934 H   0  0  0  0  0  0  0  0  0  0  0  0  # atno 10167 bound_to 10162
  156.3174  130.4261  149.7992 H   0  0  0  0  0  0  0  0  0  0  0  0  # atno 10718 bound_to 10713
  152.9980  135.5467  154.6182 H   0  0  0  0  0  0  0  0  0  0  0  0  # atno 10763 bound_to 10752
  154.5487  135.2825  155.1031 H   0  0  0  0  0  0  0  0  0  0  0  0  # atno 10764 bound_to 10752
  154.2279  135.6439  153.5218 H   0  0  0  0  0  0  0  0  0  0  0  0  # atno 10765 bound_to 10752
  141.1485  133.6701  156.6157 H   0  0  0  0  0  0  0  0  0  0  0  0  # atno 11005 bound_to 11000
  145.0248  139.3392  143.6054 LP  0  0  0  0  0  0  0  0  0  0  0  0  # atno 17320 bound_to 7965
  146.3471  139.9563  142.8722 LP  0  0  0  0  0  0  0  0  0  0  0  0  # atno 17321 bound_to 7965
  140.0263  144.6115  150.7525 LP  0  0  0  0  0  0  0  0  0  0  0  0  # atno 17342 bound_to 10162
  140.7383  143.2776  151.3693 LP  0  0  0  0  0  0  0  0  0  0  0  0  # atno 17343 bound_to 10162
  156.5313  130.8259  151.3238 LP  0  0  0  0  0  0  0  0  0  0  0  0  # atno 17370 bound_to 10713
  157.7404  130.9850  150.2378 LP  0  0  0  0  0  0  0  0  0  0  0  0  # atno 17371 bound_to 10713
  140.3580  134.7712  157.4513 LP  0  0  0  0  0  0  0  0  0  0  0  0  # atno 17394 bound_to 11000
  140.0808  134.5734  155.8543 LP  0  0  0  0  0  0  0  0  0  0  0  0  # atno 17395 bound_to 11000

$$$$
