#       Name:                AV-unprocessed.smi:2671
#       Creating user name   scv26
#       Creation time:       Fri Mar 27 14:37:28 2020


#       File generated by GOLD software.
#

@<TRIPOS>MOLECULE
AV-unprocessed.smi:2671
    34    35     1
SMALL
NO_CHARGES


@<TRIPOS>ATOM
      1 ****        -3.4673   2.6474   3.2734 O.2            1 S1                 0.0000
      2 ****        -3.0959   1.8036   2.4610 C.2            1 S1                 0.0000
      3 ****        -3.9100   0.6689   2.0277 C.2            1 S1                 0.0000
      4 ****        -3.4263  -0.2204   1.1266 C.2            1 S1                 0.0000
      5 ****        -4.2585  -1.4056   0.6641 C.3            1 S1                 0.0000
      6 ****        -4.5652  -2.1850   1.7007 F              1 S1                 0.0000
      7 ****        -5.3958  -0.9833   0.1121 F              1 S1                 0.0000
      8 ****        -3.6064  -2.1440  -0.2354 F              1 S1                 0.0000
      9 ****        -2.1380  -0.0675   0.5921 N.2            1 S1                 0.0000
     10 ****        -1.3970   0.9304   0.9613 C.2            1 S1                 0.0000
     11 ****         0.2872   1.3637   0.4393 S.3            1 S1                 0.0000
     12 ****         0.6500   0.0267  -0.7347 C.3            1 S1                 0.0000
     13 ****         2.0605   0.1524  -1.3266 C.3            1 S1                 0.0000
     14 ****         3.1960  -0.0770  -0.3269 C.3            1 S1                 0.0000
     15 ****         4.3322  -0.6209  -1.1817 C.3            1 S1                 0.0000
     16 ****         3.6823  -0.8996  -2.5392 C.3            1 S1                 0.0000
     17 ****         2.2857  -0.8678  -2.2856 O.3            1 S1                 0.0000
     18 ****        -1.8706   1.8628   1.8908 N.am           1 S1                 0.0000
     19 ****        -1.2676   2.6281   2.1556 H              1 S1                 0.0000
     20 ****        -4.9040   0.5419   2.4315 H              1 S1                 0.0000
     21 ****        -0.0880   0.0619  -1.5366 H              1 S1                 0.0000
     22 ****         0.5326  -0.9357  -0.2351 H              1 S1                 0.0000
     23 ****         2.1804   1.1204  -1.8170 H              1 S1                 0.0000
     24 ****         3.4680   0.8332   0.2082 H              1 S1                 0.0000
     25 ****         2.9075  -0.8255   0.4124 H              1 S1                 0.0000
     26 ****         5.1484   0.0957  -1.2794 H              1 S1                 0.0000
     27 ****         4.7373  -1.5329  -0.7418 H              1 S1                 0.0000
     28 ****         3.9342  -0.1143  -3.2535 H              1 S1                 0.0000
     29 ****         3.9869  -1.8564  -2.9638 H              1 S1                 0.0000
     30 ****        -2.8588   3.3995   3.5267 LP             1 S1                 0.0000
     31 ****        -4.3779   2.5819   3.6813 LP             1 S1                 0.0000
     32 ****        -1.7912  -0.7283  -0.0736 LP             1 S1                 0.0000
     33 ****         1.7884  -0.6624  -3.1285 LP             1 S1                 0.0000
     34 ****         1.9820  -1.7501  -1.9259 LP             1 S1                 0.0000
@<TRIPOS>BOND
    1    1    2 2     
    2    2   18 am    
    3    2    3 1     
    4    3   20 1     
    5    3    4 2     
    6    4    5 1     
    7    4    9 1     
    8    5    6 1     
    9    5    7 1     
   10    5    8 1     
   11    9   10 2     
   12   10   11 1     
   13   10   18 1     
   14   11   12 1     
   15   12   13 1     
   16   12   21 1     
   17   12   22 1     
   18   13   17 1     
   19   13   14 1     
   20   13   23 1     
   21   14   15 1     
   22   14   24 1     
   23   14   25 1     
   24   15   16 1     
   25   15   26 1     
   26   15   27 1     
   27   16   17 1     
   28   16   28 1     
   29   16   29 1     
   30   18   19 1     
   31    1   30 1     
   32    1   31 1     
   33    9   32 1     
   34   17   33 1     
   35   17   34 1     
@<TRIPOS>SUBSTRUCTURE
      1 S1             1
@<TRIPOS>SET
LONE_PAIRS      STATIC     ATOMS    <user>   **** ""
5 30 31 32 33 34
DONOR_HYDROGENS      STATIC     ATOMS    <user>   **** ""
1 19
ATOM$BLUE        STATIC     ATOMS    COLORGROUP SYSTEM
5 30 31 32 33 34
ATOM$RED        STATIC     ATOMS    COLORGROUP SYSTEM
1 19
