AV-unprocessed.smi:2749|AV-procd|sdf|10585|dock9
  -GOLD-   2272015 33D 1   1.00000     0.00000
 Structure written by MMmdl.
 32 34  0  0  0  0  0  0  0  0  1 V2000
  150.5891  140.8645  156.9261 O   0  0  0  0  0  0  0  0  0  0  0  0
  150.2212  141.9978  156.6216 C   0  0  0  0  0  0  0  0  0  0  0  0
  150.4753  143.0493  157.4304 N   0  0  0  0  0  0  0  0  0  0  0  0
  151.1479  143.1402  158.6851 C   0  0  0  0  0  0  0  0  0  0  0  0
  150.9545  144.3652  159.3643 C   0  0  0  0  0  0  0  0  0  0  0  0
  151.5649  144.5719  160.6168 C   0  0  0  0  0  0  0  0  0  0  0  0
  152.3548  143.5439  161.1609 C   0  0  0  0  0  0  0  0  0  0  0  0
  152.9616  143.6955  162.3619 F   0  0  0  0  0  0  0  0  0  0  0  0
  152.4973  142.3537  160.4252 C   0  0  0  0  0  0  0  0  0  0  0  0
  151.9125  142.1560  159.2245 N   0  0  0  0  0  0  0  0  0  0  0  0
  149.5510  142.2672  155.4897 N   0  0  0  0  0  0  0  0  0  0  0  0
  149.1646  141.3026  154.4642 C   0  0  2  0  0  0  0  0  0  0  0  0
  147.8842  141.7260  153.7370 C   0  0  0  0  0  0  0  0  0  0  0  0
  146.9511  140.5423  154.0261 C   0  0  1  0  0  0  0  0  0  0  0  0
  147.3824  139.2700  153.2818 C   0  0  0  0  0  0  0  0  0  0  0  0
  148.6296  138.8555  154.0633 C   0  0  0  0  0  0  0  0  0  0  0  0
  148.7277  139.9756  155.1073 C   0  0  2  0  0  0  0  0  0  0  0  0
  147.3512  140.2207  155.3458 O   0  0  0  0  0  0  0  0  0  0  0  0
  150.1082  143.9274  157.0935 H   0  0  0  0  0  0  0  0  0  0  0  0
  150.3434  145.1448  158.9324 H   0  0  0  0  0  0  0  0  0  0  0  0
  151.4283  145.5017  161.1490 H   0  0  0  0  0  0  0  0  0  0  0  0
  153.0942  141.5392  160.8084 H   0  0  0  0  0  0  0  0  0  0  0  0
  149.2881  143.2287  155.3236 H   0  0  0  0  0  0  0  0  0  0  0  0
  149.9780  141.1298  153.7573 H   0  0  0  0  0  0  0  0  0  0  0  0
  147.4699  142.6453  154.1539 H   0  0  0  0  0  0  0  0  0  0  0  0
  148.0385  141.8811  152.6686 H   0  0  0  0  0  0  0  0  0  0  0  0
  145.8917  140.7785  153.9224 H   0  0  0  0  0  0  0  0  0  0  0  0
  146.6144  138.4990  153.3515 H   0  0  0  0  0  0  0  0  0  0  0  0
  147.5855  139.4561  152.2267 H   0  0  0  0  0  0  0  0  0  0  0  0
  148.4741  137.8898  154.5457 H   0  0  0  0  0  0  0  0  0  0  0  0
  149.5204  138.7854  153.4382 H   0  0  0  0  0  0  0  0  0  0  0  0
  149.2970  139.6958  155.9948 H   0  0  0  0  0  0  0  0  0  0  0  0
  1  2  2  0  0  0  0
  2  3  1  0  0  0  0
  2 11  1  0  0  0  0
  3  4  1  0  0  0  0
  3 19  1  0  0  0  0
  4 10  1  0  0  0  0
  4  5  2  0  0  0  0
  5  6  1  0  0  0  0
  5 20  1  0  0  0  0
  6  7  2  0  0  0  0
  6 21  1  0  0  0  0
  7  8  1  0  0  0  0
  7  9  1  0  0  0  0
  9 10  2  0  0  0  0
  9 22  1  0  0  0  0
 11 12  1  0  0  0  0
 11 23  1  0  0  0  0
 12 17  1  0  0  0  0
 12 13  1  0  0  0  0
 12 24  1  0  0  0  0
 13 14  1  0  0  0  0
 13 25  1  0  0  0  0
 13 26  1  0  0  0  0
 14 18  1  0  0  0  0
 14 15  1  0  0  0  0
 14 27  1  0  0  0  0
 15 16  1  0  0  0  0
 15 28  1  0  0  0  0
 15 29  1  0  0  0  0
 16 17  1  0  0  0  0
 16 30  1  0  0  0  0
 16 31  1  0  0  0  0
 17 18  1  0  0  0  0
 17 32  1  0  0  0  0
M  END
> <s_m_source_file>
AV-unprocessed.smi

> <i_m_source_file_index>
2749

> <i_lp_mmshare_version>
43012

> <i_f3d_flags>
0

> <s_epik_input>
W0NIMl0xW0NIMl1bQ0BIXShPMilbQ0BASF0oW0NIMl1bQ0BASF0xMilbTkhdQyg9TylbTkhdYzNbY0hdW2NIXWMoRilbY0hdbjM=

> <s_epik_cmdline>
J2VwaWtfcHl0aG9uJywgJy1waCcsICc3LjAnLCAnLXRuJywgJzgnLCAnLW1hJywgJzIwMCcsICctbWV0YWxfYmluZGluZycsICctaW1hZScsICc8aW5maWxlLm1hZT4nLCAnLW9tYWUnLCAnPG91dGZpbGUubWFlPic=

> <r_lp_tautomer_probability>
1

> <r_epik_Ionization_Penalty>
3.37159e-05

> <r_epik_Ionization_Penalty_Charging>
0

> <r_epik_Ionization_Penalty_Neutral>
3.37159e-05

> <r_epik_State_Penalty>
-0

> <r_epik_Charging_Adjusted_Penalty>
0

> <i_epik_Tot_Q>
0

> <i_epik_Tot_abs_Q>
0

> <r_epik_Metal_State_Penalty>
-0

> <b_epik_Metal_Only>
0

> <s_lp_Force_Field>
OPLS_2005

> <r_lp_Energy>
42.1362

> <b_lp_Chiralities_Consistent>
1

> <s_lp_Variant>
AV-unprocessed.smi:2749-1

> <Gold.Version>
5.8.1

> <Gold.Id.Protein>
6NUR|6NUR_protein|mol2

> <Gold.PLP.Fitness>
41.2043

> <Gold.PLP.PLP>
-36.3175

> <Gold.PLP.part.hbond>
-2.0000

> <Gold.PLP.part.metal>
0.0000

> <Gold.PLP.part.buried>
-4.4556

> <Gold.PLP.part.nonpolar>
-29.0110

> <Gold.PLP.part.repulsive>
0.2506

> <Gold.PLP.ligand.clash>
0.0000

> <Gold.PLP.ligand.torsion>
0.3800

> <Gold.PLP.Chemscore.Hbond>
1.8723

> <Gold.PLP.Chemscore.CHOScore>
0.0000

> <Gold.PLP.Chemscore.Metal>
0.0000

> <Gold.Chemscore.Hbonds>
donor molecule, donor type, donor heavy atom, donor atom, acceptor molecule, acceptor atom, score
      L1  H     3    19       P1  8028  0.86
      L1  H    11    23       P1  8028  1.00

> <Gold.PLP.Chemscore.Internal.Correction>
0.0299

> <Gold.Rescore>
     Score         DG    S(hbond)    S(metal)    S(lipo)     H(rot)  DE(clash)    DE(int)     intcor
     15.05     -18.71       1.85        0.00      82.05       1.00       0.71       2.95       ----

> <Gold.Chemscore.Fitness>
15.0484

> <Gold.Chemscore.DG>
-18.7124

> <Gold.Chemscore.ZeroCoef>
-5.4800

> <Gold.Chemscore.Hbond>
1.8540

> <Gold.Chemscore.Metal>
0.0000

> <Gold.Chemscore.Lipo>
82.0514

> <Gold.Chemscore.Internal_Hbond>
0.0000

> <Gold.Chemscore.DEClash>
0.7126

> <Gold.Chemscore.DEInternal>
2.9514

> <Gold.Chemscore.Rot>
1.0000

> <Gold.Chemscore.Internal.Correction>
   9.000000E+99

> <Gold.Chemscore.Hbonds>
donor molecule, donor type, donor heavy atom, donor atom, acceptor molecule, acceptor atom, score
      L1  H     3    19       P1  8028  0.75
      L1  H    11    23       P1  8028  0.97

> <Gold.Chemscore.Hbond.Weighted>
-6.1924

> <Gold.Chemscore.Metal.Weighted>
-0.0000

> <Gold.Chemscore.Lipo.Weighted>
-9.6000

> <Gold.Chemscore.Internal_Hbond.Weighted>
0.0000

> <Gold.Chemscore.DEClash.Weighted>
0.7126

> <Gold.Chemscore.DEInternal.Weighted>
2.9514

> <Gold.Chemscore.Rot.Weighted>
2.5600

> <Gold.Chemscore.Internal.Correction.Weighted>
   9.000000E+99

> <Gold.Protein.RotatedTorsions>
[ 6907 6896 6895 6894 ] final    1.23 input  -60.11 | X-H torsion
[ 7974 7965 7964 7962 ] final   -5.49 input  175.53 | X-H torsion
[ 8008 7997 7996 7995 ] final -129.04 input   59.86 | X-H torsion
[ 10167 10162 10161 10158 ] final  -28.05 input  -65.29 | X-H torsion
[ 10718 10713 10712 10709 ] final -114.76 input   66.30 | X-H torsion
[ 10763 10752 10751 10750 ] final   52.56 input  -60.55 | X-H torsion
[ 11005 11000 10999 10996 ] final  -32.23 input  -57.11 | X-H torsion

> <Gold.Protein.ActiveResidues>
 VAL166  LYS551  ARG553  GLY616  TRP617  ASP618  TYR619  PRO620  LYS621  CYS622 
 ASP623  PHE694  ASN695  SER759  ASP760  ASP761  ALA762  ILE779  LEU786  VAL792 
 PHE793  MET794  SER795  GLU796  ALA797  LYS798  CYS799  TRP800  GLU811  SER814 

> <Gold.Protein.RotatedAtoms>
  151.5893  135.1054  160.0034 H   0  0  0  0  0  0  0  0  0  0  0  0  # atno 6907 bound_to 6896
  152.4315  133.7281  159.6582 H   0  0  0  0  0  0  0  0  0  0  0  0  # atno 6908 bound_to 6896
  150.8207  133.8186  159.3163 H   0  0  0  0  0  0  0  0  0  0  0  0  # atno 6909 bound_to 6896
  146.2351  140.2029  142.8334 H   0  0  0  0  0  0  0  0  0  0  0  0  # atno 7974 bound_to 7965
  155.2726  140.0440  157.3008 H   0  0  0  0  0  0  0  0  0  0  0  0  # atno 8008 bound_to 7997
  154.5644  140.2355  155.8255 H   0  0  0  0  0  0  0  0  0  0  0  0  # atno 8009 bound_to 7997
  156.2073  140.3009  155.9663 H   0  0  0  0  0  0  0  0  0  0  0  0  # atno 8010 bound_to 7997
  140.7273  143.4042  151.1213 H   0  0  0  0  0  0  0  0  0  0  0  0  # atno 10167 bound_to 10162
  156.0851  130.6044  150.8817 H   0  0  0  0  0  0  0  0  0  0  0  0  # atno 10718 bound_to 10713
  152.9789  135.5808  154.4599 H   0  0  0  0  0  0  0  0  0  0  0  0  # atno 10763 bound_to 10752
  154.4177  135.2771  155.1998 H   0  0  0  0  0  0  0  0  0  0  0  0  # atno 10764 bound_to 10752
  154.3761  135.6157  153.5819 H   0  0  0  0  0  0  0  0  0  0  0  0  # atno 10765 bound_to 10752
  140.9535  133.7207  156.1256 H   0  0  0  0  0  0  0  0  0  0  0  0  # atno 11005 bound_to 11000
  144.9768  140.8421  143.5422 LP  0  0  0  0  0  0  0  0  0  0  0  0  # atno 17320 bound_to 7965
  145.2017  139.2249  143.5189 LP  0  0  0  0  0  0  0  0  0  0  0  0  # atno 17321 bound_to 7965
  139.7666  143.8556  152.3112 LP  0  0  0  0  0  0  0  0  0  0  0  0  # atno 17342 bound_to 10162
  139.8460  144.7187  150.9272 LP  0  0  0  0  0  0  0  0  0  0  0  0  # atno 17343 bound_to 10162
  157.5982  131.0942  150.9005 LP  0  0  0  0  0  0  0  0  0  0  0  0  # atno 17370 bound_to 10713
  156.9168  130.5300  149.5279 LP  0  0  0  0  0  0  0  0  0  0  0  0  # atno 17371 bound_to 10713
  140.7569  134.3982  157.5532 LP  0  0  0  0  0  0  0  0  0  0  0  0  # atno 17394 bound_to 11000
  139.8855  134.8936  156.2641 LP  0  0  0  0  0  0  0  0  0  0  0  0  # atno 17395 bound_to 11000

$$$$
