#       Name:                AV-unprocessed.smi:1985
#       Creating user name   scv26
#       Creation time:       Fri Mar 27 10:24:12 2020


#       File generated by GOLD software.
#

@<TRIPOS>MOLECULE
AV-unprocessed.smi:1985
    59    60     1
SMALL
NO_CHARGES


@<TRIPOS>ATOM
      1 ****        -2.0229  -1.5846   0.6296 C.3            1 S1                 0.0000
      2 ****        -0.8441  -0.7961   0.0316 C.3            1 S1                 0.0000
      3 ****        -1.2115   0.2223  -1.0922 C.3            1 S1                 0.0000
      4 ****        -2.0360   1.3577  -0.4295 C.3            1 S1                 0.0000
      5 ****         0.0868   0.8391  -1.7032 C.3            1 S1                 0.0000
      6 ****         0.9049   1.5576  -0.7269 N.am           1 S1                 0.0000
      7 ****         1.9989   1.0730  -0.1197 C.2            1 S1                 0.0000
      8 ****         2.4725  -0.0374  -0.3628 O.2            1 S1                 0.0000
      9 ****         2.6554   1.9828   0.9254 C.3            1 S1                 0.0000
     10 ****         3.0754   1.2386   2.1196 N.am           1 S1                 0.0000
     11 ****         4.4073   0.9048   2.2868 C.2            1 S1                 0.0000
     12 ****         4.8728   0.2060   3.3448 C.2            1 S1                 0.0000
     13 ****         3.9702  -0.2469   4.3955 C.2            1 S1                 0.0000
     14 ****         4.3415  -0.8890   5.3791 O.2            1 S1                 0.0000
     15 ****         2.6156   0.1074   4.2024 N.am           1 S1                 0.0000
     16 ****         1.6861  -0.3307   5.2227 C.3            1 S1                 0.0000
     17 ****         2.1325   0.8408   3.0937 C.2            1 S1                 0.0000
     18 ****         0.9409   1.1298   2.9590 O.2            1 S1                 0.0000
     19 ****        -2.0271  -0.4654  -2.1590 N.4            1 S1                 1.0000
     20 ****        -2.6773   0.4218  -3.1648 C.3            1 S1                 0.0000
     21 ****        -3.6274  -0.3883  -4.0640 C.3            1 S1                 0.0000
     22 ****        -2.9143  -1.4405  -4.6982 O.3            1 S1                 0.0000
     23 ****        -2.3627  -2.3458  -3.7524 C.3            1 S1                 0.0000
     24 ****        -1.3600  -1.6018  -2.8563 C.3            1 S1                 0.0000
     25 ****        -1.6700  -2.2588   1.4104 H              1 S1                 0.0000
     26 ****        -2.5278  -2.1944  -0.1196 H              1 S1                 0.0000
     27 ****        -2.7627  -0.9260   1.0839 H              1 S1                 0.0000
     28 ****        -0.3596  -0.2728   0.8559 H              1 S1                 0.0000
     29 ****        -0.0906  -1.4993  -0.3221 H              1 S1                 0.0000
     30 ****        -1.5643   1.7174   0.4859 H              1 S1                 0.0000
     31 ****        -3.0409   1.0285  -0.1641 H              1 S1                 0.0000
     32 ****        -2.1358   2.2256  -1.0815 H              1 S1                 0.0000
     33 ****         0.6943   0.0765  -2.1905 H              1 S1                 0.0000
     34 ****        -0.1653   1.5577  -2.4824 H              1 S1                 0.0000
     35 ****         0.5950   2.4833  -0.4680 H              1 S1                 0.0000
     36 ****         3.5146   2.4696   0.4622 H              1 S1                 0.0000
     37 ****         1.9761   2.7886   1.2094 H              1 S1                 0.0000
     38 ****         5.1152   1.2135   1.5314 H              1 S1                 0.0000
     39 ****         5.9261  -0.0233   3.4132 H              1 S1                 0.0000
     40 ****         0.6694  -0.0075   5.0023 H              1 S1                 0.0000
     41 ****         2.0140   0.1055   6.1681 H              1 S1                 0.0000
     42 ****         1.7294  -1.4210   5.2513 H              1 S1                 0.0000
     43 ****        -3.2650   1.2056  -2.6907 H              1 S1                 0.0000
     44 ****        -1.9219   0.9114  -3.7797 H              1 S1                 0.0000
     45 ****        -4.4589  -0.7939  -3.4853 H              1 S1                 0.0000
     46 ****        -4.0589   0.2555  -4.8305 H              1 S1                 0.0000
     47 ****        -3.1553  -2.8029  -3.1575 H              1 S1                 0.0000
     48 ****        -1.8610  -3.1519  -4.2879 H              1 S1                 0.0000
     49 ****        -0.5362  -1.2409  -3.4723 H              1 S1                 0.0000
     50 ****        -0.9434  -2.3171  -2.1498 H              1 S1                 0.0000
     51 ****        -2.7936  -0.8839  -1.6514 H              1 S1                 0.0000
     52 ****         2.0387  -0.6279  -1.0433 LP             1 S1                 0.0000
     53 ****         3.2909  -0.3486   0.1202 LP             1 S1                 0.0000
     54 ****         5.3072  -1.1251   5.4866 LP             1 S1                 0.0000
     55 ****         3.6771  -1.1741   6.0700 LP             1 S1                 0.0000
     56 ****         0.6393   1.6474   2.1582 LP             1 S1                 0.0000
     57 ****         0.2764   0.8465   3.6505 LP             1 S1                 0.0000
     58 ****        -2.1725  -1.0477  -5.2418 LP             1 S1                 0.0000
     59 ****        -3.5391  -1.9397  -5.2985 LP             1 S1                 0.0000
@<TRIPOS>BOND
    1    1    2 1     
    2    1   25 1     
    3    1   26 1     
    4    1   27 1     
    5    2    3 1     
    6    2   28 1     
    7    2   29 1     
    8    3    4 1     
    9    3    5 1     
   10    3   19 1     
   11    4   30 1     
   12    4   31 1     
   13    4   32 1     
   14    5    6 1     
   15    5   33 1     
   16    5   34 1     
   17    6    7 am    
   18    6   35 1     
   19    7    8 2     
   20    7    9 1     
   21    9   10 1     
   22    9   36 1     
   23    9   37 1     
   24   10   17 am    
   25   10   11 1     
   26   11   12 2     
   27   11   38 1     
   28   12   13 1     
   29   12   39 1     
   30   13   14 2     
   31   13   15 am    
   32   15   16 1     
   33   15   17 am    
   34   16   40 1     
   35   16   41 1     
   36   16   42 1     
   37   17   18 2     
   38   19   24 1     
   39   19   20 1     
   40   19   51 1     
   41   20   21 1     
   42   20   43 1     
   43   20   44 1     
   44   21   22 1     
   45   21   45 1     
   46   21   46 1     
   47   22   23 1     
   48   23   24 1     
   49   23   47 1     
   50   23   48 1     
   51   24   49 1     
   52   24   50 1     
   53    8   52 1     
   54    8   53 1     
   55   14   54 1     
   56   14   55 1     
   57   18   56 1     
   58   18   57 1     
   59   22   58 1     
   60   22   59 1     
@<TRIPOS>SUBSTRUCTURE
      1 S1             1
@<TRIPOS>SET
LONE_PAIRS      STATIC     ATOMS    <user>   **** ""
8 52 53 54 55 56 57 58 59
DONOR_HYDROGENS      STATIC     ATOMS    <user>   **** ""
2 35 51
ATOM$BLUE        STATIC     ATOMS    COLORGROUP SYSTEM
8 52 53 54 55 56 57 58 59
ATOM$RED        STATIC     ATOMS    COLORGROUP SYSTEM
2 35 51
