AV-unprocessed.smi:3278|AV-procd|sdf|12547|dock4
  -GOLD-   2272018463D 1   1.00000     0.00000
 Structure written by MMmdl.
 38 39  0  0  0  0  0  0  0  0  1 V2000
  153.2409  138.3758  155.7793 C   0  0  0  0  0  0  0  0  0  0  0  0
  151.9780  138.9256  155.3351 N   0  0  0  0  0  0  0  0  0  0  0  0
  151.2206  139.9195  155.9151 C   0  0  0  0  0  0  0  0  0  0  0  0
  150.1090  140.1022  155.1379 C   0  0  0  0  0  0  0  0  0  0  0  0
  148.9610  141.0758  155.3109 C   0  0  2  0  0  0  0  0  0  0  0  0
  147.5885  140.3910  155.1569 C   0  0  0  0  0  0  0  0  0  0  0  0
  149.0024  142.0731  154.3104 O   0  0  0  0  0  0  0  0  0  0  0  0
  149.0695  141.8265  156.6557 C   0  0  0  0  0  0  0  0  0  0  0  0
  150.1554  142.8106  156.6517 N   0  0  0  0  0  0  0  0  0  0  0  0
  150.7519  143.1029  157.9579 C   0  0  1  0  0  0  0  0  0  0  0  0
  151.6861  141.9668  158.4361 C   0  0  0  0  0  0  0  0  0  0  0  0
  152.2878  142.2337  159.8258 C   0  0  0  0  0  0  0  0  0  0  0  0
  153.1335  143.5126  159.8687 C   0  0  0  0  0  0  0  0  0  0  0  0
  152.1254  144.9700  159.4937 S   0  0  0  0  0  0  0  0  0  0  0  0
  151.5003  144.4459  157.8745 C   0  0  0  0  0  0  0  0  0  0  0  0
  150.2937  139.1567  154.0865 C   0  0  0  0  0  0  0  0  0  0  0  0
  151.4086  138.4552  154.2077 N   0  0  0  0  0  0  0  0  0  0  0  0
  153.4946  138.7693  156.7639 H   0  0  0  0  0  0  0  0  0  0  0  0
  154.0277  138.6469  155.0751 H   0  0  0  0  0  0  0  0  0  0  0  0
  153.1717  137.2892  155.8401 H   0  0  0  0  0  0  0  0  0  0  0  0
  151.5340  140.4118  156.8239 H   0  0  0  0  0  0  0  0  0  0  0  0
  147.4371  139.6171  155.9099 H   0  0  0  0  0  0  0  0  0  0  0  0
  147.4861  139.9207  154.1782 H   0  0  0  0  0  0  0  0  0  0  0  0
  146.7734  141.1081  155.2639 H   0  0  0  0  0  0  0  0  0  0  0  0
  149.0469  142.9179  154.7315 H   0  0  0  0  0  0  0  0  0  0  0  0
  148.1249  142.3340  156.8570 H   0  0  0  0  0  0  0  0  0  0  0  0
  149.2105  141.1042  157.4594 H   0  0  0  0  0  0  0  0  0  0  0  0
  149.8201  143.6735  156.2351 H   0  0  0  0  0  0  0  0  0  0  0  0
  149.9484  143.2179  158.6869 H   0  0  0  0  0  0  0  0  0  0  0  0
  151.1438  141.0236  158.4899 H   0  0  0  0  0  0  0  0  0  0  0  0
  152.4886  141.8173  157.7121 H   0  0  0  0  0  0  0  0  0  0  0  0
  151.4895  142.2960  160.5663 H   0  0  0  0  0  0  0  0  0  0  0  0
  152.9077  141.3850  160.1166 H   0  0  0  0  0  0  0  0  0  0  0  0
  153.5773  143.6391  160.8562 H   0  0  0  0  0  0  0  0  0  0  0  0
  153.9541  143.4520  159.1530 H   0  0  0  0  0  0  0  0  0  0  0  0
  152.3371  144.3771  157.1782 H   0  0  0  0  0  0  0  0  0  0  0  0
  150.8382  145.2276  157.5004 H   0  0  0  0  0  0  0  0  0  0  0  0
  149.6514  138.9638  153.2399 H   0  0  0  0  0  0  0  0  0  0  0  0
  1  2  1  0  0  0  0
  1 18  1  0  0  0  0
  1 19  1  0  0  0  0
  1 20  1  0  0  0  0
  2 17  1  0  0  0  0
  2  3  1  0  0  0  0
  3  4  2  0  0  0  0
  3 21  1  0  0  0  0
  4  5  1  0  0  0  0
  4 16  1  0  0  0  0
  5  6  1  0  0  0  0
  5  7  1  0  0  0  0
  5  8  1  0  0  0  0
  6 22  1  0  0  0  0
  6 23  1  0  0  0  0
  6 24  1  0  0  0  0
  7 25  1  0  0  0  0
  8  9  1  0  0  0  0
  8 26  1  0  0  0  0
  8 27  1  0  0  0  0
  9 10  1  0  0  0  0
  9 28  1  0  0  0  0
 10 15  1  0  0  0  0
 10 11  1  0  0  0  0
 10 29  1  0  0  0  0
 11 12  1  0  0  0  0
 11 30  1  0  0  0  0
 11 31  1  0  0  0  0
 12 13  1  0  0  0  0
 12 32  1  0  0  0  0
 12 33  1  0  0  0  0
 13 14  1  0  0  0  0
 13 34  1  0  0  0  0
 13 35  1  0  0  0  0
 14 15  1  0  0  0  0
 15 36  1  0  0  0  0
 15 37  1  0  0  0  0
 16 17  2  0  0  0  0
 16 38  1  0  0  0  0
M  END
> <s_m_source_file>
AV-unprocessed.smi

> <i_m_source_file_index>
3278

> <i_lp_mmshare_version>
43012

> <i_f3d_flags>
0

> <s_epik_input>
W0NIM11uMVtjSF1jKFtjSF1uMSlbQ0BAXShbQ0gzXSkoW09IXSlbQ0gyXVtOSF1bQ0BASF0yW0NIMl1bQ0gyXVtDSDJdU1tDSDJdMg==

> <s_epik_cmdline>
J2VwaWtfcHl0aG9uJywgJy1waCcsICc3LjAnLCAnLXRuJywgJzgnLCAnLW1hJywgJzIwMCcsICctbWV0YWxfYmluZGluZycsICctaW1hZScsICc8aW5maWxlLm1hZT4nLCAnLW9tYWUnLCAnPG91dGZpbGUubWFlPic=

> <r_lp_tautomer_probability>
1

> <r_epik_Ionization_Penalty>
2.06123

> <r_epik_Ionization_Penalty_Charging>
0

> <r_epik_Ionization_Penalty_Neutral>
2.06123

> <r_epik_State_Penalty>
2.1944

> <r_epik_Charging_Adjusted_Penalty>
2.1944

> <i_epik_Tot_Q>
0

> <i_epik_Tot_abs_Q>
0

> <r_epik_Metal_State_Penalty>
2.19434

> <b_epik_Metal_Only>
0

> <s_lp_Force_Field>
OPLS_2005

> <r_lp_Energy>
8.30166

> <b_lp_Chiralities_Consistent>
1

> <s_lp_Variant>
AV-unprocessed.smi:3278-8

> <Gold.Version>
5.8.1

> <Gold.Id.Protein>
6NUR|6NUR_protein|mol2

> <Gold.PLP.Fitness>
46.0418

> <Gold.PLP.PLP>
-37.5579

> <Gold.PLP.part.hbond>
-3.1601

> <Gold.PLP.part.metal>
0.0000

> <Gold.PLP.part.buried>
-1.4288

> <Gold.PLP.part.nonpolar>
-32.8066

> <Gold.PLP.part.repulsive>
0.1839

> <Gold.PLP.ligand.clash>
0.0000

> <Gold.PLP.ligand.torsion>
0.6976

> <Gold.PLP.Chemscore.Hbond>
2.2730

> <Gold.PLP.Chemscore.CHOScore>
1.0000

> <Gold.PLP.Chemscore.Metal>
0.0000

> <Gold.Chemscore.Hbonds>
donor molecule, donor type, donor heavy atom, donor atom, acceptor molecule, acceptor atom, score
      L1  H     7    25       P1  8028  1.00
      L1  H     9    28       P1  8028  0.96
      P1  H  8011  8017       L1     7  0.24
      L1  C    16    38       P1  7957  0.98

> <Gold.PLP.Chemscore.Internal.Correction>
0.0602

> <Gold.Rescore>
     Score         DG    S(hbond)    S(metal)    S(lipo)     H(rot)  DE(clash)    DE(int)     intcor
     19.22     -20.09       2.07        0.00     108.01       1.93       0.07       0.80       ----

> <Gold.Chemscore.Fitness>
19.2189

> <Gold.Chemscore.DG>
-20.0947

> <Gold.Chemscore.ZeroCoef>
-5.4800

> <Gold.Chemscore.Hbond>
2.0734

> <Gold.Chemscore.Metal>
0.0000

> <Gold.Chemscore.Lipo>
108.0141

> <Gold.Chemscore.Internal_Hbond>
0.0000

> <Gold.Chemscore.DEClash>
0.0742

> <Gold.Chemscore.DEInternal>
0.8016

> <Gold.Chemscore.Rot>
1.9329

> <Gold.Chemscore.Internal.Correction>
   9.000000E+99

> <Gold.Chemscore.Hbonds>
donor molecule, donor type, donor heavy atom, donor atom, acceptor molecule, acceptor atom, score
      L1  H     7    25       P1  8028  0.94
      L1  H     9    28       P1  8028  0.90
      P1  H  8011  8017       L1     7  0.11

> <Gold.Chemscore.Hbond.Weighted>
-6.9253

> <Gold.Chemscore.Metal.Weighted>
-0.0000

> <Gold.Chemscore.Lipo.Weighted>
-12.6377

> <Gold.Chemscore.Internal_Hbond.Weighted>
0.0000

> <Gold.Chemscore.DEClash.Weighted>
0.0742

> <Gold.Chemscore.DEInternal.Weighted>
0.8016

> <Gold.Chemscore.Rot.Weighted>
4.9483

> <Gold.Chemscore.Internal.Correction.Weighted>
   9.000000E+99

> <Gold.Protein.RotatedTorsions>
[ 6907 6896 6895 6894 ] final   74.38 input  -60.11 | X-H torsion
[ 7974 7965 7964 7962 ] final  -33.74 input  175.53 | X-H torsion
[ 8008 7997 7996 7995 ] final   42.71 input   59.86 | X-H torsion
[ 10167 10162 10161 10158 ] final  -27.71 input  -65.29 | X-H torsion
[ 10718 10713 10712 10709 ] final   64.21 input   66.30 | X-H torsion
[ 10763 10752 10751 10750 ] final   67.30 input  -60.55 | X-H torsion
[ 11005 11000 10999 10996 ] final -155.12 input  -57.11 | X-H torsion

> <Gold.Protein.ActiveResidues>
 VAL166  LYS551  ARG553  GLY616  TRP617  ASP618  TYR619  PRO620  LYS621  CYS622 
 ASP623  PHE694  ASN695  SER759  ASP760  ASP761  ALA762  ILE779  LEU786  VAL792 
 PHE793  MET794  SER795  GLU796  ALA797  LYS798  CYS799  TRP800  GLU811  SER814 

> <Gold.Protein.RotatedAtoms>
  152.4973  134.4280  159.9502 H   0  0  0  0  0  0  0  0  0  0  0  0  # atno 6907 bound_to 6896
  151.4257  133.3679  159.2770 H   0  0  0  0  0  0  0  0  0  0  0  0  # atno 6908 bound_to 6896
  150.9191  134.8631  159.7536 H   0  0  0  0  0  0  0  0  0  0  0  0  # atno 6909 bound_to 6896
  146.0886  140.5953  142.8875 H   0  0  0  0  0  0  0  0  0  0  0  0  # atno 7974 bound_to 7965
  155.2907  140.3378  155.4252 H   0  0  0  0  0  0  0  0  0  0  0  0  # atno 8008 bound_to 7997
  156.2047  140.1746  156.7864 H   0  0  0  0  0  0  0  0  0  0  0  0  # atno 8009 bound_to 7997
  154.5605  140.0688  156.8796 H   0  0  0  0  0  0  0  0  0  0  0  0  # atno 8010 bound_to 7997
  140.7275  143.4070  151.1168 H   0  0  0  0  0  0  0  0  0  0  0  0  # atno 10167 bound_to 10162
  157.6024  130.9147  149.9816 H   0  0  0  0  0  0  0  0  0  0  0  0  # atno 10718 bound_to 10713
  153.0179  135.5289  154.6957 H   0  0  0  0  0  0  0  0  0  0  0  0  # atno 10763 bound_to 10752
  154.6080  135.2875  155.0466 H   0  0  0  0  0  0  0  0  0  0  0  0  # atno 10764 bound_to 10752
  154.1498  135.6565  153.5013 H   0  0  0  0  0  0  0  0  0  0  0  0  # atno 10765 bound_to 10752
  140.6899  134.4053  157.5220 H   0  0  0  0  0  0  0  0  0  0  0  0  # atno 11005 bound_to 11000
  144.7344  140.4765  143.6914 LP  0  0  0  0  0  0  0  0  0  0  0  0  # atno 17320 bound_to 7965
  145.6082  139.1510  143.3091 LP  0  0  0  0  0  0  0  0  0  0  0  0  # atno 17321 bound_to 7965
  139.7698  143.8510  152.3118 LP  0  0  0  0  0  0  0  0  0  0  0  0  # atno 17342 bound_to 10162
  139.8425  144.7203  150.9313 LP  0  0  0  0  0  0  0  0  0  0  0  0  # atno 17343 bound_to 10162
  156.1101  130.3650  150.0065 LP  0  0  0  0  0  0  0  0  0  0  0  0  # atno 17370 bound_to 10713
  156.8165  130.9343  151.3642 LP  0  0  0  0  0  0  0  0  0  0  0  0  # atno 17371 bound_to 10713
  139.8926  134.8750  156.2261 LP  0  0  0  0  0  0  0  0  0  0  0  0  # atno 17394 bound_to 11000
  141.0250  133.7020  156.1332 LP  0  0  0  0  0  0  0  0  0  0  0  0  # atno 17395 bound_to 11000

$$$$
