#       Name:                AV-unprocessed.smi:514
#       Creating user name   scv26
#       Creation time:       Thu Mar 26 23:24:44 2020


#       File generated by GOLD software.
#

@<TRIPOS>MOLECULE
AV-unprocessed.smi:514
    53    55     1
SMALL
NO_CHARGES


@<TRIPOS>ATOM
      1 ****        -3.4065   2.4895  -3.4910 C.3            1 S1                 0.0000
      2 ****        -3.0647   1.5126  -2.3639 C.3            1 S1                 0.0000
      3 ****        -1.8082   1.8684  -1.8132 O.3            1 S1                 0.0000
      4 ****        -1.4086   1.0064  -0.7619 C.3            1 S1                 0.0000
      5 ****        -0.0390   1.4596  -0.2445 C.3            1 S1                 0.0000
      6 ****         0.4518   0.5724   0.8064 N.pl3          1 S1                 0.0000
      7 ****         1.1314  -0.6009   0.6806 C.2            1 S1                 0.0000
      8 ****         1.4953  -1.1226  -0.5610 N.pl3          1 S1                 0.0000
      9 ****         1.3144  -2.5158  -0.9572 C.3            1 S1                 0.0000
     10 ****         0.6368  -2.6071  -2.3395 C.3            1 S1                 0.0000
     11 ****         1.4685  -1.9521  -3.3441 N.3            1 S1                 0.0000
     12 ****         1.6509  -0.5555  -2.9629 C.3            1 S1                 0.0000
     13 ****         2.3279  -0.4872  -1.5799 C.3            1 S1                 0.0000
     14 ****         1.3697  -1.2318   1.8336 N.2            1 S1                 0.0000
     15 ****         0.8185  -0.3804   2.7782 C.2            1 S1                 0.0000
     16 ****         0.2537   0.7010   2.1829 C.2            1 S1                 0.0000
     17 ****        -0.4447   1.7438   2.9479 C.2            1 S1                 0.0000
     18 ****        -0.9927   2.7146   2.4309 O.2            1 S1                 0.0000
     19 ****        -0.4292   1.5231   4.2850 N.am           1 S1                 0.0000
     20 ****         0.1319   0.4658   4.9469 C.2            1 S1                 0.0000
     21 ****         0.0703   0.4060   6.1748 O.2            1 S1                 0.0000
     22 ****         0.7497  -0.5008   4.1956 N.am           1 S1                 0.0000
     23 ****         1.3590  -1.6599   4.8506 C.3            1 S1                 0.0000
     24 ****        -0.8876   2.2162   4.8583 H              1 S1                 0.0000
     25 ****        -4.3700   2.2458  -3.9391 H              1 S1                 0.0000
     26 ****        -2.6534   2.4565  -4.2785 H              1 S1                 0.0000
     27 ****        -3.4592   3.5130  -3.1192 H              1 S1                 0.0000
     28 ****        -3.8368   1.5485  -1.5941 H              1 S1                 0.0000
     29 ****        -3.0311   0.4939  -2.7526 H              1 S1                 0.0000
     30 ****        -2.1428   1.0304   0.0450 H              1 S1                 0.0000
     31 ****        -1.3500  -0.0207  -1.1261 H              1 S1                 0.0000
     32 ****         0.6706   1.4993  -1.0647 H              1 S1                 0.0000
     33 ****        -0.0886   2.4805   0.1292 H              1 S1                 0.0000
     34 ****         2.2787  -3.0260  -0.9652 H              1 S1                 0.0000
     35 ****         0.6979  -3.0258  -0.2161 H              1 S1                 0.0000
     36 ****         0.4978  -3.6507  -2.6218 H              1 S1                 0.0000
     37 ****        -0.3515  -2.1454  -2.3166 H              1 S1                 0.0000
     38 ****         1.0163  -2.0022  -4.2458 H              1 S1                 0.0000
     39 ****         2.2729  -0.0640  -3.7109 H              1 S1                 0.0000
     40 ****         0.6887  -0.0416  -2.9551 H              1 S1                 0.0000
     41 ****         2.5476   0.5435  -1.3050 H              1 S1                 0.0000
     42 ****         3.2950  -0.9914  -1.6139 H              1 S1                 0.0000
     43 ****         2.2142  -1.3485   5.4515 H              1 S1                 0.0000
     44 ****         1.7110  -2.4064   4.1388 H              1 S1                 0.0000
     45 ****         0.6428  -2.1557   5.5074 H              1 S1                 0.0000
     46 ****        -1.8673   2.8011  -1.4573 LP             1 S1                 0.0000
     47 ****        -1.1193   1.8309  -2.5371 LP             1 S1                 0.0000
     48 ****         2.3565  -2.4084  -3.4006 LP             1 S1                 0.0000
     49 ****         1.8331  -2.1058   1.9797 LP             1 S1                 0.0000
     50 ****        -0.9782   2.8266   1.4373 LP             1 S1                 0.0000
     51 ****        -1.4531   3.3927   3.0038 LP             1 S1                 0.0000
     52 ****        -0.3899   1.1304   6.6882 LP             1 S1                 0.0000
     53 ****         0.4805  -0.3669   6.6590 LP             1 S1                 0.0000
@<TRIPOS>BOND
    1    1    2 1     
    2    1   25 1     
    3    1   26 1     
    4    1   27 1     
    5    2    3 1     
    6    2   28 1     
    7    2   29 1     
    8    3    4 1     
    9    4    5 1     
   10    4   30 1     
   11    4   31 1     
   12    5    6 1     
   13    5   32 1     
   14    5   33 1     
   15    6   16 1     
   16    6    7 1     
   17    7    8 1     
   18    7   14 2     
   19    8   13 1     
   20    8    9 1     
   21    9   10 1     
   22    9   34 1     
   23    9   35 1     
   24   10   11 1     
   25   10   36 1     
   26   10   37 1     
   27   11   12 1     
   28   11   38 1     
   29   12   13 1     
   30   12   39 1     
   31   12   40 1     
   32   13   41 1     
   33   13   42 1     
   34   14   15 1     
   35   15   22 1     
   36   15   16 2     
   37   16   17 1     
   38   17   18 2     
   39   17   19 1     
   40   19   24 1     
   41   19   20 1     
   42   20   21 2     
   43   20   22 1     
   44   22   23 1     
   45   23   43 1     
   46   23   44 1     
   47   23   45 1     
   48    3   46 1     
   49    3   47 1     
   50   11   48 1     
   51   14   49 1     
   52   18   50 1     
   53   18   51 1     
   54   21   52 1     
   55   21   53 1     
@<TRIPOS>SUBSTRUCTURE
      1 S1             1
@<TRIPOS>SET
LONE_PAIRS      STATIC     ATOMS    <user>   **** ""
8 46 47 48 49 50 51 52 53
DONOR_HYDROGENS      STATIC     ATOMS    <user>   **** ""
2 38 24
ATOM$BLUE        STATIC     ATOMS    COLORGROUP SYSTEM
8 46 47 48 49 50 51 52 53
ATOM$RED        STATIC     ATOMS    COLORGROUP SYSTEM
2 38 24
