AV-unprocessed.smi:828|AV-procd|sdf|3862|dock1
  -GOLD-   22720 1313D 1   1.00000     0.00000
 Structure written by MMmdl.
 34 35  0  0  0  0  0  0  0  0  3 V2000
  151.7527  141.5273  158.4320 C   0  0  0  0  0  0  0  0  0  0  0  0
  151.3656  140.7325  157.2324 C   0  0  0  0  0  0  0  0  0  0  0  0
  151.3636  141.2439  155.9993 N   0  0  0  0  0  0  0  0  0  0  0  0
  150.9679  140.3146  155.0484 N   0  0  0  0  0  0  0  0  0  0  0  0
  150.6844  139.1140  155.5727 C   0  0  0  0  0  0  0  0  0  0  0  0
  150.2787  138.0784  154.8195 N   0  5  0  0  0  0  0  0  0  0  0  0
  150.2359  136.8351  155.3478 C   0  0  0  0  0  0  0  0  0  0  0  0
  150.8766  136.4318  156.3210 O   0  0  0  0  0  0  0  0  0  0  0  0
  149.3904  136.0112  154.7127 N   0  0  0  0  0  0  0  0  0  0  0  0
  149.1136  134.6213  155.0612 C   0  0  0  0  0  0  0  0  0  0  0  0
  147.6805  134.2082  154.6725 C   0  0  2  0  0  0  0  0  0  0  0  0
  147.5800  132.8525  153.9644 C   0  0  0  0  0  0  0  0  0  0  0  0
  146.2613  132.9580  153.2129 C   0  0  0  0  0  0  0  0  0  0  0  0
  146.2161  134.4252  152.7807 C   0  0  0  0  0  0  0  0  0  0  0  0
  147.0691  135.1775  153.7321 N   0  3  1  0  0  0  0  0  0  0  0  0
  146.3780  136.3088  154.3887 C   0  0  0  0  0  0  0  0  0  0  0  0
  150.8760  139.0490  157.3248 S   0  0  0  0  0  0  0  0  0  0  0  0
  152.8188  141.7529  158.4013 H   0  0  0  0  0  0  0  0  0  0  0  0
  151.5389  140.9685  159.3431 H   0  0  0  0  0  0  0  0  0  0  0  0
  151.1951  142.4637  158.4580 H   0  0  0  0  0  0  0  0  0  0  0  0
  148.8950  136.3887  153.9177 H   0  0  0  0  0  0  0  0  0  0  0  0
  149.8345  134.0043  154.5250 H   0  0  0  0  0  0  0  0  0  0  0  0
  149.2918  134.4393  156.1224 H   0  0  0  0  0  0  0  0  0  0  0  0
  147.0614  134.1604  155.5706 H   0  0  0  0  0  0  0  0  0  0  0  0
  148.3971  132.7324  153.2513 H   0  0  0  0  0  0  0  0  0  0  0  0
  147.6079  132.0086  154.6546 H   0  0  0  0  0  0  0  0  0  0  0  0
  146.1931  132.2652  152.3734 H   0  0  0  0  0  0  0  0  0  0  0  0
  145.4348  132.7458  153.8924 H   0  0  0  0  0  0  0  0  0  0  0  0
  146.6429  134.5378  151.7836 H   0  0  0  0  0  0  0  0  0  0  0  0
  145.1911  134.7972  152.7425 H   0  0  0  0  0  0  0  0  0  0  0  0
  145.5351  135.9608  154.9871 H   0  0  0  0  0  0  0  0  0  0  0  0
  146.0019  137.0091  153.6422 H   0  0  0  0  0  0  0  0  0  0  0  0
  147.0610  136.8522  155.0419 H   0  0  0  0  0  0  0  0  0  0  0  0
  147.8261  135.5625  153.1850 H   0  0  0  0  0  0  0  0  0  0  0  0
  1  2  1  0  0  0  0
  1 18  1  0  0  0  0
  1 19  1  0  0  0  0
  1 20  1  0  0  0  0
  2 17  1  0  0  0  0
  2  3  2  0  0  0  0
  3  4  1  0  0  0  0
  4  5  2  0  0  0  0
  5  6  1  0  0  0  0
  5 17  1  0  0  0  0
  6  7  1  0  0  0  0
  7  8  2  0  0  0  0
  7  9  1  0  0  0  0
  9 10  1  0  0  0  0
  9 21  1  0  0  0  0
 10 11  1  0  0  0  0
 10 22  1  0  0  0  0
 10 23  1  0  0  0  0
 11 15  1  0  0  0  0
 11 12  1  0  0  0  0
 11 24  1  0  0  0  0
 12 13  1  0  0  0  0
 12 25  1  0  0  0  0
 12 26  1  0  0  0  0
 13 14  1  0  0  0  0
 13 27  1  0  0  0  0
 13 28  1  0  0  0  0
 14 15  1  0  0  0  0
 14 29  1  0  0  0  0
 14 30  1  0  0  0  0
 15 16  1  0  0  0  0
 15 34  1  0  0  0  0
 16 31  1  0  0  0  0
 16 32  1  0  0  0  0
 16 33  1  0  0  0  0
M  CHG  1   6  -1
M  CHG  1  15   1
M  END
> <s_m_source_file>
AV-unprocessed.smi

> <i_m_source_file_index>
828

> <i_lp_mmshare_version>
43012

> <i_f3d_flags>
0

> <s_epik_input>
W0NIM11jMW5uYyhzMSlbTkhdQyg9TylbTkhdW0NIMl1bQ0BASF0yW0NIMl1bQ0gyXVtDSDJdTjJbQ0gzXQ==

> <s_epik_cmdline>
J2VwaWtfcHl0aG9uJywgJy1waCcsICc3LjAnLCAnLXRuJywgJzgnLCAnLW1hJywgJzIwMCcsICctbWV0YWxfYmluZGluZycsICctaW1hZScsICc8aW5maWxlLm1hZT4nLCAnLW9tYWUnLCAnPG91dGZpbGUubWFlPic=

> <r_lp_tautomer_probability>
1

> <r_epik_Ionization_Penalty>
3.94379

> <r_epik_Ionization_Penalty_Charging>
3.83377

> <r_epik_Ionization_Penalty_Neutral>
0.110023

> <r_epik_State_Penalty>
3.83036

> <r_epik_Charging_Adjusted_Penalty>
7.66413

> <i_epik_Tot_Q>
0

> <i_epik_Tot_abs_Q>
2

> <r_epik_Metal_State_Penalty>
0.575095

> <b_epik_Metal_Only>
1

> <s_lp_Force_Field>
OPLS_2005

> <r_lp_Energy>
18.3526

> <b_lp_Chiralities_Consistent>
1

> <s_lp_Variant>
AV-unprocessed.smi:828-5

> <Gold.Version>
5.8.1

> <Gold.Id.Protein>
6NUR|6NUR_protein|mol2

> <Gold.PLP.Fitness>
38.9160

> <Gold.PLP.PLP>
-25.8400

> <Gold.PLP.part.hbond>
-5.5892

> <Gold.PLP.part.metal>
0.0000

> <Gold.PLP.part.buried>
-2.9148

> <Gold.PLP.part.nonpolar>
-17.5844

> <Gold.PLP.part.repulsive>
0.3962

> <Gold.PLP.ligand.clash>
0.0000

> <Gold.PLP.ligand.torsion>
0.9768

> <Gold.PLP.Chemscore.Hbond>
5.0000

> <Gold.PLP.Chemscore.CHOScore>
0.0000

> <Gold.PLP.Chemscore.Metal>
0.0000

> <Gold.Chemscore.Hbonds>
donor molecule, donor type, donor heavy atom, donor atom, acceptor molecule, acceptor atom, score
      L1  H     9    21       P1  7948  0.71
      L1  H    15    34       P1  7948  2.00
      P1  H  7989  7998       L1     4  1.00

> <Gold.PLP.Chemscore.Internal.Correction>
0.0296

> <Gold.Rescore>
     Score         DG    S(hbond)    S(metal)    S(lipo)     H(rot)  DE(clash)    DE(int)     intcor
     15.75     -18.18       3.31        0.00      42.95       1.31       0.05       2.37       ----

> <Gold.Chemscore.Fitness>
15.7540

> <Gold.Chemscore.DG>
-18.1792

> <Gold.Chemscore.ZeroCoef>
-5.4800

> <Gold.Chemscore.Hbond>
3.3056

> <Gold.Chemscore.Metal>
0.0000

> <Gold.Chemscore.Lipo>
42.9472

> <Gold.Chemscore.Internal_Hbond>
0.0000

> <Gold.Chemscore.DEClash>
0.0546

> <Gold.Chemscore.DEInternal>
2.3705

> <Gold.Chemscore.Rot>
1.3149

> <Gold.Chemscore.Internal.Correction>
   9.000000E+99

> <Gold.Chemscore.Hbonds>
donor molecule, donor type, donor heavy atom, donor atom, acceptor molecule, acceptor atom, score
      L1  H     9    21       P1  7948  0.66
      L1  H    15    34       P1  7948  1.00
      P1  H  7989  7998       L1     4  0.54

> <Gold.Chemscore.Hbond.Weighted>
-11.0405

> <Gold.Chemscore.Metal.Weighted>
-0.0000

> <Gold.Chemscore.Lipo.Weighted>
-5.0248

> <Gold.Chemscore.Internal_Hbond.Weighted>
0.0000

> <Gold.Chemscore.DEClash.Weighted>
0.0546

> <Gold.Chemscore.DEInternal.Weighted>
2.3705

> <Gold.Chemscore.Rot.Weighted>
3.3662

> <Gold.Chemscore.Internal.Correction.Weighted>
   9.000000E+99

> <Gold.Protein.RotatedTorsions>
[ 6907 6896 6895 6894 ] final  123.47 input  -60.11 | X-H torsion
[ 7974 7965 7964 7962 ] final  -42.18 input  175.53 | X-H torsion
[ 8008 7997 7996 7995 ] final -156.17 input   59.86 | X-H torsion
[ 10167 10162 10161 10158 ] final   57.49 input  -65.29 | X-H torsion
[ 10718 10713 10712 10709 ] final  -15.53 input   66.30 | X-H torsion
[ 10763 10752 10751 10750 ] final   75.98 input  -60.55 | X-H torsion
[ 11005 11000 10999 10996 ] final  -17.84 input  -57.11 | X-H torsion

> <Gold.Protein.ActiveResidues>
 VAL166  LYS551  ARG553  GLY616  TRP617  ASP618  TYR619  PRO620  LYS621  CYS622 
 ASP623  PHE694  ASN695  SER759  ASP760  ASP761  ALA762  ILE779  LEU786  VAL792 
 PHE793  MET794  SER795  GLU796  ALA797  LYS798  CYS799  TRP800  GLU811  SER814 

> <Gold.Protein.RotatedAtoms>
  152.4159  133.7037  159.6438 H   0  0  0  0  0  0  0  0  0  0  0  0  # atno 6907 bound_to 6896
  150.8036  133.8541  159.3222 H   0  0  0  0  0  0  0  0  0  0  0  0  # atno 6908 bound_to 6896
  151.6271  135.1028  160.0165 H   0  0  0  0  0  0  0  0  0  0  0  0  # atno 6909 bound_to 6896
  146.0140  140.6930  142.9210 H   0  0  0  0  0  0  0  0  0  0  0  0  # atno 7974 bound_to 7965
  155.7130  140.0780  157.2363 H   0  0  0  0  0  0  0  0  0  0  0  0  # atno 8008 bound_to 7997
  154.4056  140.1626  156.2371 H   0  0  0  0  0  0  0  0  0  0  0  0  # atno 8009 bound_to 7997
  155.9265  140.3394  155.6217 H   0  0  0  0  0  0  0  0  0  0  0  0  # atno 8010 bound_to 7997
  140.1974  144.4023  150.6544 H   0  0  0  0  0  0  0  0  0  0  0  0  # atno 10167 bound_to 10162
  156.6004  130.4822  149.6242 H   0  0  0  0  0  0  0  0  0  0  0  0  # atno 10718 bound_to 10713
  153.0693  135.4968  154.8269 H   0  0  0  0  0  0  0  0  0  0  0  0  # atno 10763 bound_to 10752
  154.6999  135.3000  154.9359 H   0  0  0  0  0  0  0  0  0  0  0  0  # atno 10764 bound_to 10752
  154.0086  135.6757  153.4816 H   0  0  0  0  0  0  0  0  0  0  0  0  # atno 10765 bound_to 10752
  140.8208  133.8069  155.9658 H   0  0  0  0  0  0  0  0  0  0  0  0  # atno 11005 bound_to 11000
  144.6964  140.3449  143.7192 LP  0  0  0  0  0  0  0  0  0  0  0  0  # atno 17320 bound_to 7965
  145.7297  139.1733  143.2437 LP  0  0  0  0  0  0  0  0  0  0  0  0  # atno 17321 bound_to 7965
  140.6414  143.2204  151.6282 LP  0  0  0  0  0  0  0  0  0  0  0  0  # atno 17342 bound_to 10162
  139.5231  144.3143  152.0965 LP  0  0  0  0  0  0  0  0  0  0  0  0  # atno 17343 bound_to 10162
  156.2474  130.6887  151.1613 LP  0  0  0  0  0  0  0  0  0  0  0  0  # atno 17370 bound_to 10713
  157.7281  131.0634  150.5836 LP  0  0  0  0  0  0  0  0  0  0  0  0  # atno 17371 bound_to 10713
  140.9100  134.2272  157.4991 LP  0  0  0  0  0  0  0  0  0  0  0  0  # atno 17394 bound_to 11000
  139.8708  134.9746  156.4851 LP  0  0  0  0  0  0  0  0  0  0  0  0  # atno 17395 bound_to 11000

$$$$
