#       Name:                AV-unprocessed.smi:1828
#       Creating user name   scv26
#       Creation time:       Fri Mar 27 09:10:59 2020


#       File generated by GOLD software.
#

@<TRIPOS>MOLECULE
AV-unprocessed.smi:1828
    44    46     1
SMALL
NO_CHARGES


@<TRIPOS>ATOM
      1 ****        -2.3299   0.6517  -3.3659 O.3            1 S1                 0.0000
      2 ****        -1.3040   1.5447  -2.9930 C.3            1 S1                 0.0000
      3 ****        -1.4327   1.9979  -1.5762 C.2            1 S1                 0.0000
      4 ****        -1.8999   3.2100  -1.1643 N.pl3          1 S1                 1.0000
      5 ****        -1.8862   3.2729   0.2295 C.ar           1 S1                 0.0000
      6 ****        -2.2662   4.2913   1.0984 C.ar           1 S1                 0.0000
      7 ****        -2.1237   4.0325   2.4775 C.ar           1 S1                 0.0000
      8 ****        -1.6195   2.8016   2.9450 C.ar           1 S1                 0.0000
      9 ****        -1.2376   1.7768   2.0543 C.ar           1 S1                 0.0000
     10 ****        -1.3839   2.0389   0.6919 C.ar           1 S1                 0.0000
     11 ****        -1.1190   1.2835  -0.4572 N.pl3          1 S1                 0.0000
     12 ****        -0.5841  -0.0820  -0.3268 C.3            1 S1                 0.0000
     13 ****         0.9521  -0.1429  -0.4443 C.3            1 S1                 0.0000
     14 ****         1.5504   0.6660   0.5500 O.3            1 S1                 0.0000
     15 ****         1.4489  -1.5794  -0.3955 C.ar           1 S1                 0.0000
     16 ****         1.7654  -2.2543  -1.5933 C.ar           1 S1                 0.0000
     17 ****         2.2149  -3.5876  -1.5574 C.ar           1 S1                 0.0000
     18 ****         2.3495  -4.2530  -0.3243 C.ar           1 S1                 0.0000
     19 ****         2.0346  -3.5913   0.8813 C.ar           1 S1                 0.0000
     20 ****         2.1845  -4.3326   2.2015 C.3            1 S1                 0.0000
     21 ****         1.8999  -3.5554   3.2471 F              1 S1                 0.0000
     22 ****         1.3613  -5.3805   2.2164 F              1 S1                 0.0000
     23 ****         3.4375  -4.7690   2.3292 F              1 S1                 0.0000
     24 ****         1.5817  -2.2538   0.8387 C.ar           1 S1                 0.0000
     25 ****        -2.1988   0.4007  -4.2676 H              1 S1                 0.0000
     26 ****        -0.3381   1.0596  -3.1332 H              1 S1                 0.0000
     27 ****        -1.3287   2.4099  -3.6561 H              1 S1                 0.0000
     28 ****        -2.6513   5.2357   0.7426 H              1 S1                 0.0000
     29 ****        -2.4049   4.7939   3.1906 H              1 S1                 0.0000
     30 ****        -1.5219   2.6398   4.0086 H              1 S1                 0.0000
     31 ****        -0.8469   0.8406   2.4246 H              1 S1                 0.0000
     32 ****        -0.9277  -0.5162   0.6121 H              1 S1                 0.0000
     33 ****        -1.0385  -0.6809  -1.1169 H              1 S1                 0.0000
     34 ****         1.2465   0.2839  -1.4039 H              1 S1                 0.0000
     35 ****         2.4841   0.6774   0.4039 H              1 S1                 0.0000
     36 ****         1.6624  -1.7533  -2.5447 H              1 S1                 0.0000
     37 ****         2.4555  -4.1010  -2.4768 H              1 S1                 0.0000
     38 ****         2.6942  -5.2765  -0.3034 H              1 S1                 0.0000
     39 ****         1.3306  -1.7374   1.7534 H              1 S1                 0.0000
     40 ****        -2.2094   3.9385  -1.7946 H              1 S1                 0.0000
     41 ****        -3.2186   1.0993  -3.2668 LP             1 S1                 0.0000
     42 ****        -2.2986  -0.1599  -2.7825 LP             1 S1                 0.0000
     43 ****         1.3549   0.2884   1.4551 LP             1 S1                 0.0000
     44 ****         1.1881   1.5962   0.4915 LP             1 S1                 0.0000
@<TRIPOS>BOND
    1    1    2 1     
    2    1   25 1     
    3    2    3 1     
    4    2   26 1     
    5    2   27 1     
    6    3   11 1     
    7    3    4 2     
    8    4    5 1     
    9    4   40 1     
   10    5   10 ar    
   11    5    6 ar    
   12    6    7 ar    
   13    6   28 1     
   14    7    8 ar    
   15    7   29 1     
   16    8    9 ar    
   17    8   30 1     
   18    9   10 ar    
   19    9   31 1     
   20   10   11 1     
   21   11   12 1     
   22   12   13 1     
   23   12   32 1     
   24   12   33 1     
   25   13   14 1     
   26   13   15 1     
   27   13   34 1     
   28   14   35 1     
   29   15   24 ar    
   30   15   16 ar    
   31   16   17 ar    
   32   16   36 1     
   33   17   18 ar    
   34   17   37 1     
   35   18   19 ar    
   36   18   38 1     
   37   19   20 1     
   38   19   24 ar    
   39   20   21 1     
   40   20   22 1     
   41   20   23 1     
   42   24   39 1     
   43    1   41 1     
   44    1   42 1     
   45   14   43 1     
   46   14   44 1     
@<TRIPOS>SUBSTRUCTURE
      1 S1             1
@<TRIPOS>SET
LONE_PAIRS      STATIC     ATOMS    <user>   **** ""
4 41 42 43 44
DONOR_HYDROGENS      STATIC     ATOMS    <user>   **** ""
3 25 40 35
ATOM$BLUE        STATIC     ATOMS    COLORGROUP SYSTEM
4 41 42 43 44
ATOM$RED        STATIC     ATOMS    COLORGROUP SYSTEM
3 25 40 35
