AV-unprocessed.smi:1241|AV-procd|sdf|5215|dock1
  -GOLD-   22720 4313D 1   1.00000     0.00000
 Structure written by MMmdl.
 38 39  0  0  0  0  0  0  0  0  1 V2000
  154.5124  141.0669  158.7050 C   0  0  0  0  0  0  0  0  0  0  0  0
  152.8023  141.3544  159.3188 S   0  0  0  0  0  0  0  0  0  0  0  0
  151.8641  140.7347  158.3703 O   0  0  0  0  0  0  0  0  0  0  0  0
  152.7552  140.9800  160.7405 O   0  0  0  0  0  0  0  0  0  0  0  0
  152.6010  143.0798  159.2155 N   0  0  0  0  0  0  0  0  0  0  0  0
  152.1143  143.6931  157.9628 C   0  0  0  0  0  0  0  0  0  0  0  0
  150.6239  144.0669  158.0499 C   0  0  0  0  0  0  0  0  0  0  0  0
  150.3359  144.9470  159.2776 C   0  0  0  0  0  0  0  0  0  0  0  0
  148.9081  145.2334  159.3890 N   0  0  0  0  0  0  0  0  0  0  0  0
  147.9886  144.3900  159.8813 C   0  0  0  0  0  0  0  0  0  0  0  0
  148.2580  143.2652  160.3040 O   0  0  0  0  0  0  0  0  0  0  0  0
  146.7604  144.9376  159.8543 N   0  0  0  0  0  0  0  0  0  0  0  0
  145.5292  144.3499  160.2510 C   0  0  0  0  0  0  0  0  0  0  0  0
  145.6316  143.3688  161.2633 C   0  0  0  0  0  0  0  0  0  0  0  0
  144.4660  142.7311  161.7307 C   0  0  0  0  0  0  0  0  0  0  0  0
  143.2261  143.0924  161.1742 C   0  0  0  0  0  0  0  0  0  0  0  0
  143.2119  144.0784  160.1704 C   0  0  0  0  0  0  0  0  0  0  0  0
  144.3279  144.6899  159.7203 N   0  0  0  0  0  0  0  0  0  0  0  0
  150.8263  144.2278  160.5425 C   0  0  0  0  0  0  0  0  0  0  0  0
  152.3172  143.8622  160.4354 C   0  0  0  0  0  0  0  0  0  0  0  0
  154.7323  140.0007  158.7531 H   0  0  0  0  0  0  0  0  0  0  0  0
  155.2258  141.6028  159.3283 H   0  0  0  0  0  0  0  0  0  0  0  0
  154.5962  141.3985  157.6715 H   0  0  0  0  0  0  0  0  0  0  0  0
  152.7027  144.5907  157.7691 H   0  0  0  0  0  0  0  0  0  0  0  0
  152.2879  143.0255  157.1194 H   0  0  0  0  0  0  0  0  0  0  0  0
  150.3304  144.5888  157.1383 H   0  0  0  0  0  0  0  0  0  0  0  0
  150.0156  143.1639  158.0898 H   0  0  0  0  0  0  0  0  0  0  0  0
  150.8855  145.8855  159.1823 H   0  0  0  0  0  0  0  0  0  0  0  0
  148.5995  146.1383  159.0655 H   0  0  0  0  0  0  0  0  0  0  0  0
  146.6965  145.8802  159.4998 H   0  0  0  0  0  0  0  0  0  0  0  0
  146.5922  143.1040  161.6811 H   0  0  0  0  0  0  0  0  0  0  0  0
  144.5231  141.9790  162.5036 H   0  0  0  0  0  0  0  0  0  0  0  0
  142.3105  142.6268  161.5073 H   0  0  0  0  0  0  0  0  0  0  0  0
  142.2808  144.3858  159.7179 H   0  0  0  0  0  0  0  0  0  0  0  0
  150.6715  144.8633  161.4152 H   0  0  0  0  0  0  0  0  0  0  0  0
  150.2345  143.3290  160.7126 H   0  0  0  0  0  0  0  0  0  0  0  0
  152.6375  143.3146  161.3213 H   0  0  0  0  0  0  0  0  0  0  0  0
  152.9145  144.7741  160.4055 H   0  0  0  0  0  0  0  0  0  0  0  0
  1  2  1  0  0  0  0
  1 21  1  0  0  0  0
  1 22  1  0  0  0  0
  1 23  1  0  0  0  0
  2  3  2  0  0  0  0
  2  4  2  0  0  0  0
  2  5  1  0  0  0  0
  5 20  1  0  0  0  0
  5  6  1  0  0  0  0
  6  7  1  0  0  0  0
  6 24  1  0  0  0  0
  6 25  1  0  0  0  0
  7  8  1  0  0  0  0
  7 26  1  0  0  0  0
  7 27  1  0  0  0  0
  8  9  1  0  0  0  0
  8 19  1  0  0  0  0
  8 28  1  0  0  0  0
  9 10  1  0  0  0  0
  9 29  1  0  0  0  0
 10 11  2  0  0  0  0
 10 12  1  0  0  0  0
 12 13  1  0  0  0  0
 12 30  1  0  0  0  0
 13 18  1  0  0  0  0
 13 14  2  0  0  0  0
 14 15  1  0  0  0  0
 14 31  1  0  0  0  0
 15 16  2  0  0  0  0
 15 32  1  0  0  0  0
 16 17  1  0  0  0  0
 16 33  1  0  0  0  0
 17 18  2  0  0  0  0
 17 34  1  0  0  0  0
 19 20  1  0  0  0  0
 19 35  1  0  0  0  0
 19 36  1  0  0  0  0
 20 37  1  0  0  0  0
 20 38  1  0  0  0  0
M  END
> <s_m_source_file>
AV-unprocessed.smi

> <i_m_source_file_index>
1241

> <i_lp_mmshare_version>
43012

> <i_f3d_flags>
0

> <s_epik_input>
W0NIM11TKD1PKSg9TylOMVtDSDJdW0NIMl1bQ0hdKFtDSDJdW0NIMl0xKVtOSF1DKD1PKVtOSF1jMltjSF1bY0hdW2NIXVtjSF1uMg==

> <s_epik_cmdline>
J2VwaWtfcHl0aG9uJywgJy1waCcsICc3LjAnLCAnLXRuJywgJzgnLCAnLW1hJywgJzIwMCcsICctbWV0YWxfYmluZGluZycsICctaW1hZScsICc8aW5maWxlLm1hZT4nLCAnLW9tYWUnLCAnPG91dGZpbGUubWFlPic=

> <r_lp_tautomer_probability>
1

> <r_epik_Ionization_Penalty>
4.62702e-05

> <r_epik_Ionization_Penalty_Charging>
0

> <r_epik_Ionization_Penalty_Neutral>
4.62702e-05

> <r_epik_State_Penalty>
-0

> <r_epik_Charging_Adjusted_Penalty>
0

> <i_epik_Tot_Q>
0

> <i_epik_Tot_abs_Q>
0

> <r_epik_Metal_State_Penalty>
-0

> <b_epik_Metal_Only>
0

> <s_lp_Force_Field>
OPLS_2005

> <r_lp_Energy>
3.28241

> <b_lp_Chiralities_Consistent>
1

> <s_lp_Variant>
AV-unprocessed.smi:1241-1

> <Gold.Version>
5.8.1

> <Gold.Id.Protein>
6NUR|6NUR_protein|mol2

> <Gold.PLP.Fitness>
43.3756

> <Gold.PLP.PLP>
-38.4314

> <Gold.PLP.part.hbond>
-2.0911

> <Gold.PLP.part.metal>
0.0000

> <Gold.PLP.part.buried>
-5.6678

> <Gold.PLP.part.nonpolar>
-31.0250

> <Gold.PLP.part.repulsive>
0.6178

> <Gold.PLP.ligand.clash>
0.0000

> <Gold.PLP.ligand.torsion>
1.4687

> <Gold.PLP.Chemscore.Hbond>
1.9425

> <Gold.PLP.Chemscore.CHOScore>
0.0000

> <Gold.PLP.Chemscore.Metal>
0.0000

> <Gold.Chemscore.Hbonds>
donor molecule, donor type, donor heavy atom, donor atom, acceptor molecule, acceptor atom, score
      L1  H     9    29       P1  8029  0.19
      P1  H  6933  6944       L1    11  0.76

> <Gold.PLP.Chemscore.Internal.Correction>
2.0539

> <Gold.Rescore>
     Score         DG    S(hbond)    S(metal)    S(lipo)     H(rot)  DE(clash)    DE(int)     intcor
     15.36     -20.40       1.93        0.00      94.20       1.00       1.13       3.90       ----

> <Gold.Chemscore.Fitness>
15.3631

> <Gold.Chemscore.DG>
-20.4016

> <Gold.Chemscore.ZeroCoef>
-5.4800

> <Gold.Chemscore.Hbond>
1.9342

> <Gold.Chemscore.Metal>
0.0000

> <Gold.Chemscore.Lipo>
94.2000

> <Gold.Chemscore.Internal_Hbond>
0.0000

> <Gold.Chemscore.DEClash>
1.1337

> <Gold.Chemscore.DEInternal>
3.9048

> <Gold.Chemscore.Rot>
1.0000

> <Gold.Chemscore.Internal.Correction>
   9.000000E+99

> <Gold.Chemscore.Hbonds>
donor molecule, donor type, donor heavy atom, donor atom, acceptor molecule, acceptor atom, score
      L1  H     9    29       P1  8029  0.20
      P1  H  6933  6944       L1    11  0.72

> <Gold.Chemscore.Hbond.Weighted>
-6.4602

> <Gold.Chemscore.Metal.Weighted>
-0.0000

> <Gold.Chemscore.Lipo.Weighted>
-11.0214

> <Gold.Chemscore.Internal_Hbond.Weighted>
0.0000

> <Gold.Chemscore.DEClash.Weighted>
1.1337

> <Gold.Chemscore.DEInternal.Weighted>
3.9048

> <Gold.Chemscore.Rot.Weighted>
2.5600

> <Gold.Chemscore.Internal.Correction.Weighted>
   9.000000E+99

> <Gold.Protein.RotatedTorsions>
[ 6907 6896 6895 6894 ] final  165.10 input  -60.11 | X-H torsion
[ 7974 7965 7964 7962 ] final   -3.94 input  175.53 | X-H torsion
[ 8008 7997 7996 7995 ] final    1.82 input   59.86 | X-H torsion
[ 10167 10162 10161 10158 ] final   21.48 input  -65.29 | X-H torsion
[ 10718 10713 10712 10709 ] final -177.67 input   66.30 | X-H torsion
[ 10763 10752 10751 10750 ] final  177.25 input  -60.55 | X-H torsion
[ 11005 11000 10999 10996 ] final -179.66 input  -57.11 | X-H torsion

> <Gold.Protein.ActiveResidues>
 VAL166  LYS551  ARG553  GLY616  TRP617  ASP618  TYR619  PRO620  LYS621  CYS622 
 ASP623  PHE694  ASN695  SER759  ASP760  ASP761  ALA762  ILE779  LEU786  VAL792 
 PHE793  MET794  SER795  GLU796  ALA797  LYS798  CYS799  TRP800  GLU811  SER814 

> <Gold.Protein.RotatedAtoms>
  151.8996  133.3535  159.3825 H   0  0  0  0  0  0  0  0  0  0  0  0  # atno 6907 bound_to 6896
  150.7083  134.4841  159.5494 H   0  0  0  0  0  0  0  0  0  0  0  0  # atno 6908 bound_to 6896
  152.2427  134.8212  160.0509 H   0  0  0  0  0  0  0  0  0  0  0  0  # atno 6909 bound_to 6896
  146.2381  140.1797  142.8332 H   0  0  0  0  0  0  0  0  0  0  0  0  # atno 7974 bound_to 7965
  154.6843  140.2639  155.6876 H   0  0  0  0  0  0  0  0  0  0  0  0  # atno 8008 bound_to 7997
  156.2708  140.2804  156.1322 H   0  0  0  0  0  0  0  0  0  0  0  0  # atno 8009 bound_to 7997
  155.0986  140.0374  157.2680 H   0  0  0  0  0  0  0  0  0  0  0  0  # atno 8010 bound_to 7997
  140.5423  143.9655  150.6527 H   0  0  0  0  0  0  0  0  0  0  0  0  # atno 10167 bound_to 10162
  156.8329  130.9659  151.3105 H   0  0  0  0  0  0  0  0  0  0  0  0  # atno 10718 bound_to 10713
  154.4920  135.2779  155.1489 H   0  0  0  0  0  0  0  0  0  0  0  0  # atno 10763 bound_to 10752
  154.3156  135.6220  153.5489 H   0  0  0  0  0  0  0  0  0  0  0  0  # atno 10764 bound_to 10752
  152.9889  135.5730  154.5344 H   0  0  0  0  0  0  0  0  0  0  0  0  # atno 10765 bound_to 10752
  140.4162  134.6647  157.4640 H   0  0  0  0  0  0  0  0  0  0  0  0  # atno 11005 bound_to 11000
  144.9945  140.8576  143.5319 LP  0  0  0  0  0  0  0  0  0  0  0  0  # atno 17320 bound_to 7965
  145.1807  139.2353  143.5294 LP  0  0  0  0  0  0  0  0  0  0  0  0  # atno 17321 bound_to 7965
  140.3059  143.3230  152.0926 LP  0  0  0  0  0  0  0  0  0  0  0  0  # atno 17342 bound_to 10162
  139.4994  144.6667  151.6339 LP  0  0  0  0  0  0  0  0  0  0  0  0  # atno 17343 bound_to 10162
  157.6397  130.8795  149.9425 LP  0  0  0  0  0  0  0  0  0  0  0  0  # atno 17370 bound_to 10713
  156.0924  130.3662  150.0370 LP  0  0  0  0  0  0  0  0  0  0  0  0  # atno 17371 bound_to 10713
  140.0232  134.6516  155.9209 LP  0  0  0  0  0  0  0  0  0  0  0  0  # atno 17394 bound_to 11000
  141.1802  133.6545  156.4989 LP  0  0  0  0  0  0  0  0  0  0  0  0  # atno 17395 bound_to 11000

$$$$
