AV-unprocessed.smi:182|AV-procd|sdf|1456|dock9
  -GOLD-   2262019263D 1   1.00000     0.00000
 Structure written by MMmdl.
 56 59  0  0  0  0  0  0  0  0  1 V2000
  155.2983  138.7873  163.3431 N   0  0  0  0  0  0  0  0  0  0  0  0
  155.6285  138.7300  162.0507 C   0  0  0  0  0  0  0  0  0  0  0  0
  156.6616  138.1860  161.6651 O   0  0  0  0  0  0  0  0  0  0  0  0
  154.6545  139.3834  161.0645 C   0  0  0  0  0  0  0  0  0  0  0  0
  154.3381  140.8567  161.3960 C   0  0  0  0  0  0  0  0  0  0  0  0
  153.1374  141.4237  160.6127 C   0  0  1  0  0  0  0  0  0  0  0  0
  153.0906  142.9621  160.7012 C   0  0  0  0  0  0  0  0  0  0  0  0
  151.8934  143.5159  159.9132 C   0  0  0  0  0  0  0  0  0  0  0  0
  151.9127  143.0217  158.4583 C   0  0  0  0  0  0  0  0  0  0  0  0
  152.0067  141.5622  158.4085 N   0  0  0  0  0  0  0  0  0  0  0  0
  151.7023  140.9426  157.2390 C   0  0  0  0  0  0  0  0  0  0  0  0
  152.6600  140.2436  156.5722 N   0  0  0  0  0  0  0  0  0  0  0  0
  152.3687  139.6217  155.4262 C   0  0  0  0  0  0  0  0  0  0  0  0
  151.2031  139.5672  154.7798 N   0  0  0  0  0  0  0  0  0  0  0  0
  150.2380  140.2695  155.4390 C   0  0  0  0  0  0  0  0  0  0  0  0
  150.4025  140.9863  156.6583 C   0  0  0  0  0  0  0  0  0  0  0  0
  149.2065  141.6039  157.0063 N   0  0  0  0  0  0  0  0  0  0  0  0
  148.3823  141.2647  156.0532 C   0  0  0  0  0  0  0  0  0  0  0  0
  148.9099  140.4380  155.0874 N   0  0  0  0  0  0  0  0  0  0  0  0
  148.2400  139.9496  153.9176 C   0  0  0  0  0  0  0  0  0  0  0  0
  146.7207  140.0631  153.7685 C   0  0  0  0  0  0  0  0  0  0  0  0
  146.7081  138.7423  152.9654 C   0  0  0  0  0  0  0  0  0  0  0  0
  145.5606  137.7734  153.2965 C   0  0  0  0  0  0  0  0  0  0  0  0
  144.3822  138.1180  152.5970 O   0  0  0  0  0  0  0  0  0  0  0  0
  146.8105  138.9007  151.4349 C   0  0  0  0  0  0  0  0  0  0  0  0
  146.7440  137.6496  150.7812 O   0  0  0  0  0  0  0  0  0  0  0  0
  148.0426  138.4499  153.6859 C   0  0  0  0  0  0  0  0  0  0  0  0
  153.1434  140.9914  159.1310 C   0  0  0  0  0  0  0  0  0  0  0  0
  155.9069  138.3725  164.0342 H   0  0  0  0  0  0  0  0  0  0  0  0
  154.4439  139.2446  163.6262 H   0  0  0  0  0  0  0  0  0  0  0  0
  155.0801  139.3068  160.0640 H   0  0  0  0  0  0  0  0  0  0  0  0
  153.7334  138.7997  161.0593 H   0  0  0  0  0  0  0  0  0  0  0  0
  154.1235  140.9377  162.4627 H   0  0  0  0  0  0  0  0  0  0  0  0
  155.2178  141.4765  161.2162 H   0  0  0  0  0  0  0  0  0  0  0  0
  152.2265  141.0395  161.0747 H   0  0  0  0  0  0  0  0  0  0  0  0
  153.0225  143.2797  161.7423 H   0  0  0  0  0  0  0  0  0  0  0  0
  154.0154  143.3851  160.3065 H   0  0  0  0  0  0  0  0  0  0  0  0
  150.9656  143.2007  160.3920 H   0  0  0  0  0  0  0  0  0  0  0  0
  151.9002  144.6059  159.9372 H   0  0  0  0  0  0  0  0  0  0  0  0
  151.0081  143.3592  157.9502 H   0  0  0  0  0  0  0  0  0  0  0  0
  152.7623  143.4551  157.9285 H   0  0  0  0  0  0  0  0  0  0  0  0
  153.1858  139.0889  154.9626 H   0  0  0  0  0  0  0  0  0  0  0  0
  147.3580  141.6078  156.0327 H   0  0  0  0  0  0  0  0  0  0  0  0
  148.7469  140.4084  153.0670 H   0  0  0  0  0  0  0  0  0  0  0  0
  146.2016  139.9839  154.7257 H   0  0  0  0  0  0  0  0  0  0  0  0
  146.3889  140.9443  153.2189 H   0  0  0  0  0  0  0  0  0  0  0  0
  145.8239  136.7525  153.0188 H   0  0  0  0  0  0  0  0  0  0  0  0
  145.3462  137.7526  154.3653 H   0  0  0  0  0  0  0  0  0  0  0  0
  144.5895  138.1939  151.6782 H   0  0  0  0  0  0  0  0  0  0  0  0
  146.0027  139.5212  151.0469 H   0  0  0  0  0  0  0  0  0  0  0  0
  147.7366  139.3980  151.1459 H   0  0  0  0  0  0  0  0  0  0  0  0
  147.5281  137.1628  150.9843 H   0  0  0  0  0  0  0  0  0  0  0  0
  148.8071  137.9842  153.0633 H   0  0  0  0  0  0  0  0  0  0  0  0
  147.9114  137.8985  154.6190 H   0  0  0  0  0  0  0  0  0  0  0  0
  154.0634  141.3253  158.6492 H   0  0  0  0  0  0  0  0  0  0  0  0
  153.1385  139.9058  159.0628 H   0  0  0  0  0  0  0  0  0  0  0  0
  1  2  1  0  0  0  0
  1 29  1  0  0  0  0
  1 30  1  0  0  0  0
  2  3  2  0  0  0  0
  2  4  1  0  0  0  0
  4  5  1  0  0  0  0
  4 31  1  0  0  0  0
  4 32  1  0  0  0  0
  5  6  1  0  0  0  0
  5 33  1  0  0  0  0
  5 34  1  0  0  0  0
  6 28  1  0  0  0  0
  6  7  1  0  0  0  0
  6 35  1  0  0  0  0
  7  8  1  0  0  0  0
  7 36  1  0  0  0  0
  7 37  1  0  0  0  0
  8  9  1  0  0  0  0
  8 38  1  0  0  0  0
  8 39  1  0  0  0  0
  9 10  1  0  0  0  0
  9 40  1  0  0  0  0
  9 41  1  0  0  0  0
 10 11  1  0  0  0  0
 10 28  1  0  0  0  0
 11 16  1  0  0  0  0
 11 12  2  0  0  0  0
 12 13  1  0  0  0  0
 13 14  2  0  0  0  0
 13 42  1  0  0  0  0
 14 15  1  0  0  0  0
 15 19  1  0  0  0  0
 15 16  2  0  0  0  0
 16 17  1  0  0  0  0
 17 18  2  0  0  0  0
 18 19  1  0  0  0  0
 18 43  1  0  0  0  0
 19 20  1  0  0  0  0
 20 27  1  0  0  0  0
 20 21  1  0  0  0  0
 20 44  1  0  0  0  0
 21 22  1  0  0  0  0
 21 45  1  0  0  0  0
 21 46  1  0  0  0  0
 22 23  1  0  0  0  0
 22 25  1  0  0  0  0
 22 27  1  0  0  0  0
 23 24  1  0  0  0  0
 23 47  1  0  0  0  0
 23 48  1  0  0  0  0
 24 49  1  0  0  0  0
 25 26  1  0  0  0  0
 25 50  1  0  0  0  0
 25 51  1  0  0  0  0
 26 52  1  0  0  0  0
 27 53  1  0  0  0  0
 27 54  1  0  0  0  0
 28 55  1  0  0  0  0
 28 56  1  0  0  0  0
M  END
> <s_m_source_file>
AV-unprocessed.smi

> <i_m_source_file_index>
182

> <i_lp_mmshare_version>
43012

> <i_f3d_flags>
0

> <s_epik_input>
W05IMl1DKD1PKVtDSDJdW0NIMl1bQ0BASF0xW0NIMl1bQ0gyXVtDSDJdTihbQ0gyXTEpYyhuW2NIXW4yKWMoYzIzKW5bY0hdbjNbQ0hdKFtDSDJdNClbQ0gyXUM0KFtDSDJdW09IXSlbQ0gyXVtPSF0=

> <s_epik_cmdline>
J2VwaWtfcHl0aG9uJywgJy1waCcsICc3LjAnLCAnLXRuJywgJzgnLCAnLW1hJywgJzIwMCcsICctbWV0YWxfYmluZGluZycsICctaW1hZScsICc8aW5maWxlLm1hZT4nLCAnLW9tYWUnLCAnPG91dGZpbGUubWFlPic=

> <r_lp_tautomer_probability>
1

> <r_epik_Ionization_Penalty>
0.00186057

> <r_epik_Ionization_Penalty_Charging>
0

> <r_epik_Ionization_Penalty_Neutral>
0.00186057

> <r_epik_State_Penalty>
0.00110736

> <r_epik_Charging_Adjusted_Penalty>
0.00110736

> <i_epik_Tot_Q>
0

> <i_epik_Tot_abs_Q>
0

> <r_epik_Metal_State_Penalty>
-0

> <b_epik_Metal_Only>
0

> <s_lp_Force_Field>
OPLS_2005

> <r_lp_Energy>
37.6951

> <b_lp_Chiralities_Consistent>
1

> <s_lp_Variant>
AV-unprocessed.smi:182-2

> <Gold.Version>
5.8.1

> <Gold.Id.Protein>
6NUR|6NUR_protein|mol2

> <Gold.PLP.Fitness>
56.8042

> <Gold.PLP.PLP>
-46.9854

> <Gold.PLP.part.hbond>
-6.1962

> <Gold.PLP.part.metal>
0.0000

> <Gold.PLP.part.buried>
0.8562

> <Gold.PLP.part.nonpolar>
-42.3932

> <Gold.PLP.part.repulsive>
0.1847

> <Gold.PLP.ligand.clash>
0.0000

> <Gold.PLP.ligand.torsion>
1.0336

> <Gold.PLP.Chemscore.Hbond>
3.6410

> <Gold.PLP.Chemscore.CHOScore>
0.0000

> <Gold.PLP.Chemscore.Metal>
0.0000

> <Gold.Chemscore.Hbonds>
donor molecule, donor type, donor heavy atom, donor atom, acceptor molecule, acceptor atom, score
      L1  H    24    49       P1 10171  0.90
      L1  H    26    52       P1  7948  1.00
      P1  H  7989  7998       L1    14  0.72
      P1  H  7997  8010       L1    12  1.00

> <Gold.PLP.Chemscore.Internal.Correction>
0.9629

> <Gold.Rescore>
     Score         DG    S(hbond)    S(metal)    S(lipo)     H(rot)  DE(clash)    DE(int)     intcor
     14.19     -15.23       2.69        0.00     111.54       4.79       0.23       0.81       ----

> <Gold.Chemscore.Fitness>
14.1941

> <Gold.Chemscore.DG>
-15.2319

> <Gold.Chemscore.ZeroCoef>
-5.4800

> <Gold.Chemscore.Hbond>
2.6855

> <Gold.Chemscore.Metal>
0.0000

> <Gold.Chemscore.Lipo>
111.5426

> <Gold.Chemscore.Internal_Hbond>
0.0000

> <Gold.Chemscore.DEClash>
0.2262

> <Gold.Chemscore.DEInternal>
0.8116

> <Gold.Chemscore.Rot>
4.7922

> <Gold.Chemscore.Internal.Correction>
   9.000000E+99

> <Gold.Chemscore.Hbonds>
donor molecule, donor type, donor heavy atom, donor atom, acceptor molecule, acceptor atom, score
      L1  H    24    49       P1 10171  0.83
      L1  H    26    52       P1  7948  0.99
      P1  H  7989  7998       L1    14  0.02
      P1  H  7997  8010       L1    12  0.24

> <Gold.Chemscore.Hbond.Weighted>
-8.9694

> <Gold.Chemscore.Metal.Weighted>
-0.0000

> <Gold.Chemscore.Lipo.Weighted>
-13.0505

> <Gold.Chemscore.Internal_Hbond.Weighted>
0.0000

> <Gold.Chemscore.DEClash.Weighted>
0.2262

> <Gold.Chemscore.DEInternal.Weighted>
0.8116

> <Gold.Chemscore.Rot.Weighted>
12.2680

> <Gold.Chemscore.Internal.Correction.Weighted>
   9.000000E+99

> <Gold.Protein.RotatedTorsions>
[ 6907 6896 6895 6894 ] final   32.59 input  -60.11 | X-H torsion
[ 7974 7965 7964 7962 ] final   72.87 input  175.53 | X-H torsion
[ 8008 7997 7996 7995 ] final   65.09 input   59.86 | X-H torsion
[ 10167 10162 10161 10158 ] final   65.31 input  -65.29 | X-H torsion
[ 10718 10713 10712 10709 ] final -142.36 input   66.30 | X-H torsion
[ 10763 10752 10751 10750 ] final -129.59 input  -60.55 | X-H torsion
[ 11005 11000 10999 10996 ] final -147.00 input  -57.11 | X-H torsion

> <Gold.Protein.ActiveResidues>
 VAL166  LYS551  ARG553  GLY616  TRP617  ASP618  TYR619  PRO620  LYS621  CYS622 
 ASP623  PHE694  ASN695  SER759  ASP760  ASP761  ALA762  ILE779  LEU786  VAL792 
 PHE793  MET794  SER795  GLU796  ALA797  LYS798  CYS799  TRP800  GLU811  SER814 

> <Gold.Protein.RotatedAtoms>
  152.0766  134.9498  160.0573 H   0  0  0  0  0  0  0  0  0  0  0  0  # atno 6907 bound_to 6896
  152.0803  133.4145  159.4506 H   0  0  0  0  0  0  0  0  0  0  0  0  # atno 6908 bound_to 6896
  150.6836  134.2909  159.4709 H   0  0  0  0  0  0  0  0  0  0  0  0  # atno 6909 bound_to 6896
  145.7480  139.2748  143.1448 H   0  0  0  0  0  0  0  0  0  0  0  0  # atno 7974 bound_to 7965
  155.6563  140.3497  155.4766 H   0  0  0  0  0  0  0  0  0  0  0  0  # atno 8008 bound_to 7997
  155.9806  140.1174  157.0753 H   0  0  0  0  0  0  0  0  0  0  0  0  # atno 8009 bound_to 7997
  154.4190  140.1139  156.5416 H   0  0  0  0  0  0  0  0  0  0  0  0  # atno 8010 bound_to 7997
  140.1127  144.4803  150.6968 H   0  0  0  0  0  0  0  0  0  0  0  0  # atno 10167 bound_to 10162
  156.3450  130.7657  151.1800 H   0  0  0  0  0  0  0  0  0  0  0  0  # atno 10718 bound_to 10713
  154.8757  135.3890  154.3944 H   0  0  0  0  0  0  0  0  0  0  0  0  # atno 10763 bound_to 10752
  153.4676  135.7029  153.6018 H   0  0  0  0  0  0  0  0  0  0  0  0  # atno 10764 bound_to 10752
  153.4489  135.3838  155.2240 H   0  0  0  0  0  0  0  0  0  0  0  0  # atno 10765 bound_to 10752
  140.7761  134.3133  157.5060 H   0  0  0  0  0  0  0  0  0  0  0  0  # atno 11005 bound_to 11000
  146.0384  140.8189  142.9841 LP  0  0  0  0  0  0  0  0  0  0  0  0  # atno 17320 bound_to 7965
  144.6856  140.2873  143.7283 LP  0  0  0  0  0  0  0  0  0  0  0  0  # atno 17321 bound_to 7965
  140.6917  143.2379  151.5114 LP  0  0  0  0  0  0  0  0  0  0  0  0  # atno 17342 bound_to 10162
  139.5611  144.2155  152.1692 LP  0  0  0  0  0  0  0  0  0  0  0  0  # atno 17343 bound_to 10162
  157.7452  131.0444  150.4790 LP  0  0  0  0  0  0  0  0  0  0  0  0  # atno 17370 bound_to 10713
  156.4976  130.4110  149.6371 LP  0  0  0  0  0  0  0  0  0  0  0  0  # atno 17371 bound_to 10713
  139.8749  134.9290  156.3466 LP  0  0  0  0  0  0  0  0  0  0  0  0  # atno 17394 bound_to 11000
  140.9527  133.7440  156.0294 LP  0  0  0  0  0  0  0  0  0  0  0  0  # atno 17395 bound_to 11000

$$$$
