#       Name:                AV-unprocessed.smi:1026
#       Creating user name   scv26
#       Creation time:       Fri Mar 27 02:44:24 2020


#       File generated by GOLD software.
#

@<TRIPOS>MOLECULE
AV-unprocessed.smi:1026
    43    44     1
SMALL
NO_CHARGES


@<TRIPOS>ATOM
      1 ****        -6.0532   3.6042  -1.0285 C.3            1 S1                 0.0000
      2 ****        -5.8454   2.4356  -0.0592 C.3            1 S1                 0.0000
      3 ****        -4.8962   1.4136  -0.5893 C.2            1 S1                 0.0000
      4 ****        -3.5729   1.4826  -0.4230 N.2            1 S1                 0.0000
      5 ****        -2.8953   0.4269  -1.0409 C.2            1 S1                 0.0000
      6 ****        -1.4020   0.3425  -0.9474 C.3            1 S1                 0.0000
      7 ****        -0.9333  -0.2162   0.4064 C.3            1 S1                 0.0000
      8 ****         0.5209  -0.2990   0.4764 N.am           1 S1                 0.0000
      9 ****         1.3382   0.7287   0.7627 C.2            1 S1                 0.0000
     10 ****         0.9360   1.8633   1.0128 O.2            1 S1                 0.0000
     11 ****         2.6495   0.4277   0.7601 N.am           1 S1                 0.0000
     12 ****         3.7902   1.3064   1.0280 C.3            1 S1                 0.0000
     13 ****         4.1890   2.0771  -0.2486 C.3            1 S1                 0.0000
     14 ****         5.3478   3.0554  -0.0068 C.3            1 S1                 0.0000
     15 ****         6.8512   2.1829   0.5104 S.3            1 S1                 0.0000
     16 ****         6.1761   1.3167   1.9531 C.3            1 S1                 0.0000
     17 ****         4.9592   0.4617   1.5702 C.3            1 S1                 0.0000
     18 ****        -3.7319  -0.4455  -1.6915 C.2            1 S1                 0.0000
     19 ****        -5.4021   0.0323  -1.5556 S.3            1 S1                 0.0000
     20 ****        -6.7476   4.3346  -0.6130 H              1 S1                 0.0000
     21 ****        -6.4609   3.2591  -1.9790 H              1 S1                 0.0000
     22 ****        -5.1129   4.1172  -1.2328 H              1 S1                 0.0000
     23 ****        -5.4683   2.8058   0.8949 H              1 S1                 0.0000
     24 ****        -6.7996   1.9509   0.1492 H              1 S1                 0.0000
     25 ****        -1.0146  -0.2844  -1.7513 H              1 S1                 0.0000
     26 ****        -0.9697   1.3311  -1.1069 H              1 S1                 0.0000
     27 ****        -1.3125   0.3957   1.2268 H              1 S1                 0.0000
     28 ****        -1.3375  -1.2179   0.5544 H              1 S1                 0.0000
     29 ****         0.9374  -1.1991   0.2884 H              1 S1                 0.0000
     30 ****         2.8819  -0.5349   0.5614 H              1 S1                 0.0000
     31 ****         3.5164   2.0223   1.8053 H              1 S1                 0.0000
     32 ****         4.4614   1.3755  -1.0383 H              1 S1                 0.0000
     33 ****         3.3328   2.6383  -0.6243 H              1 S1                 0.0000
     34 ****         5.5661   3.6133  -0.9174 H              1 S1                 0.0000
     35 ****         5.0777   3.7841   0.7579 H              1 S1                 0.0000
     36 ****         6.9584   0.6887   2.3799 H              1 S1                 0.0000
     37 ****         5.9040   2.0495   2.7136 H              1 S1                 0.0000
     38 ****         4.6291  -0.0913   2.4506 H              1 S1                 0.0000
     39 ****         5.2552  -0.2865   0.8335 H              1 S1                 0.0000
     40 ****        -3.4679  -1.3352  -2.2438 H              1 S1                 0.0000
     41 ****        -3.1159   2.2105   0.0881 LP             1 S1                 0.0000
     42 ****        -0.0448   2.0581   1.0096 LP             1 S1                 0.0000
     43 ****         1.5897   2.5913   1.2194 LP             1 S1                 0.0000
@<TRIPOS>BOND
    1    1    2 1     
    2    1   20 1     
    3    1   21 1     
    4    1   22 1     
    5    2    3 1     
    6    2   23 1     
    7    2   24 1     
    8    3   19 1     
    9    3    4 2     
   10    4    5 1     
   11    5    6 1     
   12    5   18 2     
   13    6    7 1     
   14    6   25 1     
   15    6   26 1     
   16    7    8 1     
   17    7   27 1     
   18    7   28 1     
   19    8    9 am    
   20    8   29 1     
   21    9   10 2     
   22    9   11 am    
   23   11   12 1     
   24   11   30 1     
   25   12   17 1     
   26   12   13 1     
   27   12   31 1     
   28   13   14 1     
   29   13   32 1     
   30   13   33 1     
   31   14   15 1     
   32   14   34 1     
   33   14   35 1     
   34   15   16 1     
   35   16   17 1     
   36   16   36 1     
   37   16   37 1     
   38   17   38 1     
   39   17   39 1     
   40   18   19 1     
   41   18   40 1     
   42    4   41 1     
   43   10   42 1     
   44   10   43 1     
@<TRIPOS>SUBSTRUCTURE
      1 S1             1
@<TRIPOS>SET
LONE_PAIRS      STATIC     ATOMS    <user>   **** ""
3 41 42 43
DONOR_HYDROGENS      STATIC     ATOMS    <user>   **** ""
2 29 30
ATOM$BLUE        STATIC     ATOMS    COLORGROUP SYSTEM
3 41 42 43
ATOM$RED        STATIC     ATOMS    COLORGROUP SYSTEM
2 29 30
