AV-unprocessed.smi:2908|AV-procd|sdf|11167|dock6
  -GOLD-   2272016 53D 1   1.00000     0.00000
 Structure written by MMmdl.
 43 44  0  0  0  0  0  0  0  0  1 V2000
  150.5859  137.5799  158.9149 O   0  0  0  0  0  0  0  0  0  0  0  0
  149.9067  138.2936  158.1753 C   0  0  0  0  0  0  0  0  0  0  0  0
  148.6247  138.0091  157.8943 N   0  0  0  0  0  0  0  0  0  0  0  0
  147.8950  136.8693  158.4325 C   0  0  0  0  0  0  0  0  0  0  0  0
  148.1437  136.7257  159.9404 C   0  0  0  0  0  0  0  0  0  0  0  0
  146.8557  136.5216  160.7162 C   0  0  0  0  0  0  0  0  0  0  0  0
  146.6210  135.3221  161.4218 C   0  0  0  0  0  0  0  0  0  0  0  0
  145.4147  135.1896  162.1364 C   0  0  0  0  0  0  0  0  0  0  0  0
  144.4949  136.2557  162.1187 C   0  0  0  0  0  0  0  0  0  0  0  0
  144.8232  137.4116  161.3831 C   0  0  0  0  0  0  0  0  0  0  0  0
  145.9766  137.5488  160.6941 N   0  0  0  0  0  0  0  0  0  0  0  0
  150.3926  139.4001  157.5578 N   0  0  0  0  0  0  0  0  0  0  0  0
  149.6103  140.3996  156.8141 C   0  0  0  0  0  0  0  0  0  0  0  0
  149.4938  141.6715  157.6719 C   0  0  0  0  0  0  0  0  0  0  0  0
  150.8842  142.2390  158.0591 C   0  0  0  0  0  0  0  0  0  0  0  0
  150.7513  143.4696  158.9976 C   0  0  2  0  0  0  0  0  0  0  0  0
  149.8458  144.3856  158.4092 O   0  0  0  0  0  0  0  0  0  0  0  0
  152.0617  144.2380  159.2891 C   0  0  0  0  0  0  0  0  0  0  0  0
  151.7860  145.3612  159.9538 F   0  0  0  0  0  0  0  0  0  0  0  0
  152.8693  143.5152  160.0644 F   0  0  0  0  0  0  0  0  0  0  0  0
  152.7017  144.5403  158.1593 F   0  0  0  0  0  0  0  0  0  0  0  0
  151.7686  141.1104  158.6453 C   0  0  0  0  0  0  0  0  0  0  0  0
  151.7725  139.8568  157.7511 C   0  0  0  0  0  0  0  0  0  0  0  0
  148.1241  138.6269  157.2723 H   0  0  0  0  0  0  0  0  0  0  0  0
  146.8282  136.9973  158.2413 H   0  0  0  0  0  0  0  0  0  0  0  0
  148.2106  135.9638  157.9117 H   0  0  0  0  0  0  0  0  0  0  0  0
  148.8090  135.8827  160.1324 H   0  0  0  0  0  0  0  0  0  0  0  0
  148.6539  137.6121  160.3200 H   0  0  0  0  0  0  0  0  0  0  0  0
  147.3476  134.5230  161.4195 H   0  0  0  0  0  0  0  0  0  0  0  0
  145.1999  134.2870  162.6893 H   0  0  0  0  0  0  0  0  0  0  0  0
  143.5605  136.1893  162.6561 H   0  0  0  0  0  0  0  0  0  0  0  0
  144.1418  138.2487  161.3478 H   0  0  0  0  0  0  0  0  0  0  0  0
  150.1190  140.6287  155.8766 H   0  0  0  0  0  0  0  0  0  0  0  0
  148.6164  140.0586  156.5247 H   0  0  0  0  0  0  0  0  0  0  0  0
  148.9177  142.4173  157.1234 H   0  0  0  0  0  0  0  0  0  0  0  0
  148.9230  141.4455  158.5738 H   0  0  0  0  0  0  0  0  0  0  0  0
  151.3652  142.5727  157.1383 H   0  0  0  0  0  0  0  0  0  0  0  0
  150.3183  143.1526  159.9472 H   0  0  0  0  0  0  0  0  0  0  0  0
  149.8736  144.2721  157.4713 H   0  0  0  0  0  0  0  0  0  0  0  0
  152.7970  141.4530  158.7538 H   0  0  0  0  0  0  0  0  0  0  0  0
  151.4176  140.8441  159.6433 H   0  0  0  0  0  0  0  0  0  0  0  0
  152.4120  139.0892  158.1895 H   0  0  0  0  0  0  0  0  0  0  0  0
  152.2166  140.0889  156.7821 H   0  0  0  0  0  0  0  0  0  0  0  0
  1  2  2  0  0  0  0
  2  3  1  0  0  0  0
  2 12  1  0  0  0  0
  3  4  1  0  0  0  0
  3 24  1  0  0  0  0
  4  5  1  0  0  0  0
  4 25  1  0  0  0  0
  4 26  1  0  0  0  0
  5  6  1  0  0  0  0
  5 27  1  0  0  0  0
  5 28  1  0  0  0  0
  6 11  1  0  0  0  0
  6  7  2  0  0  0  0
  7  8  1  0  0  0  0
  7 29  1  0  0  0  0
  8  9  2  0  0  0  0
  8 30  1  0  0  0  0
  9 10  1  0  0  0  0
  9 31  1  0  0  0  0
 10 11  2  0  0  0  0
 10 32  1  0  0  0  0
 12 23  1  0  0  0  0
 12 13  1  0  0  0  0
 13 14  1  0  0  0  0
 13 33  1  0  0  0  0
 13 34  1  0  0  0  0
 14 15  1  0  0  0  0
 14 35  1  0  0  0  0
 14 36  1  0  0  0  0
 15 16  1  0  0  0  0
 15 22  1  0  0  0  0
 15 37  1  0  0  0  0
 16 17  1  0  0  0  0
 16 18  1  0  0  0  0
 16 38  1  0  0  0  0
 17 39  1  0  0  0  0
 18 19  1  0  0  0  0
 18 20  1  0  0  0  0
 18 21  1  0  0  0  0
 22 23  1  0  0  0  0
 22 40  1  0  0  0  0
 22 41  1  0  0  0  0
 23 42  1  0  0  0  0
 23 43  1  0  0  0  0
M  END
> <s_m_source_file>
AV-unprocessed.smi

> <i_m_source_file_index>
2908

> <i_lp_mmshare_version>
43012

> <i_f3d_flags>
0

> <s_epik_input>
RkMoRikoRilbQ0BASF0oW09IXSlbQ0hdKFtDSDJdW0NIMl0xKVtDSDJdW0NIMl1OMUMoPU8pW05IXVtDSDJdW0NIMl1jMltjSF1bY0hdW2NIXVtjSF1uMg==

> <s_epik_cmdline>
J2VwaWtfcHl0aG9uJywgJy1waCcsICc3LjAnLCAnLXRuJywgJzgnLCAnLW1hJywgJzIwMCcsICctbWV0YWxfYmluZGluZycsICctaW1hZScsICc8aW5maWxlLm1hZT4nLCAnLW9tYWUnLCAnPG91dGZpbGUubWFlPic=

> <r_epik_Ionization_Penalty>
0.0451198

> <r_epik_Ionization_Penalty_Charging>
0

> <r_epik_Ionization_Penalty_Neutral>
0.0451198

> <r_epik_State_Penalty>
0.0381178

> <r_epik_Charging_Adjusted_Penalty>
0.0381178

> <i_epik_Tot_Q>
0

> <i_epik_Tot_abs_Q>
0

> <r_epik_Metal_State_Penalty>
0.0354176

> <b_epik_Metal_Only>
0

> <s_lp_Force_Field>
OPLS_2005

> <r_lp_Energy>
35.4637

> <b_lp_Chiralities_Consistent>
1

> <s_lp_Variant>
AV-unprocessed.smi:2908-1

> <Gold.Version>
5.8.1

> <Gold.Id.Protein>
6NUR|6NUR_protein|mol2

> <Gold.PLP.Fitness>
52.7780

> <Gold.PLP.PLP>
-47.9049

> <Gold.PLP.part.hbond>
-3.0000

> <Gold.PLP.part.metal>
0.0000

> <Gold.PLP.part.buried>
-6.0878

> <Gold.PLP.part.nonpolar>
-38.6816

> <Gold.PLP.part.repulsive>
0.1060

> <Gold.PLP.ligand.clash>
0.0000

> <Gold.PLP.ligand.torsion>
0.6604

> <Gold.PLP.Chemscore.Hbond>
1.9280

> <Gold.PLP.Chemscore.CHOScore>
0.0000

> <Gold.PLP.Chemscore.Metal>
0.0000

> <Gold.Chemscore.Hbonds>
donor molecule, donor type, donor heavy atom, donor atom, acceptor molecule, acceptor atom, score
      L1  H    17    39       P1  8028  0.76
      P1  H  6934  6947       L1    11  1.00

> <Gold.PLP.Chemscore.Internal.Correction>
0.4098

> <Gold.Rescore>
     Score         DG    S(hbond)    S(metal)    S(lipo)     H(rot)  DE(clash)    DE(int)     intcor
     12.18     -14.61       1.10        0.00      97.12       2.30       0.06       2.37       ----

> <Gold.Chemscore.Fitness>
12.1773

> <Gold.Chemscore.DG>
-14.6087

> <Gold.Chemscore.ZeroCoef>
-5.4800

> <Gold.Chemscore.Hbond>
1.0975

> <Gold.Chemscore.Metal>
0.0000

> <Gold.Chemscore.Lipo>
97.1233

> <Gold.Chemscore.Internal_Hbond>
0.0000

> <Gold.Chemscore.DEClash>
0.0595

> <Gold.Chemscore.DEInternal>
2.3718

> <Gold.Chemscore.Rot>
2.3048

> <Gold.Chemscore.Internal.Correction>
   9.000000E+99

> <Gold.Chemscore.Hbonds>
donor molecule, donor type, donor heavy atom, donor atom, acceptor molecule, acceptor atom, score
      L1  H    17    39       P1  8028  0.25
      P1  H  6934  6947       L1    11  0.30

> <Gold.Chemscore.Hbond.Weighted>
-3.6656

> <Gold.Chemscore.Metal.Weighted>
-0.0000

> <Gold.Chemscore.Lipo.Weighted>
-11.3634

> <Gold.Chemscore.Internal_Hbond.Weighted>
0.0000

> <Gold.Chemscore.DEClash.Weighted>
0.0595

> <Gold.Chemscore.DEInternal.Weighted>
2.3718

> <Gold.Chemscore.Rot.Weighted>
5.9004

> <Gold.Chemscore.Internal.Correction.Weighted>
   9.000000E+99

> <Gold.Protein.RotatedTorsions>
[ 6907 6896 6895 6894 ] final  103.02 input  -60.11 | X-H torsion
[ 7974 7965 7964 7962 ] final  -26.49 input  175.53 | X-H torsion
[ 8008 7997 7996 7995 ] final  -30.37 input   59.86 | X-H torsion
[ 10167 10162 10161 10158 ] final  -94.56 input  -65.29 | X-H torsion
[ 10718 10713 10712 10709 ] final  130.79 input   66.30 | X-H torsion
[ 10763 10752 10751 10750 ] final  -61.78 input  -60.55 | X-H torsion
[ 11005 11000 10999 10996 ] final   25.68 input  -57.11 | X-H torsion

> <Gold.Protein.ActiveResidues>
 VAL166  LYS551  ARG553  GLY616  TRP617  ASP618  TYR619  PRO620  LYS621  CYS622 
 ASP623  PHE694  ASN695  SER759  ASP760  ASP761  ALA762  ILE779  LEU786  VAL792 
 PHE793  MET794  SER795  GLU796  ALA797  LYS798  CYS799  TRP800  GLU811  SER814 

> <Gold.Protein.RotatedAtoms>
  152.5307  133.9888  159.7840 H   0  0  0  0  0  0  0  0  0  0  0  0  # atno 6907 bound_to 6896
  151.0128  133.5941  159.2687 H   0  0  0  0  0  0  0  0  0  0  0  0  # atno 6908 bound_to 6896
  151.3009  135.0775  159.9291 H   0  0  0  0  0  0  0  0  0  0  0  0  # atno 6909 bound_to 6896
  146.1422  140.5026  142.8647 H   0  0  0  0  0  0  0  0  0  0  0  0  # atno 7974 bound_to 7965
  154.4253  140.1793  156.1396 H   0  0  0  0  0  0  0  0  0  0  0  0  # atno 8008 bound_to 7997
  156.0002  140.3360  155.6813 H   0  0  0  0  0  0  0  0  0  0  0  0  # atno 8009 bound_to 7997
  155.6253  140.0664  157.2656 H   0  0  0  0  0  0  0  0  0  0  0  0  # atno 8010 bound_to 7997
  140.3132  143.3092  152.0126 H   0  0  0  0  0  0  0  0  0  0  0  0  # atno 10167 bound_to 10162
  157.5029  131.1094  150.9402 H   0  0  0  0  0  0  0  0  0  0  0  0  # atno 10718 bound_to 10713
  154.2898  135.6255  153.5380 H   0  0  0  0  0  0  0  0  0  0  0  0  # atno 10763 bound_to 10752
  152.9854  135.5653  154.5403 H   0  0  0  0  0  0  0  0  0  0  0  0  # atno 10764 bound_to 10752
  154.5011  135.2872  155.1396 H   0  0  0  0  0  0  0  0  0  0  0  0  # atno 10765 bound_to 10752
  140.3453  134.2289  155.7685 H   0  0  0  0  0  0  0  0  0  0  0  0  # atno 11005 bound_to 11000
  144.7805  140.5830  143.6609 LP  0  0  0  0  0  0  0  0  0  0  0  0  # atno 17320 bound_to 7965
  145.5021  139.1483  143.3651 LP  0  0  0  0  0  0  0  0  0  0  0  0  # atno 17321 bound_to 7965
  139.4889  144.6368  151.6958 LP  0  0  0  0  0  0  0  0  0  0  0  0  # atno 17342 bound_to 10162
  140.5550  144.0363  150.6143 LP  0  0  0  0  0  0  0  0  0  0  0  0  # atno 17343 bound_to 10162
  157.0067  130.5621  149.5316 LP  0  0  0  0  0  0  0  0  0  0  0  0  # atno 17370 bound_to 10713
  156.0240  130.5334  150.8355 LP  0  0  0  0  0  0  0  0  0  0  0  0  # atno 17371 bound_to 10713
  141.2027  133.7930  157.0375 LP  0  0  0  0  0  0  0  0  0  0  0  0  # atno 17394 bound_to 11000
  140.0748  134.9682  157.1527 LP  0  0  0  0  0  0  0  0  0  0  0  0  # atno 17395 bound_to 11000

$$$$
