AV-unprocessed.smi:3255|AV-procd|sdf|12464|dock6
  -GOLD-   2272018363D 1   1.00000     0.00000
 Structure written by MMmdl.
 38 39  0  0  0  0  0  0  0  0  1 V2000
  145.7829  133.7213  153.3343 C   0  0  0  0  0  0  0  0  0  0  0  0
  145.3540  134.7024  152.2293 C   0  0  1  0  0  0  0  0  0  0  0  0
  146.2484  135.8571  152.2199 N   0  0  0  0  0  0  0  0  0  0  0  0
  145.8673  137.1328  152.3735 C   0  0  0  0  0  0  0  0  0  0  0  0
  144.7057  137.4879  152.5746 O   0  0  0  0  0  0  0  0  0  0  0  0
  146.9038  137.9765  152.2766 N   0  0  0  0  0  0  0  0  0  0  0  0
  146.8101  139.4271  152.3889 C   0  0  0  0  0  0  0  0  0  0  0  0
  147.0841  139.9006  153.8257 C   0  0  0  0  0  0  0  0  0  0  0  0
  148.4849  139.7679  154.1694 N   0  0  0  0  0  0  0  0  0  0  0  0
  149.2486  138.6090  154.1337 C   0  0  0  0  0  0  0  0  0  0  0  0
  150.5166  138.9622  154.5369 C   0  0  0  0  0  0  0  0  0  0  0  0
  150.5555  140.3251  154.8225 N   0  0  0  0  0  0  0  0  0  0  0  0
  149.3164  140.7343  154.5816 C   0  0  0  0  0  0  0  0  0  0  0  0
  145.3621  134.0496  150.8340 C   0  0  1  0  0  0  0  0  0  0  0  0
  146.5664  133.1486  150.5535 C   0  0  0  0  0  0  0  0  0  0  0  0
  146.0487  132.1615  149.5184 C   0  0  0  0  0  0  0  0  0  0  0  0
  144.5297  132.3469  149.5502 C   0  0  0  0  0  0  0  0  0  0  0  0
  144.2798  133.1402  150.7013 O   0  0  0  0  0  0  0  0  0  0  0  0
  145.1090  132.8663  153.3897 H   0  0  0  0  0  0  0  0  0  0  0  0
  145.7752  134.2004  154.3140 H   0  0  0  0  0  0  0  0  0  0  0  0
  146.7895  133.3411  153.1581 H   0  0  0  0  0  0  0  0  0  0  0  0
  144.3385  135.0430  152.4405 H   0  0  0  0  0  0  0  0  0  0  0  0
  147.2265  135.6697  152.0551 H   0  0  0  0  0  0  0  0  0  0  0  0
  147.8208  137.5891  152.1080 H   0  0  0  0  0  0  0  0  0  0  0  0
  147.5022  139.9009  151.6904 H   0  0  0  0  0  0  0  0  0  0  0  0
  145.8072  139.7259  152.0828 H   0  0  0  0  0  0  0  0  0  0  0  0
  146.7930  140.9449  153.9474 H   0  0  0  0  0  0  0  0  0  0  0  0
  146.4992  139.3223  154.5422 H   0  0  0  0  0  0  0  0  0  0  0  0
  148.8379  137.6565  153.8321 H   0  0  0  0  0  0  0  0  0  0  0  0
  151.3970  138.3454  154.6413 H   0  0  0  0  0  0  0  0  0  0  0  0
  149.0069  141.7618  154.7061 H   0  0  0  0  0  0  0  0  0  0  0  0
  145.2789  134.8102  150.0549 H   0  0  0  0  0  0  0  0  0  0  0  0
  147.4366  133.7061  150.2060 H   0  0  0  0  0  0  0  0  0  0  0  0
  146.8526  132.6087  151.4572 H   0  0  0  0  0  0  0  0  0  0  0  0
  146.4429  132.3771  148.5248 H   0  0  0  0  0  0  0  0  0  0  0  0
  146.3347  131.1422  149.7800 H   0  0  0  0  0  0  0  0  0  0  0  0
  144.1906  132.8850  148.6638 H   0  0  0  0  0  0  0  0  0  0  0  0
  143.9918  131.3999  149.6006 H   0  0  0  0  0  0  0  0  0  0  0  0
  1  2  1  0  0  0  0
  1 19  1  0  0  0  0
  1 20  1  0  0  0  0
  1 21  1  0  0  0  0
  2  3  1  0  0  0  0
  2 14  1  0  0  0  0
  2 22  1  0  0  0  0
  3  4  1  0  0  0  0
  3 23  1  0  0  0  0
  4  5  2  0  0  0  0
  4  6  1  0  0  0  0
  6  7  1  0  0  0  0
  6 24  1  0  0  0  0
  7  8  1  0  0  0  0
  7 25  1  0  0  0  0
  7 26  1  0  0  0  0
  8  9  1  0  0  0  0
  8 27  1  0  0  0  0
  8 28  1  0  0  0  0
  9 13  1  0  0  0  0
  9 10  1  0  0  0  0
 10 11  2  0  0  0  0
 10 29  1  0  0  0  0
 11 12  1  0  0  0  0
 11 30  1  0  0  0  0
 12 13  2  0  0  0  0
 13 31  1  0  0  0  0
 14 18  1  0  0  0  0
 14 15  1  0  0  0  0
 14 32  1  0  0  0  0
 15 16  1  0  0  0  0
 15 33  1  0  0  0  0
 15 34  1  0  0  0  0
 16 17  1  0  0  0  0
 16 35  1  0  0  0  0
 16 36  1  0  0  0  0
 17 18  1  0  0  0  0
 17 37  1  0  0  0  0
 17 38  1  0  0  0  0
M  END
> <s_m_source_file>
AV-unprocessed.smi

> <i_m_source_file_index>
3255

> <i_lp_mmshare_version>
43012

> <i_f3d_flags>
0

> <s_epik_input>
TzFbQ0gyXVtDSDJdW0NIMl1bQ0BIXTFbQ0BIXShbQ0gzXSlbTkhdQyg9TylbTkhdW0NIMl1bQ0gyXW4yW2NIXVtjSF1uW2NIXTI=

> <s_epik_cmdline>
J2VwaWtfcHl0aG9uJywgJy1waCcsICc3LjAnLCAnLXRuJywgJzgnLCAnLW1hJywgJzIwMCcsICctbWV0YWxfYmluZGluZycsICctaW1hZScsICc8aW5maWxlLm1hZT4nLCAnLW9tYWUnLCAnPG91dGZpbGUubWFlPic=

> <r_lp_tautomer_probability>
1

> <r_epik_Ionization_Penalty>
0.620274

> <r_epik_Ionization_Penalty_Charging>
0.620225

> <r_epik_Ionization_Penalty_Neutral>
4.91362e-05

> <r_epik_State_Penalty>
0.636186

> <r_epik_Charging_Adjusted_Penalty>
1.25641

> <i_epik_Tot_Q>
0

> <i_epik_Tot_abs_Q>
0

> <r_epik_Metal_State_Penalty>
0.306491

> <b_epik_Metal_Only>
0

> <s_lp_Force_Field>
OPLS_2005

> <r_lp_Energy>
17.3194

> <b_lp_Chiralities_Consistent>
1

> <s_lp_Variant>
AV-unprocessed.smi:3255-8

> <Gold.Version>
5.8.1

> <Gold.Id.Protein>
6NUR|6NUR_protein|mol2

> <Gold.PLP.Fitness>
45.4339

> <Gold.PLP.PLP>
-34.3625

> <Gold.PLP.part.hbond>
-3.0000

> <Gold.PLP.part.metal>
0.0000

> <Gold.PLP.part.buried>
-3.0177

> <Gold.PLP.part.nonpolar>
-28.9438

> <Gold.PLP.part.repulsive>
0.7582

> <Gold.PLP.ligand.clash>
0.0000

> <Gold.PLP.ligand.torsion>
0.4908

> <Gold.PLP.Chemscore.Hbond>
3.0000

> <Gold.PLP.Chemscore.CHOScore>
1.0000

> <Gold.PLP.Chemscore.Metal>
0.0000

> <Gold.Chemscore.Hbonds>
donor molecule, donor type, donor heavy atom, donor atom, acceptor molecule, acceptor atom, score
      L1  H     3    23       P1  7948  1.00
      L1  H     6    24       P1  7948  1.00
      P1  H  7989  7998       L1    12  1.00
      L1  C    10    29       P1  7948  1.00

> <Gold.PLP.Chemscore.Internal.Correction>
0.0529

> <Gold.Rescore>
     Score         DG    S(hbond)    S(metal)    S(lipo)     H(rot)  DE(clash)    DE(int)     intcor
     14.27     -14.68       1.94        0.00      70.89       2.18       0.03       0.38       ----

> <Gold.Chemscore.Fitness>
14.2716

> <Gold.Chemscore.DG>
-14.6788

> <Gold.Chemscore.ZeroCoef>
-5.4800

> <Gold.Chemscore.Hbond>
1.9439

> <Gold.Chemscore.Metal>
0.0000

> <Gold.Chemscore.Lipo>
70.8905

> <Gold.Chemscore.Internal_Hbond>
0.0000

> <Gold.Chemscore.DEClash>
0.0302

> <Gold.Chemscore.DEInternal>
0.3770

> <Gold.Chemscore.Rot>
2.1828

> <Gold.Chemscore.Internal.Correction>
   9.000000E+99

> <Gold.Chemscore.Hbonds>
donor molecule, donor type, donor heavy atom, donor atom, acceptor molecule, acceptor atom, score
      L1  H     3    23       P1  7948  0.96
      L1  H     6    24       P1  7948  0.98
      P1  H  7989  7998       L1    12  0.18

> <Gold.Chemscore.Hbond.Weighted>
-6.4927

> <Gold.Chemscore.Metal.Weighted>
-0.0000

> <Gold.Chemscore.Lipo.Weighted>
-8.2942

> <Gold.Chemscore.Internal_Hbond.Weighted>
0.0000

> <Gold.Chemscore.DEClash.Weighted>
0.0302

> <Gold.Chemscore.DEInternal.Weighted>
0.3770

> <Gold.Chemscore.Rot.Weighted>
5.5881

> <Gold.Chemscore.Internal.Correction.Weighted>
   9.000000E+99

> <Gold.Protein.RotatedTorsions>
[ 6907 6896 6895 6894 ] final  -59.90 input  -60.11 | X-H torsion
[ 7974 7965 7964 7962 ] final -153.47 input  175.53 | X-H torsion
[ 8008 7997 7996 7995 ] final   48.75 input   59.86 | X-H torsion
[ 10167 10162 10161 10158 ] final -173.99 input  -65.29 | X-H torsion
[ 10718 10713 10712 10709 ] final   69.53 input   66.30 | X-H torsion
[ 10763 10752 10751 10750 ] final  -11.70 input  -60.55 | X-H torsion
[ 11005 11000 10999 10996 ] final  127.84 input  -57.11 | X-H torsion

> <Gold.Protein.ActiveResidues>
 VAL166  LYS551  ARG553  GLY616  TRP617  ASP618  TYR619  PRO620  LYS621  CYS622 
 ASP623  PHE694  ASN695  SER759  ASP760  ASP761  ALA762  ILE779  LEU786  VAL792 
 PHE793  MET794  SER795  GLU796  ALA797  LYS798  CYS799  TRP800  GLU811  SER814 

> <Gold.Protein.RotatedAtoms>
  150.7896  134.6908  159.6495 H   0  0  0  0  0  0  0  0  0  0  0  0  # atno 6907 bound_to 6896
  152.3999  134.6301  160.0083 H   0  0  0  0  0  0  0  0  0  0  0  0  # atno 6908 bound_to 6896
  151.6575  133.3281  159.3202 H   0  0  0  0  0  0  0  0  0  0  0  0  # atno 6909 bound_to 6896
  144.7739  140.4522  143.5887 H   0  0  0  0  0  0  0  0  0  0  0  0  # atno 7974 bound_to 7965
  155.3909  140.3433  155.4251 H   0  0  0  0  0  0  0  0  0  0  0  0  # atno 8008 bound_to 7997
  156.1558  140.1585  156.8727 H   0  0  0  0  0  0  0  0  0  0  0  0  # atno 8009 bound_to 7997
  154.5094  140.0794  156.7940 H   0  0  0  0  0  0  0  0  0  0  0  0  # atno 8010 bound_to 7997
  139.5658  144.1759  152.1310 H   0  0  0  0  0  0  0  0  0  0  0  0  # atno 10167 bound_to 10162
  157.6351  130.9431  150.0527 H   0  0  0  0  0  0  0  0  0  0  0  0  # atno 10718 bound_to 10713
  153.4875  135.7017  153.5903 H   0  0  0  0  0  0  0  0  0  0  0  0  # atno 10763 bound_to 10752
  153.4089  135.3853  155.2037 H   0  0  0  0  0  0  0  0  0  0  0  0  # atno 10764 bound_to 10752
  154.8718  135.3900  154.4332 H   0  0  0  0  0  0  0  0  0  0  0  0  # atno 10765 bound_to 10752
  139.9529  134.9618  156.8914 H   0  0  0  0  0  0  0  0  0  0  0  0  # atno 11005 bound_to 11000
  145.6242  139.1528  143.3005 LP  0  0  0  0  0  0  0  0  0  0  0  0  # atno 17320 bound_to 7965
  146.1905  140.6350  142.9147 LP  0  0  0  0  0  0  0  0  0  0  0  0  # atno 17321 bound_to 7965
  140.1281  144.5313  150.6820 LP  0  0  0  0  0  0  0  0  0  0  0  0  # atno 17342 bound_to 10162
  140.6941  143.2393  151.5048 LP  0  0  0  0  0  0  0  0  0  0  0  0  # atno 17343 bound_to 10162
  156.1584  130.3643  149.9335 LP  0  0  0  0  0  0  0  0  0  0  0  0  # atno 17370 bound_to 10713
  156.7339  130.9054  151.3627 LP  0  0  0  0  0  0  0  0  0  0  0  0  # atno 17371 bound_to 10713
  140.5677  134.0473  155.7420 LP  0  0  0  0  0  0  0  0  0  0  0  0  # atno 17394 bound_to 11000
  141.1195  133.9485  157.2757 LP  0  0  0  0  0  0  0  0  0  0  0  0  # atno 17395 bound_to 11000

$$$$
