#       Name:                AV-unprocessed.smi:3006
#       Creating user name   scv26
#       Creation time:       Fri Mar 27 16:37:37 2020


#       File generated by GOLD software.
#

@<TRIPOS>MOLECULE
AV-unprocessed.smi:3006
    48    49     1
SMALL
NO_CHARGES


@<TRIPOS>ATOM
      1 ****        -7.2946   0.5525   3.3995 C.3            1 S1                 0.0000
      2 ****        -6.2008   1.3469   2.7721 C.2            1 S1                 0.0000
      3 ****        -4.9210   0.9651   2.7631 N.2            1 S1                 0.0000
      4 ****        -4.0912   1.8790   2.1058 C.2            1 S1                 0.0000
      5 ****        -2.6222   1.6069   1.9902 C.3            1 S1                 0.0000
      6 ****        -2.3127   0.5461   0.9215 C.3            1 S1                 0.0000
      7 ****        -0.8808   0.2886   0.8204 N.am           1 S1                 0.0000
      8 ****        -0.0128   1.0144   0.0955 C.2            1 S1                 0.0000
      9 ****        -0.3639   2.0016  -0.5516 O.2            1 S1                 0.0000
     10 ****         1.2753   0.5938   0.1630 N.am           1 S1                 0.0000
     11 ****         1.7498  -0.6899   0.6901 C.3            1 S1                 0.0000
     12 ****         2.1476  -1.5978  -0.4882 C.3            1 S1                 0.0000
     13 ****         3.1508  -0.9575  -1.3939 N.4            1 S1                 1.0000
     14 ****         3.5086  -1.8084  -2.5751 C.3            1 S1                 0.0000
     15 ****         3.9940  -3.2133  -2.1618 C.3            1 S1                 0.0000
     16 ****         4.5871  -1.1589  -3.4678 C.3            1 S1                 0.0000
     17 ****         2.7682   0.4392  -1.7648 C.3            1 S1                 0.0000
     18 ****         2.3570   1.2792  -0.5425 C.3            1 S1                 0.0000
     19 ****        -4.7669   2.9698   1.6180 C.2            1 S1                 0.0000
     20 ****        -6.4724   2.8859   1.9640 S.3            1 S1                 0.0000
     21 ****        -6.8936  -0.3370   3.8866 H              1 S1                 0.0000
     22 ****        -8.0113   0.2415   2.6396 H              1 S1                 0.0000
     23 ****        -7.8125   1.1557   4.1452 H              1 S1                 0.0000
     24 ****        -2.0949   2.5317   1.7524 H              1 S1                 0.0000
     25 ****        -2.2294   1.2796   2.9538 H              1 S1                 0.0000
     26 ****        -2.8064  -0.3926   1.1747 H              1 S1                 0.0000
     27 ****        -2.7105   0.8524  -0.0477 H              1 S1                 0.0000
     28 ****        -0.5230  -0.4980   1.3426 H              1 S1                 0.0000
     29 ****         2.6148  -0.5147   1.3317 H              1 S1                 0.0000
     30 ****         1.0246  -1.2028   1.3219 H              1 S1                 0.0000
     31 ****         2.5455  -2.5209  -0.0695 H              1 S1                 0.0000
     32 ****         1.2590  -1.8628  -1.0637 H              1 S1                 0.0000
     33 ****         2.6097  -1.9332  -3.1810 H              1 S1                 0.0000
     34 ****         4.3514  -3.7748  -3.0257 H              1 S1                 0.0000
     35 ****         3.1981  -3.8138  -1.7222 H              1 S1                 0.0000
     36 ****         4.8146  -3.1561  -1.4459 H              1 S1                 0.0000
     37 ****         4.9087  -1.8425  -4.2540 H              1 S1                 0.0000
     38 ****         5.4706  -0.8846  -2.8904 H              1 S1                 0.0000
     39 ****         4.2208  -0.2676  -3.9768 H              1 S1                 0.0000
     40 ****         3.6004   0.9497  -2.2472 H              1 S1                 0.0000
     41 ****         1.9479   0.4091  -2.4842 H              1 S1                 0.0000
     42 ****         2.0822   2.2871  -0.8573 H              1 S1                 0.0000
     43 ****         3.2070   1.4048   0.1301 H              1 S1                 0.0000
     44 ****        -4.3663   3.8136   1.0757 H              1 S1                 0.0000
     45 ****         3.9942  -0.8690  -0.8452 H              1 S1                 0.0000
     46 ****        -4.5920   0.1182   3.1808 LP             1 S1                 0.0000
     47 ****        -1.3225   2.2864  -0.5486 LP             1 S1                 0.0000
     48 ****         0.3096   2.5185  -1.0801 LP             1 S1                 0.0000
@<TRIPOS>BOND
    1    1    2 1     
    2    1   21 1     
    3    1   22 1     
    4    1   23 1     
    5    2   20 1     
    6    2    3 2     
    7    3    4 1     
    8    4    5 1     
    9    4   19 2     
   10    5    6 1     
   11    5   24 1     
   12    5   25 1     
   13    6    7 1     
   14    6   26 1     
   15    6   27 1     
   16    7    8 am    
   17    7   28 1     
   18    8    9 2     
   19    8   10 am    
   20   10   18 1     
   21   10   11 1     
   22   11   12 1     
   23   11   29 1     
   24   11   30 1     
   25   12   13 1     
   26   12   31 1     
   27   12   32 1     
   28   13   14 1     
   29   13   17 1     
   30   13   45 1     
   31   14   15 1     
   32   14   16 1     
   33   14   33 1     
   34   15   34 1     
   35   15   35 1     
   36   15   36 1     
   37   16   37 1     
   38   16   38 1     
   39   16   39 1     
   40   17   18 1     
   41   17   40 1     
   42   17   41 1     
   43   18   42 1     
   44   18   43 1     
   45   19   20 1     
   46   19   44 1     
   47    3   46 1     
   48    9   47 1     
   49    9   48 1     
@<TRIPOS>SUBSTRUCTURE
      1 S1             1
@<TRIPOS>SET
LONE_PAIRS      STATIC     ATOMS    <user>   **** ""
3 46 47 48
DONOR_HYDROGENS      STATIC     ATOMS    <user>   **** ""
2 28 45
ATOM$BLUE        STATIC     ATOMS    COLORGROUP SYSTEM
3 46 47 48
ATOM$RED        STATIC     ATOMS    COLORGROUP SYSTEM
2 28 45
