AV-unprocessed.smi:2279|AV-procd|sdf|9189|dock3
  -GOLD-   2272012403D 1   1.00000     0.00000
 Structure written by MMmdl.
 57 59  0  0  0  0  0  0  0  0  2 V2000
  152.2391  144.8529  158.5539 C   0  0  0  0  0  0  0  0  0  0  0  0
  152.0400  143.3750  158.2910 C   0  0  0  0  0  0  0  0  0  0  0  0
  152.7106  142.4067  159.0624 C   0  0  0  0  0  0  0  0  0  0  0  0
  152.4825  141.0482  158.7681 C   0  0  0  0  0  0  0  0  0  0  0  0
  153.1677  139.9543  159.5596 C   0  0  0  0  0  0  0  0  0  0  0  0
  151.6537  140.6363  157.7851 N   0  0  0  0  0  0  0  0  0  0  0  0
  151.0024  141.5600  157.0357 C   0  0  0  0  0  0  0  0  0  0  0  0
  150.1121  141.2308  155.9788 N   0  0  0  0  0  0  0  0  0  0  0  0
  149.2038  140.2399  155.9372 C   0  0  0  0  0  0  0  0  0  0  0  0
  148.9843  139.4343  156.8424 O   0  0  0  0  0  0  0  0  0  0  0  0
  148.5484  140.2278  154.7668 N   0  0  0  0  0  0  0  0  0  0  0  0
  147.4956  139.2825  154.4059 C   0  0  2  0  0  0  0  0  0  0  0  0
  147.8542  137.8573  154.8538 C   0  0  0  0  0  0  0  0  0  0  0  0
  146.7839  136.8521  154.4003 C   0  0  0  0  0  0  0  0  0  0  0  0
  146.5876  136.8727  152.9216 N   0  3  1  0  0  0  0  0  0  0  0  0
  145.6601  135.7884  152.4572 C   0  0  0  0  0  0  0  0  0  0  0  0
  146.1964  134.3914  152.8486 C   0  0  0  0  0  0  0  0  0  0  0  0
  145.2916  133.2596  152.3311 C   0  0  0  0  0  0  0  0  0  0  0  0
  145.1835  133.3304  150.8763 N   0  0  0  0  0  0  0  0  0  0  0  0
  144.3806  132.2146  150.3957 C   0  0  0  0  0  0  0  0  0  0  0  0
  144.5436  134.5864  150.4943 C   0  0  0  0  0  0  0  0  0  0  0  0
  145.4150  135.7775  150.9283 C   0  0  0  0  0  0  0  0  0  0  0  0
  146.2345  138.2476  152.4592 C   0  0  0  0  0  0  0  0  0  0  0  0
  147.2848  139.2873  152.8870 C   0  0  0  0  0  0  0  0  0  0  0  0
  151.1751  142.9435  157.2650 C   0  0  0  0  0  0  0  0  0  0  0  0
  152.9608  145.0202  159.3540 H   0  0  0  0  0  0  0  0  0  0  0  0
  151.2952  145.3149  158.8437 H   0  0  0  0  0  0  0  0  0  0  0  0
  152.6048  145.3507  157.6554 H   0  0  0  0  0  0  0  0  0  0  0  0
  153.3811  142.6967  159.8582 H   0  0  0  0  0  0  0  0  0  0  0  0
  153.9202  140.3660  160.2327 H   0  0  0  0  0  0  0  0  0  0  0  0
  153.6610  139.2499  158.8892 H   0  0  0  0  0  0  0  0  0  0  0  0
  152.4374  139.4075  160.1566 H   0  0  0  0  0  0  0  0  0  0  0  0
  150.1774  141.8169  155.1600 H   0  0  0  0  0  0  0  0  0  0  0  0
  148.7911  140.9260  154.0790 H   0  0  0  0  0  0  0  0  0  0  0  0
  146.5626  139.5866  154.8850 H   0  0  0  0  0  0  0  0  0  0  0  0
  148.8237  137.5688  154.4449 H   0  0  0  0  0  0  0  0  0  0  0  0
  147.9528  137.8169  155.9394 H   0  0  0  0  0  0  0  0  0  0  0  0
  147.0896  135.8653  154.7416 H   0  0  0  0  0  0  0  0  0  0  0  0
  145.8364  137.0722  154.8950 H   0  0  0  0  0  0  0  0  0  0  0  0
  144.6932  135.9433  152.9398 H   0  0  0  0  0  0  0  0  0  0  0  0
  147.2044  134.2579  152.4531 H   0  0  0  0  0  0  0  0  0  0  0  0
  146.2755  134.2831  153.9287 H   0  0  0  0  0  0  0  0  0  0  0  0
  145.7172  132.2967  152.6170 H   0  0  0  0  0  0  0  0  0  0  0  0
  144.3034  133.3212  152.7897 H   0  0  0  0  0  0  0  0  0  0  0  0
  144.3000  132.2428  149.3084 H   0  0  0  0  0  0  0  0  0  0  0  0
  143.3733  132.2371  150.8138 H   0  0  0  0  0  0  0  0  0  0  0  0
  144.8426  131.2649  150.6680 H   0  0  0  0  0  0  0  0  0  0  0  0
  144.4086  134.6117  149.4122 H   0  0  0  0  0  0  0  0  0  0  0  0
  143.5510  134.6580  150.9424 H   0  0  0  0  0  0  0  0  0  0  0  0
  144.9039  136.6868  150.6121 H   0  0  0  0  0  0  0  0  0  0  0  0
  146.3659  135.7436  150.3940 H   0  0  0  0  0  0  0  0  0  0  0  0
  146.1802  138.2912  151.3725 H   0  0  0  0  0  0  0  0  0  0  0  0
  145.2511  138.5215  152.8449 H   0  0  0  0  0  0  0  0  0  0  0  0
  146.9735  140.2793  152.5571 H   0  0  0  0  0  0  0  0  0  0  0  0
  148.2280  139.0763  152.3804 H   0  0  0  0  0  0  0  0  0  0  0  0
  150.6503  143.6702  156.6618 H   0  0  0  0  0  0  0  0  0  0  0  0
  147.4848  136.6675  152.5056 H   0  0  0  0  0  0  0  0  0  0  0  0
  1  2  1  0  0  0  0
  1 26  1  0  0  0  0
  1 27  1  0  0  0  0
  1 28  1  0  0  0  0
  2 25  1  0  0  0  0
  2  3  2  0  0  0  0
  3  4  1  0  0  0  0
  3 29  1  0  0  0  0
  4  5  1  0  0  0  0
  4  6  2  0  0  0  0
  5 30  1  0  0  0  0
  5 31  1  0  0  0  0
  5 32  1  0  0  0  0
  6  7  1  0  0  0  0
  7  8  1  0  0  0  0
  7 25  2  0  0  0  0
  8  9  1  0  0  0  0
  8 33  1  0  0  0  0
  9 10  2  0  0  0  0
  9 11  1  0  0  0  0
 11 12  1  0  0  0  0
 11 34  1  0  0  0  0
 12 24  1  0  0  0  0
 12 13  1  0  0  0  0
 12 35  1  0  0  0  0
 13 14  1  0  0  0  0
 13 36  1  0  0  0  0
 13 37  1  0  0  0  0
 14 15  1  0  0  0  0
 14 38  1  0  0  0  0
 14 39  1  0  0  0  0
 15 16  1  0  0  0  0
 15 23  1  0  0  0  0
 15 57  1  0  0  0  0
 16 22  1  0  0  0  0
 16 17  1  0  0  0  0
 16 40  1  0  0  0  0
 17 18  1  0  0  0  0
 17 41  1  0  0  0  0
 17 42  1  0  0  0  0
 18 19  1  0  0  0  0
 18 43  1  0  0  0  0
 18 44  1  0  0  0  0
 19 20  1  0  0  0  0
 19 21  1  0  0  0  0
 20 45  1  0  0  0  0
 20 46  1  0  0  0  0
 20 47  1  0  0  0  0
 21 22  1  0  0  0  0
 21 48  1  0  0  0  0
 21 49  1  0  0  0  0
 22 50  1  0  0  0  0
 22 51  1  0  0  0  0
 23 24  1  0  0  0  0
 23 52  1  0  0  0  0
 23 53  1  0  0  0  0
 24 54  1  0  0  0  0
 24 55  1  0  0  0  0
 25 56  1  0  0  0  0
M  CHG  1  15   1
M  END
> <s_m_source_file>
AV-unprocessed.smi

> <i_m_source_file_index>
2279

> <i_lp_mmshare_version>
43012

> <i_f3d_flags>
0

> <s_epik_input>
W0NIM11jMVtjSF1jKFtDSDNdKW5jKFtjSF0xKVtOSF1DKD1PKVtOSF1bQ0hdMltDSDJdW0NIMl1OKFtDSDJdW0NIMl0yKVtDSF0zW0NIMl1bQ0gyXU4oW0NIM10pW0NIMl1bQ0gyXTM=

> <s_epik_cmdline>
J2VwaWtfcHl0aG9uJywgJy1waCcsICc3LjAnLCAnLXRuJywgJzgnLCAnLW1hJywgJzIwMCcsICctbWV0YWxfYmluZGluZycsICctaW1hZScsICc8aW5maWxlLm1hZT4nLCAnLW9tYWUnLCAnPG91dGZpbGUubWFlPic=

> <r_epik_Ionization_Penalty>
1.37263

> <r_epik_Ionization_Penalty_Charging>
0.00081195

> <r_epik_Ionization_Penalty_Neutral>
1.37182

> <r_epik_State_Penalty>
1.55149

> <r_epik_Charging_Adjusted_Penalty>
1.5523

> <i_epik_Tot_Q>
1

> <i_epik_Tot_abs_Q>
1

> <r_epik_Metal_State_Penalty>
1.5515

> <b_epik_Metal_Only>
0

> <s_lp_Force_Field>
OPLS_2005

> <r_lp_Energy>
32.7052

> <b_lp_Chiralities_Consistent>
1

> <s_lp_Variant>
AV-unprocessed.smi:2279-7

> <Gold.Version>
5.8.1

> <Gold.Id.Protein>
6NUR|6NUR_protein|mol2

> <Gold.PLP.Fitness>
46.5242

> <Gold.PLP.PLP>
-41.6360

> <Gold.PLP.part.hbond>
-1.0000

> <Gold.PLP.part.metal>
0.0000

> <Gold.PLP.part.buried>
-5.5387

> <Gold.PLP.part.nonpolar>
-36.9538

> <Gold.PLP.part.repulsive>
0.3125

> <Gold.PLP.ligand.clash>
0.0000

> <Gold.PLP.ligand.torsion>
0.5743

> <Gold.PLP.Chemscore.Hbond>
2.0000

> <Gold.PLP.Chemscore.CHOScore>
0.0000

> <Gold.PLP.Chemscore.Metal>
0.0000

> <Gold.Chemscore.Hbonds>
donor molecule, donor type, donor heavy atom, donor atom, acceptor molecule, acceptor atom, score
      L1  H    15    57       P1  7948  2.00

> <Gold.PLP.Chemscore.Internal.Correction>
0.0368

> <Gold.Rescore>
     Score         DG    S(hbond)    S(metal)    S(lipo)     H(rot)  DE(clash)    DE(int)     intcor
     16.79     -19.50       1.00        0.00     117.38       1.19       0.09       2.62       ----

> <Gold.Chemscore.Fitness>
16.7914

> <Gold.Chemscore.DG>
-19.5032

> <Gold.Chemscore.ZeroCoef>
-5.4800

> <Gold.Chemscore.Hbond>
1.0000

> <Gold.Chemscore.Metal>
0.0000

> <Gold.Chemscore.Lipo>
117.3753

> <Gold.Chemscore.Internal_Hbond>
0.0000

> <Gold.Chemscore.DEClash>
0.0917

> <Gold.Chemscore.DEInternal>
2.6201

> <Gold.Chemscore.Rot>
1.1913

> <Gold.Chemscore.Internal.Correction>
   9.000000E+99

> <Gold.Chemscore.Hbonds>
donor molecule, donor type, donor heavy atom, donor atom, acceptor molecule, acceptor atom, score
      L1  H    15    57       P1  7948  1.00

> <Gold.Chemscore.Hbond.Weighted>
-3.3400

> <Gold.Chemscore.Metal.Weighted>
-0.0000

> <Gold.Chemscore.Lipo.Weighted>
-13.7329

> <Gold.Chemscore.Internal_Hbond.Weighted>
0.0000

> <Gold.Chemscore.DEClash.Weighted>
0.0917

> <Gold.Chemscore.DEInternal.Weighted>
2.6201

> <Gold.Chemscore.Rot.Weighted>
3.0497

> <Gold.Chemscore.Internal.Correction.Weighted>
   9.000000E+99

> <Gold.Protein.RotatedTorsions>
[ 6907 6896 6895 6894 ] final -124.53 input  -60.11 | X-H torsion
[ 7974 7965 7964 7962 ] final  -27.67 input  175.53 | X-H torsion
[ 8008 7997 7996 7995 ] final  -53.83 input   59.86 | X-H torsion
[ 10167 10162 10161 10158 ] final  155.25 input  -65.29 | X-H torsion
[ 10718 10713 10712 10709 ] final  134.46 input   66.30 | X-H torsion
[ 10763 10752 10751 10750 ] final   29.41 input  -60.55 | X-H torsion
[ 11005 11000 10999 10996 ] final  125.84 input  -57.11 | X-H torsion

> <Gold.Protein.ActiveResidues>
 VAL166  LYS551  ARG553  GLY616  TRP617  ASP618  TYR619  PRO620  LYS621  CYS622 
 ASP623  PHE694  ASN695  SER759  ASP760  ASP761  ALA762  ILE779  LEU786  VAL792 
 PHE793  MET794  SER795  GLU796  ALA797  LYS798  CYS799  TRP800  GLU811  SER814 

> <Gold.Protein.RotatedAtoms>
  150.8777  133.7415  159.2941 H   0  0  0  0  0  0  0  0  0  0  0  0  # atno 6907 bound_to 6896
  151.5007  135.1060  159.9837 H   0  0  0  0  0  0  0  0  0  0  0  0  # atno 6908 bound_to 6896
  152.4739  133.8047  159.7027 H   0  0  0  0  0  0  0  0  0  0  0  0  # atno 6909 bound_to 6896
  146.1342  140.5182  142.8680 H   0  0  0  0  0  0  0  0  0  0  0  0  # atno 7974 bound_to 7965
  154.4145  140.1190  156.5218 H   0  0  0  0  0  0  0  0  0  0  0  0  # atno 8008 bound_to 7997
  155.6695  140.3496  155.4793 H   0  0  0  0  0  0  0  0  0  0  0  0  # atno 8009 bound_to 7997
  155.9645  140.1129  157.0856 H   0  0  0  0  0  0  0  0  0  0  0  0  # atno 8010 bound_to 7997
  139.4821  144.5115  151.8017 H   0  0  0  0  0  0  0  0  0  0  0  0  # atno 10167 bound_to 10162
  157.4670  131.1077  150.9850 H   0  0  0  0  0  0  0  0  0  0  0  0  # atno 10718 bound_to 10713
  153.0432  135.6489  154.0886 H   0  0  0  0  0  0  0  0  0  0  0  0  # atno 10763 bound_to 10752
  154.0589  135.2889  155.3329 H   0  0  0  0  0  0  0  0  0  0  0  0  # atno 10764 bound_to 10752
  154.6671  135.5370  153.8156 H   0  0  0  0  0  0  0  0  0  0  0  0  # atno 10765 bound_to 10752
  139.9426  134.9633  156.8618 H   0  0  0  0  0  0  0  0  0  0  0  0  # atno 11005 bound_to 11000
  144.7722  140.5662  143.6662 LP  0  0  0  0  0  0  0  0  0  0  0  0  # atno 17320 bound_to 7965
  145.5194  139.1477  143.3561 LP  0  0  0  0  0  0  0  0  0  0  0  0  # atno 17321 bound_to 7965
  140.4618  144.1711  150.5907 LP  0  0  0  0  0  0  0  0  0  0  0  0  # atno 17342 bound_to 10162
  140.4476  143.2500  151.9390 LP  0  0  0  0  0  0  0  0  0  0  0  0  # atno 17343 bound_to 10162
  157.0628  130.5832  149.5388 LP  0  0  0  0  0  0  0  0  0  0  0  0  # atno 17370 bound_to 10713
  156.0055  130.5141  150.7814 LP  0  0  0  0  0  0  0  0  0  0  0  0  # atno 17371 bound_to 10713
  140.5913  134.0259  155.7501 LP  0  0  0  0  0  0  0  0  0  0  0  0  # atno 17394 bound_to 11000
  141.1066  133.9683  157.2985 LP  0  0  0  0  0  0  0  0  0  0  0  0  # atno 17395 bound_to 11000

$$$$
