AV-unprocessed.smi:760|AV-procd|sdf|3627|dock9
  -GOLD-   22720 1 23D 1   1.00000     0.00000
 Structure written by MMmdl.
 44 45  0  0  0  0  0  0  0  0  2 V2000
  142.3883  137.7341  153.2693 C   0  0  0  0  0  0  0  0  0  0  0  0
  143.3537  136.8212  153.0721 C   0  0  0  0  0  0  0  0  0  0  0  0
  143.2046  135.3830  153.5361 C   0  0  0  0  0  0  0  0  0  0  0  0
  144.6428  137.1664  152.3419 C   0  0  0  0  0  0  0  0  0  0  0  0
  145.4291  138.2291  153.0223 N   0  3  2  0  0  0  0  0  0  0  0  0
  146.6053  138.6375  152.2108 C   0  0  0  0  0  0  0  0  0  0  0  0
  147.3353  139.8357  152.8389 C   0  0  0  0  0  0  0  0  0  0  0  0
  147.7695  139.5242  154.2786 C   0  0  1  0  0  0  0  0  0  0  0  0
  148.3917  140.7026  154.8751 N   0  0  0  0  0  0  0  0  0  0  0  0
  149.2300  140.6866  155.9215 C   0  0  0  0  0  0  0  0  0  0  0  0
  149.5726  139.6568  156.5024 O   0  0  0  0  0  0  0  0  0  0  0  0
  149.6307  141.9267  156.2443 N   0  0  0  0  0  0  0  0  0  0  0  0
  150.5164  142.2979  157.2866 C   0  0  0  0  0  0  0  0  0  0  0  0
  151.3085  141.4732  158.1351 C   0  0  0  0  0  0  0  0  0  0  0  0
  152.0105  142.2047  158.9877 N   0  0  0  0  0  0  0  0  0  0  0  0
  151.6832  143.4885  158.7033 N   0  0  0  0  0  0  0  0  0  0  0  0
  152.2875  144.5599  159.4659 C   0  0  0  0  0  0  0  0  0  0  0  0
  150.7749  143.5802  157.6677 C   0  0  0  0  0  0  0  0  0  0  0  0
  146.5429  139.0797  155.0944 C   0  0  0  0  0  0  0  0  0  0  0  0
  145.8147  137.9034  154.4220 C   0  0  0  0  0  0  0  0  0  0  0  0
  141.4697  137.4799  153.7784 H   0  0  0  0  0  0  0  0  0  0  0  0
  142.5013  138.7515  152.9238 H   0  0  0  0  0  0  0  0  0  0  0  0
  143.1789  134.7153  152.6746 H   0  0  0  0  0  0  0  0  0  0  0  0
  142.2803  135.2415  154.0972 H   0  0  0  0  0  0  0  0  0  0  0  0
  144.0336  135.0774  154.1726 H   0  0  0  0  0  0  0  0  0  0  0  0
  145.2507  136.2711  152.2022 H   0  0  0  0  0  0  0  0  0  0  0  0
  144.3702  137.5127  151.3437 H   0  0  0  0  0  0  0  0  0  0  0  0
  147.2891  137.7930  152.1097 H   0  0  0  0  0  0  0  0  0  0  0  0
  146.2834  138.9054  151.2037 H   0  0  0  0  0  0  0  0  0  0  0  0
  148.2050  140.0948  152.2334 H   0  0  0  0  0  0  0  0  0  0  0  0
  146.6786  140.7071  152.8268 H   0  0  0  0  0  0  0  0  0  0  0  0
  148.4965  138.7098  154.2501 H   0  0  0  0  0  0  0  0  0  0  0  0
  148.1682  141.5958  154.4612 H   0  0  0  0  0  0  0  0  0  0  0  0
  149.2628  142.6854  155.6891 H   0  0  0  0  0  0  0  0  0  0  0  0
  151.4042  140.3982  158.1674 H   0  0  0  0  0  0  0  0  0  0  0  0
  151.7905  145.5044  159.2422 H   0  0  0  0  0  0  0  0  0  0  0  0
  153.3435  144.6440  159.2078 H   0  0  0  0  0  0  0  0  0  0  0  0
  152.1941  144.3555  160.5330 H   0  0  0  0  0  0  0  0  0  0  0  0
  150.4020  144.5260  157.3027 H   0  0  0  0  0  0  0  0  0  0  0  0
  146.8435  138.7933  156.1029 H   0  0  0  0  0  0  0  0  0  0  0  0
  145.8503  139.9153  155.2063 H   0  0  0  0  0  0  0  0  0  0  0  0
  144.9287  137.6776  155.0131 H   0  0  0  0  0  0  0  0  0  0  0  0
  146.4446  137.0124  154.4312 H   0  0  0  0  0  0  0  0  0  0  0  0
  144.8253  139.0373  153.0721 H   0  0  0  0  0  0  0  0  0  0  0  0
  1  2  2  0  0  0  0
  1 21  1  0  0  0  0
  1 22  1  0  0  0  0
  2  3  1  0  0  0  0
  2  4  1  0  0  0  0
  3 23  1  0  0  0  0
  3 24  1  0  0  0  0
  3 25  1  0  0  0  0
  4  5  1  0  0  0  0
  4 26  1  0  0  0  0
  4 27  1  0  0  0  0
  5 20  1  0  0  0  0
  5  6  1  0  0  0  0
  5 44  1  0  0  0  0
  6  7  1  0  0  0  0
  6 28  1  0  0  0  0
  6 29  1  0  0  0  0
  7  8  1  0  0  0  0
  7 30  1  0  0  0  0
  7 31  1  0  0  0  0
  8  9  1  0  0  0  0
  8 19  1  0  0  0  0
  8 32  1  0  0  0  0
  9 10  1  0  0  0  0
  9 33  1  0  0  0  0
 10 11  2  0  0  0  0
 10 12  1  0  0  0  0
 12 13  1  0  0  0  0
 12 34  1  0  0  0  0
 13 18  2  0  0  0  0
 13 14  1  0  0  0  0
 14 15  2  0  0  0  0
 14 35  1  0  0  0  0
 15 16  1  0  0  0  0
 16 17  1  0  0  0  0
 16 18  1  0  0  0  0
 17 36  1  0  0  0  0
 17 37  1  0  0  0  0
 17 38  1  0  0  0  0
 18 39  1  0  0  0  0
 19 20  1  0  0  0  0
 19 40  1  0  0  0  0
 19 41  1  0  0  0  0
 20 42  1  0  0  0  0
 20 43  1  0  0  0  0
M  CHG  1   5   1
M  END
> <s_m_source_file>
AV-unprocessed.smi

> <i_m_source_file_index>
760

> <i_lp_mmshare_version>
43012

> <i_f3d_flags>
0

> <s_epik_input>
W0NIMl09QyhbQ0gzXSlbQ0gyXU4xW0NIMl1bQ0gyXVtDSF0oW0NIMl1bQ0gyXTEpW05IXUMoPU8pW05IXWMyW2NIXW5uKFtDSDNdKVtjSF0y

> <s_epik_cmdline>
J2VwaWtfcHl0aG9uJywgJy1waCcsICc3LjAnLCAnLXRuJywgJzgnLCAnLW1hJywgJzIwMCcsICctbWV0YWxfYmluZGluZycsICctaW1hZScsICc8aW5maWxlLm1hZT4nLCAnLW9tYWUnLCAnPG91dGZpbGUubWFlPic=

> <r_lp_tautomer_probability>
1

> <r_epik_Ionization_Penalty>
0.0194996

> <r_epik_Ionization_Penalty_Charging>
0.0193505

> <r_epik_Ionization_Penalty_Neutral>
0.000149098

> <r_epik_State_Penalty>
0.0154499

> <r_epik_Charging_Adjusted_Penalty>
0.0348004

> <i_epik_Tot_Q>
1

> <i_epik_Tot_abs_Q>
1

> <r_epik_Metal_State_Penalty>
0.0154507

> <b_epik_Metal_Only>
0

> <s_lp_Force_Field>
OPLS_2005

> <r_lp_Energy>
20.4425

> <b_lp_Chiralities_Consistent>
1

> <s_lp_Variant>
AV-unprocessed.smi:760-1

> <Gold.Version>
5.8.1

> <Gold.Id.Protein>
6NUR|6NUR_protein|mol2

> <Gold.PLP.Fitness>
41.0973

> <Gold.PLP.PLP>
-30.2027

> <Gold.PLP.part.hbond>
-2.0000

> <Gold.PLP.part.metal>
0.0000

> <Gold.PLP.part.buried>
1.9082

> <Gold.PLP.part.nonpolar>
-30.8334

> <Gold.PLP.part.repulsive>
0.1920

> <Gold.PLP.ligand.clash>
0.0000

> <Gold.PLP.ligand.torsion>
0.3235

> <Gold.PLP.Chemscore.Hbond>
2.9516

> <Gold.PLP.Chemscore.CHOScore>
0.8876

> <Gold.PLP.Chemscore.Metal>
0.0000

> <Gold.Chemscore.Hbonds>
donor molecule, donor type, donor heavy atom, donor atom, acceptor molecule, acceptor atom, score
      L1  H     5    44       P1 10175  2.00
      L1  H    12    34       P1  8028  0.82
      L1  C    18    39       P1  8028  0.91

> <Gold.PLP.Chemscore.Internal.Correction>
0.0239

> <Gold.Rescore>
     Score         DG    S(hbond)    S(metal)    S(lipo)     H(rot)  DE(clash)    DE(int)     intcor
     14.94     -16.89       1.74        0.00      78.01       1.38       0.62       1.33       ----

> <Gold.Chemscore.Fitness>
14.9445

> <Gold.Chemscore.DG>
-16.8892

> <Gold.Chemscore.ZeroCoef>
-5.4800

> <Gold.Chemscore.Hbond>
1.7373

> <Gold.Chemscore.Metal>
0.0000

> <Gold.Chemscore.Lipo>
78.0074

> <Gold.Chemscore.Internal_Hbond>
0.0000

> <Gold.Chemscore.DEClash>
0.6168

> <Gold.Chemscore.DEInternal>
1.3278

> <Gold.Chemscore.Rot>
1.3752

> <Gold.Chemscore.Internal.Correction>
   9.000000E+99

> <Gold.Chemscore.Hbonds>
donor molecule, donor type, donor heavy atom, donor atom, acceptor molecule, acceptor atom, score
      L1  H     5    44       P1 10175  0.99
      L1  H    12    34       P1  8028  0.77

> <Gold.Chemscore.Hbond.Weighted>
-5.8027

> <Gold.Chemscore.Metal.Weighted>
-0.0000

> <Gold.Chemscore.Lipo.Weighted>
-9.1269

> <Gold.Chemscore.Internal_Hbond.Weighted>
0.0000

> <Gold.Chemscore.DEClash.Weighted>
0.6168

> <Gold.Chemscore.DEInternal.Weighted>
1.3278

> <Gold.Chemscore.Rot.Weighted>
3.5204

> <Gold.Chemscore.Internal.Correction.Weighted>
   9.000000E+99

> <Gold.Protein.RotatedTorsions>
[ 6907 6896 6895 6894 ] final -143.32 input  -60.11 | X-H torsion
[ 7974 7965 7964 7962 ] final   84.61 input  175.53 | X-H torsion
[ 8008 7997 7996 7995 ] final  -91.43 input   59.86 | X-H torsion
[ 10167 10162 10161 10158 ] final  166.56 input  -65.29 | X-H torsion
[ 10718 10713 10712 10709 ] final  127.33 input   66.30 | X-H torsion
[ 10763 10752 10751 10750 ] final  -55.92 input  -60.55 | X-H torsion
[ 11005 11000 10999 10996 ] final  148.49 input  -57.11 | X-H torsion

> <Gold.Protein.ActiveResidues>
 VAL166  LYS551  ARG553  GLY616  TRP617  ASP618  TYR619  PRO620  LYS621  CYS622 
 ASP623  PHE694  ASN695  SER759  ASP760  ASP761  ALA762  ILE779  LEU786  VAL792 
 PHE793  MET794  SER795  GLU796  ALA797  LYS798  CYS799  TRP800  GLU811  SER814 

> <Gold.Protein.RotatedAtoms>
  151.0989  133.5258  159.2610 H   0  0  0  0  0  0  0  0  0  0  0  0  # atno 6907 bound_to 6896
  151.2097  135.0475  159.8916 H   0  0  0  0  0  0  0  0  0  0  0  0  # atno 6908 bound_to 6896
  152.5441  134.0807  159.8287 H   0  0  0  0  0  0  0  0  0  0  0  0  # atno 6909 bound_to 6896
  145.5965  139.2346  143.2270 H   0  0  0  0  0  0  0  0  0  0  0  0  # atno 7974 bound_to 7965
  154.7107  140.0519  157.0547 H   0  0  0  0  0  0  0  0  0  0  0  0  # atno 8008 bound_to 7997
  155.0559  140.3184  155.4657 H   0  0  0  0  0  0  0  0  0  0  0  0  # atno 8009 bound_to 7997
  156.2788  140.2107  156.5685 H   0  0  0  0  0  0  0  0  0  0  0  0  # atno 8010 bound_to 7997
  139.4927  144.4015  151.9405 H   0  0  0  0  0  0  0  0  0  0  0  0  # atno 10167 bound_to 10162
  157.5342  131.1098  150.8961 H   0  0  0  0  0  0  0  0  0  0  0  0  # atno 10718 bound_to 10713
  154.1985  135.6415  153.5080 H   0  0  0  0  0  0  0  0  0  0  0  0  # atno 10763 bound_to 10752
  153.0017  135.5445  154.6340 H   0  0  0  0  0  0  0  0  0  0  0  0  # atno 10764 bound_to 10752
  154.5747  135.2920  155.0765 H   0  0  0  0  0  0  0  0  0  0  0  0  # atno 10765 bound_to 10752
  140.0964  134.9010  157.1730 H   0  0  0  0  0  0  0  0  0  0  0  0  # atno 11005 bound_to 11000
  146.1608  140.6791  142.9278 LP  0  0  0  0  0  0  0  0  0  0  0  0  # atno 17320 bound_to 7965
  144.7328  140.4722  143.6925 LP  0  0  0  0  0  0  0  0  0  0  0  0  # atno 17321 bound_to 7965
  140.3454  144.3153  150.5959 LP  0  0  0  0  0  0  0  0  0  0  0  0  # atno 17342 bound_to 10162
  140.5531  143.2203  151.7894 LP  0  0  0  0  0  0  0  0  0  0  0  0  # atno 17343 bound_to 10162
  156.9533  130.5428  149.5283 LP  0  0  0  0  0  0  0  0  0  0  0  0  # atno 17370 bound_to 10713
  156.0446  130.5524  150.8851 LP  0  0  0  0  0  0  0  0  0  0  0  0  # atno 17371 bound_to 10713
  140.3280  134.2842  155.7233 LP  0  0  0  0  0  0  0  0  0  0  0  0  # atno 17394 bound_to 11000
  141.2093  133.7752  157.0004 LP  0  0  0  0  0  0  0  0  0  0  0  0  # atno 17395 bound_to 11000

$$$$
