AV-unprocessed.smi:5|AV-procd|sdf|37|dock4
  -GOLD-   2262015153D 1   1.00000     0.00000
 Structure written by MMmdl.
 44 45  0  0  0  0  0  0  0  0  1 V2000
  154.1274  141.6796  160.3910 C   0  0  0  0  0  0  0  0  0  0  0  0
  153.1735  142.4059  159.4646 C   0  0  0  0  0  0  0  0  0  0  0  0
  153.3853  143.6718  159.0597 C   0  0  0  0  0  0  0  0  0  0  0  0
  152.4260  144.4148  158.1508 C   0  0  0  0  0  0  0  0  0  0  0  0
  151.0702  143.6932  158.0588 C   0  0  0  0  0  0  0  0  0  0  0  0
  151.2702  142.2451  157.8625 N   0  0  0  0  0  0  0  0  0  0  0  0
  150.7926  141.5156  156.8226 C   0  0  0  0  0  0  0  0  0  0  0  0
  151.2158  140.3957  156.5330 O   0  0  0  0  0  0  0  0  0  0  0  0
  149.8516  142.1331  156.0878 N   0  0  0  0  0  0  0  0  0  0  0  0
  149.1846  141.5685  154.9194 C   0  0  0  0  0  0  0  0  0  0  0  0
  147.6802  141.4468  155.1314 C   0  0  0  0  0  0  0  0  0  0  0  0
  147.0723  141.9864  156.2178 C   0  0  0  0  0  0  0  0  0  0  0  0
  145.7095  141.9083  156.4690 N   0  0  0  0  0  0  0  0  0  0  0  0
  145.1196  142.5074  157.6548 C   0  0  0  0  0  0  0  0  0  0  0  0
  144.1311  143.6218  157.2733 C   0  0  0  0  0  0  0  0  0  0  0  0
  146.1954  142.9905  158.6449 C   0  0  0  0  0  0  0  0  0  0  0  0
  144.8757  141.2475  155.5316 C   0  0  0  0  0  0  0  0  0  0  0  0
  143.6552  141.1387  155.6482 O   0  0  0  0  0  0  0  0  0  0  0  0
  145.5005  140.6980  154.4130 N   0  0  0  0  0  0  0  0  0  0  0  0
  146.8677  140.7453  154.1325 C   0  0  0  0  0  0  0  0  0  0  0  0
  147.2911  140.2186  153.1051 O   0  0  0  0  0  0  0  0  0  0  0  0
  151.9656  141.6018  158.9921 C   0  0  0  0  0  0  0  0  0  0  0  0
  144.9111  140.2242  153.7441 H   0  0  0  0  0  0  0  0  0  0  0  0
  153.6027  141.3459  161.2863 H   0  0  0  0  0  0  0  0  0  0  0  0
  154.9514  142.3236  160.6998 H   0  0  0  0  0  0  0  0  0  0  0  0
  154.5471  140.8053  159.8926 H   0  0  0  0  0  0  0  0  0  0  0  0
  154.2651  144.2097  159.3816 H   0  0  0  0  0  0  0  0  0  0  0  0
  152.2841  145.4279  158.5278 H   0  0  0  0  0  0  0  0  0  0  0  0
  152.8816  144.4991  157.1637 H   0  0  0  0  0  0  0  0  0  0  0  0
  150.5298  143.8260  158.9974 H   0  0  0  0  0  0  0  0  0  0  0  0
  150.4479  144.1730  157.3036 H   0  0  0  0  0  0  0  0  0  0  0  0
  149.5723  143.0624  156.3670 H   0  0  0  0  0  0  0  0  0  0  0  0
  149.3621  142.2345  154.0747 H   0  0  0  0  0  0  0  0  0  0  0  0
  149.6391  140.6134  154.6510 H   0  0  0  0  0  0  0  0  0  0  0  0
  147.6956  142.5069  156.9303 H   0  0  0  0  0  0  0  0  0  0  0  0
  144.5516  141.7460  158.1888 H   0  0  0  0  0  0  0  0  0  0  0  0
  143.6347  144.0216  158.1579 H   0  0  0  0  0  0  0  0  0  0  0  0
  143.3565  143.2467  156.6036 H   0  0  0  0  0  0  0  0  0  0  0  0
  144.6309  144.4519  156.7735 H   0  0  0  0  0  0  0  0  0  0  0  0
  145.7409  143.3181  159.5802 H   0  0  0  0  0  0  0  0  0  0  0  0
  146.7688  143.8309  158.2540 H   0  0  0  0  0  0  0  0  0  0  0  0
  146.8961  142.1901  158.8855 H   0  0  0  0  0  0  0  0  0  0  0  0
  152.3254  140.6069  158.7246 H   0  0  0  0  0  0  0  0  0  0  0  0
  151.2709  141.4730  159.8231 H   0  0  0  0  0  0  0  0  0  0  0  0
  1  2  1  0  0  0  0
  1 24  1  0  0  0  0
  1 25  1  0  0  0  0
  1 26  1  0  0  0  0
  2 22  1  0  0  0  0
  2  3  2  0  0  0  0
  3  4  1  0  0  0  0
  3 27  1  0  0  0  0
  4  5  1  0  0  0  0
  4 28  1  0  0  0  0
  4 29  1  0  0  0  0
  5  6  1  0  0  0  0
  5 30  1  0  0  0  0
  5 31  1  0  0  0  0
  6  7  1  0  0  0  0
  6 22  1  0  0  0  0
  7  8  2  0  0  0  0
  7  9  1  0  0  0  0
  9 10  1  0  0  0  0
  9 32  1  0  0  0  0
 10 11  1  0  0  0  0
 10 33  1  0  0  0  0
 10 34  1  0  0  0  0
 11 20  1  0  0  0  0
 11 12  2  0  0  0  0
 12 13  1  0  0  0  0
 12 35  1  0  0  0  0
 13 14  1  0  0  0  0
 13 17  1  0  0  0  0
 14 15  1  0  0  0  0
 14 16  1  0  0  0  0
 14 36  1  0  0  0  0
 15 37  1  0  0  0  0
 15 38  1  0  0  0  0
 15 39  1  0  0  0  0
 16 40  1  0  0  0  0
 16 41  1  0  0  0  0
 16 42  1  0  0  0  0
 17 18  2  0  0  0  0
 17 19  1  0  0  0  0
 19 23  1  0  0  0  0
 19 20  1  0  0  0  0
 20 21  2  0  0  0  0
 22 43  1  0  0  0  0
 22 44  1  0  0  0  0
M  END
> <s_m_source_file>
AV-unprocessed.smi

> <i_m_source_file_index>
5

> <i_lp_mmshare_version>
43012

> <i_f3d_flags>
0

> <s_epik_input>
W0NIM11DMT1bQ0hdW0NIMl1bQ0gyXU4oW0NIMl0xKUMoPU8pW05IXVtDSDJdYzJbY0hdbihbQ0hdKFtDSDNdKVtDSDNdKWMoPU8pW25IXWMyPU8=

> <s_epik_cmdline>
J2VwaWtfcHl0aG9uJywgJy1waCcsICc3LjAnLCAnLXRuJywgJzgnLCAnLW1hJywgJzIwMCcsICctbWV0YWxfYmluZGluZycsICctaW1hZScsICc8aW5maWxlLm1hZT4nLCAnLW9tYWUnLCAnPG91dGZpbGUubWFlPic=

> <r_lp_tautomer_probability>
0.999537

> <r_epik_Ionization_Penalty>
0.000965624

> <r_epik_Ionization_Penalty_Charging>
0.000915459

> <r_epik_Ionization_Penalty_Neutral>
5.01649e-05

> <r_epik_State_Penalty>
0.000593189

> <r_epik_Charging_Adjusted_Penalty>
0.00150865

> <i_epik_Tot_Q>
0

> <i_epik_Tot_abs_Q>
0

> <r_epik_Metal_State_Penalty>
0.281504

> <b_epik_Metal_Only>
0

> <s_lp_Force_Field>
OPLS_2005

> <r_lp_Energy>
30.7874

> <b_lp_Chiralities_Consistent>
1

> <s_lp_Variant>
AV-unprocessed.smi:5-1

> <Gold.Version>
5.8.1

> <Gold.Id.Protein>
6NUR|6NUR_protein|mol2

> <Gold.PLP.Fitness>
45.2579

> <Gold.PLP.PLP>
-38.4464

> <Gold.PLP.part.hbond>
-2.0000

> <Gold.PLP.part.metal>
0.0000

> <Gold.PLP.part.buried>
-3.9494

> <Gold.PLP.part.nonpolar>
-33.6685

> <Gold.PLP.part.repulsive>
1.6382

> <Gold.PLP.ligand.clash>
0.0000

> <Gold.PLP.ligand.torsion>
0.2954

> <Gold.PLP.Chemscore.Hbond>
1.9280

> <Gold.PLP.Chemscore.CHOScore>
0.5189

> <Gold.PLP.Chemscore.Metal>
0.0000

> <Gold.Chemscore.Hbonds>
donor molecule, donor type, donor heavy atom, donor atom, acceptor molecule, acceptor atom, score
      L1  H     9    32       P1  8028  0.85
      L1  H    19    23       P1 10175  0.86
      L1  C    12    35       P1  8028  0.18

> <Gold.PLP.Chemscore.Internal.Correction>
0.0617

> <Gold.Rescore>
     Score         DG    S(hbond)    S(metal)    S(lipo)     H(rot)  DE(clash)    DE(int)     intcor
     18.16     -18.50       1.92        0.00      88.93       1.48       0.06       0.29       ----

> <Gold.Chemscore.Fitness>
18.1574

> <Gold.Chemscore.DG>
-18.5045

> <Gold.Chemscore.ZeroCoef>
-5.4800

> <Gold.Chemscore.Hbond>
1.9222

> <Gold.Chemscore.Metal>
0.0000

> <Gold.Chemscore.Lipo>
88.9295

> <Gold.Chemscore.Internal_Hbond>
0.0000

> <Gold.Chemscore.DEClash>
0.0588

> <Gold.Chemscore.DEInternal>
0.2883

> <Gold.Chemscore.Rot>
1.4846

> <Gold.Chemscore.Internal.Correction>
   9.000000E+99

> <Gold.Chemscore.Hbonds>
donor molecule, donor type, donor heavy atom, donor atom, acceptor molecule, acceptor atom, score
      L1  H     9    32       P1  8028  0.83
      L1  H    19    23       P1 10175  0.85

> <Gold.Chemscore.Hbond.Weighted>
-6.4202

> <Gold.Chemscore.Metal.Weighted>
-0.0000

> <Gold.Chemscore.Lipo.Weighted>
-10.4048

> <Gold.Chemscore.Internal_Hbond.Weighted>
0.0000

> <Gold.Chemscore.DEClash.Weighted>
0.0588

> <Gold.Chemscore.DEInternal.Weighted>
0.2883

> <Gold.Chemscore.Rot.Weighted>
3.8005

> <Gold.Chemscore.Internal.Correction.Weighted>
   9.000000E+99

> <Gold.Protein.RotatedTorsions>
[ 6907 6896 6895 6894 ] final  110.22 input  -60.11 | X-H torsion
[ 7974 7965 7964 7962 ] final -113.52 input  175.53 | X-H torsion
[ 8008 7997 7996 7995 ] final -159.09 input   59.86 | X-H torsion
[ 10167 10162 10161 10158 ] final  109.96 input  -65.29 | X-H torsion
[ 10718 10713 10712 10709 ] final  157.42 input   66.30 | X-H torsion
[ 10763 10752 10751 10750 ] final -177.91 input  -60.55 | X-H torsion
[ 11005 11000 10999 10996 ] final   67.34 input  -57.11 | X-H torsion

> <Gold.Protein.ActiveResidues>
 VAL166  LYS551  ARG553  GLY616  TRP617  ASP618  TYR619  PRO620  LYS621  CYS622 
 ASP623  PHE694  ASN695  SER759  ASP760  ASP761  ALA762  ILE779  LEU786  VAL792 
 PHE793  MET794  SER795  GLU796  ALA797  LYS798  CYS799  TRP800  GLU811  SER814 

> <Gold.Protein.RotatedAtoms>
  152.5030  133.8831  159.7356 H   0  0  0  0  0  0  0  0  0  0  0  0  # atno 6907 bound_to 6896
  150.9288  133.6782  159.2822 H   0  0  0  0  0  0  0  0  0  0  0  0  # atno 6908 bound_to 6896
  151.4134  135.0992  159.9644 H   0  0  0  0  0  0  0  0  0  0  0  0  # atno 6909 bound_to 6896
  145.1310  140.8724  143.3758 H   0  0  0  0  0  0  0  0  0  0  0  0  # atno 7974 bound_to 7965
  155.7574  140.0834  157.2172 H   0  0  0  0  0  0  0  0  0  0  0  0  # atno 8008 bound_to 7997
  154.4006  140.1549  156.2849 H   0  0  0  0  0  0  0  0  0  0  0  0  # atno 8009 bound_to 7997
  155.8872  140.3417  155.5933 H   0  0  0  0  0  0  0  0  0  0  0  0  # atno 8010 bound_to 7997
  139.6726  144.7124  151.1660 H   0  0  0  0  0  0  0  0  0  0  0  0  # atno 10167 bound_to 10162
  157.1916  131.0656  151.2076 H   0  0  0  0  0  0  0  0  0  0  0  0  # atno 10718 bound_to 10713
  154.5542  135.2815  155.0980 H   0  0  0  0  0  0  0  0  0  0  0  0  # atno 10763 bound_to 10752
  154.2414  135.6356  153.5212 H   0  0  0  0  0  0  0  0  0  0  0  0  # atno 10764 bound_to 10752
  153.0011  135.5561  154.6117 H   0  0  0  0  0  0  0  0  0  0  0  0  # atno 10765 bound_to 10752
  139.9776  134.6796  156.0323 H   0  0  0  0  0  0  0  0  0  0  0  0  # atno 11005 bound_to 11000
  145.0635  139.3086  143.5868 LP  0  0  0  0  0  0  0  0  0  0  0  0  # atno 17320 bound_to 7965
  146.3514  140.0086  142.8669 LP  0  0  0  0  0  0  0  0  0  0  0  0  # atno 17321 bound_to 7965
  140.7623  143.5821  150.8884 LP  0  0  0  0  0  0  0  0  0  0  0  0  # atno 17342 bound_to 10162
  139.9487  143.6297  152.3035 LP  0  0  0  0  0  0  0  0  0  0  0  0  # atno 17343 bound_to 10162
  157.3854  130.7254  149.6660 LP  0  0  0  0  0  0  0  0  0  0  0  0  # atno 17370 bound_to 10713
  155.9711  130.4161  150.4213 LP  0  0  0  0  0  0  0  0  0  0  0  0  # atno 17371 bound_to 10713
  141.1452  133.6557  156.3846 LP  0  0  0  0  0  0  0  0  0  0  0  0  # atno 17394 bound_to 11000
  140.5162  134.6348  157.5302 LP  0  0  0  0  0  0  0  0  0  0  0  0  # atno 17395 bound_to 11000

$$$$
