#       Name:                AV-unprocessed.smi:1252
#       Creating user name   scv26
#       Creation time:       Fri Mar 27 04:38:16 2020


#       File generated by GOLD software.
#

@<TRIPOS>MOLECULE
AV-unprocessed.smi:1252
    50    51     1
SMALL
NO_CHARGES


@<TRIPOS>ATOM
      1 ****        -4.2686   1.6627  -0.2783 C.3            1 S1                 0.0000
      2 ****        -3.4901   0.5387   0.4349 C.3            1 S1                 0.0000
      3 ****        -1.9787   0.8104   0.4780 C.2            1 S1                 0.0000
      4 ****        -1.5512   1.9600   0.5887 O.2            1 S1                 0.0000
      5 ****        -1.1779  -0.2637   0.3856 N.am           1 S1                 0.0000
      6 ****         0.2840  -0.2427   0.4178 C.3            1 S1                 0.0000
      7 ****         0.9402  -0.3126  -0.9949 C.3            1 S1                 0.0000
      8 ****         0.4425  -1.5773  -1.7391 C.3            1 S1                 0.0000
      9 ****         0.4991   0.8945  -1.8604 C.3            1 S1                 0.0000
     10 ****         2.4449  -0.3323  -0.9005 N.4            1 S1                 1.0000
     11 ****         3.0743   0.8884  -0.3203 C.3            1 S1                 0.0000
     12 ****         4.6045   0.8248  -0.4559 C.3            1 S1                 0.0000
     13 ****         5.0924  -0.3436   0.1876 O.3            1 S1                 0.0000
     14 ****         4.5750  -1.5246  -0.4082 C.3            1 S1                 0.0000
     15 ****         3.0429  -1.5457  -0.2743 C.3            1 S1                 0.0000
     16 ****        -3.9927   0.2839   1.7792 N.pl3          1 S1                 0.0000
     17 ****        -4.2012  -0.8736   2.4107 C.2            1 S1                 0.0000
     18 ****        -4.6262  -0.7379   3.6589 N.2            1 S1                 0.0000
     19 ****        -4.6494   0.6253   3.7448 C.2            1 S1                 0.0000
     20 ****        -4.2685   1.2857   2.6515 N.2            1 S1                 0.0000
     21 ****        -3.9203   1.7911  -1.3037 H              1 S1                 0.0000
     22 ****        -4.1625   2.6228   0.2285 H              1 S1                 0.0000
     23 ****        -5.3329   1.4301  -0.3221 H              1 S1                 0.0000
     24 ****        -3.6462  -0.3748  -0.1418 H              1 S1                 0.0000
     25 ****        -1.6152  -1.1696   0.2978 H              1 S1                 0.0000
     26 ****         0.6224   0.6373   0.9654 H              1 S1                 0.0000
     27 ****         0.5865  -1.0989   1.0196 H              1 S1                 0.0000
     28 ****        -0.6125  -1.5006  -2.0044 H              1 S1                 0.0000
     29 ****         0.5359  -2.4786  -1.1334 H              1 S1                 0.0000
     30 ****         0.9935  -1.7362  -2.6668 H              1 S1                 0.0000
     31 ****        -0.5536   0.8318  -2.1378 H              1 S1                 0.0000
     32 ****         1.0685   0.9476  -2.7891 H              1 S1                 0.0000
     33 ****         0.6175   1.8440  -1.3388 H              1 S1                 0.0000
     34 ****         2.7338   1.7929  -0.8203 H              1 S1                 0.0000
     35 ****         2.8134   0.9849   0.7336 H              1 S1                 0.0000
     36 ****         4.9045   0.8323  -1.5052 H              1 S1                 0.0000
     37 ****         5.0590   1.6990   0.0109 H              1 S1                 0.0000
     38 ****         4.8759  -1.5817  -1.4555 H              1 S1                 0.0000
     39 ****         5.0078  -2.3900   0.0942 H              1 S1                 0.0000
     40 ****         2.7737  -1.5985   0.7809 H              1 S1                 0.0000
     41 ****         2.6843  -2.4592  -0.7446 H              1 S1                 0.0000
     42 ****        -4.0357  -1.8358   1.9485 H              1 S1                 0.0000
     43 ****        -4.9507   1.1466   4.6415 H              1 S1                 0.0000
     44 ****         2.7560  -0.3552  -1.8612 H              1 S1                 0.0000
     45 ****        -2.1897   2.7270   0.6514 LP             1 S1                 0.0000
     46 ****        -0.5655   2.1264   0.6158 LP             1 S1                 0.0000
     47 ****         4.8221  -0.3207   1.1501 LP             1 S1                 0.0000
     48 ****         6.0902  -0.3575   0.1218 LP             1 S1                 0.0000
     49 ****        -4.8614  -1.4317   4.3396 LP             1 S1                 0.0000
     50 ****        -4.2024   2.2733   2.5095 LP             1 S1                 0.0000
@<TRIPOS>BOND
    1    1    2 1     
    2    1   21 1     
    3    1   22 1     
    4    1   23 1     
    5    2    3 1     
    6    2   16 1     
    7    2   24 1     
    8    3    4 2     
    9    3    5 am    
   10    5    6 1     
   11    5   25 1     
   12    6    7 1     
   13    6   26 1     
   14    6   27 1     
   15    7    8 1     
   16    7    9 1     
   17    7   10 1     
   18    8   28 1     
   19    8   29 1     
   20    8   30 1     
   21    9   31 1     
   22    9   32 1     
   23    9   33 1     
   24   10   15 1     
   25   10   11 1     
   26   10   44 1     
   27   11   12 1     
   28   11   34 1     
   29   11   35 1     
   30   12   13 1     
   31   12   36 1     
   32   12   37 1     
   33   13   14 1     
   34   14   15 1     
   35   14   38 1     
   36   14   39 1     
   37   15   40 1     
   38   15   41 1     
   39   16   20 1     
   40   16   17 1     
   41   17   18 2     
   42   17   42 1     
   43   18   19 1     
   44   19   20 2     
   45   19   43 1     
   46    4   45 1     
   47    4   46 1     
   48   13   47 1     
   49   13   48 1     
   50   18   49 1     
   51   20   50 1     
@<TRIPOS>SUBSTRUCTURE
      1 S1             1
@<TRIPOS>SET
LONE_PAIRS      STATIC     ATOMS    <user>   **** ""
6 45 46 47 48 49 50
DONOR_HYDROGENS      STATIC     ATOMS    <user>   **** ""
2 25 44
ATOM$BLUE        STATIC     ATOMS    COLORGROUP SYSTEM
6 45 46 47 48 49 50
ATOM$RED        STATIC     ATOMS    COLORGROUP SYSTEM
2 25 44
