#       Name:                AV-unprocessed.smi:667
#       Creating user name   scv26
#       Creation time:       Fri Mar 27 00:20:47 2020


#       File generated by GOLD software.
#

@<TRIPOS>MOLECULE
AV-unprocessed.smi:667
    53    54     1
SMALL
NO_CHARGES


@<TRIPOS>ATOM
      1 ****        -3.1338   0.6376   1.3046 C.3            1 S1                 0.0000
      2 ****        -3.1919   1.2501  -0.0655 C.2            1 S1                 0.0000
      3 ****        -3.6440   2.4855  -0.2020 N.2            1 S1                 0.0000
      4 ****        -3.5701   2.7356  -1.5246 N.pl3          1 S1                 0.0000
      5 ****        -4.0021   4.0245  -2.0292 C.3            1 S1                 0.0000
      6 ****        -3.0660   1.6566  -2.2249 C.2            1 S1                 0.0000
      7 ****        -2.8770   1.6820  -3.7077 C.3            1 S1                 0.0000
      8 ****        -2.8182   0.6662  -1.3120 C.2            1 S1                 0.0000
      9 ****        -2.2787  -0.7217  -1.5529 C.3            1 S1                 0.0000
     10 ****        -0.7770  -0.7632  -1.2613 C.2            1 S1                 0.0000
     11 ****        -0.0104   0.0021  -1.8472 O.2            1 S1                 0.0000
     12 ****        -0.3706  -1.6582  -0.3477 N.am           1 S1                 0.0000
     13 ****         1.0073  -1.8314   0.0992 C.3            1 S1                 0.0000
     14 ****         1.3973  -0.7978   1.1845 C.3            1 S1                 0.0000
     15 ****         0.6134  -0.9919   2.4768 C.3            1 S1                 0.0000
     16 ****         1.4707  -1.9750   3.2795 C.3            1 S1                 0.0000
     17 ****         2.7273  -2.0391   2.6119 O.3            1 S1                 0.0000
     18 ****         2.8329  -0.9391   1.7187 C.3            1 S1                 0.0000
     19 ****         3.9624  -1.1517   0.6855 C.3            1 S1                 0.0000
     20 ****         5.3184  -1.3401   1.3847 C.3            1 S1                 0.0000
     21 ****         4.0455   0.0129  -0.3167 C.3            1 S1                 0.0000
     22 ****        -2.2492   0.0116   1.4170 H              1 S1                 0.0000
     23 ****        -4.0083   0.0139   1.4895 H              1 S1                 0.0000
     24 ****        -3.0959   1.3995   2.0840 H              1 S1                 0.0000
     25 ****        -4.7671   3.8811  -2.7927 H              1 S1                 0.0000
     26 ****        -3.1535   4.5495  -2.4684 H              1 S1                 0.0000
     27 ****        -4.4173   4.6343  -1.2256 H              1 S1                 0.0000
     28 ****        -2.1743   0.9124  -4.0268 H              1 S1                 0.0000
     29 ****        -2.4827   2.6427  -4.0388 H              1 S1                 0.0000
     30 ****        -3.8234   1.5088  -4.2199 H              1 S1                 0.0000
     31 ****        -2.7979  -1.4537  -0.9328 H              1 S1                 0.0000
     32 ****        -2.4365  -1.0388  -2.5839 H              1 S1                 0.0000
     33 ****        -1.0676  -2.2494   0.0815 H              1 S1                 0.0000
     34 ****         1.1169  -2.8460   0.4831 H              1 S1                 0.0000
     35 ****         1.6665  -1.7616  -0.7662 H              1 S1                 0.0000
     36 ****         1.2408   0.2076   0.7911 H              1 S1                 0.0000
     37 ****         0.5501  -0.0428   3.0108 H              1 S1                 0.0000
     38 ****        -0.4051  -1.3506   2.3296 H              1 S1                 0.0000
     39 ****         1.6008  -1.6368   4.3081 H              1 S1                 0.0000
     40 ****         1.0262  -2.9703   3.3025 H              1 S1                 0.0000
     41 ****         3.0686  -0.0555   2.3161 H              1 S1                 0.0000
     42 ****         3.7628  -2.0669   0.1280 H              1 S1                 0.0000
     43 ****         5.5852  -0.4633   1.9760 H              1 S1                 0.0000
     44 ****         6.1148  -1.5072   0.6591 H              1 S1                 0.0000
     45 ****         5.3039  -2.2007   2.0541 H              1 S1                 0.0000
     46 ****         4.2486   0.9563   0.1907 H              1 S1                 0.0000
     47 ****         3.1185   0.1324  -0.8771 H              1 S1                 0.0000
     48 ****         4.8418  -0.1507  -1.0430 H              1 S1                 0.0000
     49 ****        -3.9692   3.0991   0.5176 LP             1 S1                 0.0000
     50 ****        -0.3687   0.6535  -2.5160 LP             1 S1                 0.0000
     51 ****         0.9703  -0.0278  -1.6541 LP             1 S1                 0.0000
     52 ****         2.7911  -2.8950   2.0988 LP             1 S1                 0.0000
     53 ****         3.4665  -1.9975   3.2840 LP             1 S1                 0.0000
@<TRIPOS>BOND
    1    1    2 1     
    2    1   22 1     
    3    1   23 1     
    4    1   24 1     
    5    2    8 1     
    6    2    3 2     
    7    3    4 1     
    8    4    5 1     
    9    4    6 1     
   10    5   25 1     
   11    5   26 1     
   12    5   27 1     
   13    6    7 1     
   14    6    8 2     
   15    7   28 1     
   16    7   29 1     
   17    7   30 1     
   18    8    9 1     
   19    9   10 1     
   20    9   31 1     
   21    9   32 1     
   22   10   11 2     
   23   10   12 am    
   24   12   13 1     
   25   12   33 1     
   26   13   14 1     
   27   13   34 1     
   28   13   35 1     
   29   14   18 1     
   30   14   15 1     
   31   14   36 1     
   32   15   16 1     
   33   15   37 1     
   34   15   38 1     
   35   16   17 1     
   36   16   39 1     
   37   16   40 1     
   38   17   18 1     
   39   18   19 1     
   40   18   41 1     
   41   19   20 1     
   42   19   21 1     
   43   19   42 1     
   44   20   43 1     
   45   20   44 1     
   46   20   45 1     
   47   21   46 1     
   48   21   47 1     
   49   21   48 1     
   50    3   49 1     
   51   11   50 1     
   52   11   51 1     
   53   17   52 1     
   54   17   53 1     
@<TRIPOS>SUBSTRUCTURE
      1 S1             1
@<TRIPOS>SET
LONE_PAIRS      STATIC     ATOMS    <user>   **** ""
5 49 50 51 52 53
DONOR_HYDROGENS      STATIC     ATOMS    <user>   **** ""
1 33
ATOM$BLUE        STATIC     ATOMS    COLORGROUP SYSTEM
5 49 50 51 52 53
ATOM$RED        STATIC     ATOMS    COLORGROUP SYSTEM
1 33
