AV-unprocessed.smi:12|AV-procd|sdf|67|dock8
  -GOLD-   2262015183D 1   1.00000     0.00000
 Structure written by MMmdl.
 41 44  0  0  0  0  0  0  0  0  1 V2000
  145.6363  136.0533  154.4958 C   0  0  0  0  0  0  0  0  0  0  0  0
  146.0979  137.4604  154.8298 C   0  0  0  0  0  0  0  0  0  0  0  0
  147.3214  137.9136  154.4678 C   0  0  0  0  0  0  0  0  0  0  0  0
  147.6899  139.1876  154.7987 N   0  0  0  0  0  0  0  0  0  0  0  0
  146.7904  140.0153  155.5002 C   0  0  0  0  0  0  0  0  0  0  0  0
  145.6044  139.6573  155.8833 N   0  0  0  0  0  0  0  0  0  0  0  0
  145.1748  138.3519  155.5764 C   0  0  0  0  0  0  0  0  0  0  0  0
  144.0586  137.9650  155.9198 O   0  0  0  0  0  0  0  0  0  0  0  0
  147.3738  141.2289  155.6917 O   0  0  0  0  0  0  0  0  0  0  0  0
  148.6628  141.2703  155.0542 C   0  0  1  0  0  0  0  0  0  0  0  0
  149.7974  141.4524  156.0532 C   0  0  1  0  0  0  0  0  0  0  0  0
  149.4701  142.3812  157.0673 O   0  0  0  0  0  0  0  0  0  0  0  0
  150.0540  140.0258  156.5379 C   0  0  2  0  0  0  0  0  0  0  0  0
  151.4391  139.8010  157.1577 C   0  0  0  0  0  0  0  0  0  0  0  0
  151.6532  140.7462  158.1935 O   0  0  0  0  0  0  0  0  0  0  0  0
  152.7627  140.6764  158.9542 C   0  0  0  0  0  0  0  0  0  0  0  0
  153.6652  139.8571  158.7709 O   0  0  0  0  0  0  0  0  0  0  0  0
  152.7840  141.6963  160.0426 C   0  0  0  0  0  0  0  0  0  0  0  0
  153.6062  141.4849  161.1743 C   0  0  0  0  0  0  0  0  0  0  0  0
  153.6476  142.4300  162.2177 C   0  0  0  0  0  0  0  0  0  0  0  0
  152.8678  143.5985  162.1420 C   0  0  0  0  0  0  0  0  0  0  0  0
  152.0461  143.8209  161.0217 C   0  0  0  0  0  0  0  0  0  0  0  0
  152.0029  142.8768  159.9772 C   0  0  0  0  0  0  0  0  0  0  0  0
  149.9502  139.2936  155.3199 O   0  0  0  0  0  0  0  0  0  0  0  0
  148.9599  139.8568  154.5060 C   0  0  1  0  0  0  0  0  0  0  0  0
  146.4016  135.5040  153.9466 H   0  0  0  0  0  0  0  0  0  0  0  0
  144.7363  136.0829  153.8809 H   0  0  0  0  0  0  0  0  0  0  0  0
  145.4128  135.4998  155.4085 H   0  0  0  0  0  0  0  0  0  0  0  0
  148.0118  137.2827  153.9267 H   0  0  0  0  0  0  0  0  0  0  0  0
  148.6754  142.0113  154.2540 H   0  0  0  0  0  0  0  0  0  0  0  0
  150.6799  141.8155  155.5240 H   0  0  0  0  0  0  0  0  0  0  0  0
  148.9738  143.0863  156.6802 H   0  0  0  0  0  0  0  0  0  0  0  0
  149.2682  139.6948  157.2194 H   0  0  0  0  0  0  0  0  0  0  0  0
  151.4999  138.7942  157.5728 H   0  0  0  0  0  0  0  0  0  0  0  0
  152.2153  139.8894  156.3962 H   0  0  0  0  0  0  0  0  0  0  0  0
  154.2140  140.5952  161.2549 H   0  0  0  0  0  0  0  0  0  0  0  0
  154.2787  142.2575  163.0770 H   0  0  0  0  0  0  0  0  0  0  0  0
  152.9001  144.3231  162.9423 H   0  0  0  0  0  0  0  0  0  0  0  0
  151.4471  144.7176  160.9627 H   0  0  0  0  0  0  0  0  0  0  0  0
  151.3612  143.0794  159.1320 H   0  0  0  0  0  0  0  0  0  0  0  0
  149.1186  139.7661  153.4311 H   0  0  0  0  0  0  0  0  0  0  0  0
  1  2  1  0  0  0  0
  1 26  1  0  0  0  0
  1 27  1  0  0  0  0
  1 28  1  0  0  0  0
  2  7  1  0  0  0  0
  2  3  2  0  0  0  0
  3  4  1  0  0  0  0
  3 29  1  0  0  0  0
  4 25  1  0  0  0  0
  4  5  1  0  0  0  0
  5  6  2  0  0  0  0
  5  9  1  0  0  0  0
  6  7  1  0  0  0  0
  7  8  2  0  0  0  0
  9 10  1  0  0  0  0
 10 25  1  0  0  0  0
 10 11  1  0  0  0  0
 10 30  1  0  0  0  0
 11 12  1  0  0  0  0
 11 13  1  0  0  0  0
 11 31  1  0  0  0  0
 12 32  1  0  0  0  0
 13 14  1  0  0  0  0
 13 24  1  0  0  0  0
 13 33  1  0  0  0  0
 14 15  1  0  0  0  0
 14 34  1  0  0  0  0
 14 35  1  0  0  0  0
 15 16  1  0  0  0  0
 16 17  2  0  0  0  0
 16 18  1  0  0  0  0
 18 23  1  0  0  0  0
 18 19  2  0  0  0  0
 19 20  1  0  0  0  0
 19 36  1  0  0  0  0
 20 21  2  0  0  0  0
 20 37  1  0  0  0  0
 21 22  1  0  0  0  0
 21 38  1  0  0  0  0
 22 23  2  0  0  0  0
 22 39  1  0  0  0  0
 23 40  1  0  0  0  0
 24 25  1  0  0  0  0
 25 41  1  0  0  0  0
M  END
> <s_m_source_file>
AV-unprocessed.smi

> <i_m_source_file_index>
12

> <i_lp_mmshare_version>
43012

> <i_f3d_flags>
0

> <s_epik_input>
W0NIM11jKFtjSF0xKWMoPU8pbmMobjEyKU9bQ0BIXTNbQ0BASF0yT1tDQEBIXShbQ0BASF0zW09IXSlbQ0gyXU9DKD1PKWM0W2NIXVtjSF1bY0hdW2NIXVtjSF00

> <s_epik_cmdline>
J2VwaWtfcHl0aG9uJywgJy1waCcsICc3LjAnLCAnLXRuJywgJzgnLCAnLW1hJywgJzIwMCcsICctbWV0YWxfYmluZGluZycsICctaW1hZScsICc8aW5maWxlLm1hZT4nLCAnLW9tYWUnLCAnPG91dGZpbGUubWFlPic=

> <r_lp_tautomer_probability>
0.933681

> <r_epik_Ionization_Penalty>
0.00399549

> <r_epik_Ionization_Penalty_Charging>
3.09373e-09

> <r_epik_Ionization_Penalty_Neutral>
0.00399549

> <r_epik_State_Penalty>
0.00284953

> <r_epik_Charging_Adjusted_Penalty>
0.00284953

> <i_epik_Tot_Q>
0

> <i_epik_Tot_abs_Q>
0

> <r_epik_Metal_State_Penalty>
-0

> <b_epik_Metal_Only>
0

> <s_epik_Chemistry_Notes>
This compound has an ester and may undergo hydrolysis at high or low pH. This compound contains an acetal/aminal-like group ( X-CH(R)-Y where X, Y are N, S, or O) that may be acid/base labile, releasing an aldehyde.

> <s_lp_Force_Field>
OPLS_2005

> <r_lp_Energy>
46.3609

> <b_lp_Chiralities_Consistent>
1

> <s_lp_Variant>
AV-unprocessed.smi:12-7

> <Gold.Version>
5.8.1

> <Gold.Id.Protein>
6NUR|6NUR_protein|mol2

> <Gold.PLP.Fitness>
48.7954

> <Gold.PLP.PLP>
-40.3179

> <Gold.PLP.part.hbond>
-1.9974

> <Gold.PLP.part.metal>
0.0000

> <Gold.PLP.part.buried>
-1.4736

> <Gold.PLP.part.nonpolar>
-35.9105

> <Gold.PLP.part.repulsive>
0.3489

> <Gold.PLP.ligand.clash>
0.0000

> <Gold.PLP.ligand.torsion>
0.2699

> <Gold.PLP.Chemscore.Hbond>
2.0000

> <Gold.PLP.Chemscore.CHOScore>
1.0000

> <Gold.PLP.Chemscore.Metal>
0.0000

> <Gold.Chemscore.Hbonds>
donor molecule, donor type, donor heavy atom, donor atom, acceptor molecule, acceptor atom, score
      L1  H    12    32       P1  8028  1.00
      P1  H  7997  8010       L1    17  1.00
      L1  C     3    29       P1  7948  1.00

> <Gold.PLP.Chemscore.Internal.Correction>
0.0172

> <Gold.Rescore>
     Score         DG    S(hbond)    S(metal)    S(lipo)     H(rot)  DE(clash)    DE(int)     intcor
     16.34     -17.86       1.95        0.00      97.95       2.18       0.28       1.24       ----

> <Gold.Chemscore.Fitness>
16.3427

> <Gold.Chemscore.DG>
-17.8578

> <Gold.Chemscore.ZeroCoef>
-5.4800

> <Gold.Chemscore.Hbond>
1.9458

> <Gold.Chemscore.Metal>
0.0000

> <Gold.Chemscore.Lipo>
97.9459

> <Gold.Chemscore.Internal_Hbond>
0.0000

> <Gold.Chemscore.DEClash>
0.2782

> <Gold.Chemscore.DEInternal>
1.2369

> <Gold.Chemscore.Rot>
2.1800

> <Gold.Chemscore.Internal.Correction>
   9.000000E+99

> <Gold.Chemscore.Hbonds>
donor molecule, donor type, donor heavy atom, donor atom, acceptor molecule, acceptor atom, score
      L1  H    12    32       P1  8028  0.91
      P1  H  7997  8010       L1    17  0.92

> <Gold.Chemscore.Hbond.Weighted>
-6.4989

> <Gold.Chemscore.Metal.Weighted>
-0.0000

> <Gold.Chemscore.Lipo.Weighted>
-11.4597

> <Gold.Chemscore.Internal_Hbond.Weighted>
0.0000

> <Gold.Chemscore.DEClash.Weighted>
0.2782

> <Gold.Chemscore.DEInternal.Weighted>
1.2369

> <Gold.Chemscore.Rot.Weighted>
5.5807

> <Gold.Chemscore.Internal.Correction.Weighted>
   9.000000E+99

> <Gold.Protein.RotatedTorsions>
[ 6907 6896 6895 6894 ] final   60.20 input  -60.11 | X-H torsion
[ 7974 7965 7964 7962 ] final   -9.26 input  175.53 | X-H torsion
[ 8008 7997 7996 7995 ] final   27.66 input   59.86 | X-H torsion
[ 10167 10162 10161 10158 ] final  152.02 input  -65.29 | X-H torsion
[ 10718 10713 10712 10709 ] final -109.48 input   66.30 | X-H torsion
[ 10763 10752 10751 10750 ] final -140.91 input  -60.55 | X-H torsion
[ 11005 11000 10999 10996 ] final   96.67 input  -57.11 | X-H torsion

> <Gold.Protein.ActiveResidues>
 VAL166  LYS551  ARG553  GLY616  TRP617  ASP618  TYR619  PRO620  LYS621  CYS622 
 ASP623  PHE694  ASN695  SER759  ASP760  ASP761  ALA762  ILE779  LEU786  VAL792 
 PHE793  MET794  SER795  GLU796  ALA797  LYS798  CYS799  TRP800  GLU811  SER814 

> <Gold.Protein.RotatedAtoms>
  152.3982  134.6330  160.0080 H   0  0  0  0  0  0  0  0  0  0  0  0  # atno 6907 bound_to 6896
  151.6543  133.3314  159.3167 H   0  0  0  0  0  0  0  0  0  0  0  0  # atno 6908 bound_to 6896
  150.7886  134.6935  159.6555 H   0  0  0  0  0  0  0  0  0  0  0  0  # atno 6909 bound_to 6896
  146.2257  140.2590  142.8351 H   0  0  0  0  0  0  0  0  0  0  0  0  # atno 7974 bound_to 7965
  155.0465  140.3175  155.4706 H   0  0  0  0  0  0  0  0  0  0  0  0  # atno 8008 bound_to 7997
  156.2844  140.2153  156.5533 H   0  0  0  0  0  0  0  0  0  0  0  0  # atno 8009 bound_to 7997
  154.7246  140.0486  157.0659 H   0  0  0  0  0  0  0  0  0  0  0  0  # atno 8010 bound_to 7997
  139.4836  144.5393  151.7592 H   0  0  0  0  0  0  0  0  0  0  0  0  # atno 10167 bound_to 10162
  156.0539  130.5766  150.8105 H   0  0  0  0  0  0  0  0  0  0  0  0  # atno 10718 bound_to 10713
  154.8563  135.3539  154.5783 H   0  0  0  0  0  0  0  0  0  0  0  0  # atno 10763 bound_to 10752
  153.6394  135.6999  153.5251 H   0  0  0  0  0  0  0  0  0  0  0  0  # atno 10764 bound_to 10752
  153.2983  135.4214  155.1189 H   0  0  0  0  0  0  0  0  0  0  0  0  # atno 10765 bound_to 10752
  139.8780  134.8962  156.4192 H   0  0  0  0  0  0  0  0  0  0  0  0  # atno 11005 bound_to 11000
  144.9354  140.8020  143.5663 LP  0  0  0  0  0  0  0  0  0  0  0  0  # atno 17320 bound_to 7965
  145.2537  139.2021  143.4929 LP  0  0  0  0  0  0  0  0  0  0  0  0  # atno 17321 bound_to 7965
  140.4930  144.1283  150.5954 LP  0  0  0  0  0  0  0  0  0  0  0  0  # atno 17342 bound_to 10162
  140.4150  143.2639  151.9786 LP  0  0  0  0  0  0  0  0  0  0  0  0  # atno 17343 bound_to 10162
  157.5492  131.0943  150.9720 LP  0  0  0  0  0  0  0  0  0  0  0  0  # atno 17370 bound_to 10713
  156.9984  130.5590  149.5309 LP  0  0  0  0  0  0  0  0  0  0  0  0  # atno 17371 bound_to 10713
  140.9145  133.7688  155.9832 LP  0  0  0  0  0  0  0  0  0  0  0  0  # atno 17394 bound_to 11000
  140.8509  134.2955  157.5276 LP  0  0  0  0  0  0  0  0  0  0  0  0  # atno 17395 bound_to 11000

$$$$
