AV-unprocessed.smi:2941|AV-procd|sdf|11265|dock1
  -GOLD-   2272016153D 1   1.00000     0.00000
 Structure written by MMmdl.
 35 36  0  0  0  0  0  0  0  0  2 V2000
  145.9302  137.8454  152.2898 C   0  0  0  0  0  0  0  0  0  0  0  0
  146.8008  138.4668  153.2191 O   0  0  0  0  0  0  0  0  0  0  0  0
  147.4918  139.5713  152.6610 C   0  0  0  0  0  0  0  0  0  0  0  0
  146.9794  140.8610  153.3191 C   0  0  0  0  0  0  0  0  0  0  0  0
  147.4776  140.9953  154.6942 N   0  0  0  0  0  0  0  0  0  0  0  0
  148.8730  140.9347  154.8728 C   0  0  0  0  0  0  0  0  0  0  0  0
  149.4477  141.0465  156.0853 C   0  0  0  0  0  0  0  0  0  0  0  0
  150.9220  140.9657  156.2280 C   0  0  0  0  0  0  0  0  0  0  0  0
  151.6126  140.4055  155.3752 O   0  0  0  0  0  0  0  0  0  0  0  0
  151.5460  141.6074  157.4245 C   0  0  0  0  0  0  0  0  0  0  0  0
  151.1694  142.9278  157.7669 C   0  0  0  0  0  0  0  0  0  0  0  0
  151.7421  143.5746  158.8777 C   0  0  0  0  0  0  0  0  0  0  0  0
  151.3724  144.8395  159.1892 F   0  0  0  0  0  0  0  0  0  0  0  0
  152.7001  142.9085  159.6621 C   0  0  0  0  0  0  0  0  0  0  0  0
  153.0819  141.5947  159.3353 C   0  0  0  0  0  0  0  0  0  0  0  0
  152.5125  140.9391  158.2244 C   0  0  0  0  0  0  0  0  0  0  0  0
  152.9055  139.6538  157.9692 O   0  5  0  0  0  0  0  0  0  0  0  0
  148.5737  141.2199  157.2298 C   0  0  0  0  0  0  0  0  0  0  0  0
  147.2367  141.2664  157.0666 C   0  0  0  0  0  0  0  0  0  0  0  0
  146.3592  141.4266  158.1785 C   0  0  0  0  0  0  0  0  0  0  0  0
  145.6623  141.5496  159.0945 N   0  0  0  0  0  0  0  0  0  0  0  0
  146.6118  141.1482  155.7416 C   0  0  0  0  0  0  0  0  0  0  0  0
  145.3910  141.1797  155.5767 O   0  0  0  0  0  0  0  0  0  0  0  0
  145.4236  137.0065  152.7666 H   0  0  0  0  0  0  0  0  0  0  0  0
  146.4804  137.4614  151.4297 H   0  0  0  0  0  0  0  0  0  0  0  0
  145.1686  138.5415  151.9361 H   0  0  0  0  0  0  0  0  0  0  0  0
  148.5646  139.4607  152.8267 H   0  0  0  0  0  0  0  0  0  0  0  0
  147.3257  139.6083  151.5831 H   0  0  0  0  0  0  0  0  0  0  0  0
  147.2878  141.7211  152.7228 H   0  0  0  0  0  0  0  0  0  0  0  0
  145.8885  140.8814  153.2989 H   0  0  0  0  0  0  0  0  0  0  0  0
  149.4365  140.7904  153.9613 H   0  0  0  0  0  0  0  0  0  0  0  0
  150.4418  143.4604  157.1717 H   0  0  0  0  0  0  0  0  0  0  0  0
  153.1408  143.4032  160.5147 H   0  0  0  0  0  0  0  0  0  0  0  0
  153.8150  141.0867  159.9453 H   0  0  0  0  0  0  0  0  0  0  0  0
  148.9846  141.2988  158.2261 H   0  0  0  0  0  0  0  0  0  0  0  0
  1  2  1  0  0  0  0
  1 24  1  0  0  0  0
  1 25  1  0  0  0  0
  1 26  1  0  0  0  0
  2  3  1  0  0  0  0
  3  4  1  0  0  0  0
  3 27  1  0  0  0  0
  3 28  1  0  0  0  0
  4  5  1  0  0  0  0
  4 29  1  0  0  0  0
  4 30  1  0  0  0  0
  5 22  1  0  0  0  0
  5  6  1  0  0  0  0
  6  7  2  0  0  0  0
  6 31  1  0  0  0  0
  7  8  1  0  0  0  0
  7 18  1  0  0  0  0
  8  9  2  0  0  0  0
  8 10  1  0  0  0  0
 10 16  1  0  0  0  0
 10 11  2  0  0  0  0
 11 12  1  0  0  0  0
 11 32  1  0  0  0  0
 12 13  1  0  0  0  0
 12 14  2  0  0  0  0
 14 15  1  0  0  0  0
 14 33  1  0  0  0  0
 15 16  2  0  0  0  0
 15 34  1  0  0  0  0
 16 17  1  0  0  0  0
 18 19  2  0  0  0  0
 18 35  1  0  0  0  0
 19 20  1  0  0  0  0
 19 22  1  0  0  0  0
 20 21  3  0  0  0  0
 22 23  2  0  0  0  0
M  CHG  1  17  -1
M  END
> <s_m_source_file>
AV-unprocessed.smi

> <i_m_source_file_index>
2941

> <i_lp_mmshare_version>
43012

> <i_f3d_flags>
0

> <s_epik_input>
W0NIM11PW0NIMl1bQ0gyXW4xW2NIXWMoW2NIXWMoQyNOKWMxPU8pQyg9TyljMltjSF1jKEYpW2NIXVtjSF1jMltPSF0=

> <s_epik_cmdline>
J2VwaWtfcHl0aG9uJywgJy1waCcsICc3LjAnLCAnLXRuJywgJzgnLCAnLW1hJywgJzIwMCcsICctbWV0YWxfYmluZGluZycsICctaW1hZScsICc8aW5maWxlLm1hZT4nLCAnLW9tYWUnLCAnPG91dGZpbGUubWFlPic=

> <r_epik_Ionization_Penalty>
0.585622

> <r_epik_Ionization_Penalty_Charging>
0.585622

> <r_epik_Ionization_Penalty_Neutral>
1.08437e-11

> <r_epik_State_Penalty>
0.598756

> <r_epik_Charging_Adjusted_Penalty>
1.18438

> <i_epik_Tot_Q>
-1

> <i_epik_Tot_abs_Q>
1

> <r_epik_Metal_State_Penalty>
0.598756

> <b_epik_Metal_Only>
0

> <s_lp_Force_Field>
OPLS_2005

> <r_lp_Energy>
22.2584

> <b_lp_Chiralities_Consistent>
1

> <s_lp_Variant>
AV-unprocessed.smi:2941-2

> <Gold.Version>
5.8.1

> <Gold.Id.Protein>
6NUR|6NUR_protein|mol2

> <Gold.PLP.Fitness>
48.5801

> <Gold.PLP.PLP>
-39.5289

> <Gold.PLP.part.hbond>
-2.5883

> <Gold.PLP.part.metal>
0.0000

> <Gold.PLP.part.buried>
-3.0727

> <Gold.PLP.part.nonpolar>
-34.5213

> <Gold.PLP.part.repulsive>
0.3523

> <Gold.PLP.ligand.clash>
0.0000

> <Gold.PLP.ligand.torsion>
1.5004

> <Gold.PLP.Chemscore.Hbond>
3.2688

> <Gold.PLP.Chemscore.CHOScore>
0.1592

> <Gold.PLP.Chemscore.Metal>
0.0000

> <Gold.Chemscore.Hbonds>
donor molecule, donor type, donor heavy atom, donor atom, acceptor molecule, acceptor atom, score
      P1  H  6934  6946       L1    21  0.65
      P1  H  7989  7998       L1     9  0.83
      P1  H  7997  8010       L1    17  1.80
      L1  C     6    31       P1  7957  0.07

> <Gold.PLP.Chemscore.Internal.Correction>
1.7681

> <Gold.Rescore>
     Score         DG    S(hbond)    S(metal)    S(lipo)     H(rot)  DE(clash)    DE(int)     intcor
     15.53     -19.78       1.96        0.00      98.46       1.47       1.69       2.56       ----

> <Gold.Chemscore.Fitness>
15.5262

> <Gold.Chemscore.DG>
-19.7774

> <Gold.Chemscore.ZeroCoef>
-5.4800

> <Gold.Chemscore.Hbond>
1.9621

> <Gold.Chemscore.Metal>
0.0000

> <Gold.Chemscore.Lipo>
98.4572

> <Gold.Chemscore.Internal_Hbond>
0.0000

> <Gold.Chemscore.DEClash>
1.6872

> <Gold.Chemscore.DEInternal>
2.5641

> <Gold.Chemscore.Rot>
1.4747

> <Gold.Chemscore.Internal.Correction>
   9.000000E+99

> <Gold.Chemscore.Hbonds>
donor molecule, donor type, donor heavy atom, donor atom, acceptor molecule, acceptor atom, score
      P1  H  6934  6946       L1    21  0.22
      P1  H  7989  7998       L1     9  0.83
      P1  H  7997  8010       L1    17  0.17

> <Gold.Chemscore.Hbond.Weighted>
-6.5533

> <Gold.Chemscore.Metal.Weighted>
-0.0000

> <Gold.Chemscore.Lipo.Weighted>
-11.5195

> <Gold.Chemscore.Internal_Hbond.Weighted>
0.0000

> <Gold.Chemscore.DEClash.Weighted>
1.6872

> <Gold.Chemscore.DEInternal.Weighted>
2.5641

> <Gold.Chemscore.Rot.Weighted>
3.7754

> <Gold.Chemscore.Internal.Correction.Weighted>
   9.000000E+99

> <Gold.Protein.RotatedTorsions>
[ 6907 6896 6895 6894 ] final   89.90 input  -60.11 | X-H torsion
[ 7974 7965 7964 7962 ] final   47.50 input  175.53 | X-H torsion
[ 8008 7997 7996 7995 ] final   52.45 input   59.86 | X-H torsion
[ 10167 10162 10161 10158 ] final  117.68 input  -65.29 | X-H torsion
[ 10718 10713 10712 10709 ] final  154.84 input   66.30 | X-H torsion
[ 10763 10752 10751 10750 ] final  162.87 input  -60.55 | X-H torsion
[ 11005 11000 10999 10996 ] final  -14.56 input  -57.11 | X-H torsion

> <Gold.Protein.ActiveResidues>
 VAL166  LYS551  ARG553  GLY616  TRP617  ASP618  TYR619  PRO620  LYS621  CYS622 
 ASP623  PHE694  ASN695  SER759  ASP760  ASP761  ALA762  ILE779  LEU786  VAL792 
 PHE793  MET794  SER795  GLU796  ALA797  LYS798  CYS799  TRP800  GLU811  SER814 

> <Gold.Protein.RotatedAtoms>
  152.5440  134.1895  159.8667 H   0  0  0  0  0  0  0  0  0  0  0  0  # atno 6907 bound_to 6896
  151.1892  133.4671  159.2602 H   0  0  0  0  0  0  0  0  0  0  0  0  # atno 6908 bound_to 6896
  151.1101  135.0033  159.8545 H   0  0  0  0  0  0  0  0  0  0  0  0  # atno 6909 bound_to 6896
  146.0292  139.4743  142.9848 H   0  0  0  0  0  0  0  0  0  0  0  0  # atno 7974 bound_to 7965
  155.4519  140.3458  155.4302 H   0  0  0  0  0  0  0  0  0  0  0  0  # atno 8008 bound_to 7997
  156.1215  140.1488  156.9228 H   0  0  0  0  0  0  0  0  0  0  0  0  # atno 8009 bound_to 7997
  154.4826  140.0865  156.7393 H   0  0  0  0  0  0  0  0  0  0  0  0  # atno 8010 bound_to 7997
  139.6162  144.7092  151.2734 H   0  0  0  0  0  0  0  0  0  0  0  0  # atno 10167 bound_to 10162
  157.2262  131.0729  151.1881 H   0  0  0  0  0  0  0  0  0  0  0  0  # atno 10718 bound_to 10713
  154.2850  135.2762  155.2680 H   0  0  0  0  0  0  0  0  0  0  0  0  # atno 10763 bound_to 10752
  154.5185  135.5763  153.6665 H   0  0  0  0  0  0  0  0  0  0  0  0  # atno 10764 bound_to 10752
  152.9923  135.6198  154.3011 H   0  0  0  0  0  0  0  0  0  0  0  0  # atno 10765 bound_to 10752
  140.7876  133.8313  155.9350 H   0  0  0  0  0  0  0  0  0  0  0  0  # atno 11005 bound_to 11000
  145.7068  141.0119  143.1474 LP  0  0  0  0  0  0  0  0  0  0  0  0  # atno 17320 bound_to 7965
  144.7023  139.8710  143.7440 LP  0  0  0  0  0  0  0  0  0  0  0  0  # atno 17321 bound_to 7965
  140.7352  143.6743  150.8055 LP  0  0  0  0  0  0  0  0  0  0  0  0  # atno 17342 bound_to 10162
  140.0346  143.5408  152.2745 LP  0  0  0  0  0  0  0  0  0  0  0  0  # atno 17343 bound_to 10162
  157.3525  130.7089  149.6449 LP  0  0  0  0  0  0  0  0  0  0  0  0  # atno 17370 bound_to 10713
  155.9678  130.4248  150.4627 LP  0  0  0  0  0  0  0  0  0  0  0  0  # atno 17371 bound_to 10713
  140.9421  134.1888  157.4790 LP  0  0  0  0  0  0  0  0  0  0  0  0  # atno 17394 bound_to 11000
  139.8735  134.9876  156.5374 LP  0  0  0  0  0  0  0  0  0  0  0  0  # atno 17395 bound_to 11000

$$$$
