AV-unprocessed.smi:1967|AV-procd|sdf|7955|dock3
  -GOLD-   2272010123D 1   1.00000     0.00000
 Structure written by MMmdl.
 36 37  0  0  0  0  0  0  0  0  2 V2000
  154.1041  136.3743  157.1896 O   0  0  0  0  0  0  0  0  0  0  0  0
  152.9884  137.1495  157.7568 S   0  0  0  0  0  0  0  0  0  0  0  0
  152.2210  136.5428  158.8568 O   0  0  0  0  0  0  0  0  0  0  0  0
  153.3559  138.7077  158.0132 N   0  5  0  0  0  0  0  0  0  0  0  0
  152.3878  139.5544  158.6877 C   0  0  0  0  0  0  0  0  0  0  0  0
  151.8519  140.6216  157.7094 C   0  0  0  0  0  0  0  0  0  0  0  0
  151.8800  142.0436  158.2608 C   0  0  0  0  0  0  0  0  0  0  0  0
  152.4553  142.3135  159.5237 C   0  0  0  0  0  0  0  0  0  0  0  0
  152.4652  143.6414  159.9915 C   0  0  0  0  0  0  0  0  0  0  0  0
  151.9080  144.6502  159.1826 C   0  0  0  0  0  0  0  0  0  0  0  0
  151.3645  144.2840  157.9354 C   0  0  0  0  0  0  0  0  0  0  0  0
  151.3500  143.0143  157.4768 N   0  0  0  0  0  0  0  0  0  0  0  0
  151.8623  137.4101  156.4589 N   0  0  0  0  0  0  0  0  0  0  0  0
  150.4203  137.2489  156.7399 C   0  0  0  0  0  0  0  0  0  0  0  0
  149.6194  137.0226  155.4472 C   0  0  0  0  0  0  0  0  0  0  0  0
  149.8820  138.1366  154.4289 C   0  0  0  0  0  0  0  0  0  0  0  0
  151.3861  138.2277  154.1547 C   0  0  0  0  0  0  0  0  0  0  0  0
  152.1779  138.4473  155.4545 C   0  0  0  0  0  0  0  0  0  0  0  0
  151.5514  138.9730  159.0768 H   0  0  0  0  0  0  0  0  0  0  0  0
  152.8302  140.0561  159.5491 H   0  0  0  0  0  0  0  0  0  0  0  0
  152.4317  140.5994  156.7854 H   0  0  0  0  0  0  0  0  0  0  0  0
  150.8261  140.3796  157.4257 H   0  0  0  0  0  0  0  0  0  0  0  0
  152.8739  141.5178  160.1227 H   0  0  0  0  0  0  0  0  0  0  0  0
  152.8926  143.8817  160.9537 H   0  0  0  0  0  0  0  0  0  0  0  0
  151.8979  145.6795  159.5091 H   0  0  0  0  0  0  0  0  0  0  0  0
  150.9309  145.0316  157.2878 H   0  0  0  0  0  0  0  0  0  0  0  0
  150.2653  136.4063  157.4135 H   0  0  0  0  0  0  0  0  0  0  0  0
  150.0596  138.1379  157.2588 H   0  0  0  0  0  0  0  0  0  0  0  0
  149.8910  136.0589  155.0147 H   0  0  0  0  0  0  0  0  0  0  0  0
  148.5548  136.9696  155.6758 H   0  0  0  0  0  0  0  0  0  0  0  0
  149.3402  137.9384  153.5036 H   0  0  0  0  0  0  0  0  0  0  0  0
  149.5148  139.0885  154.8147 H   0  0  0  0  0  0  0  0  0  0  0  0
  151.7270  137.3112  153.6714 H   0  0  0  0  0  0  0  0  0  0  0  0
  151.5895  139.0393  153.4558 H   0  0  0  0  0  0  0  0  0  0  0  0
  151.9513  139.4278  155.8752 H   0  0  0  0  0  0  0  0  0  0  0  0
  153.2449  138.4380  155.2337 H   0  0  0  0  0  0  0  0  0  0  0  0
  1  2  2  0  0  0  0
  2  3  2  0  0  0  0
  2  4  1  0  0  0  0
  2 13  1  0  0  0  0
  4  5  1  0  0  0  0
  5  6  1  0  0  0  0
  5 19  1  0  0  0  0
  5 20  1  0  0  0  0
  6  7  1  0  0  0  0
  6 21  1  0  0  0  0
  6 22  1  0  0  0  0
  7 12  1  0  0  0  0
  7  8  2  0  0  0  0
  8  9  1  0  0  0  0
  8 23  1  0  0  0  0
  9 10  2  0  0  0  0
  9 24  1  0  0  0  0
 10 11  1  0  0  0  0
 10 25  1  0  0  0  0
 11 12  2  0  0  0  0
 11 26  1  0  0  0  0
 13 18  1  0  0  0  0
 13 14  1  0  0  0  0
 14 15  1  0  0  0  0
 14 27  1  0  0  0  0
 14 28  1  0  0  0  0
 15 16  1  0  0  0  0
 15 29  1  0  0  0  0
 15 30  1  0  0  0  0
 16 17  1  0  0  0  0
 16 31  1  0  0  0  0
 16 32  1  0  0  0  0
 17 18  1  0  0  0  0
 17 33  1  0  0  0  0
 17 34  1  0  0  0  0
 18 35  1  0  0  0  0
 18 36  1  0  0  0  0
M  CHG  1   4  -1
M  END
> <s_m_source_file>
AV-unprocessed.smi

> <i_m_source_file_index>
1967

> <i_lp_mmshare_version>
43012

> <i_f3d_flags>
0

> <s_epik_input>
W0NIMl0xW0NIMl1bQ0gyXVtDSDJdW0NIMl1OMVMoPU8pKD1PKVtOSF1bQ0gyXVtDSDJdYzJbY0hdW2NIXVtjSF1bY0hdbjI=

> <s_epik_cmdline>
J2VwaWtfcHl0aG9uJywgJy1waCcsICc3LjAnLCAnLXRuJywgJzgnLCAnLW1hJywgJzIwMCcsICctbWV0YWxfYmluZGluZycsICctaW1hZScsICc8aW5maWxlLm1hZT4nLCAnLW9tYWUnLCAnPG91dGZpbGUubWFlPic=

> <r_epik_Ionization_Penalty>
2.02944

> <r_epik_Ionization_Penalty_Charging>
1.95606

> <r_epik_Ionization_Penalty_Neutral>
0.0733798

> <r_epik_State_Penalty>
2.47711

> <r_epik_Charging_Adjusted_Penalty>
4.43317

> <i_epik_Tot_Q>
-1

> <i_epik_Tot_abs_Q>
1

> <r_epik_Metal_State_Penalty>
0.729901

> <b_epik_Metal_Only>
0

> <s_lp_Force_Field>
OPLS_2005

> <r_lp_Energy>
6.94762

> <b_lp_Chiralities_Consistent>
1

> <s_lp_Variant>
AV-unprocessed.smi:1967-2

> <Gold.Version>
5.8.1

> <Gold.Id.Protein>
6NUR|6NUR_protein|mol2

> <Gold.PLP.Fitness>
47.4756

> <Gold.PLP.PLP>
-33.9396

> <Gold.PLP.part.hbond>
-3.0000

> <Gold.PLP.part.metal>
0.0000

> <Gold.PLP.part.buried>
-5.5229

> <Gold.PLP.part.nonpolar>
-26.9810

> <Gold.PLP.part.repulsive>
0.0964

> <Gold.PLP.ligand.clash>
0.0000

> <Gold.PLP.ligand.torsion>
1.9749

> <Gold.PLP.Chemscore.Hbond>
3.7920

> <Gold.PLP.Chemscore.CHOScore>
1.0000

> <Gold.PLP.Chemscore.Metal>
0.0000

> <Gold.Chemscore.Hbonds>
donor molecule, donor type, donor heavy atom, donor atom, acceptor molecule, acceptor atom, score
      P1  H  6896  6908       L1     3  0.66
      P1  H  7997  8009       L1     4  1.76
      P1  H 10752 10765       L1     1  0.72
      L1  C    11    26       P1  8028  0.84

> <Gold.PLP.Chemscore.Internal.Correction>
3.1097

> <Gold.Rescore>
     Score         DG    S(hbond)    S(metal)    S(lipo)     H(rot)  DE(clash)    DE(int)     intcor
     19.30     -21.25       2.37        0.00      95.67       1.30       0.00       1.95       ----

> <Gold.Chemscore.Fitness>
19.2961

> <Gold.Chemscore.DG>
-21.2507

> <Gold.Chemscore.ZeroCoef>
-5.4800

> <Gold.Chemscore.Hbond>
2.3668

> <Gold.Chemscore.Metal>
0.0000

> <Gold.Chemscore.Lipo>
95.6661

> <Gold.Chemscore.Internal_Hbond>
0.0000

> <Gold.Chemscore.DEClash>
0.0000

> <Gold.Chemscore.DEInternal>
1.9545

> <Gold.Chemscore.Rot>
1.2997

> <Gold.Chemscore.Internal.Correction>
   9.000000E+99

> <Gold.Chemscore.Hbonds>
donor molecule, donor type, donor heavy atom, donor atom, acceptor molecule, acceptor atom, score
      P1  H  6896  6908       L1     3  0.66
      P1  H  7997  8009       L1     4  0.47
      P1  H 10752 10765       L1     1  0.69

> <Gold.Chemscore.Hbond.Weighted>
-7.9050

> <Gold.Chemscore.Metal.Weighted>
-0.0000

> <Gold.Chemscore.Lipo.Weighted>
-11.1929

> <Gold.Chemscore.Internal_Hbond.Weighted>
0.0000

> <Gold.Chemscore.DEClash.Weighted>
0.0000

> <Gold.Chemscore.DEInternal.Weighted>
1.9545

> <Gold.Chemscore.Rot.Weighted>
3.3273

> <Gold.Chemscore.Internal.Correction.Weighted>
   9.000000E+99

> <Gold.Protein.RotatedTorsions>
[ 6907 6896 6895 6894 ] final  -91.62 input  -60.11 | X-H torsion
[ 7974 7965 7964 7962 ] final  -40.21 input  175.53 | X-H torsion
[ 8008 7997 7996 7995 ] final  144.29 input   59.86 | X-H torsion
[ 10167 10162 10161 10158 ] final  152.14 input  -65.29 | X-H torsion
[ 10718 10713 10712 10709 ] final  121.26 input   66.30 | X-H torsion
[ 10763 10752 10751 10750 ] final  -79.72 input  -60.55 | X-H torsion
[ 11005 11000 10999 10996 ] final  170.18 input  -57.11 | X-H torsion

> <Gold.Protein.ActiveResidues>
 VAL166  LYS551  ARG553  GLY616  TRP617  ASP618  TYR619  PRO620  LYS621  CYS622 
 ASP623  PHE694  ASN695  SER759  ASP760  ASP761  ALA762  ILE779  LEU786  VAL792 
 PHE793  MET794  SER795  GLU796  ALA797  LYS798  CYS799  TRP800  GLU811  SER814 

> <Gold.Protein.RotatedAtoms>
  150.6895  134.2249  159.4411 H   0  0  0  0  0  0  0  0  0  0  0  0  # atno 6907 bound_to 6896
  152.0203  134.9824  160.0579 H   0  0  0  0  0  0  0  0  0  0  0  0  # atno 6908 bound_to 6896
  152.1403  133.4425  159.4800 H   0  0  0  0  0  0  0  0  0  0  0  0  # atno 6909 bound_to 6896
  146.0325  140.6713  142.9126 H   0  0  0  0  0  0  0  0  0  0  0  0  # atno 7974 bound_to 7965
  156.2911  140.2239  156.5029 H   0  0  0  0  0  0  0  0  0  0  0  0  # atno 8008 bound_to 7997
  154.7674  140.0469  157.1045 H   0  0  0  0  0  0  0  0  0  0  0  0  # atno 8009 bound_to 7997
  154.9916  140.3091  155.4907 H   0  0  0  0  0  0  0  0  0  0  0  0  # atno 8010 bound_to 7997
  139.4835  144.5383  151.7608 H   0  0  0  0  0  0  0  0  0  0  0  0  # atno 10167 bound_to 10162
  157.5831  131.1073  150.8149 H   0  0  0  0  0  0  0  0  0  0  0  0  # atno 10718 bound_to 10713
  154.5422  135.5686  153.6849 H   0  0  0  0  0  0  0  0  0  0  0  0  # atno 10763 bound_to 10752
  152.9966  135.6230  154.2486 H   0  0  0  0  0  0  0  0  0  0  0  0  # atno 10764 bound_to 10752
  154.2418  135.2862  155.2831 H   0  0  0  0  0  0  0  0  0  0  0  0  # atno 10765 bound_to 10752
  140.3056  134.7559  157.3951 H   0  0  0  0  0  0  0  0  0  0  0  0  # atno 11005 bound_to 11000
  144.7037  140.3761  143.7135 LP  0  0  0  0  0  0  0  0  0  0  0  0  # atno 17320 bound_to 7965
  145.7017  139.1663  143.2589 LP  0  0  0  0  0  0  0  0  0  0  0  0  # atno 17321 bound_to 7965
  140.4918  144.1299  150.5952 LP  0  0  0  0  0  0  0  0  0  0  0  0  # atno 17342 bound_to 10162
  140.4162  143.2633  151.9772 LP  0  0  0  0  0  0  0  0  0  0  0  0  # atno 17343 bound_to 10162
  156.8590  130.5106  149.5305 LP  0  0  0  0  0  0  0  0  0  0  0  0  # atno 17370 bound_to 10713
  156.0878  130.5872  150.9679 LP  0  0  0  0  0  0  0  0  0  0  0  0  # atno 17371 bound_to 10713
  140.1070  134.5396  155.8300 LP  0  0  0  0  0  0  0  0  0  0  0  0  # atno 17394 bound_to 11000
  141.2119  133.6712  156.6617 LP  0  0  0  0  0  0  0  0  0  0  0  0  # atno 17395 bound_to 11000

$$$$
