AV-unprocessed.smi:415|AV-procd|sdf|2522|dock10
  -GOLD-   2262022473D 1   1.00000     0.00000
 Structure written by MMmdl.
 53 54  0  0  0  0  0  0  0  0  1 V2000
  144.4388  132.1066  150.2125 C   0  0  0  0  0  0  0  0  0  0  0  0
  144.7623  133.4717  150.0175 O   0  0  0  0  0  0  0  0  0  0  0  0
  145.9091  133.8713  150.7496 C   0  0  0  0  0  0  0  0  0  0  0  0
  145.5921  133.8953  152.2541 C   0  0  0  0  0  0  0  0  0  0  0  0
  146.7681  133.7182  153.0857 N   0  0  0  0  0  0  0  0  0  0  0  0
  147.5093  132.5401  153.1092 C   0  0  0  0  0  0  0  0  0  0  0  0
  147.1392  131.4837  152.2961 N   0  0  0  0  0  0  0  0  0  0  0  0
  148.5940  132.4050  153.9038 C   0  0  0  0  0  0  0  0  0  0  0  0
  149.0469  133.4796  154.7753 C   0  0  0  0  0  0  0  0  0  0  0  0
  150.0088  133.3629  155.5350 O   0  0  0  0  0  0  0  0  0  0  0  0
  148.2978  134.6771  154.7145 N   0  0  0  0  0  0  0  0  0  0  0  0
  148.6770  135.7966  155.6107 C   0  0  0  0  0  0  0  0  0  0  0  0
  149.8765  136.6255  155.1155 C   0  0  0  0  0  0  0  0  0  0  0  0
  150.9804  136.0929  155.0114 O   0  0  0  0  0  0  0  0  0  0  0  0
  149.6552  137.9158  154.8189 N   0  0  0  0  0  0  0  0  0  0  0  0
  150.6295  138.8890  154.3360 C   0  0  2  0  0  0  0  0  0  0  0  0
  152.0032  138.6472  154.9913 C   0  0  0  0  0  0  0  0  0  0  0  0
  151.9759  138.9552  156.4957 C   0  0  0  0  0  0  0  0  0  0  0  0
  151.4868  140.3869  156.7538 C   0  0  0  0  0  0  0  0  0  0  0  0
  150.1047  140.6555  156.1222 C   0  0  1  0  0  0  0  0  0  0  0  0
  149.6667  142.0999  156.4225 C   0  0  0  0  0  0  0  0  0  0  0  0
  150.1222  140.3305  154.6009 C   0  0  2  0  0  0  0  0  0  0  0  0
  148.7593  140.5744  153.9198 C   0  0  0  0  0  0  0  0  0  0  0  0
  147.1656  134.8244  153.8800 C   0  0  0  0  0  0  0  0  0  0  0  0
  146.5392  135.8875  153.8675 O   0  0  0  0  0  0  0  0  0  0  0  0
  143.5493  131.8554  149.6346 H   0  0  0  0  0  0  0  0  0  0  0  0
  144.2290  131.8963  151.2620 H   0  0  0  0  0  0  0  0  0  0  0  0
  145.2503  131.4579  149.8801 H   0  0  0  0  0  0  0  0  0  0  0  0
  146.7184  133.1639  150.5632 H   0  0  0  0  0  0  0  0  0  0  0  0
  146.2532  134.8520  150.4172 H   0  0  0  0  0  0  0  0  0  0  0  0
  145.0729  134.8057  152.5576 H   0  0  0  0  0  0  0  0  0  0  0  0
  144.9102  133.0872  152.5174 H   0  0  0  0  0  0  0  0  0  0  0  0
  146.3410  131.5388  151.6796 H   0  0  0  0  0  0  0  0  0  0  0  0
  147.6520  130.6137  152.2862 H   0  0  0  0  0  0  0  0  0  0  0  0
  149.1456  131.4758  153.9026 H   0  0  0  0  0  0  0  0  0  0  0  0
  147.8372  136.4753  155.7671 H   0  0  0  0  0  0  0  0  0  0  0  0
  148.9060  135.4318  156.6131 H   0  0  0  0  0  0  0  0  0  0  0  0
  148.7126  138.2576  154.9375 H   0  0  0  0  0  0  0  0  0  0  0  0
  150.7376  138.7605  153.2575 H   0  0  0  0  0  0  0  0  0  0  0  0
  152.3284  137.6191  154.8268 H   0  0  0  0  0  0  0  0  0  0  0  0
  152.7483  139.2805  154.5085 H   0  0  0  0  0  0  0  0  0  0  0  0
  151.3269  138.2456  157.0104 H   0  0  0  0  0  0  0  0  0  0  0  0
  152.9718  138.8217  156.9186 H   0  0  0  0  0  0  0  0  0  0  0  0
  151.4459  140.5635  157.8292 H   0  0  0  0  0  0  0  0  0  0  0  0
  152.2162  141.0937  156.3552 H   0  0  0  0  0  0  0  0  0  0  0  0
  149.3845  139.9944  156.6072 H   0  0  0  0  0  0  0  0  0  0  0  0
  150.3012  142.8224  155.9081 H   0  0  0  0  0  0  0  0  0  0  0  0
  149.7232  142.3114  157.4907 H   0  0  0  0  0  0  0  0  0  0  0  0
  148.6357  142.2811  156.1200 H   0  0  0  0  0  0  0  0  0  0  0  0
  150.8355  141.0081  154.1289 H   0  0  0  0  0  0  0  0  0  0  0  0
  147.9546  140.0342  154.4202 H   0  0  0  0  0  0  0  0  0  0  0  0
  148.7788  140.2496  152.8793 H   0  0  0  0  0  0  0  0  0  0  0  0
  148.4961  141.6316  153.9148 H   0  0  0  0  0  0  0  0  0  0  0  0
  1  2  1  0  0  0  0
  1 26  1  0  0  0  0
  1 27  1  0  0  0  0
  1 28  1  0  0  0  0
  2  3  1  0  0  0  0
  3  4  1  0  0  0  0
  3 29  1  0  0  0  0
  3 30  1  0  0  0  0
  4  5  1  0  0  0  0
  4 31  1  0  0  0  0
  4 32  1  0  0  0  0
  5 24  1  0  0  0  0
  5  6  1  0  0  0  0
  6  7  1  0  0  0  0
  6  8  2  0  0  0  0
  7 33  1  0  0  0  0
  7 34  1  0  0  0  0
  8  9  1  0  0  0  0
  8 35  1  0  0  0  0
  9 10  2  0  0  0  0
  9 11  1  0  0  0  0
 11 12  1  0  0  0  0
 11 24  1  0  0  0  0
 12 13  1  0  0  0  0
 12 36  1  0  0  0  0
 12 37  1  0  0  0  0
 13 14  2  0  0  0  0
 13 15  1  0  0  0  0
 15 16  1  0  0  0  0
 15 38  1  0  0  0  0
 16 22  1  0  0  0  0
 16 17  1  0  0  0  0
 16 39  1  0  0  0  0
 17 18  1  0  0  0  0
 17 40  1  0  0  0  0
 17 41  1  0  0  0  0
 18 19  1  0  0  0  0
 18 42  1  0  0  0  0
 18 43  1  0  0  0  0
 19 20  1  0  0  0  0
 19 44  1  0  0  0  0
 19 45  1  0  0  0  0
 20 21  1  0  0  0  0
 20 22  1  0  0  0  0
 20 46  1  0  0  0  0
 21 47  1  0  0  0  0
 21 48  1  0  0  0  0
 21 49  1  0  0  0  0
 22 23  1  0  0  0  0
 22 50  1  0  0  0  0
 23 51  1  0  0  0  0
 23 52  1  0  0  0  0
 23 53  1  0  0  0  0
 24 25  2  0  0  0  0
M  END
> <s_m_source_file>
AV-unprocessed.smi

> <i_m_source_file_index>
415

> <i_lp_mmshare_version>
43012

> <i_f3d_flags>
0

> <s_epik_input>
W0NIM11PW0NIMl1bQ0gyXW4xYyhbTkgyXSlbY0hdYyg9TyluKGMxPU8pW0NIMl1DKD1PKVtOSF1bQ0BASF0yW0NIMl1bQ0gyXVtDSDJdW0NAQEhdKFtDSDNdKVtDQEhdMltDSDNd

> <s_epik_cmdline>
J2VwaWtfcHl0aG9uJywgJy1waCcsICc3LjAnLCAnLXRuJywgJzgnLCAnLW1hJywgJzIwMCcsICctbWV0YWxfYmluZGluZycsICctaW1hZScsICc8aW5maWxlLm1hZT4nLCAnLW9tYWUnLCAnPG91dGZpbGUubWFlPic=

> <r_lp_tautomer_probability>
1

> <r_epik_Ionization_Penalty>
8.6647e-06

> <r_epik_Ionization_Penalty_Charging>
1.81162e-08

> <r_epik_Ionization_Penalty_Neutral>
8.64658e-06

> <r_epik_State_Penalty>
-0

> <r_epik_Charging_Adjusted_Penalty>
1.81162e-08

> <i_epik_Tot_Q>
0

> <i_epik_Tot_abs_Q>
0

> <r_epik_Metal_State_Penalty>
-0

> <b_epik_Metal_Only>
0

> <s_lp_Force_Field>
OPLS_2005

> <r_lp_Energy>
19.7433

> <b_lp_Chiralities_Consistent>
1

> <s_lp_Variant>
AV-unprocessed.smi:415-5

> <Gold.Version>
5.8.1

> <Gold.Id.Protein>
6NUR|6NUR_protein|mol2

> <Gold.PLP.Fitness>
43.0142

> <Gold.PLP.PLP>
-40.6561

> <Gold.PLP.part.hbond>
-2.0000

> <Gold.PLP.part.metal>
0.0000

> <Gold.PLP.part.buried>
-2.2316

> <Gold.PLP.part.nonpolar>
-36.9305

> <Gold.PLP.part.repulsive>
0.4887

> <Gold.PLP.ligand.clash>
0.0000

> <Gold.PLP.ligand.torsion>
0.7822

> <Gold.PLP.Chemscore.Hbond>
1.2880

> <Gold.PLP.Chemscore.CHOScore>
0.0000

> <Gold.PLP.Chemscore.Metal>
0.0000

> <Gold.Chemscore.Hbonds>
donor molecule, donor type, donor heavy atom, donor atom, acceptor molecule, acceptor atom, score
      P1  H 10752 10763       L1    14  0.93

> <Gold.PLP.Chemscore.Internal.Correction>
0.0586

> <Gold.Rescore>
     Score         DG    S(hbond)    S(metal)    S(lipo)     H(rot)  DE(clash)    DE(int)     intcor
     10.41     -13.17       1.41        0.00      74.97       2.26       0.06       2.70       ----

> <Gold.Chemscore.Fitness>
10.4114

> <Gold.Chemscore.DG>
-13.1682

> <Gold.Chemscore.ZeroCoef>
-5.4800

> <Gold.Chemscore.Hbond>
1.4112

> <Gold.Chemscore.Metal>
0.0000

> <Gold.Chemscore.Lipo>
74.9745

> <Gold.Chemscore.Internal_Hbond>
0.0000

> <Gold.Chemscore.DEClash>
0.0555

> <Gold.Chemscore.DEInternal>
2.7013

> <Gold.Chemscore.Rot>
2.2645

> <Gold.Chemscore.Internal.Correction>
   9.000000E+99

> <Gold.Chemscore.Hbonds>
donor molecule, donor type, donor heavy atom, donor atom, acceptor molecule, acceptor atom, score
      L1  H     7    34       P1 10747  0.01
      P1  H 10752 10763       L1    14  0.89

> <Gold.Chemscore.Hbond.Weighted>
-4.7133

> <Gold.Chemscore.Metal.Weighted>
-0.0000

> <Gold.Chemscore.Lipo.Weighted>
-8.7720

> <Gold.Chemscore.Internal_Hbond.Weighted>
0.0000

> <Gold.Chemscore.DEClash.Weighted>
0.0555

> <Gold.Chemscore.DEInternal.Weighted>
2.7013

> <Gold.Chemscore.Rot.Weighted>
5.7972

> <Gold.Chemscore.Internal.Correction.Weighted>
   9.000000E+99

> <Gold.Protein.RotatedTorsions>
[ 6907 6896 6895 6894 ] final  -31.35 input  -60.11 | X-H torsion
[ 7974 7965 7964 7962 ] final -116.67 input  175.53 | X-H torsion
[ 8008 7997 7996 7995 ] final  170.19 input   59.86 | X-H torsion
[ 10167 10162 10161 10158 ] final   89.66 input  -65.29 | X-H torsion
[ 10718 10713 10712 10709 ] final  -60.78 input   66.30 | X-H torsion
[ 10763 10752 10751 10750 ] final   54.53 input  -60.55 | X-H torsion
[ 11005 11000 10999 10996 ] final  130.53 input  -57.11 | X-H torsion

> <Gold.Protein.ActiveResidues>
 VAL166  LYS551  ARG553  GLY616  TRP617  ASP618  TYR619  PRO620  LYS621  CYS622 
 ASP623  PHE694  ASN695  SER759  ASP760  ASP761  ALA762  ILE779  LEU786  VAL792 
 PHE793  MET794  SER795  GLU796  ALA797  LYS798  CYS799  TRP800  GLU811  SER814 

> <Gold.Protein.RotatedAtoms>
  151.0933  134.9929  159.8412 H   0  0  0  0  0  0  0  0  0  0  0  0  # atno 6907 bound_to 6896
  152.5431  134.2039  159.8733 H   0  0  0  0  0  0  0  0  0  0  0  0  # atno 6908 bound_to 6896
  151.2077  133.4530  159.2631 H   0  0  0  0  0  0  0  0  0  0  0  0  # atno 6909 bound_to 6896
  145.0940  140.8509  143.3965 H   0  0  0  0  0  0  0  0  0  0  0  0  # atno 7974 bound_to 7965
  156.1388  140.1544  156.8953 H   0  0  0  0  0  0  0  0  0  0  0  0  # atno 8008 bound_to 7997
  154.4970  140.0835  156.7756 H   0  0  0  0  0  0  0  0  0  0  0  0  # atno 8009 bound_to 7997
  155.4118  140.3419  155.4266 H   0  0  0  0  0  0  0  0  0  0  0  0  # atno 8010 bound_to 7997
  139.8551  144.6573  150.9124 H   0  0  0  0  0  0  0  0  0  0  0  0  # atno 10167 bound_to 10162
  156.0967  130.4192  150.0902 H   0  0  0  0  0  0  0  0  0  0  0  0  # atno 10718 bound_to 10713
  152.9806  135.5741  154.4920 H   0  0  0  0  0  0  0  0  0  0  0  0  # atno 10763 bound_to 10752
  154.4453  135.2777  155.1821 H   0  0  0  0  0  0  0  0  0  0  0  0  # atno 10764 bound_to 10752
  154.3472  135.6217  153.5678 H   0  0  0  0  0  0  0  0  0  0  0  0  # atno 10765 bound_to 10752
  139.9677  134.9586  156.9307 H   0  0  0  0  0  0  0  0  0  0  0  0  # atno 11005 bound_to 11000
  145.1032  139.2808  143.5675 LP  0  0  0  0  0  0  0  0  0  0  0  0  # atno 17320 bound_to 7965
  146.3531  140.0606  142.8629 LP  0  0  0  0  0  0  0  0  0  0  0  0  # atno 17321 bound_to 7965
  140.7782  143.3793  151.1506 LP  0  0  0  0  0  0  0  0  0  0  0  0  # atno 17342 bound_to 10162
  139.7428  143.8898  152.3055 LP  0  0  0  0  0  0  0  0  0  0  0  0  # atno 17343 bound_to 10162
  156.8899  130.9585  151.3589 LP  0  0  0  0  0  0  0  0  0  0  0  0  # atno 17370 bound_to 10713
  157.6129  130.8596  149.8980 LP  0  0  0  0  0  0  0  0  0  0  0  0  # atno 17371 bound_to 10713
  140.5360  134.0766  155.7328 LP  0  0  0  0  0  0  0  0  0  0  0  0  # atno 17394 bound_to 11000
  141.1357  133.9226  157.2439 LP  0  0  0  0  0  0  0  0  0  0  0  0  # atno 17395 bound_to 11000

$$$$
