AV-unprocessed.smi:1703|AV-procd|sdf|6871|dock1
  -GOLD-   22720 8 73D 1   1.00000     0.00000
 Structure written by MMmdl.
 49 51  0  0  0  0  0  0  0  0  2 V2000
  146.7110  138.8639  152.0370 C   0  0  0  0  0  0  0  0  0  0  0  0
  147.0793  139.6349  153.3087 C   0  0  1  0  0  0  0  0  0  0  0  0
  148.5188  139.3414  153.7668 C   0  0  0  0  0  0  0  0  0  0  0  0
  148.8909  140.1345  154.9313 N   0  0  0  0  0  0  0  0  0  0  0  0
  150.2424  139.8070  155.3831 C   0  0  0  0  0  0  0  0  0  0  0  0
  150.5685  140.2370  156.8292 C   0  0  2  0  0  0  0  0  0  0  0  0
  149.3657  140.5640  157.4982 O   0  0  0  0  0  0  0  0  0  0  0  0
  151.5105  141.4567  156.8709 C   0  0  0  0  0  0  0  0  0  0  0  0
  152.0820  141.6884  158.2080 N   0  0  0  0  0  0  0  0  0  0  0  0
  152.8301  140.8590  158.9914 C   0  0  0  0  0  0  0  0  0  0  0  0
  153.2575  139.4650  158.6563 C   0  0  0  0  0  0  0  0  0  0  0  0
  154.6357  139.3575  158.3672 O   0  0  0  0  0  0  0  0  0  0  0  0
  153.1126  141.5377  160.1399 N   0  3  0  0  0  0  0  0  0  0  0  0
  152.5419  142.8092  160.0924 C   0  0  0  0  0  0  0  0  0  0  0  0
  152.5579  143.8486  161.0175 C   0  0  0  0  0  0  0  0  0  0  0  0
  151.8683  145.0250  160.6591 C   0  0  0  0  0  0  0  0  0  0  0  0
  151.1970  145.1346  159.4242 C   0  0  0  0  0  0  0  0  0  0  0  0
  151.1887  144.0742  158.4939 C   0  0  0  0  0  0  0  0  0  0  0  0
  151.8754  142.9142  158.8540 C   0  0  0  0  0  0  0  0  0  0  0  0
  148.7340  141.5515  154.6111 C   0  0  0  0  0  0  0  0  0  0  0  0
  147.3170  141.8961  154.1106 C   0  0  2  0  0  0  0  0  0  0  0  0
  146.2624  141.9052  155.2304 C   0  0  0  0  0  0  0  0  0  0  0  0
  146.9444  141.0289  153.0381 O   0  0  0  0  0  0  0  0  0  0  0  0
  146.7888  137.7878  152.1939 H   0  0  0  0  0  0  0  0  0  0  0  0
  147.3690  139.1302  151.2093 H   0  0  0  0  0  0  0  0  0  0  0  0
  145.6871  139.0816  151.7325 H   0  0  0  0  0  0  0  0  0  0  0  0
  146.3813  139.3496  154.0964 H   0  0  0  0  0  0  0  0  0  0  0  0
  148.6093  138.2796  153.9997 H   0  0  0  0  0  0  0  0  0  0  0  0
  149.2118  139.5406  152.9476 H   0  0  0  0  0  0  0  0  0  0  0  0
  150.3490  138.7224  155.3332 H   0  0  0  0  0  0  0  0  0  0  0  0
  150.9858  140.2002  154.6873 H   0  0  0  0  0  0  0  0  0  0  0  0
  151.0457  139.4117  157.3589 H   0  0  0  0  0  0  0  0  0  0  0  0
  149.4350  140.2796  158.3965 H   0  0  0  0  0  0  0  0  0  0  0  0
  152.3485  141.3001  156.1909 H   0  0  0  0  0  0  0  0  0  0  0  0
  151.0082  142.3598  156.5243 H   0  0  0  0  0  0  0  0  0  0  0  0
  153.0217  138.8079  159.4934 H   0  0  0  0  0  0  0  0  0  0  0  0
  152.6893  139.1123  157.7953 H   0  0  0  0  0  0  0  0  0  0  0  0
  154.8538  138.4418  158.2800 H   0  0  0  0  0  0  0  0  0  0  0  0
  153.0699  143.7656  161.9650 H   0  0  0  0  0  0  0  0  0  0  0  0
  151.8527  145.8594  161.3454 H   0  0  0  0  0  0  0  0  0  0  0  0
  150.6764  146.0509  159.1854 H   0  0  0  0  0  0  0  0  0  0  0  0
  150.6665  144.1712  157.5540 H   0  0  0  0  0  0  0  0  0  0  0  0
  148.9603  142.1667  155.4817 H   0  0  0  0  0  0  0  0  0  0  0  0
  149.4564  141.8297  153.8421 H   0  0  0  0  0  0  0  0  0  0  0  0
  147.3450  142.9033  153.6942 H   0  0  0  0  0  0  0  0  0  0  0  0
  146.5050  142.6552  155.9837 H   0  0  0  0  0  0  0  0  0  0  0  0
  146.1948  140.9437  155.7394 H   0  0  0  0  0  0  0  0  0  0  0  0
  145.2757  142.1436  154.8331 H   0  0  0  0  0  0  0  0  0  0  0  0
  153.6576  141.1496  160.8993 H   0  0  0  0  0  0  0  0  0  0  0  0
  1  2  1  0  0  0  0
  1 24  1  0  0  0  0
  1 25  1  0  0  0  0
  1 26  1  0  0  0  0
  2 23  1  0  0  0  0
  2  3  1  0  0  0  0
  2 27  1  0  0  0  0
  3  4  1  0  0  0  0
  3 28  1  0  0  0  0
  3 29  1  0  0  0  0
  4  5  1  0  0  0  0
  4 20  1  0  0  0  0
  5  6  1  0  0  0  0
  5 30  1  0  0  0  0
  5 31  1  0  0  0  0
  6  7  1  0  0  0  0
  6  8  1  0  0  0  0
  6 32  1  0  0  0  0
  7 33  1  0  0  0  0
  8  9  1  0  0  0  0
  8 34  1  0  0  0  0
  8 35  1  0  0  0  0
  9 19  1  0  0  0  0
  9 10  1  0  0  0  0
 10 11  1  0  0  0  0
 10 13  2  0  0  0  0
 11 12  1  0  0  0  0
 11 36  1  0  0  0  0
 11 37  1  0  0  0  0
 12 38  1  0  0  0  0
 13 14  1  0  0  0  0
 13 49  1  0  0  0  0
 14 19  2  0  0  0  0
 14 15  1  0  0  0  0
 15 16  2  0  0  0  0
 15 39  1  0  0  0  0
 16 17  1  0  0  0  0
 16 40  1  0  0  0  0
 17 18  2  0  0  0  0
 17 41  1  0  0  0  0
 18 19  1  0  0  0  0
 18 42  1  0  0  0  0
 20 21  1  0  0  0  0
 20 43  1  0  0  0  0
 20 44  1  0  0  0  0
 21 22  1  0  0  0  0
 21 23  1  0  0  0  0
 21 45  1  0  0  0  0
 22 46  1  0  0  0  0
 22 47  1  0  0  0  0
 22 48  1  0  0  0  0
M  CHG  1  13   1
M  END
> <s_m_source_file>
AV-unprocessed.smi

> <i_m_source_file_index>
1703

> <i_lp_mmshare_version>
43012

> <i_f3d_flags>
0

> <s_epik_input>
W0NIM11bQ0BASF0xW0NIMl1OKFtDSDJdW0NASF0oTzEpW0NIM10pW0NIMl1bQ0BIXShbT0hdKVtDSDJdbihjKG4yKVtDSDJdW09IXSljKGMyMylbY0hdW2NIXVtjSF1bY0hdMw==

> <s_epik_cmdline>
J2VwaWtfcHl0aG9uJywgJy1waCcsICc3LjAnLCAnLXRuJywgJzgnLCAnLW1hJywgJzIwMCcsICctbWV0YWxfYmluZGluZycsICctaW1hZScsICc8aW5maWxlLm1hZT4nLCAnLW9tYWUnLCAnPG91dGZpbGUubWFlPic=

> <r_epik_Ionization_Penalty>
1.7682

> <r_epik_Ionization_Penalty_Charging>
1.55298

> <r_epik_Ionization_Penalty_Neutral>
0.215215

> <r_epik_State_Penalty>
1.83821

> <r_epik_Charging_Adjusted_Penalty>
3.39119

> <i_epik_Tot_Q>
1

> <i_epik_Tot_abs_Q>
1

> <r_epik_Metal_State_Penalty>
5.89206

> <b_epik_Metal_Only>
0

> <s_lp_Force_Field>
OPLS_2005

> <r_lp_Energy>
35.0588

> <b_lp_Chiralities_Consistent>
1

> <s_lp_Variant>
AV-unprocessed.smi:1703-19

> <Gold.Version>
5.8.1

> <Gold.Id.Protein>
6NUR|6NUR_protein|mol2

> <Gold.PLP.Fitness>
49.2931

> <Gold.PLP.PLP>
-48.3060

> <Gold.PLP.part.hbond>
-1.0000

> <Gold.PLP.part.metal>
0.0000

> <Gold.PLP.part.buried>
-4.6624

> <Gold.PLP.part.nonpolar>
-41.3878

> <Gold.PLP.part.repulsive>
0.3582

> <Gold.PLP.ligand.clash>
0.0000

> <Gold.PLP.ligand.torsion>
1.0160

> <Gold.PLP.Chemscore.Hbond>
1.0000

> <Gold.PLP.Chemscore.CHOScore>
0.0000

> <Gold.PLP.Chemscore.Metal>
0.0000

> <Gold.Chemscore.Hbonds>
donor molecule, donor type, donor heavy atom, donor atom, acceptor molecule, acceptor atom, score
      P1  H  7997  8009       L1    12  0.46

> <Gold.PLP.Chemscore.Internal.Correction>
0.0192

> <Gold.Rescore>
     Score         DG    S(hbond)    S(metal)    S(lipo)     H(rot)  DE(clash)    DE(int)     intcor
     14.24     -15.49       0.71        0.00     130.02       2.96       0.19       1.06       ----

> <Gold.Chemscore.Fitness>
14.2354

> <Gold.Chemscore.DG>
-15.4863

> <Gold.Chemscore.ZeroCoef>
-5.4800

> <Gold.Chemscore.Hbond>
0.7065

> <Gold.Chemscore.Metal>
0.0000

> <Gold.Chemscore.Lipo>
130.0213

> <Gold.Chemscore.Internal_Hbond>
0.0000

> <Gold.Chemscore.DEClash>
0.1944

> <Gold.Chemscore.DEInternal>
1.0565

> <Gold.Chemscore.Rot>
2.9555

> <Gold.Chemscore.Internal.Correction>
   9.000000E+99

> <Gold.Chemscore.Hbonds>
donor molecule, donor type, donor heavy atom, donor atom, acceptor molecule, acceptor atom, score
      P1  H  7997  8009       L1    12  0.31

> <Gold.Chemscore.Hbond.Weighted>
-2.3598

> <Gold.Chemscore.Metal.Weighted>
-0.0000

> <Gold.Chemscore.Lipo.Weighted>
-15.2125

> <Gold.Chemscore.Internal_Hbond.Weighted>
0.0000

> <Gold.Chemscore.DEClash.Weighted>
0.1944

> <Gold.Chemscore.DEInternal.Weighted>
1.0565

> <Gold.Chemscore.Rot.Weighted>
7.5660

> <Gold.Chemscore.Internal.Correction.Weighted>
   9.000000E+99

> <Gold.Protein.RotatedTorsions>
[ 6907 6896 6895 6894 ] final   18.42 input  -60.11 | X-H torsion
[ 7974 7965 7964 7962 ] final -140.70 input  175.53 | X-H torsion
[ 8008 7997 7996 7995 ] final  118.74 input   59.86 | X-H torsion
[ 10167 10162 10161 10158 ] final  -34.90 input  -65.29 | X-H torsion
[ 10718 10713 10712 10709 ] final    0.62 input   66.30 | X-H torsion
[ 10763 10752 10751 10750 ] final -142.94 input  -60.55 | X-H torsion
[ 11005 11000 10999 10996 ] final   79.54 input  -57.11 | X-H torsion

> <Gold.Protein.ActiveResidues>
 VAL166  LYS551  ARG553  GLY616  TRP617  ASP618  TYR619  PRO620  LYS621  CYS622 
 ASP623  PHE694  ASN695  SER759  ASP760  ASP761  ALA762  ILE779  LEU786  VAL792 
 PHE793  MET794  SER795  GLU796  ALA797  LYS798  CYS799  TRP800  GLU811  SER814 

> <Gold.Protein.RotatedAtoms>
  151.8650  135.0510  160.0473 H   0  0  0  0  0  0  0  0  0  0  0  0  # atno 6907 bound_to 6896
  152.2633  133.5312  159.5403 H   0  0  0  0  0  0  0  0  0  0  0  0  # atno 6908 bound_to 6896
  150.7124  134.0715  159.3908 H   0  0  0  0  0  0  0  0  0  0  0  0  # atno 6909 bound_to 6896
  144.8576  140.6168  143.5349 H   0  0  0  0  0  0  0  0  0  0  0  0  # atno 7974 bound_to 7965
  156.2561  140.2868  156.0882 H   0  0  0  0  0  0  0  0  0  0  0  0  # atno 8008 bound_to 7997
  155.1492  140.0397  157.2834 H   0  0  0  0  0  0  0  0  0  0  0  0  # atno 8009 bound_to 7997
  154.6473  140.2536  155.7260 H   0  0  0  0  0  0  0  0  0  0  0  0  # atno 8010 bound_to 7997
  140.7176  143.3515  151.2146 H   0  0  0  0  0  0  0  0  0  0  0  0  # atno 10167 bound_to 10162
  156.8361  130.5505  149.5682 H   0  0  0  0  0  0  0  0  0  0  0  0  # atno 10718 bound_to 10713
  154.8489  135.3482  154.6108 H   0  0  0  0  0  0  0  0  0  0  0  0  # atno 10763 bound_to 10752
  153.6717  135.6984  153.5150 H   0  0  0  0  0  0  0  0  0  0  0  0  # atno 10764 bound_to 10752
  153.2737  135.4285  155.0969 H   0  0  0  0  0  0  0  0  0  0  0  0  # atno 10765 bound_to 10752
  139.9169  134.7850  156.1792 H   0  0  0  0  0  0  0  0  0  0  0  0  # atno 11005 bound_to 11000
  145.4375  139.1540  143.3989 LP  0  0  0  0  0  0  0  0  0  0  0  0  # atno 17320 bound_to 7965
  146.2836  140.4494  142.8767 LP  0  0  0  0  0  0  0  0  0  0  0  0  # atno 17321 bound_to 7965
  139.7047  143.9475  152.2921 LP  0  0  0  0  0  0  0  0  0  0  0  0  # atno 17342 bound_to 10162
  139.9180  144.6817  150.8491 LP  0  0  0  0  0  0  0  0  0  0  0  0  # atno 17343 bound_to 10162
  156.0906  130.5893  150.9727 LP  0  0  0  0  0  0  0  0  0  0  0  0  # atno 17370 bound_to 10713
  157.6380  131.0913  150.8308 LP  0  0  0  0  0  0  0  0  0  0  0  0  # atno 17371 bound_to 10713
  141.0653  133.6822  156.2032 LP  0  0  0  0  0  0  0  0  0  0  0  0  # atno 17394 bound_to 11000
  140.6595  134.4982  157.5582 LP  0  0  0  0  0  0  0  0  0  0  0  0  # atno 17395 bound_to 11000

$$$$
