AV-unprocessed.smi:49|AV-procd|sdf|481|dock4
  -GOLD-   2262016343D 1   1.00000     0.00000
 Structure written by MMmdl.
 28 29  0  0  0  0  0  0  0  0  2 V2000
  152.0920  144.4081  159.3800 C   0  0  0  0  0  0  0  0  0  0  0  0
  151.8331  144.3248  157.8719 C   0  0  0  0  0  0  0  0  0  0  0  0
  151.2390  143.0169  157.4627 C   0  0  0  0  0  0  0  0  0  0  0  0
  150.0468  142.9371  156.8547 N   0  0  0  0  0  0  0  0  0  0  0  0
  149.8823  141.6171  156.6835 C   0  0  0  0  0  0  0  0  0  0  0  0
  148.6504  141.0598  156.0343 C   0  0  2  0  0  0  0  0  0  0  0  0
  148.8877  140.3467  154.7012 C   0  0  0  0  0  0  0  0  0  0  0  0
  147.5877  140.6232  153.9520 C   0  0  2  0  0  0  0  0  0  0  0  0
  147.7445  140.5071  152.5538 O   0  0  0  0  0  0  0  0  0  0  0  0
  147.2343  142.0529  154.3782 C   0  0  0  0  0  0  0  0  0  0  0  0
  147.7997  142.2303  155.7311 N   0  3  0  0  0  0  0  0  0  0  0  0
  150.9061  140.8992  157.1626 N   0  0  0  0  0  0  0  0  0  0  0  0
  151.7995  141.8229  157.6758 N   0  0  0  0  0  0  0  0  0  0  0  0
  148.1138  140.4092  156.7266 H   0  0  0  0  0  0  0  0  0  0  0  0
  146.8131  139.9336  154.2909 H   0  0  0  0  0  0  0  0  0  0  0  0
  149.4251  143.6896  156.5954 H   0  0  0  0  0  0  0  0  0  0  0  0
  152.5252  145.3721  159.6471 H   0  0  0  0  0  0  0  0  0  0  0  0
  152.7848  143.6307  159.7035 H   0  0  0  0  0  0  0  0  0  0  0  0
  151.1674  144.2897  159.9452 H   0  0  0  0  0  0  0  0  0  0  0  0
  151.1669  145.1315  157.5642 H   0  0  0  0  0  0  0  0  0  0  0  0
  152.7673  144.4691  157.3279 H   0  0  0  0  0  0  0  0  0  0  0  0
  149.7198  140.8130  154.1701 H   0  0  0  0  0  0  0  0  0  0  0  0
  149.1141  139.2862  154.8152 H   0  0  0  0  0  0  0  0  0  0  0  0
  148.6645  140.4118  152.3574 H   0  0  0  0  0  0  0  0  0  0  0  0
  147.7125  142.7809  153.7210 H   0  0  0  0  0  0  0  0  0  0  0  0
  146.1602  142.2401  154.3626 H   0  0  0  0  0  0  0  0  0  0  0  0
  147.0649  142.3078  156.4195 H   0  0  0  0  0  0  0  0  0  0  0  0
  148.3671  143.0666  155.7412 H   0  0  0  0  0  0  0  0  0  0  0  0
  1  2  1  0  0  0  0
  1 17  1  0  0  0  0
  1 18  1  0  0  0  0
  1 19  1  0  0  0  0
  2 20  1  0  0  0  0
  2 21  1  0  0  0  0
  2  3  1  0  0  0  0
  3  4  1  0  0  0  0
  3 13  2  0  0  0  0
  4 16  1  0  0  0  0
  4  5  1  0  0  0  0
  5 12  2  0  0  0  0
  5  6  1  0  0  0  0
  6 14  1  0  0  0  0
  6 11  1  0  0  0  0
  6  7  1  0  0  0  0
  7  8  1  0  0  0  0
  7 22  1  0  0  0  0
  7 23  1  0  0  0  0
  8 15  1  0  0  0  0
  8  9  1  0  0  0  0
  8 10  1  0  0  0  0
  9 24  1  0  0  0  0
 10 11  1  0  0  0  0
 10 25  1  0  0  0  0
 10 26  1  0  0  0  0
 11 27  1  0  0  0  0
 11 28  1  0  0  0  0
 12 13  1  0  0  0  0
M  CHG  1  11   1
M  END
> <s_m_source_file>
AV-unprocessed.smi

> <i_m_source_file_index>
49

> <i_lp_mmshare_version>
43012

> <i_f3d_flags>
0

> <s_epik_input>
W0NIM11bQ0gyXWMxbmMobltuSF0xKVtDQEBIXTJbQ0gyXVtDQEBIXShbT0hdKVtDSDJdW05IXTI=

> <s_epik_cmdline>
J2VwaWtfcHl0aG9uJywgJy1waCcsICc3LjAnLCAnLXRuJywgJzgnLCAnLW1hJywgJzIwMCcsICctbWV0YWxfYmluZGluZycsICctaW1hZScsICc8aW5maWxlLm1hZT4nLCAnLW9tYWUnLCAnPG91dGZpbGUubWFlPic=

> <r_lp_tautomer_probability>
0.0517155

> <r_epik_Ionization_Penalty>
0.939819

> <r_epik_Ionization_Penalty_Charging>
0.0688988

> <r_epik_Ionization_Penalty_Neutral>
0.87092

> <r_epik_State_Penalty>
2.1224

> <r_epik_Charging_Adjusted_Penalty>
2.1913

> <i_epik_Tot_Q>
1

> <i_epik_Tot_abs_Q>
1

> <r_epik_Metal_State_Penalty>
2.39725

> <b_epik_Metal_Only>
0

> <s_lp_Force_Field>
OPLS_2005

> <r_lp_Energy>
21.0752

> <b_lp_Chiralities_Consistent>
1

> <s_lp_Variant>
AV-unprocessed.smi:49-19

> <Gold.Version>
5.8.1

> <Gold.Id.Protein>
6NUR|6NUR_protein|mol2

> <Gold.PLP.Fitness>
37.3332

> <Gold.PLP.PLP>
-25.9630

> <Gold.PLP.part.hbond>
-2.4363

> <Gold.PLP.part.metal>
0.0000

> <Gold.PLP.part.buried>
-3.4930

> <Gold.PLP.part.nonpolar>
-19.9489

> <Gold.PLP.part.repulsive>
0.1225

> <Gold.PLP.ligand.clash>
0.0000

> <Gold.PLP.ligand.torsion>
0.0323

> <Gold.PLP.Chemscore.Hbond>
3.8073

> <Gold.PLP.Chemscore.CHOScore>
0.0000

> <Gold.PLP.Chemscore.Metal>
0.0000

> <Gold.Chemscore.Hbonds>
donor molecule, donor type, donor heavy atom, donor atom, acceptor molecule, acceptor atom, score
      L1  H     4    16       P1  8028  0.89
      L1  H     9    24       P1  7957  0.78
      L1  H    11    28       P1  8028  2.00

> <Gold.PLP.Chemscore.Internal.Correction>
0.0131

> <Gold.Rescore>
     Score         DG    S(hbond)    S(metal)    S(lipo)     H(rot)  DE(clash)    DE(int)     intcor
     15.68     -15.95       2.88        0.00      48.48       1.89       0.10       0.18       ----

> <Gold.Chemscore.Fitness>
15.6785

> <Gold.Chemscore.DG>
-15.9517

> <Gold.Chemscore.ZeroCoef>
-5.4800

> <Gold.Chemscore.Hbond>
2.8844

> <Gold.Chemscore.Metal>
0.0000

> <Gold.Chemscore.Lipo>
48.4773

> <Gold.Chemscore.Internal_Hbond>
0.0000

> <Gold.Chemscore.DEClash>
0.0978

> <Gold.Chemscore.DEInternal>
0.1754

> <Gold.Chemscore.Rot>
1.8883

> <Gold.Chemscore.Internal.Correction>
   9.000000E+99

> <Gold.Chemscore.Hbonds>
donor molecule, donor type, donor heavy atom, donor atom, acceptor molecule, acceptor atom, score
      L1  H     4    16       P1  8028  0.83
      L1  H     9    24       P1  7957  0.75
      L1  H    11    28       P1  8028  0.97

> <Gold.Chemscore.Hbond.Weighted>
-9.6338

> <Gold.Chemscore.Metal.Weighted>
-0.0000

> <Gold.Chemscore.Lipo.Weighted>
-5.6718

> <Gold.Chemscore.Internal_Hbond.Weighted>
0.0000

> <Gold.Chemscore.DEClash.Weighted>
0.0978

> <Gold.Chemscore.DEInternal.Weighted>
0.1754

> <Gold.Chemscore.Rot.Weighted>
4.8340

> <Gold.Chemscore.Internal.Correction.Weighted>
   9.000000E+99

> <Gold.Protein.RotatedTorsions>
[ 6907 6896 6895 6894 ] final  -54.40 input  -60.11 | X-H torsion
[ 7974 7965 7964 7962 ] final  -34.58 input  175.53 | X-H torsion
[ 8008 7997 7996 7995 ] final   89.91 input   59.86 | X-H torsion
[ 10167 10162 10161 10158 ] final -116.55 input  -65.29 | X-H torsion
[ 10718 10713 10712 10709 ] final  152.30 input   66.30 | X-H torsion
[ 10763 10752 10751 10750 ] final   46.08 input  -60.55 | X-H torsion
[ 11005 11000 10999 10996 ] final   56.39 input  -57.11 | X-H torsion

> <Gold.Protein.ActiveResidues>
 VAL166  LYS551  ARG553  GLY616  TRP617  ASP618  TYR619  PRO620  LYS621  CYS622 
 ASP623  PHE694  ASN695  SER759  ASP760  ASP761  ALA762  ILE779  LEU786  VAL792 
 PHE793  MET794  SER795  GLU796  ALA797  LYS798  CYS799  TRP800  GLU811  SER814 

> <Gold.Protein.RotatedAtoms>
  150.8341  134.7607  159.6877 H   0  0  0  0  0  0  0  0  0  0  0  0  # atno 6907 bound_to 6896
  152.4441  134.5528  159.9881 H   0  0  0  0  0  0  0  0  0  0  0  0  # atno 6908 bound_to 6896
  151.5682  133.3356  159.3020 H   0  0  0  0  0  0  0  0  0  0  0  0  # atno 6909 bound_to 6896
  146.0818  140.6055  142.8905 H   0  0  0  0  0  0  0  0  0  0  0  0  # atno 7974 bound_to 7965
  156.0056  140.3355  155.6889 H   0  0  0  0  0  0  0  0  0  0  0  0  # atno 8008 bound_to 7997
  155.6229  140.0677  157.2690 H   0  0  0  0  0  0  0  0  0  0  0  0  # atno 8009 bound_to 7997
  154.4264  140.1773  156.1379 H   0  0  0  0  0  0  0  0  0  0  0  0  # atno 8010 bound_to 7997
  140.0780  143.4814  152.1942 H   0  0  0  0  0  0  0  0  0  0  0  0  # atno 10167 bound_to 10162
  157.2595  131.0795  151.1675 H   0  0  0  0  0  0  0  0  0  0  0  0  # atno 10718 bound_to 10713
  152.9815  135.6019  154.3542 H   0  0  0  0  0  0  0  0  0  0  0  0  # atno 10763 bound_to 10752
  154.3229  135.2769  155.2512 H   0  0  0  0  0  0  0  0  0  0  0  0  # atno 10764 bound_to 10752
  154.4671  135.5951  153.6351 H   0  0  0  0  0  0  0  0  0  0  0  0  # atno 10765 bound_to 10752
  140.0533  134.5706  155.9238 H   0  0  0  0  0  0  0  0  0  0  0  0  # atno 11005 bound_to 11000
  144.7298  140.4638  143.6946 LP  0  0  0  0  0  0  0  0  0  0  0  0  # atno 17320 bound_to 7965
  145.6204  139.1523  143.3026 LP  0  0  0  0  0  0  0  0  0  0  0  0  # atno 17321 bound_to 7965
  139.5796  144.7504  151.3674 LP  0  0  0  0  0  0  0  0  0  0  0  0  # atno 17342 bound_to 10162
  140.7092  143.7435  150.7536 LP  0  0  0  0  0  0  0  0  0  0  0  0  # atno 17343 bound_to 10162
  157.3191  130.6928  149.6258 LP  0  0  0  0  0  0  0  0  0  0  0  0  # atno 17370 bound_to 10713
  155.9664  130.4341  150.5034 LP  0  0  0  0  0  0  0  0  0  0  0  0  # atno 17371 bound_to 10713
  141.1940  133.6581  156.5575 LP  0  0  0  0  0  0  0  0  0  0  0  0  # atno 17394 bound_to 11000
  140.3884  134.7462  157.4706 LP  0  0  0  0  0  0  0  0  0  0  0  0  # atno 17395 bound_to 11000

$$$$
