#       Name:                AV-unprocessed.smi:1377
#       Creating user name   scv26
#       Creation time:       Fri Mar 27 05:19:54 2020


#       File generated by GOLD software.
#

@<TRIPOS>MOLECULE
AV-unprocessed.smi:1377
    34    35     1
SMALL
NO_CHARGES


@<TRIPOS>ATOM
      1 ****        -4.6153   0.3887  -3.2880 N.am           1 S1                 0.0000
      2 ****        -4.0462   0.1434  -2.1046 C.2            1 S1                 0.0000
      3 ****        -4.2245   0.8686  -1.1282 O.2            1 S1                 0.0000
      4 ****        -3.1485  -1.0915  -2.0021 C.3            1 S1                 0.0000
      5 ****        -1.7058  -0.6977  -2.1341 C.2            1 S1                 0.0000
      6 ****        -1.0089  -0.4899  -3.3007 C.2            1 S1                 0.0000
      7 ****         0.6485  -0.0395  -3.0024 S.3            1 S1                 0.0000
      8 ****         0.3316  -0.1628  -1.2790 C.2            1 S1                 0.0000
      9 ****         1.3348   0.0977  -0.3092 N.am           1 S1                 0.0000
     10 ****         1.2411   0.0133   1.0309 C.2            1 S1                 0.0000
     11 ****         0.2264  -0.3303   1.6390 O.2            1 S1                 0.0000
     12 ****         2.5164   0.3791   1.8030 C.3            1 S1                 0.0000
     13 ****         2.9648  -0.6747   2.8309 C.3            1 S1                 0.0000
     14 ****         3.2168   0.4607   3.8273 C.3            1 S1                 0.0000
     15 ****         2.2996   1.3472   2.9801 C.3            1 S1                 0.0000
     16 ****        -0.9258  -0.5141  -0.9875 N.2            1 S1                 0.0000
     17 ****        -5.2152   1.1938  -3.3965 H              1 S1                 0.0000
     18 ****        -4.4458  -0.2289  -4.0684 H              1 S1                 0.0000
     19 ****        -3.3316  -1.5820  -1.0449 H              1 S1                 0.0000
     20 ****        -3.4211  -1.8141  -2.7725 H              1 S1                 0.0000
     21 ****        -1.3717  -0.5692  -4.3147 H              1 S1                 0.0000
     22 ****         2.2310   0.3816  -0.6770 H              1 S1                 0.0000
     23 ****         3.3396   0.6980   1.1605 H              1 S1                 0.0000
     24 ****         2.1730  -1.3523   3.1558 H              1 S1                 0.0000
     25 ****         3.8638  -1.2229   2.5484 H              1 S1                 0.0000
     26 ****         2.8554   0.2680   4.8378 H              1 S1                 0.0000
     27 ****         4.2531   0.8018   3.8247 H              1 S1                 0.0000
     28 ****         2.6875   2.3523   2.8119 H              1 S1                 0.0000
     29 ****         1.2764   1.3761   3.3592 H              1 S1                 0.0000
     30 ****        -4.8125   1.6739  -1.2042 LP             1 S1                 0.0000
     31 ****        -3.7815   0.6532  -0.2579 LP             1 S1                 0.0000
     32 ****        -0.6024  -0.5699   1.1334 LP             1 S1                 0.0000
     33 ****         0.2316  -0.3697   2.6382 LP             1 S1                 0.0000
     34 ****        -1.2692  -0.6321  -0.0557 LP             1 S1                 0.0000
@<TRIPOS>BOND
    1    1    2 am    
    2    1   17 1     
    3    1   18 1     
    4    2    3 2     
    5    2    4 1     
    6    4    5 1     
    7    4   19 1     
    8    4   20 1     
    9    5   16 1     
   10    5    6 2     
   11    6    7 1     
   12    6   21 1     
   13    7    8 1     
   14    8    9 1     
   15    8   16 2     
   16    9   10 am    
   17    9   22 1     
   18   10   11 2     
   19   10   12 1     
   20   12   15 1     
   21   12   13 1     
   22   12   23 1     
   23   13   14 1     
   24   13   24 1     
   25   13   25 1     
   26   14   15 1     
   27   14   26 1     
   28   14   27 1     
   29   15   28 1     
   30   15   29 1     
   31    3   30 1     
   32    3   31 1     
   33   11   32 1     
   34   11   33 1     
   35   16   34 1     
@<TRIPOS>SUBSTRUCTURE
      1 S1             1
@<TRIPOS>SET
LONE_PAIRS      STATIC     ATOMS    <user>   **** ""
5 30 31 32 33 34
DONOR_HYDROGENS      STATIC     ATOMS    <user>   **** ""
3 17 18 22
ATOM$BLUE        STATIC     ATOMS    COLORGROUP SYSTEM
5 30 31 32 33 34
ATOM$RED        STATIC     ATOMS    COLORGROUP SYSTEM
3 17 18 22
