AV-unprocessed.smi:1815|AV-procd|sdf|7357|dock4
  -GOLD-   22720 9 13D 1   1.00000     0.00000
 Structure written by MMmdl.
 38 39  0  0  0  0  0  0  0  0  2 V2000
  153.2137  141.6935  160.9445 C   0  0  0  0  0  0  0  0  0  0  0  0
  152.0601  141.6781  159.9360 C   0  0  2  0  0  0  0  0  0  0  0  0
  152.0584  140.4001  159.0783 C   0  0  0  0  0  0  0  0  0  0  0  0
  151.0118  140.4256  158.0658 N   0  0  0  0  0  0  0  0  0  0  0  0
  150.9958  139.1825  157.2940 C   0  0  0  0  0  0  0  0  0  0  0  0
  150.8153  137.8924  158.1186 C   0  0  0  0  0  0  0  0  0  0  0  0
  149.5947  137.9206  158.9192 N   0  0  0  0  0  0  0  0  0  0  0  0
  148.8476  136.8574  159.2483 C   0  0  0  0  0  0  0  0  0  0  0  0
  149.1713  135.7334  158.8572 O   0  0  0  0  0  0  0  0  0  0  0  0
  147.7728  137.1617  160.0112 N   0  5  0  0  0  0  0  0  0  0  0  0
  147.1171  136.1889  160.6645 C   0  0  0  0  0  0  0  0  0  0  0  0
  146.6551  135.0883  160.0600 N   0  0  0  0  0  0  0  0  0  0  0  0
  146.0019  134.2109  160.9273 C   0  0  0  0  0  0  0  0  0  0  0  0
  145.9569  134.6582  162.2210 C   0  0  0  0  0  0  0  0  0  0  0  0
  146.7382  136.2044  162.3895 S   0  0  0  0  0  0  0  0  0  0  0  0
  151.1885  141.6070  157.2254 C   0  0  0  0  0  0  0  0  0  0  0  0
  151.2315  142.9153  158.0400 C   0  0  1  0  0  0  0  0  0  0  0  0
  149.8534  143.3448  158.5713 C   0  0  0  0  0  0  0  0  0  0  0  0
  152.1976  142.8169  159.0880 O   0  0  0  0  0  0  0  0  0  0  0  0
  153.1479  140.8475  161.6289 H   0  0  0  0  0  0  0  0  0  0  0  0
  153.1966  142.6056  161.5412 H   0  0  0  0  0  0  0  0  0  0  0  0
  154.1790  141.6426  160.4403 H   0  0  0  0  0  0  0  0  0  0  0  0
  151.1219  141.7477  160.4873 H   0  0  0  0  0  0  0  0  0  0  0  0
  153.0316  140.2789  158.5995 H   0  0  0  0  0  0  0  0  0  0  0  0
  151.9206  139.5343  159.7271 H   0  0  0  0  0  0  0  0  0  0  0  0
  150.2139  139.2337  156.5351 H   0  0  0  0  0  0  0  0  0  0  0  0
  151.9336  139.0967  156.7432 H   0  0  0  0  0  0  0  0  0  0  0  0
  150.7854  137.0159  157.4724 H   0  0  0  0  0  0  0  0  0  0  0  0
  151.6781  137.7480  158.7705 H   0  0  0  0  0  0  0  0  0  0  0  0
  149.2963  138.8210  159.2642 H   0  0  0  0  0  0  0  0  0  0  0  0
  145.5972  133.2891  160.5367 H   0  0  0  0  0  0  0  0  0  0  0  0
  145.5141  134.1768  163.0797 H   0  0  0  0  0  0  0  0  0  0  0  0
  152.1173  141.5123  156.6608 H   0  0  0  0  0  0  0  0  0  0  0  0
  150.3870  141.6767  156.4908 H   0  0  0  0  0  0  0  0  0  0  0  0
  151.5778  143.7097  157.3784 H   0  0  0  0  0  0  0  0  0  0  0  0
  149.1607  143.5232  157.7486 H   0  0  0  0  0  0  0  0  0  0  0  0
  149.9282  144.2675  159.1466 H   0  0  0  0  0  0  0  0  0  0  0  0
  149.4060  142.5854  159.2124 H   0  0  0  0  0  0  0  0  0  0  0  0
  1  2  1  0  0  0  0
  1 20  1  0  0  0  0
  1 21  1  0  0  0  0
  1 22  1  0  0  0  0
  2 19  1  0  0  0  0
  2  3  1  0  0  0  0
  2 23  1  0  0  0  0
  3  4  1  0  0  0  0
  3 24  1  0  0  0  0
  3 25  1  0  0  0  0
  4  5  1  0  0  0  0
  4 16  1  0  0  0  0
  5  6  1  0  0  0  0
  5 26  1  0  0  0  0
  5 27  1  0  0  0  0
  6  7  1  0  0  0  0
  6 28  1  0  0  0  0
  6 29  1  0  0  0  0
  7  8  1  0  0  0  0
  7 30  1  0  0  0  0
  8  9  2  0  0  0  0
  8 10  1  0  0  0  0
 10 11  1  0  0  0  0
 11 15  1  0  0  0  0
 11 12  2  0  0  0  0
 12 13  1  0  0  0  0
 13 14  2  0  0  0  0
 13 31  1  0  0  0  0
 14 15  1  0  0  0  0
 14 32  1  0  0  0  0
 16 17  1  0  0  0  0
 16 33  1  0  0  0  0
 16 34  1  0  0  0  0
 17 18  1  0  0  0  0
 17 19  1  0  0  0  0
 17 35  1  0  0  0  0
 18 36  1  0  0  0  0
 18 37  1  0  0  0  0
 18 38  1  0  0  0  0
M  CHG  1  10  -1
M  END
> <s_m_source_file>
AV-unprocessed.smi

> <i_m_source_file_index>
1815

> <i_lp_mmshare_version>
43012

> <i_f3d_flags>
0

> <s_epik_input>
W0NIM11bQ0BASF0xW0NIMl1OKFtDSDJdW0NASF0oTzEpW0NIM10pW0NIMl1bQ0gyXVtOSF1DKD1PKVtOSF1jMm5bY0hdW2NIXXMy

> <s_epik_cmdline>
J2VwaWtfcHl0aG9uJywgJy1waCcsICc3LjAnLCAnLXRuJywgJzgnLCAnLW1hJywgJzIwMCcsICctbWV0YWxfYmluZGluZycsICctaW1hZScsICc8aW5maWxlLm1hZT4nLCAnLW9tYWUnLCAnPG91dGZpbGUubWFlPic=

> <r_lp_tautomer_probability>
0.999

> <r_epik_Ionization_Penalty>
7.22374

> <r_epik_Ionization_Penalty_Charging>
5.82415

> <r_epik_Ionization_Penalty_Neutral>
1.39959

> <r_epik_State_Penalty>
6.03347

> <r_epik_Charging_Adjusted_Penalty>
11.8576

> <i_epik_Tot_Q>
-1

> <i_epik_Tot_abs_Q>
1

> <r_epik_Metal_State_Penalty>
2.01024

> <b_epik_Metal_Only>
1

> <s_lp_Force_Field>
OPLS_2005

> <r_lp_Energy>
21.2187

> <b_lp_Chiralities_Consistent>
1

> <s_lp_Variant>
AV-unprocessed.smi:1815-8

> <Gold.Version>
5.8.1

> <Gold.Id.Protein>
6NUR|6NUR_protein|mol2

> <Gold.PLP.Fitness>
45.3739

> <Gold.PLP.PLP>
-36.2705

> <Gold.PLP.part.hbond>
-3.0000

> <Gold.PLP.part.metal>
0.0000

> <Gold.PLP.part.buried>
-6.2431

> <Gold.PLP.part.nonpolar>
-29.3056

> <Gold.PLP.part.repulsive>
0.2343

> <Gold.PLP.ligand.clash>
0.0000

> <Gold.PLP.ligand.torsion>
0.7146

> <Gold.PLP.Chemscore.Hbond>
3.4909

> <Gold.PLP.Chemscore.CHOScore>
0.0000

> <Gold.PLP.Chemscore.Metal>
0.0000

> <Gold.Chemscore.Hbonds>
donor molecule, donor type, donor heavy atom, donor atom, acceptor molecule, acceptor atom, score
      P1  H  6896  6908       L1     9  1.00
      P1  H  6934  6947       L1    10  1.16

> <Gold.PLP.Chemscore.Internal.Correction>
0.0597

> <Gold.Rescore>
     Score         DG    S(hbond)    S(metal)    S(lipo)     H(rot)  DE(clash)    DE(int)     intcor
     15.89     -16.73       1.83        0.00      78.19       1.57       0.01       0.82       ----

> <Gold.Chemscore.Fitness>
15.8885

> <Gold.Chemscore.DG>
-16.7260

> <Gold.Chemscore.ZeroCoef>
-5.4800

> <Gold.Chemscore.Hbond>
1.8296

> <Gold.Chemscore.Metal>
0.0000

> <Gold.Chemscore.Lipo>
78.1888

> <Gold.Chemscore.Internal_Hbond>
0.0000

> <Gold.Chemscore.DEClash>
0.0128

> <Gold.Chemscore.DEInternal>
0.8248

> <Gold.Chemscore.Rot>
1.5676

> <Gold.Chemscore.Internal.Correction>
   9.000000E+99

> <Gold.Chemscore.Hbonds>
donor molecule, donor type, donor heavy atom, donor atom, acceptor molecule, acceptor atom, score
      P1  H  6896  6908       L1     9  0.95
      P1  H  6934  6947       L1    10  0.36

> <Gold.Chemscore.Hbond.Weighted>
-6.1110

> <Gold.Chemscore.Metal.Weighted>
-0.0000

> <Gold.Chemscore.Lipo.Weighted>
-9.1481

> <Gold.Chemscore.Internal_Hbond.Weighted>
0.0000

> <Gold.Chemscore.DEClash.Weighted>
0.0128

> <Gold.Chemscore.DEInternal.Weighted>
0.8248

> <Gold.Chemscore.Rot.Weighted>
4.0130

> <Gold.Chemscore.Internal.Correction.Weighted>
   9.000000E+99

> <Gold.Protein.RotatedTorsions>
[ 6907 6896 6895 6894 ] final  170.28 input  -60.11 | X-H torsion
[ 7974 7965 7964 7962 ] final  -63.48 input  175.53 | X-H torsion
[ 8008 7997 7996 7995 ] final  146.12 input   59.86 | X-H torsion
[ 10167 10162 10161 10158 ] final -166.58 input  -65.29 | X-H torsion
[ 10718 10713 10712 10709 ] final  -83.36 input   66.30 | X-H torsion
[ 10763 10752 10751 10750 ] final   45.29 input  -60.55 | X-H torsion
[ 11005 11000 10999 10996 ] final  -22.06 input  -57.11 | X-H torsion

> <Gold.Protein.ActiveResidues>
 VAL166  LYS551  ARG553  GLY616  TRP617  ASP618  TYR619  PRO620  LYS621  CYS622 
 ASP623  PHE694  ASN695  SER759  ASP760  ASP761  ALA762  ILE779  LEU786  VAL792 
 PHE793  MET794  SER795  GLU796  ALA797  LYS798  CYS799  TRP800  GLU811  SER814 

> <Gold.Protein.RotatedAtoms>
  151.8186  133.3391  159.3576 H   0  0  0  0  0  0  0  0  0  0  0  0  # atno 6907 bound_to 6896
  150.7302  134.5596  159.5845 H   0  0  0  0  0  0  0  0  0  0  0  0  # atno 6908 bound_to 6896
  152.3023  134.7598  160.0406 H   0  0  0  0  0  0  0  0  0  0  0  0  # atno 6909 bound_to 6896
  145.7785  140.8775  143.0343 H   0  0  0  0  0  0  0  0  0  0  0  0  # atno 7974 bound_to 7965
  156.2864  140.2191  156.5326 H   0  0  0  0  0  0  0  0  0  0  0  0  # atno 8008 bound_to 7997
  154.7436  140.0486  157.0855 H   0  0  0  0  0  0  0  0  0  0  0  0  # atno 8009 bound_to 7997
  155.0199  140.3123  155.4800 H   0  0  0  0  0  0  0  0  0  0  0  0  # atno 8010 bound_to 7997
  139.6105  144.0824  152.1837 H   0  0  0  0  0  0  0  0  0  0  0  0  # atno 10167 bound_to 10162
  156.0019  130.4663  150.4246 H   0  0  0  0  0  0  0  0  0  0  0  0  # atno 10718 bound_to 10713
  152.9827  135.6044  154.3413 H   0  0  0  0  0  0  0  0  0  0  0  0  # atno 10763 bound_to 10752
  154.3110  135.2771  155.2568 H   0  0  0  0  0  0  0  0  0  0  0  0  # atno 10764 bound_to 10752
  154.4777  135.5925  153.6423 H   0  0  0  0  0  0  0  0  0  0  0  0  # atno 10765 bound_to 10752
  140.8621  133.7781  156.0087 H   0  0  0  0  0  0  0  0  0  0  0  0  # atno 11005 bound_to 11000
  144.6800  139.9955  143.7484 LP  0  0  0  0  0  0  0  0  0  0  0  0  # atno 17320 bound_to 7965
  146.0098  139.3160  143.0877 LP  0  0  0  0  0  0  0  0  0  0  0  0  # atno 17321 bound_to 7965
  140.0441  144.5984  150.7387 LP  0  0  0  0  0  0  0  0  0  0  0  0  # atno 17342 bound_to 10162
  140.7316  143.2696  151.3932 LP  0  0  0  0  0  0  0  0  0  0  0  0  # atno 17343 bound_to 10162
  157.2300  131.0502  151.2498 LP  0  0  0  0  0  0  0  0  0  0  0  0  # atno 17370 bound_to 10713
  157.3720  130.7186  149.6571 LP  0  0  0  0  0  0  0  0  0  0  0  0  # atno 17371 bound_to 10713
  140.8671  134.2771  157.5208 LP  0  0  0  0  0  0  0  0  0  0  0  0  # atno 17394 bound_to 11000
  139.8707  134.9548  156.4187 LP  0  0  0  0  0  0  0  0  0  0  0  0  # atno 17395 bound_to 11000

$$$$
