#       Name:                AV-unprocessed.smi:2106
#       Creating user name   scv26
#       Creation time:       Fri Mar 27 11:33:02 2020


#       File generated by GOLD software.
#

@<TRIPOS>MOLECULE
AV-unprocessed.smi:2106
    53    54     1
SMALL
NO_CHARGES


@<TRIPOS>ATOM
      1 ****        -2.8353   0.3925  -5.9251 C.3            1 S1                 0.0000
      2 ****        -2.6899   0.9083  -4.5239 C.2            1 S1                 0.0000
      3 ****        -2.8354   2.2445  -4.0571 C.2            1 S1                 0.0000
      4 ****        -2.5950   2.1614  -2.7145 C.2            1 S1                 0.0000
      5 ****        -2.5943   3.2291  -1.6702 C.3            1 S1                 0.0000
      6 ****        -2.3266   0.8323  -2.4364 N.pl3          1 S1                 0.0000
      7 ****        -1.9973   0.2069  -1.1655 C.3            1 S1                 0.0000
      8 ****        -0.4874   0.2105  -0.9255 C.2            1 S1                 0.0000
      9 ****         0.0497   1.1902  -0.4093 O.2            1 S1                 0.0000
     10 ****         0.1803  -0.8901  -1.3050 N.am           1 S1                 0.0000
     11 ****         1.6145  -1.1077  -1.1475 C.3            1 S1                 0.0000
     12 ****         1.9314  -1.9031   0.1345 C.3            1 S1                 0.0000
     13 ****         1.6251  -1.2225   1.3928 N.3            1 S1                 0.0000
     14 ****         1.7115  -2.1364   2.5237 C.3            1 S1                 0.0000
     15 ****         1.3317  -1.4472   3.8468 C.3            1 S1                 0.0000
     16 ****         1.5036  -2.3776   5.0520 C.3            1 S1                 0.0000
     17 ****         2.1659  -0.3071   4.0452 O.3            1 S1                 0.0000
     18 ****         2.1785   0.6338   2.9702 C.3            1 S1                 0.0000
     19 ****         0.8824   1.4607   2.9187 C.3            1 S1                 0.0000
     20 ****         2.4994  -0.0784   1.6413 C.3            1 S1                 0.0000
     21 ****        -2.3870   0.0673  -3.5488 N.2            1 S1                 0.0000
     22 ****        -3.1137   1.1920  -6.6121 H              1 S1                 0.0000
     23 ****        -3.6052  -0.3771  -5.9829 H              1 S1                 0.0000
     24 ****        -1.9008  -0.0410  -6.2821 H              1 S1                 0.0000
     25 ****        -3.0776   3.1315  -4.6235 H              1 S1                 0.0000
     26 ****        -2.8733   4.1921  -2.0982 H              1 S1                 0.0000
     27 ****        -1.6060   3.3354  -1.2233 H              1 S1                 0.0000
     28 ****        -3.3047   2.9992  -0.8760 H              1 S1                 0.0000
     29 ****        -2.5007   0.7404  -0.3588 H              1 S1                 0.0000
     30 ****        -2.3823  -0.8143  -1.1546 H              1 S1                 0.0000
     31 ****        -0.3490  -1.6387  -1.7277 H              1 S1                 0.0000
     32 ****         1.9469  -1.6858  -2.0097 H              1 S1                 0.0000
     33 ****         2.1681  -0.1694  -1.1937 H              1 S1                 0.0000
     34 ****         1.3719  -2.8386   0.0896 H              1 S1                 0.0000
     35 ****         2.9841  -2.1893   0.1258 H              1 S1                 0.0000
     36 ****         1.0486  -2.9871   2.3612 H              1 S1                 0.0000
     37 ****         2.7230  -2.5393   2.5965 H              1 S1                 0.0000
     38 ****         0.2893  -1.1297   3.8053 H              1 S1                 0.0000
     39 ****         0.8765  -3.2645   4.9564 H              1 S1                 0.0000
     40 ****         1.2248  -1.8715   5.9765 H              1 S1                 0.0000
     41 ****         2.5380  -2.7076   5.1516 H              1 S1                 0.0000
     42 ****         2.9911   1.3292   3.1816 H              1 S1                 0.0000
     43 ****         0.9549   2.2461   2.1662 H              1 S1                 0.0000
     44 ****         0.6875   1.9400   3.8780 H              1 S1                 0.0000
     45 ****         0.0157   0.8500   2.6669 H              1 S1                 0.0000
     46 ****         3.5371  -0.4150   1.6638 H              1 S1                 0.0000
     47 ****         2.4301   0.6436   0.8290 H              1 S1                 0.0000
     48 ****        -0.5014   1.9825  -0.1475 LP             1 S1                 0.0000
     49 ****         1.0372   1.1940  -0.2518 LP             1 S1                 0.0000
     50 ****         0.6875  -0.8876   1.2993 LP             1 S1                 0.0000
     51 ****         3.1021  -0.6296   4.1846 LP             1 S1                 0.0000
     52 ****         1.8508   0.1671   4.8673 LP             1 S1                 0.0000
     53 ****        -2.2358  -0.9186  -3.6194 LP             1 S1                 0.0000
@<TRIPOS>BOND
    1    1    2 1     
    2    1   22 1     
    3    1   23 1     
    4    1   24 1     
    5    2   21 2     
    6    2    3 1     
    7    3    4 2     
    8    3   25 1     
    9    4    5 1     
   10    4    6 1     
   11    5   26 1     
   12    5   27 1     
   13    5   28 1     
   14    6    7 1     
   15    6   21 1     
   16    7    8 1     
   17    7   29 1     
   18    7   30 1     
   19    8    9 2     
   20    8   10 am    
   21   10   11 1     
   22   10   31 1     
   23   11   12 1     
   24   11   32 1     
   25   11   33 1     
   26   12   13 1     
   27   12   34 1     
   28   12   35 1     
   29   13   20 1     
   30   13   14 1     
   31   14   15 1     
   32   14   36 1     
   33   14   37 1     
   34   15   16 1     
   35   15   17 1     
   36   15   38 1     
   37   16   39 1     
   38   16   40 1     
   39   16   41 1     
   40   17   18 1     
   41   18   19 1     
   42   18   20 1     
   43   18   42 1     
   44   19   43 1     
   45   19   44 1     
   46   19   45 1     
   47   20   46 1     
   48   20   47 1     
   49    9   48 1     
   50    9   49 1     
   51   13   50 1     
   52   17   51 1     
   53   17   52 1     
   54   21   53 1     
@<TRIPOS>SUBSTRUCTURE
      1 S1             1
@<TRIPOS>SET
LONE_PAIRS      STATIC     ATOMS    <user>   **** ""
6 48 49 50 51 52 53
DONOR_HYDROGENS      STATIC     ATOMS    <user>   **** ""
1 31
ATOM$BLUE        STATIC     ATOMS    COLORGROUP SYSTEM
6 48 49 50 51 52 53
ATOM$RED        STATIC     ATOMS    COLORGROUP SYSTEM
1 31
