AV-unprocessed.smi:1139|AV-procd|sdf|4869|dock8
  -GOLD-   22720 3443D 1   1.00000     0.00000
 Structure written by MMmdl.
 43 44  0  0  0  0  0  0  0  0  2 V2000
  146.8230  133.9095  162.4999 C   0  0  0  0  0  0  0  0  0  0  0  0
  147.3330  135.0534  161.6709 C   0  0  0  0  0  0  0  0  0  0  0  0
  147.2199  136.2897  162.1263 N   0  0  0  0  0  0  0  0  0  0  0  0
  147.7804  137.1127  161.1447 O   0  0  0  0  0  0  0  0  0  0  0  0
  148.2142  136.3296  160.1244 C   0  0  0  0  0  0  0  0  0  0  0  0
  148.8505  137.0262  158.9693 C   0  0  0  0  0  0  0  0  0  0  0  0
  147.9617  135.0122  160.3931 C   0  0  0  0  0  0  0  0  0  0  0  0
  148.2720  133.8047  159.5473 C   0  0  0  0  0  0  0  0  0  0  0  0
  147.5897  133.9413  158.1858 C   0  0  0  0  0  0  0  0  0  0  0  0
  146.4900  134.4873  158.1005 O   0  0  0  0  0  0  0  0  0  0  0  0
  148.2511  133.4411  157.1302 N   0  0  0  0  0  0  0  0  0  0  0  0
  147.7625  133.4207  155.7536 C   0  0  0  0  0  0  0  0  0  0  0  0
  148.3959  134.5237  154.8659 C   0  0  2  0  0  0  0  0  0  0  0  0
  148.1586  135.9319  155.4573 C   0  0  0  0  0  0  0  0  0  0  0  0
  147.8818  134.4427  153.4659 N   0  3  0  0  0  0  0  0  0  0  0  0
  148.0471  133.1290  152.8056 C   0  0  0  0  0  0  0  0  0  0  0  0
  147.0737  133.1206  151.6252 C   0  0  0  0  0  0  0  0  0  0  0  0
  146.0259  134.1869  151.9520 C   0  0  0  0  0  0  0  0  0  0  0  0
  146.4519  134.7829  153.2961 C   0  0  0  0  0  0  0  0  0  0  0  0
  146.3108  133.1736  161.8804 H   0  0  0  0  0  0  0  0  0  0  0  0
  146.1169  134.2460  163.2600 H   0  0  0  0  0  0  0  0  0  0  0  0
  147.6430  133.4029  163.0090 H   0  0  0  0  0  0  0  0  0  0  0  0
  148.6113  136.5228  158.0326 H   0  0  0  0  0  0  0  0  0  0  0  0
  149.9348  137.0398  159.0780 H   0  0  0  0  0  0  0  0  0  0  0  0
  148.5045  138.0574  158.8940 H   0  0  0  0  0  0  0  0  0  0  0  0
  149.3457  133.6976  159.3890 H   0  0  0  0  0  0  0  0  0  0  0  0
  147.9469  132.8840  160.0339 H   0  0  0  0  0  0  0  0  0  0  0  0
  149.1501  133.0135  157.3001 H   0  0  0  0  0  0  0  0  0  0  0  0
  148.0090  132.4315  155.3693 H   0  0  0  0  0  0  0  0  0  0  0  0
  146.6736  133.4920  155.7249 H   0  0  0  0  0  0  0  0  0  0  0  0
  149.4735  134.3537  154.8338 H   0  0  0  0  0  0  0  0  0  0  0  0
  148.5601  136.0191  156.4663 H   0  0  0  0  0  0  0  0  0  0  0  0
  147.0946  136.1667  155.5032 H   0  0  0  0  0  0  0  0  0  0  0  0
  148.6485  136.7117  154.8752 H   0  0  0  0  0  0  0  0  0  0  0  0
  149.0737  132.9606  152.4789 H   0  0  0  0  0  0  0  0  0  0  0  0
  147.7791  132.3344  153.5040 H   0  0  0  0  0  0  0  0  0  0  0  0
  147.5949  133.3848  150.7041 H   0  0  0  0  0  0  0  0  0  0  0  0
  146.6287  132.1357  151.4794 H   0  0  0  0  0  0  0  0  0  0  0  0
  146.0261  134.9554  151.1777 H   0  0  0  0  0  0  0  0  0  0  0  0
  145.0189  133.7714  152.0015 H   0  0  0  0  0  0  0  0  0  0  0  0
  145.8710  134.3235  154.0976 H   0  0  0  0  0  0  0  0  0  0  0  0
  146.2810  135.8593  153.3287 H   0  0  0  0  0  0  0  0  0  0  0  0
  148.4019  135.1084  152.9119 H   0  0  0  0  0  0  0  0  0  0  0  0
  1  2  1  0  0  0  0
  1 20  1  0  0  0  0
  1 21  1  0  0  0  0
  1 22  1  0  0  0  0
  2  7  1  0  0  0  0
  2  3  2  0  0  0  0
  3  4  1  0  0  0  0
  4  5  1  0  0  0  0
  5  6  1  0  0  0  0
  5  7  2  0  0  0  0
  6 23  1  0  0  0  0
  6 24  1  0  0  0  0
  6 25  1  0  0  0  0
  7  8  1  0  0  0  0
  8  9  1  0  0  0  0
  8 26  1  0  0  0  0
  8 27  1  0  0  0  0
  9 10  2  0  0  0  0
  9 11  1  0  0  0  0
 11 12  1  0  0  0  0
 11 28  1  0  0  0  0
 12 13  1  0  0  0  0
 12 29  1  0  0  0  0
 12 30  1  0  0  0  0
 13 14  1  0  0  0  0
 13 15  1  0  0  0  0
 13 31  1  0  0  0  0
 14 32  1  0  0  0  0
 14 33  1  0  0  0  0
 14 34  1  0  0  0  0
 15 19  1  0  0  0  0
 15 16  1  0  0  0  0
 15 43  1  0  0  0  0
 16 17  1  0  0  0  0
 16 35  1  0  0  0  0
 16 36  1  0  0  0  0
 17 18  1  0  0  0  0
 17 37  1  0  0  0  0
 17 38  1  0  0  0  0
 18 19  1  0  0  0  0
 18 39  1  0  0  0  0
 18 40  1  0  0  0  0
 19 41  1  0  0  0  0
 19 42  1  0  0  0  0
M  CHG  1  15   1
M  END
> <s_m_source_file>
AV-unprocessed.smi

> <i_m_source_file_index>
1139

> <i_lp_mmshare_version>
43012

> <i_f3d_flags>
0

> <s_epik_input>
W0NIM11jMW5vYyhbQ0gzXSljMVtDSDJdQyg9TylbTkhdW0NIMl1bQ0BIXShbQ0gzXSlOMltDSDJdW0NIMl1bQ0gyXVtDSDJdMg==

> <s_epik_cmdline>
J2VwaWtfcHl0aG9uJywgJy1waCcsICc3LjAnLCAnLXRuJywgJzgnLCAnLW1hJywgJzIwMCcsICctbWV0YWxfYmluZGluZycsICctaW1hZScsICc8aW5maWxlLm1hZT4nLCAnLW9tYWUnLCAnPG91dGZpbGUubWFlPic=

> <r_epik_Ionization_Penalty>
0.0050436

> <r_epik_Ionization_Penalty_Charging>
0.0050435

> <r_epik_Ionization_Penalty_Neutral>
9.69799e-08

> <r_epik_State_Penalty>
0.00366867

> <r_epik_Charging_Adjusted_Penalty>
0.00871217

> <i_epik_Tot_Q>
1

> <i_epik_Tot_abs_Q>
1

> <r_epik_Metal_State_Penalty>
-0

> <b_epik_Metal_Only>
0

> <s_lp_Force_Field>
OPLS_2005

> <r_lp_Energy>
25.3713

> <b_lp_Chiralities_Consistent>
1

> <s_lp_Variant>
AV-unprocessed.smi:1139-1

> <Gold.Version>
5.8.1

> <Gold.Id.Protein>
6NUR|6NUR_protein|mol2

> <Gold.PLP.Fitness>
37.5557

> <Gold.PLP.PLP>
-26.9958

> <Gold.PLP.part.hbond>
-3.0000

> <Gold.PLP.part.metal>
0.0000

> <Gold.PLP.part.buried>
-2.8594

> <Gold.PLP.part.nonpolar>
-21.1608

> <Gold.PLP.part.repulsive>
0.0313

> <Gold.PLP.ligand.clash>
0.0000

> <Gold.PLP.ligand.torsion>
0.5038

> <Gold.PLP.Chemscore.Hbond>
3.8320

> <Gold.PLP.Chemscore.CHOScore>
0.0000

> <Gold.PLP.Chemscore.Metal>
0.0000

> <Gold.Chemscore.Hbonds>
donor molecule, donor type, donor heavy atom, donor atom, acceptor molecule, acceptor atom, score
      L1  H    15    43       P1  7948  2.00
      P1  H  6931  6943       L1     4  0.99
      P1  H  6934  6947       L1     4  0.83

> <Gold.PLP.Chemscore.Internal.Correction>
0.0714

> <Gold.Rescore>
     Score         DG    S(hbond)    S(metal)    S(lipo)     H(rot)  DE(clash)    DE(int)     intcor
     16.14     -16.70       2.49        0.00      62.48       1.72       0.04       0.52       ----

> <Gold.Chemscore.Fitness>
16.1354

> <Gold.Chemscore.DG>
-16.6967

> <Gold.Chemscore.ZeroCoef>
-5.4800

> <Gold.Chemscore.Hbond>
2.4874

> <Gold.Chemscore.Metal>
0.0000

> <Gold.Chemscore.Lipo>
62.4824

> <Gold.Chemscore.Internal_Hbond>
0.0000

> <Gold.Chemscore.DEClash>
0.0373

> <Gold.Chemscore.DEInternal>
0.5241

> <Gold.Chemscore.Rot>
1.7195

> <Gold.Chemscore.Internal.Correction>
   9.000000E+99

> <Gold.Chemscore.Hbonds>
donor molecule, donor type, donor heavy atom, donor atom, acceptor molecule, acceptor atom, score
      L1  H    15    43       P1  7948  0.81
      P1  H  6931  6943       L1     4  0.66
      P1  H  6934  6947       L1     4  0.78

> <Gold.Chemscore.Hbond.Weighted>
-8.3080

> <Gold.Chemscore.Metal.Weighted>
-0.0000

> <Gold.Chemscore.Lipo.Weighted>
-7.3104

> <Gold.Chemscore.Internal_Hbond.Weighted>
0.0000

> <Gold.Chemscore.DEClash.Weighted>
0.0373

> <Gold.Chemscore.DEInternal.Weighted>
0.5241

> <Gold.Chemscore.Rot.Weighted>
4.4018

> <Gold.Chemscore.Internal.Correction.Weighted>
   9.000000E+99

> <Gold.Protein.RotatedTorsions>
[ 6907 6896 6895 6894 ] final   81.43 input  -60.11 | X-H torsion
[ 7974 7965 7964 7962 ] final  -22.38 input  175.53 | X-H torsion
[ 8008 7997 7996 7995 ] final   53.11 input   59.86 | X-H torsion
[ 10167 10162 10161 10158 ] final  -39.80 input  -65.29 | X-H torsion
[ 10718 10713 10712 10709 ] final   -1.36 input   66.30 | X-H torsion
[ 10763 10752 10751 10750 ] final  156.48 input  -60.55 | X-H torsion
[ 11005 11000 10999 10996 ] final    0.95 input  -57.11 | X-H torsion

> <Gold.Protein.ActiveResidues>
 VAL166  LYS551  ARG553  GLY616  TRP617  ASP618  TYR619  PRO620  LYS621  CYS622 
 ASP623  PHE694  ASN695  SER759  ASP760  ASP761  ALA762  ILE779  LEU786  VAL792 
 PHE793  MET794  SER795  GLU796  ALA797  LYS798  CYS799  TRP800  GLU811  SER814 

> <Gold.Protein.RotatedAtoms>
  152.5268  134.3205  159.9146 H   0  0  0  0  0  0  0  0  0  0  0  0  # atno 6907 bound_to 6896
  151.3154  133.4056  159.2658 H   0  0  0  0  0  0  0  0  0  0  0  0  # atno 6908 bound_to 6896
  151.0004  134.9334  159.8008 H   0  0  0  0  0  0  0  0  0  0  0  0  # atno 6909 bound_to 6896
  146.1679  140.4471  142.8544 H   0  0  0  0  0  0  0  0  0  0  0  0  # atno 7974 bound_to 7965
  155.4629  140.3462  155.4315 H   0  0  0  0  0  0  0  0  0  0  0  0  # atno 8008 bound_to 7997
  156.1149  140.1471  156.9315 H   0  0  0  0  0  0  0  0  0  0  0  0  # atno 8009 bound_to 7997
  154.4782  140.0878  156.7293 H   0  0  0  0  0  0  0  0  0  0  0  0  # atno 8010 bound_to 7997
  140.7053  143.3192  151.2834 H   0  0  0  0  0  0  0  0  0  0  0  0  # atno 10167 bound_to 10162
  156.8067  130.5411  149.5714 H   0  0  0  0  0  0  0  0  0  0  0  0  # atno 10718 bound_to 10713
  154.1850  135.2797  155.3040 H   0  0  0  0  0  0  0  0  0  0  0  0  # atno 10763 bound_to 10752
  154.5973  135.5541  153.7342 H   0  0  0  0  0  0  0  0  0  0  0  0  # atno 10764 bound_to 10752
  153.0127  135.6383  154.1989 H   0  0  0  0  0  0  0  0  0  0  0  0  # atno 10765 bound_to 10752
  140.6208  133.9663  155.8224 H   0  0  0  0  0  0  0  0  0  0  0  0  # atno 11005 bound_to 11000
  144.8119  140.6400  143.6410 LP  0  0  0  0  0  0  0  0  0  0  0  0  # atno 17320 bound_to 7965
  145.4419  139.1534  143.3965 LP  0  0  0  0  0  0  0  0  0  0  0  0  # atno 17321 bound_to 7965
  139.6640  144.0138  152.2711 LP  0  0  0  0  0  0  0  0  0  0  0  0  # atno 17342 bound_to 10162
  139.9715  144.6491  150.7985 LP  0  0  0  0  0  0  0  0  0  0  0  0  # atno 17343 bound_to 10162
  156.1069  130.6011  150.9984 LP  0  0  0  0  0  0  0  0  0  0  0  0  # atno 17370 bound_to 10713
  157.6526  131.0894  150.8017 LP  0  0  0  0  0  0  0  0  0  0  0  0  # atno 17371 bound_to 10713
  141.0743  134.0158  157.3480 LP  0  0  0  0  0  0  0  0  0  0  0  0  # atno 17394 bound_to 11000
  139.9154  135.0196  156.7860 LP  0  0  0  0  0  0  0  0  0  0  0  0  # atno 17395 bound_to 11000

$$$$
