AV-unprocessed.smi:51|AV-procd|sdf|505|dock3
  -GOLD-   2262016373D 1   1.00000     0.00000
 Structure written by MMmdl.
 26 27  0  0  0  0  0  0  0  0  3 V2000
  153.4388  139.0914  157.6878 O   0  0  0  0  0  0  0  0  0  0  0  0
  153.2889  139.3194  158.9074 C   0  0  0  0  0  0  0  0  0  0  0  0
  152.4741  138.7412  159.6602 O   0  5  0  0  0  0  0  0  0  0  0  0
  154.1668  140.4245  159.5142 C   0  0  2  0  0  0  0  0  0  0  0  0
  154.9673  139.9195  160.7296 C   0  0  0  0  0  0  0  0  0  0  0  0
  155.0309  141.1382  161.6517 C   0  0  2  0  0  0  0  0  0  0  0  0
  155.2218  140.7890  163.0061 O   0  0  0  0  0  0  0  0  0  0  0  0
  153.6925  141.8375  161.4129 C   0  0  0  0  0  0  0  0  0  0  0  0
  153.3819  141.5494  160.0204 N   0  0  0  0  0  0  0  0  0  0  0  0
  152.6183  142.4177  159.2145 C   0  0  0  0  0  0  0  0  0  0  0  0
  152.5652  143.8088  159.4461 C   0  0  0  0  0  0  0  0  0  0  0  0
  151.7823  144.5803  158.5687 C   0  0  0  0  0  0  0  0  0  0  0  0
  151.1081  143.9900  157.5531 N   0  3  0  0  0  0  0  0  0  0  0  0
  151.1928  142.6622  157.3898 C   0  0  0  0  0  0  0  0  0  0  0  0
  151.9211  141.8755  158.1899 N   0  0  0  0  0  0  0  0  0  0  0  0
  154.8584  140.8034  158.7604 H   0  0  0  0  0  0  0  0  0  0  0  0
  154.4431  139.1054  161.2343 H   0  0  0  0  0  0  0  0  0  0  0  0
  155.9569  139.5536  160.4547 H   0  0  0  0  0  0  0  0  0  0  0  0
  155.8449  141.7899  161.3307 H   0  0  0  0  0  0  0  0  0  0  0  0
  154.9538  141.5183  163.5438 H   0  0  0  0  0  0  0  0  0  0  0  0
  152.9038  141.4150  162.0376 H   0  0  0  0  0  0  0  0  0  0  0  0
  153.7661  142.9050  161.6239 H   0  0  0  0  0  0  0  0  0  0  0  0
  153.1024  144.2817  160.2550 H   0  0  0  0  0  0  0  0  0  0  0  0
  151.6735  145.6520  158.6473 H   0  0  0  0  0  0  0  0  0  0  0  0
  150.6359  142.2363  156.5683 H   0  0  0  0  0  0  0  0  0  0  0  0
  150.5436  144.5592  156.9224 H   0  0  0  0  0  0  0  0  0  0  0  0
  1  2  2  0  0  0  0
  2  3  1  0  0  0  0
  2  4  1  0  0  0  0
  4  9  1  0  0  0  0
  4  5  1  0  0  0  0
  4 16  1  0  0  0  0
  5  6  1  0  0  0  0
  5 17  1  0  0  0  0
  5 18  1  0  0  0  0
  6  7  1  0  0  0  0
  6  8  1  0  0  0  0
  6 19  1  0  0  0  0
  7 20  1  0  0  0  0
  8  9  1  0  0  0  0
  8 21  1  0  0  0  0
  8 22  1  0  0  0  0
  9 10  1  0  0  0  0
 10 15  1  0  0  0  0
 10 11  2  0  0  0  0
 11 12  1  0  0  0  0
 11 23  1  0  0  0  0
 12 13  2  0  0  0  0
 12 24  1  0  0  0  0
 13 14  1  0  0  0  0
 13 26  1  0  0  0  0
 14 15  2  0  0  0  0
 14 25  1  0  0  0  0
M  CHG  1   3  -1
M  CHG  1  13   1
M  END
> <s_m_source_file>
AV-unprocessed.smi

> <i_m_source_file_index>
51

> <i_lp_mmshare_version>
43012

> <i_f3d_flags>
0

> <s_epik_input>
Tz1DKFtPSF0pW0NAQEhdMVtDSDJdW0NAQEhdKFtPSF0pW0NIMl1OMWMyW2NIXVtjSF1uW2NIXW4y

> <s_epik_cmdline>
J2VwaWtfcHl0aG9uJywgJy1waCcsICc3LjAnLCAnLXRuJywgJzgnLCAnLW1hJywgJzIwMCcsICctbWV0YWxfYmluZGluZycsICctaW1hZScsICc8aW5maWxlLm1hZT4nLCAnLW9tYWUnLCAnPG91dGZpbGUubWFlPic=

> <r_lp_tautomer_probability>
0.999336

> <r_epik_Ionization_Penalty>
0.688427

> <r_epik_Ionization_Penalty_Charging>
0.688427

> <r_epik_Ionization_Penalty_Neutral>
1.98379e-07

> <r_epik_State_Penalty>
0.709817

> <r_epik_Charging_Adjusted_Penalty>
1.39824

> <i_epik_Tot_Q>
0

> <i_epik_Tot_abs_Q>
2

> <r_epik_Metal_State_Penalty>
0.873261

> <b_epik_Metal_Only>
0

> <s_lp_Force_Field>
OPLS_2005

> <r_lp_Energy>
15.0263

> <b_lp_Chiralities_Consistent>
1

> <s_lp_Variant>
AV-unprocessed.smi:51-7

> <Gold.Version>
5.8.1

> <Gold.Id.Protein>
6NUR|6NUR_protein|mol2

> <Gold.PLP.Fitness>
41.7281

> <Gold.PLP.PLP>
-30.6789

> <Gold.PLP.part.hbond>
-3.0000

> <Gold.PLP.part.metal>
0.0000

> <Gold.PLP.part.buried>
-0.3325

> <Gold.PLP.part.nonpolar>
-26.9837

> <Gold.PLP.part.repulsive>
0.0247

> <Gold.PLP.ligand.clash>
0.0000

> <Gold.PLP.ligand.torsion>
0.4975

> <Gold.PLP.Chemscore.Hbond>
4.0000

> <Gold.PLP.Chemscore.CHOScore>
0.0000

> <Gold.PLP.Chemscore.Metal>
0.0000

> <Gold.Chemscore.Hbonds>
donor molecule, donor type, donor heavy atom, donor atom, acceptor molecule, acceptor atom, score
      L1  H    13    26       P1  8028  1.89
      P1  H  7997  8010       L1     1  2.00

> <Gold.PLP.Chemscore.Internal.Correction>
0.0442

> <Gold.Rescore>
     Score         DG    S(hbond)    S(metal)    S(lipo)     H(rot)  DE(clash)    DE(int)     intcor
     12.45     -14.53       1.95        0.00      58.96       1.70       0.59       1.48       ----

> <Gold.Chemscore.Fitness>
12.4513

> <Gold.Chemscore.DG>
-14.5252

> <Gold.Chemscore.ZeroCoef>
-5.4800

> <Gold.Chemscore.Hbond>
1.9474

> <Gold.Chemscore.Metal>
0.0000

> <Gold.Chemscore.Lipo>
58.9580

> <Gold.Chemscore.Internal_Hbond>
0.0000

> <Gold.Chemscore.DEClash>
0.5902

> <Gold.Chemscore.DEInternal>
1.4837

> <Gold.Chemscore.Rot>
1.7020

> <Gold.Chemscore.Internal.Correction>
   9.000000E+99

> <Gold.Chemscore.Hbonds>
donor molecule, donor type, donor heavy atom, donor atom, acceptor molecule, acceptor atom, score
      L1  H    13    26       P1  8028  0.72
      P1  H  7997  8010       L1     1  0.87

> <Gold.Chemscore.Hbond.Weighted>
-6.5042

> <Gold.Chemscore.Metal.Weighted>
-0.0000

> <Gold.Chemscore.Lipo.Weighted>
-6.8981

> <Gold.Chemscore.Internal_Hbond.Weighted>
0.0000

> <Gold.Chemscore.DEClash.Weighted>
0.5902

> <Gold.Chemscore.DEInternal.Weighted>
1.4837

> <Gold.Chemscore.Rot.Weighted>
4.3571

> <Gold.Chemscore.Internal.Correction.Weighted>
   9.000000E+99

> <Gold.Protein.RotatedTorsions>
[ 6907 6896 6895 6894 ] final   29.45 input  -60.11 | X-H torsion
[ 7974 7965 7964 7962 ] final -172.62 input  175.53 | X-H torsion
[ 8008 7997 7996 7995 ] final   37.75 input   59.86 | X-H torsion
[ 10167 10162 10161 10158 ] final -139.69 input  -65.29 | X-H torsion
[ 10718 10713 10712 10709 ] final -176.28 input   66.30 | X-H torsion
[ 10763 10752 10751 10750 ] final  -21.72 input  -60.55 | X-H torsion
[ 11005 11000 10999 10996 ] final  -20.79 input  -57.11 | X-H torsion

> <Gold.Protein.ActiveResidues>
 VAL166  LYS551  ARG553  GLY616  TRP617  ASP618  TYR619  PRO620  LYS621  CYS622 
 ASP623  PHE694  ASN695  SER759  ASP760  ASP761  ALA762  ILE779  LEU786  VAL792 
 PHE793  MET794  SER795  GLU796  ALA797  LYS798  CYS799  TRP800  GLU811  SER814 

> <Gold.Protein.RotatedAtoms>
  152.0317  134.9763  160.0572 H   0  0  0  0  0  0  0  0  0  0  0  0  # atno 6907 bound_to 6896
  152.1237  133.4363  159.4696 H   0  0  0  0  0  0  0  0  0  0  0  0  # atno 6908 bound_to 6896
  150.6851  134.2422  159.4520 H   0  0  0  0  0  0  0  0  0  0  0  0  # atno 6909 bound_to 6896
  144.7144  140.1745  143.6364 H   0  0  0  0  0  0  0  0  0  0  0  0  # atno 7974 bound_to 7965
  155.2088  140.3322  155.4332 H   0  0  0  0  0  0  0  0  0  0  0  0  # atno 8008 bound_to 7997
  156.2378  140.1881  156.7120 H   0  0  0  0  0  0  0  0  0  0  0  0  # atno 8009 bound_to 7997
  154.6092  140.0611  156.9456 H   0  0  0  0  0  0  0  0  0  0  0  0  # atno 8010 bound_to 7997
  139.8354  143.7391  152.2665 H   0  0  0  0  0  0  0  0  0  0  0  0  # atno 10167 bound_to 10162
  156.8124  130.9591  151.3115 H   0  0  0  0  0  0  0  0  0  0  0  0  # atno 10718 bound_to 10713
  153.6406  135.6985  153.5243 H   0  0  0  0  0  0  0  0  0  0  0  0  # atno 10763 bound_to 10752
  153.2786  135.4193  155.1056 H   0  0  0  0  0  0  0  0  0  0  0  0  # atno 10764 bound_to 10752
  154.8501  135.3596  154.5949 H   0  0  0  0  0  0  0  0  0  0  0  0  # atno 10765 bound_to 10752
  140.8498  133.7865  155.9953 H   0  0  0  0  0  0  0  0  0  0  0  0  # atno 11005 bound_to 11000
  145.8913  139.2377  143.1547 LP  0  0  0  0  0  0  0  0  0  0  0  0  # atno 17320 bound_to 7965
  145.9900  140.8610  143.0071 LP  0  0  0  0  0  0  0  0  0  0  0  0  # atno 17321 bound_to 7965
  139.7612  144.7506  151.0361 LP  0  0  0  0  0  0  0  0  0  0  0  0  # atno 17342 bound_to 10162
  140.7803  143.4749  151.0096 LP  0  0  0  0  0  0  0  0  0  0  0  0  # atno 17343 bound_to 10162
  157.6499  130.8875  149.9612 LP  0  0  0  0  0  0  0  0  0  0  0  0  # atno 17370 bound_to 10713
  156.1037  130.3654  150.0172 LP  0  0  0  0  0  0  0  0  0  0  0  0  # atno 17371 bound_to 10713
  140.8802  134.2620  157.5147 LP  0  0  0  0  0  0  0  0  0  0  0  0  # atno 17394 bound_to 11000
  139.8704  134.9611  156.4386 LP  0  0  0  0  0  0  0  0  0  0  0  0  # atno 17395 bound_to 11000

$$$$
