AV-unprocessed.smi:1482|AV-procd|sdf|5988|dock5
  -GOLD-   22720 6 83D 1   1.00000     0.00000
 Structure written by MMmdl.
 36 37  0  0  0  0  0  0  0  0  1 V2000
  150.6575  138.5676  154.1770 C   0  0  0  0  0  0  0  0  0  0  0  0
  151.0986  139.7571  154.8081 O   0  0  0  0  0  0  0  0  0  0  0  0
  150.0281  140.5114  155.3512 C   0  0  0  0  0  0  0  0  0  0  0  0
  150.5908  141.5527  156.3221 C   0  0  0  0  0  0  0  0  0  0  0  0
  151.3272  140.8746  157.3346 O   0  0  0  0  0  0  0  0  0  0  0  0
  151.9201  141.6170  158.3368 C   0  0  0  0  0  0  0  0  0  0  0  0
  151.7085  142.9575  158.3564 N   0  0  0  0  0  0  0  0  0  0  0  0
  152.2760  143.6860  159.3401 C   0  0  0  0  0  0  0  0  0  0  0  0
  153.0800  143.1246  160.3496 C   0  0  0  0  0  0  0  0  0  0  0  0
  153.3019  141.7355  160.3295 C   0  0  0  0  0  0  0  0  0  0  0  0
  152.7161  140.9604  159.3064 C   0  0  0  0  0  0  0  0  0  0  0  0
  152.9405  139.4549  159.2713 C   0  0  0  0  0  0  0  0  0  0  0  0
  153.6286  138.9549  160.4558 N   0  0  0  0  0  0  0  0  0  0  0  0
  153.6323  137.6747  160.8578 C   0  0  0  0  0  0  0  0  0  0  0  0
  153.0459  136.7786  160.2485 O   0  0  0  0  0  0  0  0  0  0  0  0
  154.4105  137.4354  162.1101 C   0  0  0  0  0  0  0  0  0  0  0  0
  154.5890  136.0004  162.5629 C   0  0  0  0  0  0  0  0  0  0  0  0
  153.6578  136.9150  163.3180 C   0  0  0  0  0  0  0  0  0  0  0  0
  151.5142  138.0263  153.7758 H   0  0  0  0  0  0  0  0  0  0  0  0
  149.9807  138.7868  153.3501 H   0  0  0  0  0  0  0  0  0  0  0  0
  150.1465  137.9126  154.8835 H   0  0  0  0  0  0  0  0  0  0  0  0
  149.4745  141.0077  154.5525 H   0  0  0  0  0  0  0  0  0  0  0  0
  149.3339  139.8522  155.8744 H   0  0  0  0  0  0  0  0  0  0  0  0
  151.2391  142.2462  155.7837 H   0  0  0  0  0  0  0  0  0  0  0  0
  149.7720  142.1242  156.7620 H   0  0  0  0  0  0  0  0  0  0  0  0
  152.0824  144.7483  159.3222 H   0  0  0  0  0  0  0  0  0  0  0  0
  153.5142  143.7441  161.1201 H   0  0  0  0  0  0  0  0  0  0  0  0
  153.9130  141.2718  161.0898 H   0  0  0  0  0  0  0  0  0  0  0  0
  152.0063  138.9100  159.1310 H   0  0  0  0  0  0  0  0  0  0  0  0
  153.5554  139.2230  158.4015 H   0  0  0  0  0  0  0  0  0  0  0  0
  154.1367  139.6289  161.0097 H   0  0  0  0  0  0  0  0  0  0  0  0
  155.2366  138.1172  162.3074 H   0  0  0  0  0  0  0  0  0  0  0  0
  154.1378  135.2068  161.9695 H   0  0  0  0  0  0  0  0  0  0  0  0
  155.5398  135.7435  163.0252 H   0  0  0  0  0  0  0  0  0  0  0  0
  153.9773  137.2789  164.2923 H   0  0  0  0  0  0  0  0  0  0  0  0
  152.5895  136.7272  163.2256 H   0  0  0  0  0  0  0  0  0  0  0  0
  1  2  1  0  0  0  0
  1 19  1  0  0  0  0
  1 20  1  0  0  0  0
  1 21  1  0  0  0  0
  2  3  1  0  0  0  0
  3  4  1  0  0  0  0
  3 22  1  0  0  0  0
  3 23  1  0  0  0  0
  4  5  1  0  0  0  0
  4 24  1  0  0  0  0
  4 25  1  0  0  0  0
  5  6  1  0  0  0  0
  6 11  1  0  0  0  0
  6  7  2  0  0  0  0
  7  8  1  0  0  0  0
  8  9  2  0  0  0  0
  8 26  1  0  0  0  0
  9 10  1  0  0  0  0
  9 27  1  0  0  0  0
 10 11  2  0  0  0  0
 10 28  1  0  0  0  0
 11 12  1  0  0  0  0
 12 13  1  0  0  0  0
 12 29  1  0  0  0  0
 12 30  1  0  0  0  0
 13 14  1  0  0  0  0
 13 31  1  0  0  0  0
 14 15  2  0  0  0  0
 14 16  1  0  0  0  0
 16 18  1  0  0  0  0
 16 17  1  0  0  0  0
 16 32  1  0  0  0  0
 17 18  1  0  0  0  0
 17 33  1  0  0  0  0
 17 34  1  0  0  0  0
 18 35  1  0  0  0  0
 18 36  1  0  0  0  0
M  END
> <s_m_source_file>
AV-unprocessed.smi

> <i_m_source_file_index>
1482

> <i_lp_mmshare_version>
43012

> <i_f3d_flags>
0

> <s_epik_input>
W0NIM11PW0NIMl1bQ0gyXU9jMW5bY0hdW2NIXVtjSF1jMVtDSDJdW05IXUMoPU8pW0NIXTJbQ0gyXVtDSDJdMg==

> <s_epik_cmdline>
J2VwaWtfcHl0aG9uJywgJy1waCcsICc3LjAnLCAnLXRuJywgJzgnLCAnLW1hJywgJzIwMCcsICctbWV0YWxfYmluZGluZycsICctaW1hZScsICc8aW5maWxlLm1hZT4nLCAnLW9tYWUnLCAnPG91dGZpbGUubWFlPic=

> <r_lp_tautomer_probability>
1

> <r_epik_Ionization_Penalty>
6.12052e-05

> <r_epik_Ionization_Penalty_Charging>
0

> <r_epik_Ionization_Penalty_Neutral>
6.12052e-05

> <r_epik_State_Penalty>
-0

> <r_epik_Charging_Adjusted_Penalty>
0

> <i_epik_Tot_Q>
0

> <i_epik_Tot_abs_Q>
0

> <r_epik_Metal_State_Penalty>
-0

> <b_epik_Metal_Only>
0

> <s_lp_Force_Field>
OPLS_2005

> <r_lp_Energy>
6.94905

> <b_lp_Chiralities_Consistent>
1

> <s_lp_Variant>
AV-unprocessed.smi:1482-1

> <Gold.Version>
5.8.1

> <Gold.Id.Protein>
6NUR|6NUR_protein|mol2

> <Gold.PLP.Fitness>
44.9869

> <Gold.PLP.PLP>
-39.4351

> <Gold.PLP.part.hbond>
-1.9658

> <Gold.PLP.part.metal>
0.0000

> <Gold.PLP.part.buried>
-6.1376

> <Gold.PLP.part.nonpolar>
-31.3513

> <Gold.PLP.part.repulsive>
0.1526

> <Gold.PLP.ligand.clash>
0.0000

> <Gold.PLP.ligand.torsion>
0.3053

> <Gold.PLP.Chemscore.Hbond>
2.0000

> <Gold.PLP.Chemscore.CHOScore>
0.0000

> <Gold.PLP.Chemscore.Metal>
0.0000

> <Gold.Chemscore.Hbonds>
donor molecule, donor type, donor heavy atom, donor atom, acceptor molecule, acceptor atom, score
      P1  H  6896  6909       L1    15  1.00
      P1  H  7989  7998       L1     2  1.00

> <Gold.PLP.Chemscore.Internal.Correction>
0.1624

> <Gold.Rescore>
     Score         DG    S(hbond)    S(metal)    S(lipo)     H(rot)  DE(clash)    DE(int)     intcor
     16.19     -16.55       1.74        0.00      93.32       2.21       0.00       0.35       ----

> <Gold.Chemscore.Fitness>
16.1936

> <Gold.Chemscore.DG>
-16.5464

> <Gold.Chemscore.ZeroCoef>
-5.4800

> <Gold.Chemscore.Hbond>
1.7407

> <Gold.Chemscore.Metal>
0.0000

> <Gold.Chemscore.Lipo>
93.3222

> <Gold.Chemscore.Internal_Hbond>
0.0000

> <Gold.Chemscore.DEClash>
0.0004

> <Gold.Chemscore.DEInternal>
0.3523

> <Gold.Chemscore.Rot>
2.2134

> <Gold.Chemscore.Internal.Correction>
   9.000000E+99

> <Gold.Chemscore.Hbonds>
donor molecule, donor type, donor heavy atom, donor atom, acceptor molecule, acceptor atom, score
      P1  H  6896  6909       L1    15  0.95
      P1  H  7989  7998       L1     2  0.15

> <Gold.Chemscore.Hbond.Weighted>
-5.8139

> <Gold.Chemscore.Metal.Weighted>
-0.0000

> <Gold.Chemscore.Lipo.Weighted>
-10.9187

> <Gold.Chemscore.Internal_Hbond.Weighted>
0.0000

> <Gold.Chemscore.DEClash.Weighted>
0.0004

> <Gold.Chemscore.DEInternal.Weighted>
0.3523

> <Gold.Chemscore.Rot.Weighted>
5.6663

> <Gold.Chemscore.Internal.Correction.Weighted>
   9.000000E+99

> <Gold.Protein.RotatedTorsions>
[ 6907 6896 6895 6894 ] final  149.74 input  -60.11 | X-H torsion
[ 7974 7965 7964 7962 ] final  -67.39 input  175.53 | X-H torsion
[ 8008 7997 7996 7995 ] final   87.08 input   59.86 | X-H torsion
[ 10167 10162 10161 10158 ] final -130.67 input  -65.29 | X-H torsion
[ 10718 10713 10712 10709 ] final -134.71 input   66.30 | X-H torsion
[ 10763 10752 10751 10750 ] final -106.97 input  -60.55 | X-H torsion
[ 11005 11000 10999 10996 ] final -178.46 input  -57.11 | X-H torsion

> <Gold.Protein.ActiveResidues>
 VAL166  LYS551  ARG553  GLY616  TRP617  ASP618  TYR619  PRO620  LYS621  CYS622 
 ASP623  PHE694  ASN695  SER759  ASP760  ASP761  ALA762  ILE779  LEU786  VAL792 
 PHE793  MET794  SER795  GLU796  ALA797  LYS798  CYS799  TRP800  GLU811  SER814 

> <Gold.Protein.RotatedAtoms>
  152.1239  133.4369  159.4688 H   0  0  0  0  0  0  0  0  0  0  0  0  # atno 6907 bound_to 6896
  150.6873  134.2501  159.4516 H   0  0  0  0  0  0  0  0  0  0  0  0  # atno 6908 bound_to 6896
  152.0380  134.9728  160.0624 H   0  0  0  0  0  0  0  0  0  0  0  0  # atno 6909 bound_to 6896
  145.7297  140.9002  143.0586 H   0  0  0  0  0  0  0  0  0  0  0  0  # atno 7974 bound_to 7965
  155.9709  140.3385  155.6575 H   0  0  0  0  0  0  0  0  0  0  0  0  # atno 8008 bound_to 7997
  155.6675  140.0723  157.2550 H   0  0  0  0  0  0  0  0  0  0  0  0  # atno 8009 bound_to 7997
  154.4166  140.1697  156.1831 H   0  0  0  0  0  0  0  0  0  0  0  0  # atno 8010 bound_to 7997
  139.9269  143.6317  152.2540 H   0  0  0  0  0  0  0  0  0  0  0  0  # atno 10167 bound_to 10162
  156.2584  130.7195  151.1120 H   0  0  0  0  0  0  0  0  0  0  0  0  # atno 10718 bound_to 10713
  154.8046  135.4692  154.0360 H   0  0  0  0  0  0  0  0  0  0  0  0  # atno 10763 bound_to 10752
  153.1839  135.6845  153.8448 H   0  0  0  0  0  0  0  0  0  0  0  0  # atno 10764 bound_to 10752
  153.7989  135.3233  155.3365 H   0  0  0  0  0  0  0  0  0  0  0  0  # atno 10765 bound_to 10752
  140.4295  134.6532  157.4705 H   0  0  0  0  0  0  0  0  0  0  0  0  # atno 11005 bound_to 11000
  144.6896  139.9315  143.7472 LP  0  0  0  0  0  0  0  0  0  0  0  0  # atno 17320 bound_to 7965
  146.0548  139.3546  143.0617 LP  0  0  0  0  0  0  0  0  0  0  0  0  # atno 17321 bound_to 7965
  139.6815  144.7655  151.1600 LP  0  0  0  0  0  0  0  0  0  0  0  0  # atno 17342 bound_to 10162
  140.7648  143.5718  150.8987 LP  0  0  0  0  0  0  0  0  0  0  0  0  # atno 17343 bound_to 10162
  157.7241  131.0662  150.6008 LP  0  0  0  0  0  0  0  0  0  0  0  0  # atno 17370 bound_to 10713
  156.6094  130.4376  149.5865 LP  0  0  0  0  0  0  0  0  0  0  0  0  # atno 17371 bound_to 10713
  140.0144  134.6641  155.9332 LP  0  0  0  0  0  0  0  0  0  0  0  0  # atno 17394 bound_to 11000
  141.1751  133.6540  156.4799 LP  0  0  0  0  0  0  0  0  0  0  0  0  # atno 17395 bound_to 11000

$$$$
