AV-unprocessed.smi:3236|AV-procd|sdf|12362|dock9
  -GOLD-   2272018223D 1   1.00000     0.00000
 Structure written by MMmdl.
 40 41  0  0  0  0  0  0  0  0  1 V2000
  153.5534  142.3576  162.6535 C   0  0  0  0  0  0  0  0  0  0  0  0
  153.1948  142.9271  161.2740 C   0  0  0  0  0  0  0  0  0  0  0  0
  152.0238  143.9300  161.3565 C   0  0  0  0  0  0  0  0  0  0  0  0
  151.6107  144.4190  159.9565 C   0  0  0  0  0  0  0  0  0  0  0  0
  151.2660  143.2530  159.1316 N   0  0  0  0  0  0  0  0  0  0  0  0
  150.0202  142.9247  158.7099 C   0  0  0  0  0  0  0  0  0  0  0  0
  149.0406  143.6355  158.9453 O   0  0  0  0  0  0  0  0  0  0  0  0
  149.8247  141.6275  157.9058 C   0  0  0  0  0  0  0  0  0  0  0  0
  149.5171  141.8661  156.4903 N   0  0  0  0  0  0  0  0  0  0  0  0
  150.5792  141.3567  155.6345 C   0  0  0  0  0  0  0  0  0  0  0  0
  150.2360  139.9395  155.1453 C   0  0  0  0  0  0  0  0  0  0  0  0
  149.0296  139.9083  154.3376 N   0  0  0  0  0  0  0  0  0  0  0  0
  148.4577  138.8316  153.6933 C   0  0  0  0  0  0  0  0  0  0  0  0
  147.3385  139.2866  153.0570 C   0  0  0  0  0  0  0  0  0  0  0  0
  147.3093  140.6733  153.3749 C   0  0  0  0  0  0  0  0  0  0  0  0
  148.3217  141.0424  154.1434 N   0  0  0  0  0  0  0  0  0  0  0  0
  152.4330  142.3904  158.9060 C   0  0  0  0  0  0  0  0  0  0  0  0
  152.8901  141.8077  160.2557 C   0  0  0  0  0  0  0  0  0  0  0  0
  152.7212  141.7969  163.0798 H   0  0  0  0  0  0  0  0  0  0  0  0
  153.8110  143.1542  163.3518 H   0  0  0  0  0  0  0  0  0  0  0  0
  154.4098  141.6859  162.5900 H   0  0  0  0  0  0  0  0  0  0  0  0
  154.0663  143.4723  160.9086 H   0  0  0  0  0  0  0  0  0  0  0  0
  151.1669  143.4605  161.8420 H   0  0  0  0  0  0  0  0  0  0  0  0
  152.3038  144.7812  161.9778 H   0  0  0  0  0  0  0  0  0  0  0  0
  150.8091  145.1502  160.0441 H   0  0  0  0  0  0  0  0  0  0  0  0
  152.4392  144.9542  159.4902 H   0  0  0  0  0  0  0  0  0  0  0  0
  150.7326  141.0266  157.9775 H   0  0  0  0  0  0  0  0  0  0  0  0
  149.0083  141.0598  158.3548 H   0  0  0  0  0  0  0  0  0  0  0  0
  149.3773  142.8490  156.3042 H   0  0  0  0  0  0  0  0  0  0  0  0
  150.6955  142.0186  154.7752 H   0  0  0  0  0  0  0  0  0  0  0  0
  151.5302  141.3523  156.1694 H   0  0  0  0  0  0  0  0  0  0  0  0
  151.0599  139.5219  154.5650 H   0  0  0  0  0  0  0  0  0  0  0  0
  150.0921  139.2772  155.9999 H   0  0  0  0  0  0  0  0  0  0  0  0
  148.8920  137.8437  153.7381 H   0  0  0  0  0  0  0  0  0  0  0  0
  146.6478  138.7162  152.4545 H   0  0  0  0  0  0  0  0  0  0  0  0
  146.5874  141.4172  153.0717 H   0  0  0  0  0  0  0  0  0  0  0  0
  152.2339  141.5806  158.2029 H   0  0  0  0  0  0  0  0  0  0  0  0
  153.2359  142.9786  158.4594 H   0  0  0  0  0  0  0  0  0  0  0  0
  153.7730  141.1846  160.1088 H   0  0  0  0  0  0  0  0  0  0  0  0
  152.1107  141.1524  160.6480 H   0  0  0  0  0  0  0  0  0  0  0  0
  1  2  1  0  0  0  0
  1 19  1  0  0  0  0
  1 20  1  0  0  0  0
  1 21  1  0  0  0  0
  2 18  1  0  0  0  0
  2  3  1  0  0  0  0
  2 22  1  0  0  0  0
  3  4  1  0  0  0  0
  3 23  1  0  0  0  0
  3 24  1  0  0  0  0
  4  5  1  0  0  0  0
  4 25  1  0  0  0  0
  4 26  1  0  0  0  0
  5  6  1  0  0  0  0
  5 17  1  0  0  0  0
  6  7  2  0  0  0  0
  6  8  1  0  0  0  0
  8  9  1  0  0  0  0
  8 27  1  0  0  0  0
  8 28  1  0  0  0  0
  9 10  1  0  0  0  0
  9 29  1  0  0  0  0
 10 11  1  0  0  0  0
 10 30  1  0  0  0  0
 10 31  1  0  0  0  0
 11 12  1  0  0  0  0
 11 32  1  0  0  0  0
 11 33  1  0  0  0  0
 12 16  1  0  0  0  0
 12 13  1  0  0  0  0
 13 14  2  0  0  0  0
 13 34  1  0  0  0  0
 14 15  1  0  0  0  0
 14 35  1  0  0  0  0
 15 16  2  0  0  0  0
 15 36  1  0  0  0  0
 17 18  1  0  0  0  0
 17 37  1  0  0  0  0
 17 38  1  0  0  0  0
 18 39  1  0  0  0  0
 18 40  1  0  0  0  0
M  END
> <s_m_source_file>
AV-unprocessed.smi

> <i_m_source_file_index>
3236

> <i_lp_mmshare_version>
43012

> <i_f3d_flags>
0

> <s_epik_input>
W0NIM11bQ0hdMVtDSDJdW0NIMl1OKFtDSDJdW0NIMl0xKUMoPU8pW0NIMl1bTkhdW0NIMl1bQ0gyXW4yW2NIXVtjSF1bY0hdbjI=

> <s_epik_cmdline>
J2VwaWtfcHl0aG9uJywgJy1waCcsICc3LjAnLCAnLXRuJywgJzgnLCAnLW1hJywgJzIwMCcsICctbWV0YWxfYmluZGluZycsICctaW1hZScsICc8aW5maWxlLm1hZT4nLCAnLW9tYWUnLCAnPG91dGZpbGUubWFlPic=

> <r_lp_tautomer_probability>
1

> <r_epik_Ionization_Penalty>
0.778591

> <r_epik_Ionization_Penalty_Charging>
0

> <r_epik_Ionization_Penalty_Neutral>
0.778591

> <r_epik_State_Penalty>
0.806071

> <r_epik_Charging_Adjusted_Penalty>
0.806071

> <i_epik_Tot_Q>
0

> <i_epik_Tot_abs_Q>
0

> <r_epik_Metal_State_Penalty>
0.80479

> <b_epik_Metal_Only>
0

> <s_lp_Force_Field>
OPLS_2005

> <r_lp_Energy>
26.1059

> <b_lp_Chiralities_Consistent>
1

> <s_lp_Variant>
AV-unprocessed.smi:3236-2

> <Gold.Version>
5.8.1

> <Gold.Id.Protein>
6NUR|6NUR_protein|mol2

> <Gold.PLP.Fitness>
44.4942

> <Gold.PLP.PLP>
-40.0842

> <Gold.PLP.part.hbond>
-1.0000

> <Gold.PLP.part.metal>
0.0000

> <Gold.PLP.part.buried>
-3.3011

> <Gold.PLP.part.nonpolar>
-35.9478

> <Gold.PLP.part.repulsive>
1.0776

> <Gold.PLP.ligand.clash>
0.0000

> <Gold.PLP.ligand.torsion>
0.7269

> <Gold.PLP.Chemscore.Hbond>
1.0000

> <Gold.PLP.Chemscore.CHOScore>
0.9427

> <Gold.PLP.Chemscore.Metal>
0.0000

> <Gold.Chemscore.Hbonds>
donor molecule, donor type, donor heavy atom, donor atom, acceptor molecule, acceptor atom, score
      L1  H     9    29       P1  8028  0.98
      L1  C    13    34       P1  7948  0.90

> <Gold.PLP.Chemscore.Internal.Correction>
0.0356

> <Gold.Rescore>
     Score         DG    S(hbond)    S(metal)    S(lipo)     H(rot)  DE(clash)    DE(int)     intcor
     15.53     -17.52       1.20        0.00     106.43       1.73       0.23       1.76       ----

> <Gold.Chemscore.Fitness>
15.5325

> <Gold.Chemscore.DG>
-17.5217

> <Gold.Chemscore.ZeroCoef>
-5.4800

> <Gold.Chemscore.Hbond>
1.2028

> <Gold.Chemscore.Metal>
0.0000

> <Gold.Chemscore.Lipo>
106.4283

> <Gold.Chemscore.Internal_Hbond>
0.0000

> <Gold.Chemscore.DEClash>
0.2250

> <Gold.Chemscore.DEInternal>
1.7642

> <Gold.Chemscore.Rot>
1.7296

> <Gold.Chemscore.Internal.Correction>
   9.000000E+99

> <Gold.Chemscore.Hbonds>
donor molecule, donor type, donor heavy atom, donor atom, acceptor molecule, acceptor atom, score
      L1  H     9    29       P1  8028  0.92

> <Gold.Chemscore.Hbond.Weighted>
-4.0174

> <Gold.Chemscore.Metal.Weighted>
-0.0000

> <Gold.Chemscore.Lipo.Weighted>
-12.4521

> <Gold.Chemscore.Internal_Hbond.Weighted>
0.0000

> <Gold.Chemscore.DEClash.Weighted>
0.2250

> <Gold.Chemscore.DEInternal.Weighted>
1.7642

> <Gold.Chemscore.Rot.Weighted>
4.4278

> <Gold.Chemscore.Internal.Correction.Weighted>
   9.000000E+99

> <Gold.Protein.RotatedTorsions>
[ 6907 6896 6895 6894 ] final  124.29 input  -60.11 | X-H torsion
[ 7974 7965 7964 7962 ] final   78.11 input  175.53 | X-H torsion
[ 8008 7997 7996 7995 ] final   54.70 input   59.86 | X-H torsion
[ 10167 10162 10161 10158 ] final  167.84 input  -65.29 | X-H torsion
[ 10718 10713 10712 10709 ] final  -99.12 input   66.30 | X-H torsion
[ 10763 10752 10751 10750 ] final  169.61 input  -60.55 | X-H torsion
[ 11005 11000 10999 10996 ] final  176.99 input  -57.11 | X-H torsion

> <Gold.Protein.ActiveResidues>
 VAL166  LYS551  ARG553  GLY616  TRP617  ASP618  TYR619  PRO620  LYS621  CYS622 
 ASP623  PHE694  ASN695  SER759  ASP760  ASP761  ALA762  ILE779  LEU786  VAL792 
 PHE793  MET794  SER795  GLU796  ALA797  LYS798  CYS799  TRP800  GLU811  SER814 

> <Gold.Protein.RotatedAtoms>
  152.4091  133.6935  159.6381 H   0  0  0  0  0  0  0  0  0  0  0  0  # atno 6907 bound_to 6896
  150.7973  133.8657  159.3253 H   0  0  0  0  0  0  0  0  0  0  0  0  # atno 6908 bound_to 6896
  151.6403  135.1015  160.0191 H   0  0  0  0  0  0  0  0  0  0  0  0  # atno 6909 bound_to 6896
  145.6814  139.2525  143.1812 H   0  0  0  0  0  0  0  0  0  0  0  0  # atno 7974 bound_to 7965
  155.4889  140.3471  155.4352 H   0  0  0  0  0  0  0  0  0  0  0  0  # atno 8008 bound_to 7997
  156.0990  140.1430  156.9521 H   0  0  0  0  0  0  0  0  0  0  0  0  # atno 8009 bound_to 7997
  154.4681  140.0910  156.7052 H   0  0  0  0  0  0  0  0  0  0  0  0  # atno 8010 bound_to 7997
  139.4954  144.3879  151.9550 H   0  0  0  0  0  0  0  0  0  0  0  0  # atno 10167 bound_to 10162
  156.0125  130.5268  150.6623 H   0  0  0  0  0  0  0  0  0  0  0  0  # atno 10718 bound_to 10713
  154.3856  135.2753  155.2185 H   0  0  0  0  0  0  0  0  0  0  0  0  # atno 10763 bound_to 10752
  154.4273  135.5986  153.6050 H   0  0  0  0  0  0  0  0  0  0  0  0  # atno 10764 bound_to 10752
  152.9833  135.5987  154.4104 H   0  0  0  0  0  0  0  0  0  0  0  0  # atno 10765 bound_to 10752
  140.3792  134.6962  157.4440 H   0  0  0  0  0  0  0  0  0  0  0  0  # atno 11005 bound_to 11000
  146.0961  140.7599  142.9572 LP  0  0  0  0  0  0  0  0  0  0  0  0  # atno 17320 bound_to 7965
  144.7025  140.3713  143.7145 LP  0  0  0  0  0  0  0  0  0  0  0  0  # atno 17321 bound_to 7965
  140.3316  144.3310  150.5986 LP  0  0  0  0  0  0  0  0  0  0  0  0  # atno 17342 bound_to 10162
  140.5640  143.2188  151.7715 LP  0  0  0  0  0  0  0  0  0  0  0  0  # atno 17343 bound_to 10162
  157.4363  131.0855  151.0988 LP  0  0  0  0  0  0  0  0  0  0  0  0  # atno 17370 bound_to 10713
  157.1546  130.6199  149.5592 LP  0  0  0  0  0  0  0  0  0  0  0  0  # atno 17371 bound_to 10713
  140.0492  134.6156  155.8883 LP  0  0  0  0  0  0  0  0  0  0  0  0  # atno 17394 bound_to 11000
  141.1929  133.6577  156.5524 LP  0  0  0  0  0  0  0  0  0  0  0  0  # atno 17395 bound_to 11000

$$$$
