AV-unprocessed.smi:2489|AV-procd|sdf|9805|dock8
  -GOLD-   2272013443D 1   1.00000     0.00000
 Structure written by MMmdl.
 34 35  0  0  0  0  0  0  0  0  2 V2000
  153.4633  140.9527  160.3868 C   0  0  0  0  0  0  0  0  0  0  0  0
  153.4321  142.3699  160.2991 O   0  0  0  0  0  0  0  0  0  0  0  0
  152.5139  142.9470  159.4486 C   0  0  0  0  0  0  0  0  0  0  0  0
  152.4974  144.3552  159.3745 C   0  0  0  0  0  0  0  0  0  0  0  0
  151.5905  144.9978  158.5111 C   0  0  0  0  0  0  0  0  0  0  0  0
  150.7382  144.2636  157.7657 N   0  3  0  0  0  0  0  0  0  0  0  0
  150.6899  142.9130  157.8033 C   0  0  0  0  0  0  0  0  0  0  0  0
  149.7535  142.2708  156.9508 N   0  0  0  0  0  0  0  0  0  0  0  0
  149.4120  140.9686  156.9201 C   0  0  0  0  0  0  0  0  0  0  0  0
  149.8409  140.1253  157.7081 O   0  0  0  0  0  0  0  0  0  0  0  0
  148.3794  140.5583  155.8583 C   0  0  2  0  0  0  0  0  0  0  0  0
  148.8922  140.6487  154.4078 C   0  0  0  0  0  0  0  0  0  0  0  0
  148.0776  141.7774  153.8079 C   0  0  0  0  0  0  0  0  0  0  0  0
  146.7836  141.6949  154.6083 C   0  0  2  0  0  0  0  0  0  0  0  0
  145.9470  142.9780  154.5808 C   0  0  0  0  0  0  0  0  0  0  0  0
  147.2483  141.4304  155.9226 O   0  0  0  0  0  0  0  0  0  0  0  0
  151.5965  142.2205  158.6451 C   0  0  0  0  0  0  0  0  0  0  0  0
  154.2372  140.6530  161.0933 H   0  0  0  0  0  0  0  0  0  0  0  0
  153.7026  140.4985  159.4244 H   0  0  0  0  0  0  0  0  0  0  0  0
  152.5145  140.5543  160.7486 H   0  0  0  0  0  0  0  0  0  0  0  0
  153.1824  144.9390  159.9725 H   0  0  0  0  0  0  0  0  0  0  0  0
  151.5223  146.0696  158.3946 H   0  0  0  0  0  0  0  0  0  0  0  0
  149.2415  142.8748  156.3240 H   0  0  0  0  0  0  0  0  0  0  0  0
  148.0502  139.5401  156.0694 H   0  0  0  0  0  0  0  0  0  0  0  0
  149.9628  140.8354  154.3148 H   0  0  0  0  0  0  0  0  0  0  0  0
  148.6785  139.7157  153.8847 H   0  0  0  0  0  0  0  0  0  0  0  0
  148.5769  142.7304  153.9874 H   0  0  0  0  0  0  0  0  0  0  0  0
  147.9233  141.6689  152.7342 H   0  0  0  0  0  0  0  0  0  0  0  0
  146.1874  140.8464  154.2682 H   0  0  0  0  0  0  0  0  0  0  0  0
  145.6209  143.2102  153.5668 H   0  0  0  0  0  0  0  0  0  0  0  0
  146.5166  143.8297  154.9533 H   0  0  0  0  0  0  0  0  0  0  0  0
  145.0567  142.8752  155.2015 H   0  0  0  0  0  0  0  0  0  0  0  0
  151.5939  141.1422  158.6595 H   0  0  0  0  0  0  0  0  0  0  0  0
  150.0932  144.7573  157.1480 H   0  0  0  0  0  0  0  0  0  0  0  0
  1  2  1  0  0  0  0
  1 18  1  0  0  0  0
  1 19  1  0  0  0  0
  1 20  1  0  0  0  0
  2  3  1  0  0  0  0
  3 17  1  0  0  0  0
  3  4  2  0  0  0  0
  4  5  1  0  0  0  0
  4 21  1  0  0  0  0
  5  6  2  0  0  0  0
  5 22  1  0  0  0  0
  6  7  1  0  0  0  0
  6 34  1  0  0  0  0
  7  8  1  0  0  0  0
  7 17  2  0  0  0  0
  8  9  1  0  0  0  0
  8 23  1  0  0  0  0
  9 10  2  0  0  0  0
  9 11  1  0  0  0  0
 11 16  1  0  0  0  0
 11 12  1  0  0  0  0
 11 24  1  0  0  0  0
 12 13  1  0  0  0  0
 12 25  1  0  0  0  0
 12 26  1  0  0  0  0
 13 14  1  0  0  0  0
 13 27  1  0  0  0  0
 13 28  1  0  0  0  0
 14 15  1  0  0  0  0
 14 16  1  0  0  0  0
 14 29  1  0  0  0  0
 15 30  1  0  0  0  0
 15 31  1  0  0  0  0
 15 32  1  0  0  0  0
 17 33  1  0  0  0  0
M  CHG  1   6   1
M  END
> <s_m_source_file>
AV-unprocessed.smi

> <i_m_source_file_index>
2489

> <i_lp_mmshare_version>
43012

> <i_f3d_flags>
0

> <s_epik_input>
W0NIM11PYzFbY0hdW2NIXW5jKFtjSF0xKVtOSF1DKD1PKVtDQEBIXTJbQ0gyXVtDSDJdW0NASF0oTzIpW0NIM10=

> <s_epik_cmdline>
J2VwaWtfcHl0aG9uJywgJy1waCcsICc3LjAnLCAnLXRuJywgJzgnLCAnLW1hJywgJzIwMCcsICctbWV0YWxfYmluZGluZycsICctaW1hZScsICc8aW5maWxlLm1hZT4nLCAnLW9tYWUnLCAnPG91dGZpbGUubWFlPic=

> <r_epik_Ionization_Penalty>
1.58956

> <r_epik_Ionization_Penalty_Charging>
1.1784

> <r_epik_Ionization_Penalty_Neutral>
0.411158

> <r_epik_State_Penalty>
1.31089

> <r_epik_Charging_Adjusted_Penalty>
2.48928

> <i_epik_Tot_Q>
1

> <i_epik_Tot_abs_Q>
1

> <r_epik_Metal_State_Penalty>
5.00213

> <b_epik_Metal_Only>
0

> <s_lp_Force_Field>
OPLS_2005

> <r_lp_Energy>
31.9404

> <b_lp_Chiralities_Consistent>
1

> <s_lp_Variant>
AV-unprocessed.smi:2489-11

> <Gold.Version>
5.8.1

> <Gold.Id.Protein>
6NUR|6NUR_protein|mol2

> <Gold.PLP.Fitness>
44.7423

> <Gold.PLP.PLP>
-36.0879

> <Gold.PLP.part.hbond>
-2.0345

> <Gold.PLP.part.metal>
0.0000

> <Gold.PLP.part.buried>
-5.2060

> <Gold.PLP.part.nonpolar>
-28.5058

> <Gold.PLP.part.repulsive>
0.1426

> <Gold.PLP.ligand.clash>
0.0000

> <Gold.PLP.ligand.torsion>
0.1420

> <Gold.PLP.Chemscore.Hbond>
2.9760

> <Gold.PLP.Chemscore.CHOScore>
0.0000

> <Gold.PLP.Chemscore.Metal>
0.0000

> <Gold.Chemscore.Hbonds>
donor molecule, donor type, donor heavy atom, donor atom, acceptor molecule, acceptor atom, score
      L1  H     6    34       P1  8028  2.00
      L1  H     8    23       P1  8028  0.98

> <Gold.PLP.Chemscore.Internal.Correction>
0.0104

> <Gold.Rescore>
     Score         DG    S(hbond)    S(metal)    S(lipo)     H(rot)  DE(clash)    DE(int)     intcor
     16.72     -18.08       1.74        0.00      85.02       1.24       0.01       1.35       ----

> <Gold.Chemscore.Fitness>
16.7171

> <Gold.Chemscore.DG>
-18.0753

> <Gold.Chemscore.ZeroCoef>
-5.4800

> <Gold.Chemscore.Hbond>
1.7438

> <Gold.Chemscore.Metal>
0.0000

> <Gold.Chemscore.Lipo>
85.0225

> <Gold.Chemscore.Internal_Hbond>
0.0000

> <Gold.Chemscore.DEClash>
0.0067

> <Gold.Chemscore.DEInternal>
1.3515

> <Gold.Chemscore.Rot>
1.2409

> <Gold.Chemscore.Internal.Correction>
   9.000000E+99

> <Gold.Chemscore.Hbonds>
donor molecule, donor type, donor heavy atom, donor atom, acceptor molecule, acceptor atom, score
      L1  H     6    34       P1  8028  0.24
      L1  H     8    23       P1  8028  0.89

> <Gold.Chemscore.Hbond.Weighted>
-5.8244

> <Gold.Chemscore.Metal.Weighted>
-0.0000

> <Gold.Chemscore.Lipo.Weighted>
-9.9476

> <Gold.Chemscore.Internal_Hbond.Weighted>
0.0000

> <Gold.Chemscore.DEClash.Weighted>
0.0067

> <Gold.Chemscore.DEInternal.Weighted>
1.3515

> <Gold.Chemscore.Rot.Weighted>
3.1767

> <Gold.Chemscore.Internal.Correction.Weighted>
   9.000000E+99

> <Gold.Protein.RotatedTorsions>
[ 6907 6896 6895 6894 ] final  162.10 input  -60.11 | X-H torsion
[ 7974 7965 7964 7962 ] final   98.35 input  175.53 | X-H torsion
[ 8008 7997 7996 7995 ] final  147.27 input   59.86 | X-H torsion
[ 10167 10162 10161 10158 ] final   19.68 input  -65.29 | X-H torsion
[ 10718 10713 10712 10709 ] final   -3.55 input   66.30 | X-H torsion
[ 10763 10752 10751 10750 ] final  145.04 input  -60.55 | X-H torsion
[ 11005 11000 10999 10996 ] final   99.33 input  -57.11 | X-H torsion

> <Gold.Protein.ActiveResidues>
 VAL166  LYS551  ARG553  GLY616  TRP617  ASP618  TYR619  PRO620  LYS621  CYS622 
 ASP623  PHE694  ASN695  SER759  ASP760  ASP761  ALA762  ILE779  LEU786  VAL792 
 PHE793  MET794  SER795  GLU796  ALA797  LYS798  CYS799  TRP800  GLU811  SER814 

> <Gold.Protein.RotatedAtoms>
  151.9456  133.3650  159.3980 H   0  0  0  0  0  0  0  0  0  0  0  0  # atno 6907 bound_to 6896
  150.6990  134.4394  159.5294 H   0  0  0  0  0  0  0  0  0  0  0  0  # atno 6908 bound_to 6896
  152.2058  134.8546  160.0553 H   0  0  0  0  0  0  0  0  0  0  0  0  # atno 6909 bound_to 6896
  145.4133  139.2331  143.3236 H   0  0  0  0  0  0  0  0  0  0  0  0  # atno 7974 bound_to 7965
  156.2830  140.2160  156.5511 H   0  0  0  0  0  0  0  0  0  0  0  0  # atno 8008 bound_to 7997
  154.7290  140.0497  157.0732 H   0  0  0  0  0  0  0  0  0  0  0  0  # atno 8009 bound_to 7997
  155.0378  140.3142  155.4738 H   0  0  0  0  0  0  0  0  0  0  0  0  # atno 8010 bound_to 7997
  140.5561  143.9423  150.6610 H   0  0  0  0  0  0  0  0  0  0  0  0  # atno 10167 bound_to 10162
  156.7744  130.5310  149.5761 H   0  0  0  0  0  0  0  0  0  0  0  0  # atno 10718 bound_to 10713
  153.9989  135.2925  155.3404 H   0  0  0  0  0  0  0  0  0  0  0  0  # atno 10763 bound_to 10752
  154.7171  135.5125  153.8758 H   0  0  0  0  0  0  0  0  0  0  0  0  # atno 10764 bound_to 10752
  153.0775  135.6668  154.0233 H   0  0  0  0  0  0  0  0  0  0  0  0  # atno 10765 bound_to 10752
  139.8771  134.9090  156.4589 H   0  0  0  0  0  0  0  0  0  0  0  0  # atno 11005 bound_to 11000
  146.2694  140.4847  142.8821 LP  0  0  0  0  0  0  0  0  0  0  0  0  # atno 17320 bound_to 7965
  144.8294  140.6682  143.6301 LP  0  0  0  0  0  0  0  0  0  0  0  0  # atno 17321 bound_to 7965
  140.2861  143.3356  152.1106 LP  0  0  0  0  0  0  0  0  0  0  0  0  # atno 17342 bound_to 10162
  139.5048  144.6783  151.6073 LP  0  0  0  0  0  0  0  0  0  0  0  0  # atno 17343 bound_to 10162
  156.1257  130.6142  151.0260 LP  0  0  0  0  0  0  0  0  0  0  0  0  # atno 17370 bound_to 10713
  157.6676  131.0868  150.7691 LP  0  0  0  0  0  0  0  0  0  0  0  0  # atno 17371 bound_to 10713
  140.8878  133.7870  155.9538 LP  0  0  0  0  0  0  0  0  0  0  0  0  # atno 17394 bound_to 11000
  140.8786  134.2639  157.5155 LP  0  0  0  0  0  0  0  0  0  0  0  0  # atno 17395 bound_to 11000

$$$$
