AV-unprocessed.smi:214|AV-procd|sdf|1649|dock1
  -GOLD-   2262020 23D 1   1.00000     0.00000
 Structure written by MMmdl.
 47 50  0  0  0  0  0  0  0  0  1 V2000
  147.7997  131.2105  156.2935 C   0  0  0  0  0  0  0  0  0  0  0  0
  147.7906  132.4705  155.5575 N   0  0  0  0  0  0  0  0  0  0  0  0
  148.2532  132.4852  154.1653 C   0  0  0  0  0  0  0  0  0  0  0  0
  147.2866  133.2177  153.2265 C   0  0  0  0  0  0  0  0  0  0  0  0
  146.5711  134.1315  153.6404 O   0  0  0  0  0  0  0  0  0  0  0  0
  147.2928  132.8086  151.9495 N   0  0  0  0  0  0  0  0  0  0  0  0
  146.4851  133.3464  150.9027 C   0  0  0  0  0  0  0  0  0  0  0  0
  144.9824  133.2489  151.0551 C   0  0  0  0  0  0  0  0  0  0  0  0
  145.6903  132.3754  150.0565 C   0  0  0  0  0  0  0  0  0  0  0  0
  148.0619  133.5501  156.3269 C   0  0  0  0  0  0  0  0  0  0  0  0
  147.4956  133.5927  157.5591 N   0  0  0  0  0  0  0  0  0  0  0  0
  147.7213  134.6332  158.3661 C   0  0  0  0  0  0  0  0  0  0  0  0
  148.4757  135.7113  158.1459 N   0  0  0  0  0  0  0  0  0  0  0  0
  149.0661  135.6629  156.9178 C   0  0  0  0  0  0  0  0  0  0  0  0
  148.9140  134.6285  155.9509 C   0  0  0  0  0  0  0  0  0  0  0  0
  149.6747  134.9210  154.8245 N   0  0  0  0  0  0  0  0  0  0  0  0
  150.2336  136.0664  155.1050 C   0  0  0  0  0  0  0  0  0  0  0  0
  149.9301  136.5806  156.3456 N   0  0  0  0  0  0  0  0  0  0  0  0
  150.4159  137.8326  156.9067 C   0  0  0  0  0  0  0  0  0  0  0  0
  151.2154  138.7070  155.9174 C   0  0  0  0  0  0  0  0  0  0  0  0
  152.5879  138.0807  155.6128 C   0  0  0  0  0  0  0  0  0  0  0  0
  153.4465  138.1463  156.7337 O   0  0  0  0  0  0  0  0  0  0  0  0
  150.4425  139.1912  154.6827 C   0  0  0  0  0  0  0  0  0  0  0  0
  150.8522  140.5585  154.8944 O   0  0  0  0  0  0  0  0  0  0  0  0
  151.2632  140.2095  156.2326 C   0  0  0  0  0  0  0  0  0  0  0  0
  146.9983  131.1858  157.0327 H   0  0  0  0  0  0  0  0  0  0  0  0
  148.7503  131.0705  156.8106 H   0  0  0  0  0  0  0  0  0  0  0  0
  147.6548  130.3623  155.6239 H   0  0  0  0  0  0  0  0  0  0  0  0
  149.2187  132.9863  154.0790 H   0  0  0  0  0  0  0  0  0  0  0  0
  148.3920  131.4592  153.8207 H   0  0  0  0  0  0  0  0  0  0  0  0
  147.9172  132.0559  151.6987 H   0  0  0  0  0  0  0  0  0  0  0  0
  146.8539  134.2350  150.3922 H   0  0  0  0  0  0  0  0  0  0  0  0
  144.5896  132.7698  151.9501 H   0  0  0  0  0  0  0  0  0  0  0  0
  144.3856  134.0725  150.6685 H   0  0  0  0  0  0  0  0  0  0  0  0
  145.5663  132.6152  149.0024 H   0  0  0  0  0  0  0  0  0  0  0  0
  145.7713  131.3146  150.2859 H   0  0  0  0  0  0  0  0  0  0  0  0
  147.2265  134.5964  159.3256 H   0  0  0  0  0  0  0  0  0  0  0  0
  150.8949  136.5676  154.4130 H   0  0  0  0  0  0  0  0  0  0  0  0
  149.5590  138.3855  157.2930 H   0  0  0  0  0  0  0  0  0  0  0  0
  151.0221  137.5911  157.7807 H   0  0  0  0  0  0  0  0  0  0  0  0
  152.4764  137.0304  155.3414 H   0  0  0  0  0  0  0  0  0  0  0  0
  153.0710  138.5600  154.7610 H   0  0  0  0  0  0  0  0  0  0  0  0
  153.2731  137.4008  157.2884 H   0  0  0  0  0  0  0  0  0  0  0  0
  150.8065  138.7840  153.7388 H   0  0  0  0  0  0  0  0  0  0  0  0
  149.3604  139.0760  154.7645 H   0  0  0  0  0  0  0  0  0  0  0  0
  150.5296  140.5372  156.9706 H   0  0  0  0  0  0  0  0  0  0  0  0
  152.2578  140.5814  156.4807 H   0  0  0  0  0  0  0  0  0  0  0  0
  1  2  1  0  0  0  0
  1 26  1  0  0  0  0
  1 27  1  0  0  0  0
  1 28  1  0  0  0  0
  2  3  1  0  0  0  0
  2 10  1  0  0  0  0
  3  4  1  0  0  0  0
  3 29  1  0  0  0  0
  3 30  1  0  0  0  0
  4  5  2  0  0  0  0
  4  6  1  0  0  0  0
  6  7  1  0  0  0  0
  6 31  1  0  0  0  0
  7  9  1  0  0  0  0
  7  8  1  0  0  0  0
  7 32  1  0  0  0  0
  8  9  1  0  0  0  0
  8 33  1  0  0  0  0
  8 34  1  0  0  0  0
  9 35  1  0  0  0  0
  9 36  1  0  0  0  0
 10 15  1  0  0  0  0
 10 11  2  0  0  0  0
 11 12  1  0  0  0  0
 12 13  2  0  0  0  0
 12 37  1  0  0  0  0
 13 14  1  0  0  0  0
 14 18  1  0  0  0  0
 14 15  2  0  0  0  0
 15 16  1  0  0  0  0
 16 17  2  0  0  0  0
 17 18  1  0  0  0  0
 17 38  1  0  0  0  0
 18 19  1  0  0  0  0
 19 20  1  0  0  0  0
 19 39  1  0  0  0  0
 19 40  1  0  0  0  0
 20 25  1  0  0  0  0
 20 21  1  0  0  0  0
 20 23  1  0  0  0  0
 21 22  1  0  0  0  0
 21 41  1  0  0  0  0
 21 42  1  0  0  0  0
 22 43  1  0  0  0  0
 23 24  1  0  0  0  0
 23 44  1  0  0  0  0
 23 45  1  0  0  0  0
 24 25  1  0  0  0  0
 25 46  1  0  0  0  0
 25 47  1  0  0  0  0
M  END
> <s_m_source_file>
AV-unprocessed.smi

> <i_m_source_file_index>
214

> <i_lp_mmshare_version>
43012

> <i_f3d_flags>
0

> <s_epik_input>
W0NIMl0xW0NIMl1bQ0hdMVtOSF1DKD1PKVtDSDJdTihbQ0gzXSljKG5bY0hdbjIpYyhjMjMpbltjSF1uM1tDSDJdQzQoW0NIMl1bT0hdKVtDSDJdT1tDSDJdNA==

> <s_epik_cmdline>
J2VwaWtfcHl0aG9uJywgJy1waCcsICc3LjAnLCAnLXRuJywgJzgnLCAnLW1hJywgJzIwMCcsICctbWV0YWxfYmluZGluZycsICctaW1hZScsICc8aW5maWxlLm1hZT4nLCAnLW9tYWUnLCAnPG91dGZpbGUubWFlPic=

> <r_lp_tautomer_probability>
1

> <r_epik_Ionization_Penalty>
0.000508869

> <r_epik_Ionization_Penalty_Charging>
0

> <r_epik_Ionization_Penalty_Neutral>
0.000508869

> <r_epik_State_Penalty>
0.000243319

> <r_epik_Charging_Adjusted_Penalty>
0.000243319

> <i_epik_Tot_Q>
0

> <i_epik_Tot_abs_Q>
0

> <r_epik_Metal_State_Penalty>
-0

> <b_epik_Metal_Only>
0

> <s_lp_Force_Field>
OPLS_2005

> <r_lp_Energy>
39.3286

> <b_lp_Chiralities_Consistent>
1

> <s_lp_Variant>
AV-unprocessed.smi:214-1

> <Gold.Version>
5.8.1

> <Gold.Id.Protein>
6NUR|6NUR_protein|mol2

> <Gold.PLP.Fitness>
44.9994

> <Gold.PLP.PLP>
-34.7422

> <Gold.PLP.part.hbond>
-4.0000

> <Gold.PLP.part.metal>
0.0000

> <Gold.PLP.part.buried>
-3.9523

> <Gold.PLP.part.nonpolar>
-29.4658

> <Gold.PLP.part.repulsive>
0.6991

> <Gold.PLP.ligand.clash>
0.0000

> <Gold.PLP.ligand.torsion>
1.3594

> <Gold.PLP.Chemscore.Hbond>
3.1202

> <Gold.PLP.Chemscore.CHOScore>
0.8476

> <Gold.PLP.Chemscore.Metal>
0.0000

> <Gold.Chemscore.Hbonds>
donor molecule, donor type, donor heavy atom, donor atom, acceptor molecule, acceptor atom, score
      L1  H     6    31       P1 10747  0.73
      P1  H  7989  7998       L1    24  1.00
      P1  H  7997  8008       L1    22  0.34

> <Gold.PLP.Chemscore.Internal.Correction>
1.0727

> <Gold.Rescore>
     Score         DG    S(hbond)    S(metal)    S(lipo)     H(rot)  DE(clash)    DE(int)     intcor
     10.84     -13.72       2.46        0.00      72.49       3.31       0.12       2.76       ----

> <Gold.Chemscore.Fitness>
10.8426

> <Gold.Chemscore.DG>
-13.7233

> <Gold.Chemscore.ZeroCoef>
-5.4800

> <Gold.Chemscore.Hbond>
2.4621

> <Gold.Chemscore.Metal>
0.0000

> <Gold.Chemscore.Lipo>
72.4890

> <Gold.Chemscore.Internal_Hbond>
0.0000

> <Gold.Chemscore.DEClash>
0.1210

> <Gold.Chemscore.DEInternal>
2.7597

> <Gold.Chemscore.Rot>
3.3052

> <Gold.Chemscore.Internal.Correction>
   9.000000E+99

> <Gold.Chemscore.Hbonds>
donor molecule, donor type, donor heavy atom, donor atom, acceptor molecule, acceptor atom, score
      L1  H     6    31       P1 10747  0.71
      P1  H  7989  7998       L1    24  0.33
      P1  H  7997  8008       L1    22  0.07

> <Gold.Chemscore.Hbond.Weighted>
-8.2235

> <Gold.Chemscore.Metal.Weighted>
-0.0000

> <Gold.Chemscore.Lipo.Weighted>
-8.4812

> <Gold.Chemscore.Internal_Hbond.Weighted>
0.0000

> <Gold.Chemscore.DEClash.Weighted>
0.1210

> <Gold.Chemscore.DEInternal.Weighted>
2.7597

> <Gold.Chemscore.Rot.Weighted>
8.4614

> <Gold.Chemscore.Internal.Correction.Weighted>
   9.000000E+99

> <Gold.Protein.RotatedTorsions>
[ 6907 6896 6895 6894 ] final  167.44 input  -60.11 | X-H torsion
[ 7974 7965 7964 7962 ] final  -80.17 input  175.53 | X-H torsion
[ 8008 7997 7996 7995 ] final  -38.49 input   59.86 | X-H torsion
[ 10167 10162 10161 10158 ] final  -41.11 input  -65.29 | X-H torsion
[ 10718 10713 10712 10709 ] final  158.23 input   66.30 | X-H torsion
[ 10763 10752 10751 10750 ] final -162.05 input  -60.55 | X-H torsion
[ 11005 11000 10999 10996 ] final -107.53 input  -57.11 | X-H torsion

> <Gold.Protein.ActiveResidues>
 VAL166  LYS551  ARG553  GLY616  TRP617  ASP618  TYR619  PRO620  LYS621  CYS622 
 ASP623  PHE694  ASN695  SER759  ASP760  ASP761  ALA762  ILE779  LEU786  VAL792 
 PHE793  MET794  SER795  GLU796  ALA797  LYS798  CYS799  TRP800  GLU811  SER814 

> <Gold.Protein.RotatedAtoms>
  151.8632  133.3461  159.3710 H   0  0  0  0  0  0  0  0  0  0  0  0  # atno 6907 bound_to 6896
  150.7173  134.5185  159.5651 H   0  0  0  0  0  0  0  0  0  0  0  0  # atno 6908 bound_to 6896
  152.2703  134.7940  160.0466 H   0  0  0  0  0  0  0  0  0  0  0  0  # atno 6909 bound_to 6896
  145.5635  140.9478  143.1434 H   0  0  0  0  0  0  0  0  0  0  0  0  # atno 7974 bound_to 7965
  154.4036  140.1576  156.2709 H   0  0  0  0  0  0  0  0  0  0  0  0  # atno 8008 bound_to 7997
  155.8954  140.3436  155.5965 H   0  0  0  0  0  0  0  0  0  0  0  0  # atno 8009 bound_to 7997
  155.7510  140.0805  157.2192 H   0  0  0  0  0  0  0  0  0  0  0  0  # atno 8010 bound_to 7997
  140.7013  143.3113  151.3020 H   0  0  0  0  0  0  0  0  0  0  0  0  # atno 10167 bound_to 10162
  157.1807  131.0632  151.2133 H   0  0  0  0  0  0  0  0  0  0  0  0  # atno 10718 bound_to 10713
  154.7249  135.3034  154.8987 H   0  0  0  0  0  0  0  0  0  0  0  0  # atno 10763 bound_to 10752
  153.9847  135.6726  153.4755 H   0  0  0  0  0  0  0  0  0  0  0  0  # atno 10764 bound_to 10752
  153.0866  135.4981  154.8528 H   0  0  0  0  0  0  0  0  0  0  0  0  # atno 10765 bound_to 10752
  141.0949  133.8989  157.1987 H   0  0  0  0  0  0  0  0  0  0  0  0  # atno 11005 bound_to 11000
  144.7471  139.7290  143.7288 LP  0  0  0  0  0  0  0  0  0  0  0  0  # atno 17320 bound_to 7965
  146.1834  139.5038  142.9851 LP  0  0  0  0  0  0  0  0  0  0  0  0  # atno 17321 bound_to 7965
  139.6537  144.0315  152.2645 LP  0  0  0  0  0  0  0  0  0  0  0  0  # atno 17342 bound_to 10162
  139.9860  144.6395  150.7858 LP  0  0  0  0  0  0  0  0  0  0  0  0  # atno 17343 bound_to 10162
  157.3955  130.7305  149.6728 LP  0  0  0  0  0  0  0  0  0  0  0  0  # atno 17370 bound_to 10713
  155.9725  130.4135  150.4085 LP  0  0  0  0  0  0  0  0  0  0  0  0  # atno 17371 bound_to 10713
  139.9783  135.0106  156.9686 LP  0  0  0  0  0  0  0  0  0  0  0  0  # atno 17394 bound_to 11000
  140.5164  134.0951  155.7282 LP  0  0  0  0  0  0  0  0  0  0  0  0  # atno 17395 bound_to 11000

$$$$
