AV-unprocessed.smi:466|AV-procd|sdf|2641|dock5
  -GOLD-   2262023 53D 1   1.00000     0.00000
 Structure written by MMmdl.
 43 45  0  0  0  0  0  0  0  0  1 V2000
  154.2083  141.0787  161.6701 C   0  0  0  0  0  0  0  0  0  0  0  0
  154.0292  141.3224  160.2826 O   0  0  0  0  0  0  0  0  0  0  0  0
  152.9984  142.1523  159.8911 C   0  0  0  0  0  0  0  0  0  0  0  0
  152.5086  143.2220  160.6830 C   0  0  0  0  0  0  0  0  0  0  0  0
  151.4514  144.0267  160.2216 C   0  0  0  0  0  0  0  0  0  0  0  0
  150.8725  143.7738  158.9667 C   0  0  0  0  0  0  0  0  0  0  0  0
  151.3507  142.7163  158.1722 C   0  0  0  0  0  0  0  0  0  0  0  0
  152.4156  141.8976  158.6276 C   0  0  0  0  0  0  0  0  0  0  0  0
  152.9334  140.8435  157.9033 O   0  0  0  0  0  0  0  0  0  0  0  0
  152.0713  140.1402  157.0205 C   0  0  0  0  0  0  0  0  0  0  0  0
  152.0299  140.8857  155.6817 C   0  0  0  0  0  0  0  0  0  0  0  0
  151.1312  140.2386  154.7389 N   0  0  0  0  0  0  0  0  0  0  0  0
  151.3918  139.2152  153.8852 C   0  0  0  0  0  0  0  0  0  0  0  0
  152.7366  138.5535  153.7956 C   0  0  0  0  0  0  0  0  0  0  0  0
  152.6912  137.0437  154.0792 C   0  0  0  0  0  0  0  0  0  0  0  0
  153.9924  136.5186  154.2371 O   0  0  0  0  0  0  0  0  0  0  0  0
  150.3687  138.8217  153.1250 N   0  0  0  0  0  0  0  0  0  0  0  0
  149.3522  139.6701  153.5177 C   0  0  0  0  0  0  0  0  0  0  0  0
  148.0112  139.7610  153.0807 C   0  0  0  0  0  0  0  0  0  0  0  0
  147.1444  140.7268  153.6331 C   0  0  0  0  0  0  0  0  0  0  0  0
  147.6051  141.6140  154.6274 C   0  0  0  0  0  0  0  0  0  0  0  0
  148.9371  141.5392  155.0779 C   0  0  0  0  0  0  0  0  0  0  0  0
  149.7976  140.5720  154.5248 C   0  0  0  0  0  0  0  0  0  0  0  0
  155.0499  140.4004  161.8095 H   0  0  0  0  0  0  0  0  0  0  0  0
  153.3288  140.6059  162.1091 H   0  0  0  0  0  0  0  0  0  0  0  0
  154.4337  141.9987  162.2109 H   0  0  0  0  0  0  0  0  0  0  0  0
  152.9277  143.4465  161.6518 H   0  0  0  0  0  0  0  0  0  0  0  0
  151.0844  144.8387  160.8320 H   0  0  0  0  0  0  0  0  0  0  0  0
  150.0604  144.3913  158.6120 H   0  0  0  0  0  0  0  0  0  0  0  0
  150.8819  142.5541  157.2138 H   0  0  0  0  0  0  0  0  0  0  0  0
  152.4412  139.1254  156.8637 H   0  0  0  0  0  0  0  0  0  0  0  0
  151.0670  140.0775  157.4421 H   0  0  0  0  0  0  0  0  0  0  0  0
  151.7282  141.9227  155.8253 H   0  0  0  0  0  0  0  0  0  0  0  0
  153.0276  140.9188  155.2428 H   0  0  0  0  0  0  0  0  0  0  0  0
  153.1087  138.7056  152.7819 H   0  0  0  0  0  0  0  0  0  0  0  0
  153.4578  139.0486  154.4449 H   0  0  0  0  0  0  0  0  0  0  0  0
  152.0917  136.8281  154.9642 H   0  0  0  0  0  0  0  0  0  0  0  0
  152.2237  136.5265  153.2410 H   0  0  0  0  0  0  0  0  0  0  0  0
  154.0732  136.1712  155.1123 H   0  0  0  0  0  0  0  0  0  0  0  0
  147.6495  139.0869  152.3183 H   0  0  0  0  0  0  0  0  0  0  0  0
  146.1214  140.7880  153.2918 H   0  0  0  0  0  0  0  0  0  0  0  0
  146.9357  142.3520  155.0447 H   0  0  0  0  0  0  0  0  0  0  0  0
  149.2931  142.2175  155.8390 H   0  0  0  0  0  0  0  0  0  0  0  0
  1  2  1  0  0  0  0
  1 24  1  0  0  0  0
  1 25  1  0  0  0  0
  1 26  1  0  0  0  0
  2  3  1  0  0  0  0
  3  8  1  0  0  0  0
  3  4  2  0  0  0  0
  4  5  1  0  0  0  0
  4 27  1  0  0  0  0
  5  6  2  0  0  0  0
  5 28  1  0  0  0  0
  6  7  1  0  0  0  0
  6 29  1  0  0  0  0
  7  8  2  0  0  0  0
  7 30  1  0  0  0  0
  8  9  1  0  0  0  0
  9 10  1  0  0  0  0
 10 11  1  0  0  0  0
 10 31  1  0  0  0  0
 10 32  1  0  0  0  0
 11 12  1  0  0  0  0
 11 33  1  0  0  0  0
 11 34  1  0  0  0  0
 12 23  1  0  0  0  0
 12 13  1  0  0  0  0
 13 14  1  0  0  0  0
 13 17  2  0  0  0  0
 14 15  1  0  0  0  0
 14 35  1  0  0  0  0
 14 36  1  0  0  0  0
 15 16  1  0  0  0  0
 15 37  1  0  0  0  0
 15 38  1  0  0  0  0
 16 39  1  0  0  0  0
 17 18  1  0  0  0  0
 18 23  2  0  0  0  0
 18 19  1  0  0  0  0
 19 20  2  0  0  0  0
 19 40  1  0  0  0  0
 20 21  1  0  0  0  0
 20 41  1  0  0  0  0
 21 22  2  0  0  0  0
 21 42  1  0  0  0  0
 22 23  1  0  0  0  0
 22 43  1  0  0  0  0
M  END
> <s_m_source_file>
AV-unprocessed.smi

> <i_m_source_file_index>
466

> <i_lp_mmshare_version>
43012

> <i_f3d_flags>
0

> <s_epik_input>
W0NIM11PYzFbY0hdW2NIXVtjSF1bY0hdYzFPW0NIMl1bQ0gyXW4oYyhuMilbQ0gyXVtDSDJdW09IXSljKGMyMylbY0hdW2NIXVtjSF1bY0hdMw==

> <s_epik_cmdline>
J2VwaWtfcHl0aG9uJywgJy1waCcsICc3LjAnLCAnLXRuJywgJzgnLCAnLW1hJywgJzIwMCcsICctbWV0YWxfYmluZGluZycsICctaW1hZScsICc8aW5maWxlLm1hZT4nLCAnLW9tYWUnLCAnPG91dGZpbGUubWFlPic=

> <r_lp_tautomer_probability>
1

> <r_epik_Ionization_Penalty>
0.20808

> <r_epik_Ionization_Penalty_Charging>
0

> <r_epik_Ionization_Penalty_Neutral>
0.20808

> <r_epik_State_Penalty>
0.198097

> <r_epik_Charging_Adjusted_Penalty>
0.198097

> <i_epik_Tot_Q>
0

> <i_epik_Tot_abs_Q>
0

> <r_epik_Metal_State_Penalty>
0.000235189

> <b_epik_Metal_Only>
0

> <s_lp_Force_Field>
OPLS_2005

> <r_lp_Energy>
20.5556

> <b_lp_Chiralities_Consistent>
1

> <s_lp_Variant>
AV-unprocessed.smi:466-1

> <Gold.Version>
5.8.1

> <Gold.Id.Protein>
6NUR|6NUR_protein|mol2

> <Gold.PLP.Fitness>
53.2636

> <Gold.PLP.PLP>
-52.6374

> <Gold.PLP.part.hbond>
-1.0000

> <Gold.PLP.part.metal>
0.0000

> <Gold.PLP.part.buried>
-3.5084

> <Gold.PLP.part.nonpolar>
-49.0051

> <Gold.PLP.part.repulsive>
1.1023

> <Gold.PLP.ligand.clash>
0.0000

> <Gold.PLP.ligand.torsion>
1.2788

> <Gold.PLP.Chemscore.Hbond>
1.0000

> <Gold.PLP.Chemscore.CHOScore>
0.0000

> <Gold.PLP.Chemscore.Metal>
0.0000

> <Gold.Chemscore.Hbonds>
donor molecule, donor type, donor heavy atom, donor atom, acceptor molecule, acceptor atom, score
      P1  H  7997  8008       L1     9  0.28

> <Gold.PLP.Chemscore.Internal.Correction>
0.1838

> <Gold.Rescore>
     Score         DG    S(hbond)    S(metal)    S(lipo)     H(rot)  DE(clash)    DE(int)     intcor
     16.17     -18.24       0.88        0.00     140.66       2.59       0.65       1.42       ----

> <Gold.Chemscore.Fitness>
16.1734

> <Gold.Chemscore.DG>
-18.2441

> <Gold.Chemscore.ZeroCoef>
-5.4800

> <Gold.Chemscore.Hbond>
0.8806

> <Gold.Chemscore.Metal>
0.0000

> <Gold.Chemscore.Lipo>
140.6636

> <Gold.Chemscore.Internal_Hbond>
0.0000

> <Gold.Chemscore.DEClash>
0.6470

> <Gold.Chemscore.DEInternal>
1.4237

> <Gold.Chemscore.Rot>
2.5916

> <Gold.Chemscore.Internal.Correction>
   9.000000E+99

> <Gold.Chemscore.Hbonds>
donor molecule, donor type, donor heavy atom, donor atom, acceptor molecule, acceptor atom, score
      P1  H  7997  8008       L1     9  0.01

> <Gold.Chemscore.Hbond.Weighted>
-2.9411

> <Gold.Chemscore.Metal.Weighted>
-0.0000

> <Gold.Chemscore.Lipo.Weighted>
-16.4576

> <Gold.Chemscore.Internal_Hbond.Weighted>
0.0000

> <Gold.Chemscore.DEClash.Weighted>
0.6470

> <Gold.Chemscore.DEInternal.Weighted>
1.4237

> <Gold.Chemscore.Rot.Weighted>
6.6346

> <Gold.Chemscore.Internal.Correction.Weighted>
   9.000000E+99

> <Gold.Protein.RotatedTorsions>
[ 6907 6896 6895 6894 ] final  -87.42 input  -60.11 | X-H torsion
[ 7974 7965 7964 7962 ] final   62.36 input  175.53 | X-H torsion
[ 8008 7997 7996 7995 ] final  -78.42 input   59.86 | X-H torsion
[ 10167 10162 10161 10158 ] final -120.40 input  -65.29 | X-H torsion
[ 10718 10713 10712 10709 ] final   79.30 input   66.30 | X-H torsion
[ 10763 10752 10751 10750 ] final -149.87 input  -60.55 | X-H torsion
[ 11005 11000 10999 10996 ] final  -48.94 input  -57.11 | X-H torsion

> <Gold.Protein.ActiveResidues>
 VAL166  LYS551  ARG553  GLY616  TRP617  ASP618  TYR619  PRO620  LYS621  CYS622 
 ASP623  PHE694  ASN695  SER759  ASP760  ASP761  ALA762  ILE779  LEU786  VAL792 
 PHE793  MET794  SER795  GLU796  ALA797  LYS798  CYS799  TRP800  GLU811  SER814 

> <Gold.Protein.RotatedAtoms>
  150.6866  134.2899  159.4661 H   0  0  0  0  0  0  0  0  0  0  0  0  # atno 6907 bound_to 6896
  152.0805  134.9472  160.0583 H   0  0  0  0  0  0  0  0  0  0  0  0  # atno 6908 bound_to 6896
  152.0826  133.4126  159.4545 H   0  0  0  0  0  0  0  0  0  0  0  0  # atno 6909 bound_to 6896
  145.8742  139.3398  143.0744 H   0  0  0  0  0  0  0  0  0  0  0  0  # atno 7974 bound_to 7965
  154.5688  140.0694  156.8932 H   0  0  0  0  0  0  0  0  0  0  0  0  # atno 8008 bound_to 7997
  155.2673  140.3362  155.4250 H   0  0  0  0  0  0  0  0  0  0  0  0  # atno 8009 bound_to 7997
  156.2102  140.1756  156.7698 H   0  0  0  0  0  0  0  0  0  0  0  0  # atno 8010 bound_to 7997
  140.0363  143.5198  152.2152 H   0  0  0  0  0  0  0  0  0  0  0  0  # atno 10167 bound_to 10162
  157.6772  130.9908  150.1912 H   0  0  0  0  0  0  0  0  0  0  0  0  # atno 10718 bound_to 10713
  154.8152  135.3298  154.7195 H   0  0  0  0  0  0  0  0  0  0  0  0  # atno 10763 bound_to 10752
  153.7837  135.6916  153.4888 H   0  0  0  0  0  0  0  0  0  0  0  0  # atno 10764 bound_to 10752
  153.1963  135.4532  155.0159 H   0  0  0  0  0  0  0  0  0  0  0  0  # atno 10765 bound_to 10752
  141.0730  133.6673  156.3513 H   0  0  0  0  0  0  0  0  0  0  0  0  # atno 11005 bound_to 11000
  145.9101  140.9186  143.0458 LP  0  0  0  0  0  0  0  0  0  0  0  0  # atno 17320 bound_to 7965
  144.6726  140.1148  143.7453 LP  0  0  0  0  0  0  0  0  0  0  0  0  # atno 17321 bound_to 7965
  139.6043  144.7592  151.3098 LP  0  0  0  0  0  0  0  0  0  0  0  0  # atno 17342 bound_to 10162
  140.7280  143.6947  150.7893 LP  0  0  0  0  0  0  0  0  0  0  0  0  # atno 17343 bound_to 10162
  156.2623  130.3712  149.8117 LP  0  0  0  0  0  0  0  0  0  0  0  0  # atno 17370 bound_to 10713
  156.5859  130.8485  151.3395 LP  0  0  0  0  0  0  0  0  0  0  0  0  # atno 17371 bound_to 10713
  140.5633  134.5912  157.5439 LP  0  0  0  0  0  0  0  0  0  0  0  0  # atno 17394 bound_to 11000
  139.9543  134.7563  156.0378 LP  0  0  0  0  0  0  0  0  0  0  0  0  # atno 17395 bound_to 11000

$$$$
