AV-unprocessed.smi:2226|AV-procd|sdf|9014|dock9
  -GOLD-   2272012223D 1   1.00000     0.00000
 Structure written by MMmdl.
 40 42  0  0  0  0  0  0  0  0  2 V2000
  151.0080  141.7828  156.5770 C   0  0  0  0  0  0  0  0  0  0  0  0
  151.2181  140.5677  155.7543 N   0  3  2  0  0  0  0  0  0  0  0  0
  149.9749  139.9221  155.2667 C   0  0  1  0  0  0  0  0  0  0  0  0
  150.3296  138.9682  154.1017 C   0  0  0  0  0  0  0  0  0  0  0  0
  151.4343  137.9482  154.4453 C   0  0  0  0  0  0  0  0  0  0  0  0
  152.5871  138.5797  155.2523 C   0  0  0  0  0  0  0  0  0  0  0  0
  152.1163  139.5534  156.3581 C   0  0  2  0  0  0  0  0  0  0  0  0
  151.4551  138.8741  157.5834 C   0  0  0  0  0  0  0  0  0  0  0  0
  150.0299  138.3306  157.3294 C   0  0  1  0  0  0  0  0  0  0  0  0
  149.3474  138.1620  158.6115 N   0  0  0  0  0  0  0  0  0  0  0  0
  148.9525  137.0042  159.1638 C   0  0  0  0  0  0  0  0  0  0  0  0
  149.1413  135.9183  158.6067 O   0  0  0  0  0  0  0  0  0  0  0  0
  148.3408  137.2527  160.3843 N   0  0  0  0  0  0  0  0  0  0  0  0
  147.7046  136.3043  161.0013 C   0  0  0  0  0  0  0  0  0  0  0  0
  147.4668  134.9657  160.6997 N   0  0  0  0  0  0  0  0  0  0  0  0
  146.7300  134.4243  161.7156 C   0  0  0  0  0  0  0  0  0  0  0  0
  146.5115  135.3756  162.6182 C   0  0  0  0  0  0  0  0  0  0  0  0
  147.0956  136.5366  162.2087 O   0  0  0  0  0  0  0  0  0  0  0  0
  149.1891  139.2645  156.4285 C   0  0  0  0  0  0  0  0  0  0  0  0
  150.4940  141.5656  157.5130 H   0  0  0  0  0  0  0  0  0  0  0  0
  150.4146  142.5150  156.0288 H   0  0  0  0  0  0  0  0  0  0  0  0
  151.9639  142.2486  156.8179 H   0  0  0  0  0  0  0  0  0  0  0  0
  149.3387  140.7013  154.8445 H   0  0  0  0  0  0  0  0  0  0  0  0
  149.4379  138.4492  153.7485 H   0  0  0  0  0  0  0  0  0  0  0  0
  150.6746  139.5718  153.2612 H   0  0  0  0  0  0  0  0  0  0  0  0
  151.0157  137.1003  154.9807 H   0  0  0  0  0  0  0  0  0  0  0  0
  151.8297  137.5183  153.5245 H   0  0  0  0  0  0  0  0  0  0  0  0
  153.2196  137.7986  155.6755 H   0  0  0  0  0  0  0  0  0  0  0  0
  153.2225  139.1335  154.5597 H   0  0  0  0  0  0  0  0  0  0  0  0
  153.0086  140.0695  156.7153 H   0  0  0  0  0  0  0  0  0  0  0  0
  152.0933  138.0723  157.9566 H   0  0  0  0  0  0  0  0  0  0  0  0
  151.4153  139.6056  158.3916 H   0  0  0  0  0  0  0  0  0  0  0  0
  150.1128  137.3641  156.8399 H   0  0  0  0  0  0  0  0  0  0  0  0
  149.1552  139.0059  159.1319 H   0  0  0  0  0  0  0  0  0  0  0  0
  147.7652  134.4443  159.8876 H   0  0  0  0  0  0  0  0  0  0  0  0
  146.4323  133.3865  161.6830 H   0  0  0  0  0  0  0  0  0  0  0  0
  145.9840  135.3854  163.5605 H   0  0  0  0  0  0  0  0  0  0  0  0
  148.7677  140.0619  157.0422 H   0  0  0  0  0  0  0  0  0  0  0  0
  148.3280  138.7212  156.0377 H   0  0  0  0  0  0  0  0  0  0  0  0
  151.6962  140.8974  154.9277 H   0  0  0  0  0  0  0  0  0  0  0  0
  1  2  1  0  0  0  0
  1 20  1  0  0  0  0
  1 21  1  0  0  0  0
  1 22  1  0  0  0  0
  2  7  1  0  0  0  0
  2  3  1  0  0  0  0
  2 40  1  0  0  0  0
  3 19  1  0  0  0  0
  3  4  1  0  0  0  0
  3 23  1  0  0  0  0
  4  5  1  0  0  0  0
  4 24  1  0  0  0  0
  4 25  1  0  0  0  0
  5  6  1  0  0  0  0
  5 26  1  0  0  0  0
  5 27  1  0  0  0  0
  6  7  1  0  0  0  0
  6 28  1  0  0  0  0
  6 29  1  0  0  0  0
  7  8  1  0  0  0  0
  7 30  1  0  0  0  0
  8  9  1  0  0  0  0
  8 31  1  0  0  0  0
  8 32  1  0  0  0  0
  9 10  1  0  0  0  0
  9 19  1  0  0  0  0
  9 33  1  0  0  0  0
 10 34  1  0  0  0  0
 10 11  1  0  0  0  0
 11 13  1  0  0  0  0
 11 12  2  0  0  0  0
 13 14  2  0  0  0  0
 14 18  1  0  0  0  0
 14 15  1  0  0  0  0
 15 35  1  0  0  0  0
 15 16  1  0  0  0  0
 16 36  1  0  0  0  0
 16 17  2  0  0  0  0
 17 37  1  0  0  0  0
 17 18  1  0  0  0  0
 19 38  1  0  0  0  0
 19 39  1  0  0  0  0
M  CHG  1   2   1
M  END
> <s_m_source_file>
AV-unprocessed.smi

> <i_m_source_file_index>
2226

> <i_lp_mmshare_version>
43012

> <i_f3d_flags>
0

> <s_epik_input>
W0NIMl0xW0NIMl1bQ0gyXVtDQEhdKE4oW0NIM10pW0NIXTEyKVtDSDJdW0NASF0oW0NIMl0yKVtOSF1DKD1PKVtOSF1jM25bY0hdW2NIXW8z

> <s_epik_cmdline>
J2VwaWtfcHl0aG9uJywgJy1waCcsICc3LjAnLCAnLXRuJywgJzgnLCAnLW1hJywgJzIwMCcsICctbWV0YWxfYmluZGluZycsICctaW1hZScsICc8aW5maWxlLm1hZT4nLCAnLW9tYWUnLCAnPG91dGZpbGUubWFlPic=

> <r_lp_tautomer_probability>
0.107061

> <r_epik_Ionization_Penalty>
1.08307

> <r_epik_Ionization_Penalty_Charging>
1.08272

> <r_epik_Ionization_Penalty_Neutral>
0.000345913

> <r_epik_State_Penalty>
2.5744

> <r_epik_Charging_Adjusted_Penalty>
3.65713

> <i_epik_Tot_Q>
1

> <i_epik_Tot_abs_Q>
1

> <r_epik_Metal_State_Penalty>
3.72133

> <b_epik_Metal_Only>
0

> <s_lp_Force_Field>
OPLS_2005

> <r_lp_Energy>
58.9785

> <b_lp_Chiralities_Consistent>
1

> <s_lp_Variant>
AV-unprocessed.smi:2226-14

> <Gold.Version>
5.8.1

> <Gold.Id.Protein>
6NUR|6NUR_protein|mol2

> <Gold.PLP.Fitness>
40.7296

> <Gold.PLP.PLP>
-35.1090

> <Gold.PLP.part.hbond>
-3.0000

> <Gold.PLP.part.metal>
0.0000

> <Gold.PLP.part.buried>
-5.3277

> <Gold.PLP.part.nonpolar>
-28.0001

> <Gold.PLP.part.repulsive>
0.4175

> <Gold.PLP.ligand.clash>
0.0000

> <Gold.PLP.ligand.torsion>
0.0428

> <Gold.PLP.Chemscore.Hbond>
1.9002

> <Gold.PLP.Chemscore.CHOScore>
0.0000

> <Gold.PLP.Chemscore.Metal>
0.0000

> <Gold.Chemscore.Hbonds>
donor molecule, donor type, donor heavy atom, donor atom, acceptor molecule, acceptor atom, score
      P1  H  6896  6908       L1    12  0.41
      P1  H  6931  6943       L1    13  0.67
      P1  H  6934  6947       L1    13  0.38

> <Gold.PLP.Chemscore.Internal.Correction>
0.0058

> <Gold.Rescore>
     Score         DG    S(hbond)    S(metal)    S(lipo)     H(rot)  DE(clash)    DE(int)     intcor
     15.79     -16.94       1.88        0.00      66.00       1.00       1.13       0.02       ----

> <Gold.Chemscore.Fitness>
15.7884

> <Gold.Chemscore.DG>
-16.9365

> <Gold.Chemscore.ZeroCoef>
-5.4800

> <Gold.Chemscore.Hbond>
1.8847

> <Gold.Chemscore.Metal>
0.0000

> <Gold.Chemscore.Lipo>
65.9957

> <Gold.Chemscore.Internal_Hbond>
0.0000

> <Gold.Chemscore.DEClash>
1.1315

> <Gold.Chemscore.DEInternal>
0.0165

> <Gold.Chemscore.Rot>
1.0000

> <Gold.Chemscore.Internal.Correction>
   9.000000E+99

> <Gold.Chemscore.Hbonds>
donor molecule, donor type, donor heavy atom, donor atom, acceptor molecule, acceptor atom, score
      P1  H  6896  6908       L1    12  0.40
      P1  H  6931  6943       L1    13  0.20
      P1  H  6934  6947       L1    13  0.15

> <Gold.Chemscore.Hbond.Weighted>
-6.2950

> <Gold.Chemscore.Metal.Weighted>
-0.0000

> <Gold.Chemscore.Lipo.Weighted>
-7.7215

> <Gold.Chemscore.Internal_Hbond.Weighted>
0.0000

> <Gold.Chemscore.DEClash.Weighted>
1.1315

> <Gold.Chemscore.DEInternal.Weighted>
0.0165

> <Gold.Chemscore.Rot.Weighted>
2.5600

> <Gold.Chemscore.Internal.Correction.Weighted>
   9.000000E+99

> <Gold.Protein.RotatedTorsions>
[ 6907 6896 6895 6894 ] final  162.40 input  -60.11 | X-H torsion
[ 7974 7965 7964 7962 ] final  137.20 input  175.53 | X-H torsion
[ 8008 7997 7996 7995 ] final  158.40 input   59.86 | X-H torsion
[ 10167 10162 10161 10158 ] final -120.84 input  -65.29 | X-H torsion
[ 10718 10713 10712 10709 ] final -123.62 input   66.30 | X-H torsion
[ 10763 10752 10751 10750 ] final -150.95 input  -60.55 | X-H torsion
[ 11005 11000 10999 10996 ] final   53.75 input  -57.11 | X-H torsion

> <Gold.Protein.ActiveResidues>
 VAL166  LYS551  ARG553  GLY616  TRP617  ASP618  TYR619  PRO620  LYS621  CYS622 
 ASP623  PHE694  ASN695  SER759  ASP760  ASP761  ALA762  ILE779  LEU786  VAL792 
 PHE793  MET794  SER795  GLU796  ALA797  LYS798  CYS799  TRP800  GLU811  SER814 

> <Gold.Protein.RotatedAtoms>
  151.9409  133.3638  159.3964 H   0  0  0  0  0  0  0  0  0  0  0  0  # atno 6907 bound_to 6896
  150.6998  134.4440  159.5314 H   0  0  0  0  0  0  0  0  0  0  0  0  # atno 6908 bound_to 6896
  152.2097  134.8513  160.0549 H   0  0  0  0  0  0  0  0  0  0  0  0  # atno 6909 bound_to 6896
  144.9491  139.4840  143.5535 H   0  0  0  0  0  0  0  0  0  0  0  0  # atno 7974 bound_to 7965
  156.2305  140.1859  156.7254 H   0  0  0  0  0  0  0  0  0  0  0  0  # atno 8008 bound_to 7997
  154.6014  140.0635  156.9401 H   0  0  0  0  0  0  0  0  0  0  0  0  # atno 8009 bound_to 7997
  155.2167  140.3304  155.4323 H   0  0  0  0  0  0  0  0  0  0  0  0  # atno 8010 bound_to 7997
  140.0315  143.5243  152.2174 H   0  0  0  0  0  0  0  0  0  0  0  0  # atno 10167 bound_to 10162
  156.1517  130.6539  150.9923 H   0  0  0  0  0  0  0  0  0  0  0  0  # atno 10718 bound_to 10713
  154.8088  135.3272  154.7361 H   0  0  0  0  0  0  0  0  0  0  0  0  # atno 10763 bound_to 10752
  153.8014  135.6903  153.4859 H   0  0  0  0  0  0  0  0  0  0  0  0  # atno 10764 bound_to 10752
  153.1852  135.4572  155.0024 H   0  0  0  0  0  0  0  0  0  0  0  0  # atno 10765 bound_to 10752
  140.0741  134.5428  155.9015 H   0  0  0  0  0  0  0  0  0  0  0  0  # atno 11005 bound_to 11000
  146.3314  139.8563  142.8864 LP  0  0  0  0  0  0  0  0  0  0  0  0  # atno 17320 bound_to 7965
  145.2872  141.0156  143.3683 LP  0  0  0  0  0  0  0  0  0  0  0  0  # atno 17321 bound_to 7965
  139.6073  144.7599  151.3033 LP  0  0  0  0  0  0  0  0  0  0  0  0  # atno 17342 bound_to 10162
  140.7300  143.6892  150.7936 LP  0  0  0  0  0  0  0  0  0  0  0  0  # atno 17343 bound_to 10162
  157.6662  131.0871  150.7722 LP  0  0  0  0  0  0  0  0  0  0  0  0  # atno 17370 bound_to 10713
  156.7790  130.4853  149.5404 LP  0  0  0  0  0  0  0  0  0  0  0  0  # atno 17371 bound_to 10713
  141.2023  133.6624  156.5999 LP  0  0  0  0  0  0  0  0  0  0  0  0  # atno 17394 bound_to 11000
  140.3583  134.7709  157.4516 LP  0  0  0  0  0  0  0  0  0  0  0  0  # atno 17395 bound_to 11000

$$$$
