AV-unprocessed.smi:38|AV-procd|sdf|343|dock1
  -GOLD-   2262016183D 1   1.00000     0.00000
 Structure written by MMmdl.
 27 28  0  0  0  0  0  0  0  0  2 V2000
  152.7192  140.2022  157.8505 O   0  0  0  0  0  0  0  0  0  0  0  0
  151.9110  140.2613  156.9251 C   0  0  0  0  0  0  0  0  0  0  0  0
  151.7488  139.2531  156.0200 N   0  5  0  0  0  0  0  0  0  0  0  0
  150.8515  139.3213  154.9930 C   0  0  0  0  0  0  0  0  0  0  0  0
  150.6861  138.4083  154.1837 O   0  0  0  0  0  0  0  0  0  0  0  0
  150.0593  140.4932  154.8478 N   0  0  0  0  0  0  0  0  0  0  0  0
  149.0592  140.5736  153.7132 C   0  0  1  0  0  0  0  0  0  0  0  0
  148.0525  139.4243  153.8090 C   0  0  0  0  0  0  0  0  0  0  0  0
  146.8997  140.0858  154.5345 C   0  0  2  0  0  0  0  0  0  0  0  0
  145.6827  139.4235  154.2576 O   0  0  0  0  0  0  0  0  0  0  0  0
  146.9417  141.5036  153.9594 C   0  0  1  0  0  0  0  0  0  0  0  0
  146.2898  142.5567  154.8694 C   0  0  0  0  0  0  0  0  0  0  0  0
  146.9573  142.6083  156.1123 O   0  0  0  0  0  0  0  0  0  0  0  0
  148.3371  141.7690  153.8114 O   0  0  0  0  0  0  0  0  0  0  0  0
  150.1954  141.5272  155.7593 C   0  0  0  0  0  0  0  0  0  0  0  0
  151.0790  141.4534  156.7753 C   0  0  0  0  0  0  0  0  0  0  0  0
  151.1859  142.4732  157.6443 F   0  0  0  0  0  0  0  0  0  0  0  0
  149.6449  140.5752  152.7926 H   0  0  0  0  0  0  0  0  0  0  0  0
  147.0875  140.0960  155.6091 H   0  0  0  0  0  0  0  0  0  0  0  0
  146.4829  141.5035  152.9684 H   0  0  0  0  0  0  0  0  0  0  0  0
  147.7665  139.1382  152.7956 H   0  0  0  0  0  0  0  0  0  0  0  0
  148.4589  138.5506  154.3203 H   0  0  0  0  0  0  0  0  0  0  0  0
  145.2659  139.8576  153.5294 H   0  0  0  0  0  0  0  0  0  0  0  0
  146.3720  143.5445  154.4154 H   0  0  0  0  0  0  0  0  0  0  0  0
  145.2286  142.3578  155.0172 H   0  0  0  0  0  0  0  0  0  0  0  0
  147.7538  143.1050  156.0046 H   0  0  0  0  0  0  0  0  0  0  0  0
  149.5871  142.4132  155.6709 H   0  0  0  0  0  0  0  0  0  0  0  0
  1  2  2  0  0  0  0
  2 16  1  0  0  0  0
  2  3  1  0  0  0  0
  3  4  1  0  0  0  0
  4  5  2  0  0  0  0
  4  6  1  0  0  0  0
  6  7  1  0  0  0  0
  6 15  1  0  0  0  0
  7 18  1  0  0  0  0
  7 14  1  0  0  0  0
  7  8  1  0  0  0  0
  8  9  1  0  0  0  0
  8 21  1  0  0  0  0
  8 22  1  0  0  0  0
  9 19  1  0  0  0  0
  9 10  1  0  0  0  0
  9 11  1  0  0  0  0
 10 23  1  0  0  0  0
 11 20  1  0  0  0  0
 11 12  1  0  0  0  0
 11 14  1  0  0  0  0
 12 13  1  0  0  0  0
 12 24  1  0  0  0  0
 12 25  1  0  0  0  0
 13 26  1  0  0  0  0
 15 16  2  0  0  0  0
 15 27  1  0  0  0  0
 16 17  1  0  0  0  0
M  CHG  1   3  -1
M  END
> <s_m_source_file>
AV-unprocessed.smi

> <i_m_source_file_index>
38

> <i_lp_mmshare_version>
43012

> <i_f3d_flags>
0

> <s_epik_input>
Tz1jMVtuSF1jKD1PKW4oW2NIXWMxRilbQ0BIXTJbQ0gyXVtDQEhdKFtPSF0pW0NASF0oTzIpW0NIMl1bT0hd

> <s_epik_cmdline>
J2VwaWtfcHl0aG9uJywgJy1waCcsICc3LjAnLCAnLXRuJywgJzgnLCAnLW1hJywgJzIwMCcsICctbWV0YWxfYmluZGluZycsICctaW1hZScsICc8aW5maWxlLm1hZT4nLCAnLW9tYWUnLCAnPG91dGZpbGUubWFlPic=

> <r_epik_Ionization_Penalty>
1.68146

> <r_epik_Ionization_Penalty_Charging>
3.4211e-08

> <r_epik_Ionization_Penalty_Neutral>
1.68146

> <r_epik_State_Penalty>
1.78593

> <r_epik_Charging_Adjusted_Penalty>
1.78593

> <i_epik_Tot_Q>
-1

> <i_epik_Tot_abs_Q>
1

> <r_epik_Metal_State_Penalty>
0.0113696

> <b_epik_Metal_Only>
0

> <s_epik_Chemistry_Notes>
This compound contains an acetal/aminal-like group ( X-CH(R)-Y where X, Y are N, S, or O) that may be acid/base labile, releasing an aldehyde.

> <s_lp_Force_Field>
OPLS_2005

> <r_lp_Energy>
36.3434

> <b_lp_Chiralities_Consistent>
1

> <s_lp_Variant>
AV-unprocessed.smi:38-9

> <Gold.Version>
5.8.1

> <Gold.Id.Protein>
6NUR|6NUR_protein|mol2

> <Gold.PLP.Fitness>
39.3314

> <Gold.PLP.PLP>
-26.9093

> <Gold.PLP.part.hbond>
-4.0000

> <Gold.PLP.part.metal>
0.0000

> <Gold.PLP.part.buried>
2.6464

> <Gold.PLP.part.nonpolar>
-24.7687

> <Gold.PLP.part.repulsive>
0.3965

> <Gold.PLP.ligand.clash>
0.0000

> <Gold.PLP.ligand.torsion>
0.0154

> <Gold.PLP.Chemscore.Hbond>
3.1474

> <Gold.PLP.Chemscore.CHOScore>
1.0000

> <Gold.PLP.Chemscore.Metal>
0.0000

> <Gold.Chemscore.Hbonds>
donor molecule, donor type, donor heavy atom, donor atom, acceptor molecule, acceptor atom, score
      L1  H    10    23       P1 10175  1.00
      L1  H    13    26       P1  8028  1.00
      P1  H  7997  8010       L1     1  0.96
      P1  H  8011  8017       L1    14  0.05
      L1  C    15    27       P1  8028  1.00

> <Gold.PLP.Chemscore.Internal.Correction>
0.0107

> <Gold.Rescore>
     Score         DG    S(hbond)    S(metal)    S(lipo)     H(rot)  DE(clash)    DE(int)     intcor
      6.03      -9.17       2.13        0.00      33.75       2.88       1.76       1.38       ----

> <Gold.Chemscore.Fitness>
6.0315

> <Gold.Chemscore.DG>
-9.1671

> <Gold.Chemscore.ZeroCoef>
-5.4800

> <Gold.Chemscore.Hbond>
2.1301

> <Gold.Chemscore.Metal>
0.0000

> <Gold.Chemscore.Lipo>
33.7544

> <Gold.Chemscore.Internal_Hbond>
0.0000

> <Gold.Chemscore.DEClash>
1.7572

> <Gold.Chemscore.DEInternal>
1.3785

> <Gold.Chemscore.Rot>
2.8815

> <Gold.Chemscore.Internal.Correction>
   9.000000E+99

> <Gold.Chemscore.Hbonds>
donor molecule, donor type, donor heavy atom, donor atom, acceptor molecule, acceptor atom, score
      L1  H    10    23       P1 10175  0.94
      L1  H    13    26       P1  8028  0.25
      P1  H  7997  8010       L1     1  0.43

> <Gold.Chemscore.Hbond.Weighted>
-7.1144

> <Gold.Chemscore.Metal.Weighted>
-0.0000

> <Gold.Chemscore.Lipo.Weighted>
-3.9493

> <Gold.Chemscore.Internal_Hbond.Weighted>
0.0000

> <Gold.Chemscore.DEClash.Weighted>
1.7572

> <Gold.Chemscore.DEInternal.Weighted>
1.3785

> <Gold.Chemscore.Rot.Weighted>
7.3765

> <Gold.Chemscore.Internal.Correction.Weighted>
   9.000000E+99

> <Gold.Protein.RotatedTorsions>
[ 6907 6896 6895 6894 ] final -150.23 input  -60.11 | X-H torsion
[ 7974 7965 7964 7962 ] final  143.73 input  175.53 | X-H torsion
[ 8008 7997 7996 7995 ] final   38.73 input   59.86 | X-H torsion
[ 10167 10162 10161 10158 ] final -166.15 input  -65.29 | X-H torsion
[ 10718 10713 10712 10709 ] final  -17.56 input   66.30 | X-H torsion
[ 10763 10752 10751 10750 ] final  123.10 input  -60.55 | X-H torsion
[ 11005 11000 10999 10996 ] final  113.43 input  -57.11 | X-H torsion

> <Gold.Protein.ActiveResidues>
 VAL166  LYS551  ARG553  GLY616  TRP617  ASP618  TYR619  PRO620  LYS621  CYS622 
 ASP623  PHE694  ASN695  SER759  ASP760  ASP761  ALA762  ILE779  LEU786  VAL792 
 PHE793  MET794  SER795  GLU796  ALA797  LYS798  CYS799  TRP800  GLU811  SER814 

> <Gold.Protein.RotatedAtoms>
  151.1956  133.4641  159.2595 H   0  0  0  0  0  0  0  0  0  0  0  0  # atno 6907 bound_to 6896
  151.1120  135.0032  159.8508 H   0  0  0  0  0  0  0  0  0  0  0  0  # atno 6908 bound_to 6896
  152.5451  134.1874  159.8713 H   0  0  0  0  0  0  0  0  0  0  0  0  # atno 6909 bound_to 6896
  144.8896  139.5578  143.5804 H   0  0  0  0  0  0  0  0  0  0  0  0  # atno 7974 bound_to 7965
  155.2250  140.3334  155.4310 H   0  0  0  0  0  0  0  0  0  0  0  0  # atno 8008 bound_to 7997
  156.2318  140.1854  156.7269 H   0  0  0  0  0  0  0  0  0  0  0  0  # atno 8009 bound_to 7997
  154.5991  140.0626  156.9329 H   0  0  0  0  0  0  0  0  0  0  0  0  # atno 8010 bound_to 7997
  139.6134  144.0769  152.1864 H   0  0  0  0  0  0  0  0  0  0  0  0  # atno 10167 bound_to 10162
  156.5719  130.4751  149.6359 H   0  0  0  0  0  0  0  0  0  0  0  0  # atno 10718 bound_to 10713
  153.6403  135.3380  155.3069 H   0  0  0  0  0  0  0  0  0  0  0  0  # atno 10763 bound_to 10752
  154.8561  135.4316  154.2012 H   0  0  0  0  0  0  0  0  0  0  0  0  # atno 10764 bound_to 10752
  153.2929  135.7018  153.7349 H   0  0  0  0  0  0  0  0  0  0  0  0  # atno 10765 bound_to 10752
  139.8953  134.9549  156.6738 H   0  0  0  0  0  0  0  0  0  0  0  0  # atno 11005 bound_to 11000
  146.3046  139.7536  142.9066 LP  0  0  0  0  0  0  0  0  0  0  0  0  # atno 17320 bound_to 7965
  145.3807  141.0357  143.3179 LP  0  0  0  0  0  0  0  0  0  0  0  0  # atno 17321 bound_to 7965
  140.0393  144.6020  150.7424 LP  0  0  0  0  0  0  0  0  0  0  0  0  # atno 17342 bound_to 10162
  140.7334  143.2717  151.3868 LP  0  0  0  0  0  0  0  0  0  0  0  0  # atno 17343 bound_to 10162
  156.2707  130.7015  151.1812 LP  0  0  0  0  0  0  0  0  0  0  0  0  # atno 17370 bound_to 10713
  157.7346  131.0580  150.5514 LP  0  0  0  0  0  0  0  0  0  0  0  0  # atno 17371 bound_to 10713
  140.7353  133.9024  155.8239 LP  0  0  0  0  0  0  0  0  0  0  0  0  # atno 17394 bound_to 11000
  141.0121  134.1006  157.4210 LP  0  0  0  0  0  0  0  0  0  0  0  0  # atno 17395 bound_to 11000

$$$$
