#       Name:                AV-unprocessed.smi:2659
#       Creating user name   scv26
#       Creation time:       Fri Mar 27 14:33:03 2020


#       File generated by GOLD software.
#

@<TRIPOS>MOLECULE
AV-unprocessed.smi:2659
    52    53     1
SMALL
NO_CHARGES


@<TRIPOS>ATOM
      1 ****        -0.6020  -3.7316  -0.6931 C.3            1 S1                 0.0000
      2 ****        -1.1228  -2.3865  -0.8397 N.pl3          1 S1                 0.0000
      3 ****        -2.4465  -2.1567  -0.7072 N.2            1 S1                 0.0000
      4 ****        -2.5953  -0.8481  -0.8864 C.2            1 S1                 0.0000
      5 ****        -3.9678  -0.2306  -0.7906 C.3            1 S1                 0.0000
      6 ****        -4.4303   0.1234   0.6500 C.3            1 S1                 0.0000
      7 ****        -4.8137  -1.1542   1.4233 C.3            1 S1                 0.0000
      8 ****        -5.6729   1.0300   0.5568 C.3            1 S1                 0.0000
      9 ****        -3.3314   0.8748   1.4310 C.3            1 S1                 0.0000
     10 ****        -1.3605  -0.1897  -1.1582 C.2            1 S1                 0.0000
     11 ****        -0.4543  -1.2130  -1.1071 C.2            1 S1                 0.0000
     12 ****         0.8930  -1.1700  -1.2821 N.am           1 S1                 0.0000
     13 ****         1.6863  -0.0924  -1.4111 C.2            1 S1                 0.0000
     14 ****         1.3022   1.0770  -1.4377 O.2            1 S1                 0.0000
     15 ****         2.9757  -0.4490  -1.4986 N.am           1 S1                 0.0000
     16 ****         4.1012   0.4736  -1.6079 C.3            1 S1                 0.0000
     17 ****         4.7205   0.7838  -0.2341 C.3            1 S1                 0.0000
     18 ****         3.8323   1.5822   0.7186 C.3            1 S1                 0.0000
     19 ****         4.8323   2.2126   1.6717 C.3            1 S1                 0.0000
     20 ****         6.1538   2.1826   0.8964 C.3            1 S1                 0.0000
     21 ****         5.8428   1.6382  -0.3808 O.3            1 S1                 0.0000
     22 ****         0.2332  -3.7281   0.0075 H              1 S1                 0.0000
     23 ****        -0.2552  -4.0964  -1.6600 H              1 S1                 0.0000
     24 ****        -1.3742  -4.4032  -0.3155 H              1 S1                 0.0000
     25 ****        -3.9677   0.6793  -1.3923 H              1 S1                 0.0000
     26 ****        -4.7030  -0.8821  -1.2653 H              1 S1                 0.0000
     27 ****        -5.2016  -0.9152   2.4142 H              1 S1                 0.0000
     28 ****        -3.9569  -1.8127   1.5651 H              1 S1                 0.0000
     29 ****        -5.5826  -1.7224   0.8989 H              1 S1                 0.0000
     30 ****        -6.4834   0.5379   0.0180 H              1 S1                 0.0000
     31 ****        -5.4494   1.9613   0.0351 H              1 S1                 0.0000
     32 ****        -6.0497   1.2931   1.5459 H              1 S1                 0.0000
     33 ****        -3.6920   1.1990   2.4078 H              1 S1                 0.0000
     34 ****        -3.0005   1.7637   0.8928 H              1 S1                 0.0000
     35 ****        -2.4557   0.2493   1.6072 H              1 S1                 0.0000
     36 ****        -1.1916   0.8598  -1.3463 H              1 S1                 0.0000
     37 ****         1.3576  -2.0660  -1.2688 H              1 S1                 0.0000
     38 ****         3.1994  -1.4329  -1.4709 H              1 S1                 0.0000
     39 ****         4.8516   0.0056  -2.2452 H              1 S1                 0.0000
     40 ****         3.8061   1.3949  -2.1132 H              1 S1                 0.0000
     41 ****         5.0491  -0.1389   0.2483 H              1 S1                 0.0000
     42 ****         3.3040   2.3654   0.1732 H              1 S1                 0.0000
     43 ****         3.0910   0.9655   1.2276 H              1 S1                 0.0000
     44 ****         4.5379   3.2256   1.9477 H              1 S1                 0.0000
     45 ****         4.9185   1.6264   2.5872 H              1 S1                 0.0000
     46 ****         6.5954   3.1738   0.7908 H              1 S1                 0.0000
     47 ****         6.8784   1.5400   1.3980 H              1 S1                 0.0000
     48 ****        -3.1625  -2.8279  -0.5152 LP             1 S1                 0.0000
     49 ****         0.3271   1.2849  -1.3599 LP             1 S1                 0.0000
     50 ****         1.9652   1.8189  -1.5372 LP             1 S1                 0.0000
     51 ****         5.6259   2.3760  -1.0201 LP             1 S1                 0.0000
     52 ****         6.6230   1.1167  -0.7261 LP             1 S1                 0.0000
@<TRIPOS>BOND
    1    1    2 1     
    2    1   22 1     
    3    1   23 1     
    4    1   24 1     
    5    2   11 1     
    6    2    3 1     
    7    3    4 2     
    8    4    5 1     
    9    4   10 1     
   10    5    6 1     
   11    5   25 1     
   12    5   26 1     
   13    6    7 1     
   14    6    8 1     
   15    6    9 1     
   16    7   27 1     
   17    7   28 1     
   18    7   29 1     
   19    8   30 1     
   20    8   31 1     
   21    8   32 1     
   22    9   33 1     
   23    9   34 1     
   24    9   35 1     
   25   10   11 2     
   26   10   36 1     
   27   11   12 1     
   28   12   13 am    
   29   12   37 1     
   30   13   14 2     
   31   13   15 am    
   32   15   16 1     
   33   15   38 1     
   34   16   17 1     
   35   16   39 1     
   36   16   40 1     
   37   17   21 1     
   38   17   18 1     
   39   17   41 1     
   40   18   19 1     
   41   18   42 1     
   42   18   43 1     
   43   19   20 1     
   44   19   44 1     
   45   19   45 1     
   46   20   21 1     
   47   20   46 1     
   48   20   47 1     
   49    3   48 1     
   50   14   49 1     
   51   14   50 1     
   52   21   51 1     
   53   21   52 1     
@<TRIPOS>SUBSTRUCTURE
      1 S1             1
@<TRIPOS>SET
LONE_PAIRS      STATIC     ATOMS    <user>   **** ""
5 48 49 50 51 52
DONOR_HYDROGENS      STATIC     ATOMS    <user>   **** ""
2 37 38
ATOM$BLUE        STATIC     ATOMS    COLORGROUP SYSTEM
5 48 49 50 51 52
ATOM$RED        STATIC     ATOMS    COLORGROUP SYSTEM
2 37 38
