AV-unprocessed.smi:148|AV-procd|sdf|1227|dock3
  -GOLD-   2262018423D 1   1.00000     0.00000
 Structure written by MMmdl.
 63 67  0  0  0  0  0  0  0  0  1 V2000
  151.2644  133.2997  157.1803 O   0  0  0  0  0  0  0  0  0  0  0  0
  150.6191  132.8336  156.0135 C   0  0  0  0  0  0  0  0  0  0  0  0
  149.6566  133.9068  155.4521 C   0  0  1  0  0  0  0  0  0  0  0  0
  150.4570  135.0315  154.7479 C   0  0  0  0  0  0  0  0  0  0  0  0
  150.5356  136.2563  155.5248 N   0  0  0  0  0  0  0  0  0  0  0  0
  149.7548  136.5916  156.6083 C   0  0  0  0  0  0  0  0  0  0  0  0
  150.0163  137.7522  157.1460 N   0  0  0  0  0  0  0  0  0  0  0  0
  151.0587  138.2499  156.3753 C   0  0  0  0  0  0  0  0  0  0  0  0
  151.8250  139.4436  156.4066 C   0  0  0  0  0  0  0  0  0  0  0  0
  151.6060  140.4079  157.3269 N   0  0  0  0  0  0  0  0  0  0  0  0
  151.2902  141.6683  156.6505 C   0  0  0  0  0  0  0  0  0  0  0  0
  150.7602  142.7146  157.6346 C   0  0  0  0  0  0  0  0  0  0  0  0
  151.7726  142.9229  158.7610 C   0  0  0  0  0  0  0  0  0  0  0  0
  152.0739  141.5823  159.4429 C   0  0  0  0  0  0  0  0  0  0  0  0
  152.5642  140.4936  158.4491 C   0  0  1  0  0  0  0  0  0  0  0  0
  152.7793  139.1322  159.2005 C   0  0  2  0  0  0  0  0  0  0  0  0
  153.6236  139.2213  160.4857 C   0  0  0  0  0  0  0  0  0  0  0  0
  154.0603  137.7904  160.8166 C   0  0  0  0  0  0  0  0  0  0  0  0
  153.8980  136.9852  159.5228 C   0  0  0  0  0  0  0  0  0  0  0  0
  153.4951  137.9919  158.4391 C   0  0  2  0  0  0  0  0  0  0  0  0
  154.6651  138.4595  157.7938 O   0  0  0  0  0  0  0  0  0  0  0  0
  152.7950  139.6061  155.4680 N   0  0  0  0  0  0  0  0  0  0  0  0
  153.0105  138.6472  154.5620 C   0  0  0  0  0  0  0  0  0  0  0  0
  152.3819  137.4781  154.4180 N   0  0  0  0  0  0  0  0  0  0  0  0
  151.4022  137.3215  155.3543 C   0  0  0  0  0  0  0  0  0  0  0  0
  148.5314  133.3295  154.5460 C   0  0  1  0  0  0  0  0  0  0  0  0
  147.5516  134.3292  153.9601 C   0  0  0  0  0  0  0  0  0  0  0  0
  146.8651  133.4859  152.8910 C   0  0  0  0  0  0  0  0  0  0  0  0
  147.8592  132.5835  152.4133 O   0  0  0  0  0  0  0  0  0  0  0  0
  148.9831  132.5776  153.2903 C   0  0  0  0  0  0  0  0  0  0  0  0
  152.1963  133.1804  157.0777 H   0  0  0  0  0  0  0  0  0  0  0  0
  151.3759  132.5599  155.2781 H   0  0  0  0  0  0  0  0  0  0  0  0
  150.0932  131.9203  156.2845 H   0  0  0  0  0  0  0  0  0  0  0  0
  149.1506  134.3590  156.3066 H   0  0  0  0  0  0  0  0  0  0  0  0
  151.4787  134.7081  154.5474 H   0  0  0  0  0  0  0  0  0  0  0  0
  150.0136  135.2588  153.7778 H   0  0  0  0  0  0  0  0  0  0  0  0
  148.9778  135.9438  156.9878 H   0  0  0  0  0  0  0  0  0  0  0  0
  152.1844  142.0524  156.1569 H   0  0  0  0  0  0  0  0  0  0  0  0
  150.5456  141.4974  155.8712 H   0  0  0  0  0  0  0  0  0  0  0  0
  150.5710  143.6557  157.1176 H   0  0  0  0  0  0  0  0  0  0  0  0
  149.8059  142.3852  158.0477 H   0  0  0  0  0  0  0  0  0  0  0  0
  152.6928  143.3496  158.3600 H   0  0  0  0  0  0  0  0  0  0  0  0
  151.3853  143.6375  159.4878 H   0  0  0  0  0  0  0  0  0  0  0  0
  152.8183  141.7649  160.2171 H   0  0  0  0  0  0  0  0  0  0  0  0
  151.1755  141.2320  159.9535 H   0  0  0  0  0  0  0  0  0  0  0  0
  153.5192  140.8326  158.0458 H   0  0  0  0  0  0  0  0  0  0  0  0
  151.7972  138.7615  159.5004 H   0  0  0  0  0  0  0  0  0  0  0  0
  154.5101  139.8304  160.3033 H   0  0  0  0  0  0  0  0  0  0  0  0
  153.0789  139.6727  161.3155 H   0  0  0  0  0  0  0  0  0  0  0  0
  155.0896  137.7705  161.1758 H   0  0  0  0  0  0  0  0  0  0  0  0
  153.4323  137.3675  161.6015 H   0  0  0  0  0  0  0  0  0  0  0  0
  154.7974  136.4241  159.2645 H   0  0  0  0  0  0  0  0  0  0  0  0
  153.0959  136.2581  159.6553 H   0  0  0  0  0  0  0  0  0  0  0  0
  152.8613  137.5025  157.7022 H   0  0  0  0  0  0  0  0  0  0  0  0
  155.2112  137.7153  157.5898 H   0  0  0  0  0  0  0  0  0  0  0  0
  153.8011  138.8436  153.8530 H   0  0  0  0  0  0  0  0  0  0  0  0
  147.9524  132.6088  155.1245 H   0  0  0  0  0  0  0  0  0  0  0  0
  146.8514  134.7295  154.6928 H   0  0  0  0  0  0  0  0  0  0  0  0
  148.0700  135.1645  153.4895 H   0  0  0  0  0  0  0  0  0  0  0  0
  146.0528  132.9055  153.3308 H   0  0  0  0  0  0  0  0  0  0  0  0
  146.4511  134.0901  152.0837 H   0  0  0  0  0  0  0  0  0  0  0  0
  149.8027  133.0784  152.7784 H   0  0  0  0  0  0  0  0  0  0  0  0
  149.3031  131.5595  153.5126 H   0  0  0  0  0  0  0  0  0  0  0  0
  1  2  1  0  0  0  0
  1 31  1  0  0  0  0
  2  3  1  0  0  0  0
  2 32  1  0  0  0  0
  2 33  1  0  0  0  0
  3  4  1  0  0  0  0
  3 26  1  0  0  0  0
  3 34  1  0  0  0  0
  4  5  1  0  0  0  0
  4 35  1  0  0  0  0
  4 36  1  0  0  0  0
  5 25  1  0  0  0  0
  5  6  1  0  0  0  0
  6  7  2  0  0  0  0
  6 37  1  0  0  0  0
  7  8  1  0  0  0  0
  8 25  2  0  0  0  0
  8  9  1  0  0  0  0
  9 10  1  0  0  0  0
  9 22  2  0  0  0  0
 10 15  1  0  0  0  0
 10 11  1  0  0  0  0
 11 12  1  0  0  0  0
 11 38  1  0  0  0  0
 11 39  1  0  0  0  0
 12 13  1  0  0  0  0
 12 40  1  0  0  0  0
 12 41  1  0  0  0  0
 13 14  1  0  0  0  0
 13 42  1  0  0  0  0
 13 43  1  0  0  0  0
 14 15  1  0  0  0  0
 14 44  1  0  0  0  0
 14 45  1  0  0  0  0
 15 16  1  0  0  0  0
 15 46  1  0  0  0  0
 16 20  1  0  0  0  0
 16 17  1  0  0  0  0
 16 47  1  0  0  0  0
 17 18  1  0  0  0  0
 17 48  1  0  0  0  0
 17 49  1  0  0  0  0
 18 19  1  0  0  0  0
 18 50  1  0  0  0  0
 18 51  1  0  0  0  0
 19 20  1  0  0  0  0
 19 52  1  0  0  0  0
 19 53  1  0  0  0  0
 20 21  1  0  0  0  0
 20 54  1  0  0  0  0
 21 55  1  0  0  0  0
 22 23  1  0  0  0  0
 23 24  2  0  0  0  0
 23 56  1  0  0  0  0
 24 25  1  0  0  0  0
 26 30  1  0  0  0  0
 26 27  1  0  0  0  0
 26 57  1  0  0  0  0
 27 28  1  0  0  0  0
 27 58  1  0  0  0  0
 27 59  1  0  0  0  0
 28 29  1  0  0  0  0
 28 60  1  0  0  0  0
 28 61  1  0  0  0  0
 29 30  1  0  0  0  0
 30 62  1  0  0  0  0
 30 63  1  0  0  0  0
M  END
> <s_m_source_file>
AV-unprocessed.smi

> <i_m_source_file_index>
148

> <i_lp_mmshare_version>
43012

> <i_f3d_flags>
0

> <s_epik_input>
W0NIMl0xT1tDSDJdW0NIMl1bQ0BIXTFbQ0BIXShbQ0gyXVtPSF0pW0NIMl1uKFtjSF1uMiljKGMyMyluW2NIXW5jM040W0NIMl1bQ0gyXVtDSDJdW0NIMl1bQ0BIXTRbQ0BASF01W0NIMl1bQ0gyXVtDSDJdW0NASF01W09IXQ==

> <s_epik_cmdline>
J2VwaWtfcHl0aG9uJywgJy1waCcsICc3LjAnLCAnLXRuJywgJzgnLCAnLW1hJywgJzIwMCcsICctbWV0YWxfYmluZGluZycsICctaW1hZScsICc8aW5maWxlLm1hZT4nLCAnLW9tYWUnLCAnPG91dGZpbGUubWFlPic=

> <r_lp_tautomer_probability>
1

> <r_epik_Ionization_Penalty>
0.00556303

> <r_epik_Ionization_Penalty_Charging>
0

> <r_epik_Ionization_Penalty_Neutral>
0.00556303

> <r_epik_State_Penalty>
0.00401767

> <r_epik_Charging_Adjusted_Penalty>
0.00401767

> <i_epik_Tot_Q>
0

> <i_epik_Tot_abs_Q>
0

> <r_epik_Metal_State_Penalty>
-0

> <b_epik_Metal_Only>
0

> <s_lp_Force_Field>
OPLS_2005

> <r_lp_Energy>
69.6846

> <b_lp_Chiralities_Consistent>
1

> <s_lp_Variant>
AV-unprocessed.smi:148-26

> <Gold.Version>
5.8.1

> <Gold.Id.Protein>
6NUR|6NUR_protein|mol2

> <Gold.PLP.Fitness>
51.1808

> <Gold.PLP.PLP>
-43.8655

> <Gold.PLP.part.hbond>
-3.9628

> <Gold.PLP.part.metal>
0.0000

> <Gold.PLP.part.buried>
-8.2253

> <Gold.PLP.part.nonpolar>
-32.4513

> <Gold.PLP.part.repulsive>
0.2867

> <Gold.PLP.ligand.clash>
0.0000

> <Gold.PLP.ligand.torsion>
1.3872

> <Gold.PLP.Chemscore.Hbond>
3.1200

> <Gold.PLP.Chemscore.CHOScore>
0.0000

> <Gold.PLP.Chemscore.Metal>
0.0000

> <Gold.Chemscore.Hbonds>
donor molecule, donor type, donor heavy atom, donor atom, acceptor molecule, acceptor atom, score
      P1  H  6896  6907       L1     1  0.74
      P1  H  7997  8009       L1    21  0.75
      P1  H  7997  8010       L1    22  0.93
      P1  H 10752 10764       L1    24  0.69

> <Gold.PLP.Chemscore.Internal.Correction>
0.7297

> <Gold.Rescore>
     Score         DG    S(hbond)    S(metal)    S(lipo)     H(rot)  DE(clash)    DE(int)     intcor
     15.43     -18.25       2.90        0.00      99.02       3.32       0.21       2.61       ----

> <Gold.Chemscore.Fitness>
15.4347

> <Gold.Chemscore.DG>
-18.2534

> <Gold.Chemscore.ZeroCoef>
-5.4800

> <Gold.Chemscore.Hbond>
2.9006

> <Gold.Chemscore.Metal>
0.0000

> <Gold.Chemscore.Lipo>
99.0189

> <Gold.Chemscore.Internal_Hbond>
0.0000

> <Gold.Chemscore.DEClash>
0.2098

> <Gold.Chemscore.DEInternal>
2.6089

> <Gold.Chemscore.Rot>
3.3203

> <Gold.Chemscore.Internal.Correction>
   9.000000E+99

> <Gold.Chemscore.Hbonds>
donor molecule, donor type, donor heavy atom, donor atom, acceptor molecule, acceptor atom, score
      P1  H  6896  6907       L1     1  0.20
      P1  H  7997  8009       L1    21  0.71
      P1  H  7997  8010       L1    22  0.23
      P1  H 10752 10764       L1    24  0.17

> <Gold.Chemscore.Hbond.Weighted>
-9.6881

> <Gold.Chemscore.Metal.Weighted>
-0.0000

> <Gold.Chemscore.Lipo.Weighted>
-11.5852

> <Gold.Chemscore.Internal_Hbond.Weighted>
0.0000

> <Gold.Chemscore.DEClash.Weighted>
0.2098

> <Gold.Chemscore.DEInternal.Weighted>
2.6089

> <Gold.Chemscore.Rot.Weighted>
8.5000

> <Gold.Chemscore.Internal.Correction.Weighted>
   9.000000E+99

> <Gold.Protein.RotatedTorsions>
[ 6907 6896 6895 6894 ] final -145.40 input  -60.11 | X-H torsion
[ 7974 7965 7964 7962 ] final   78.99 input  175.53 | X-H torsion
[ 8008 7997 7996 7995 ] final  117.32 input   59.86 | X-H torsion
[ 10167 10162 10161 10158 ] final -136.12 input  -65.29 | X-H torsion
[ 10718 10713 10712 10709 ] final    2.23 input   66.30 | X-H torsion
[ 10763 10752 10751 10750 ] final  -78.77 input  -60.55 | X-H torsion
[ 11005 11000 10999 10996 ] final   78.46 input  -57.11 | X-H torsion

> <Gold.Protein.ActiveResidues>
 VAL166  LYS551  ARG553  GLY616  TRP617  ASP618  TYR619  PRO620  LYS621  CYS622 
 ASP623  PHE694  ASN695  SER759  ASP760  ASP761  ALA762  ILE779  LEU786  VAL792 
 PHE793  MET794  SER795  GLU796  ALA797  LYS798  CYS799  TRP800  GLU811  SER814 

> <Gold.Protein.RotatedAtoms>
  151.1273  133.5061  159.2599 H   0  0  0  0  0  0  0  0  0  0  0  0  # atno 6907 bound_to 6896
  151.1796  135.0354  159.8796 H   0  0  0  0  0  0  0  0  0  0  0  0  # atno 6908 bound_to 6896
  152.5458  134.1127  159.8418 H   0  0  0  0  0  0  0  0  0  0  0  0  # atno 6909 bound_to 6896
  145.6700  139.2494  143.1874 H   0  0  0  0  0  0  0  0  0  0  0  0  # atno 7974 bound_to 7965
  156.2488  140.2899  156.0660 H   0  0  0  0  0  0  0  0  0  0  0  0  # atno 8008 bound_to 7997
  155.1723  140.0402  157.2883 H   0  0  0  0  0  0  0  0  0  0  0  0  # atno 8009 bound_to 7997
  154.6317  140.2501  155.7433 H   0  0  0  0  0  0  0  0  0  0  0  0  # atno 8010 bound_to 7997
  139.8710  143.6957  152.2640 H   0  0  0  0  0  0  0  0  0  0  0  0  # atno 10167 bound_to 10162
  156.8599  130.5583  149.5663 H   0  0  0  0  0  0  0  0  0  0  0  0  # atno 10718 bound_to 10713
  154.5302  135.5718  153.6752 H   0  0  0  0  0  0  0  0  0  0  0  0  # atno 10763 bound_to 10752
  152.9937  135.6203  154.2639 H   0  0  0  0  0  0  0  0  0  0  0  0  # atno 10764 bound_to 10752
  154.2565  135.2857  155.2775 H   0  0  0  0  0  0  0  0  0  0  0  0  # atno 10765 bound_to 10752
  139.9212  134.7765  156.1652 H   0  0  0  0  0  0  0  0  0  0  0  0  # atno 11005 bound_to 11000
  146.1053  140.7494  142.9529 LP  0  0  0  0  0  0  0  0  0  0  0  0  # atno 17320 bound_to 7965
  144.7060  140.3853  143.7118 LP  0  0  0  0  0  0  0  0  0  0  0  0  # atno 17321 bound_to 7965
  139.7284  144.7588  151.0842 LP  0  0  0  0  0  0  0  0  0  0  0  0  # atno 17342 bound_to 10162
  140.7760  143.5119  150.9642 LP  0  0  0  0  0  0  0  0  0  0  0  0  # atno 17343 bound_to 10162
  156.0782  130.5799  150.9514 LP  0  0  0  0  0  0  0  0  0  0  0  0  # atno 17370 bound_to 10713
  157.6256  131.0926  150.8540 LP  0  0  0  0  0  0  0  0  0  0  0  0  # atno 17371 bound_to 10713
  141.0734  133.6786  156.2186 LP  0  0  0  0  0  0  0  0  0  0  0  0  # atno 17394 bound_to 11000
  140.6470  134.5107  157.5574 LP  0  0  0  0  0  0  0  0  0  0  0  0  # atno 17395 bound_to 11000

$$$$
