#       Name:                AV-unprocessed.smi:1940
#       Creating user name   scv26
#       Creation time:       Fri Mar 27 09:58:25 2020


#       File generated by GOLD software.
#

@<TRIPOS>MOLECULE
AV-unprocessed.smi:1940
    55    57     1
SMALL
NO_CHARGES


@<TRIPOS>ATOM
      1 ****        -4.5163  -2.8178   1.6904 C.3            1 S1                 0.0000
      2 ****        -4.0851  -2.0434   0.4363 C.3            1 S1                 0.0000
      3 ****        -2.6267  -1.9341   0.4241 N.am           1 S1                 0.0000
      4 ****        -1.9237  -0.7926   0.3880 C.2            1 S1                 0.0000
      5 ****        -2.4389   0.3244   0.3573 O.2            1 S1                 0.0000
      6 ****        -0.6025  -1.0395   0.4034 N.am           1 S1                 0.0000
      7 ****         0.4751  -0.1120   0.4064 C.ar           1 S1                 0.0000
      8 ****         0.3745   1.2341  -0.0204 C.ar           1 S1                 0.0000
      9 ****         1.5215   2.0497   0.0240 C.ar           1 S1                 0.0000
     10 ****         2.7339   1.4958   0.4828 C.ar           1 S1                 0.0000
     11 ****         3.8775   2.3056   0.5311 N.3            1 S1                 0.0000
     12 ****         4.3393   2.5700   1.8918 C.3            1 S1                 0.0000
     13 ****         5.4552   3.6294   1.8942 C.3            1 S1                 0.0000
     14 ****         6.6012   3.2240   0.9529 C.3            1 S1                 0.0000
     15 ****         6.0553   2.9256  -0.4528 C.3            1 S1                 0.0000
     16 ****         4.9266   1.8818  -0.3931 C.3            1 S1                 0.0000
     17 ****         2.8418   0.2053   0.8782 N.ar           1 S1                 0.0000
     18 ****         1.7383  -0.5708   0.8340 C.ar           1 S1                 0.0000
     19 ****        -4.5823  -2.7184  -0.8579 C.3            1 S1                 0.0000
     20 ****        -4.1559  -2.0194  -2.1519 C.3            1 S1                 0.0000
     21 ****        -5.2426  -2.4505  -3.1091 C.3            1 S1                 0.0000
     22 ****        -6.4735  -2.4128  -2.2104 C.3            1 S1                 0.0000
     23 ****        -6.0086  -2.7265  -0.9003 O.3            1 S1                 0.0000
     24 ****        -5.6023  -2.8908   1.7540 H              1 S1                 0.0000
     25 ****        -4.1683  -2.3208   2.5965 H              1 S1                 0.0000
     26 ****        -4.1144  -3.8315   1.6906 H              1 S1                 0.0000
     27 ****        -4.5352  -1.0506   0.4918 H              1 S1                 0.0000
     28 ****        -2.1123  -2.8023   0.4515 H              1 S1                 0.0000
     29 ****        -0.3359  -2.0092   0.4921 H              1 S1                 0.0000
     30 ****        -0.5473   1.6548  -0.3898 H              1 S1                 0.0000
     31 ****         1.4697   3.0812  -0.2928 H              1 S1                 0.0000
     32 ****         3.5036   2.9099   2.5048 H              1 S1                 0.0000
     33 ****         4.7074   1.6446   2.3371 H              1 S1                 0.0000
     34 ****         5.0462   4.5902   1.5784 H              1 S1                 0.0000
     35 ****         5.8338   3.7712   2.9067 H              1 S1                 0.0000
     36 ****         7.3508   4.0144   0.9075 H              1 S1                 0.0000
     37 ****         7.1028   2.3392   1.3464 H              1 S1                 0.0000
     38 ****         5.6775   3.8457  -0.9008 H              1 S1                 0.0000
     39 ****         6.8579   2.5718  -1.1001 H              1 S1                 0.0000
     40 ****         5.3295   0.9205  -0.0704 H              1 S1                 0.0000
     41 ****         4.5036   1.7340  -1.3877 H              1 S1                 0.0000
     42 ****         1.8690  -1.5933   1.1575 H              1 S1                 0.0000
     43 ****        -4.2477  -3.7567  -0.8925 H              1 S1                 0.0000
     44 ****        -4.1771  -0.9353  -2.0297 H              1 S1                 0.0000
     45 ****        -3.1574  -2.3070  -2.4827 H              1 S1                 0.0000
     46 ****        -5.3303  -1.8024  -3.9814 H              1 S1                 0.0000
     47 ****        -5.0577  -3.4687  -3.4542 H              1 S1                 0.0000
     48 ****        -6.9013  -1.4098  -2.1938 H              1 S1                 0.0000
     49 ****        -7.2490  -3.1064  -2.5359 H              1 S1                 0.0000
     50 ****        -3.4347   0.4159   0.3584 LP             1 S1                 0.0000
     51 ****        -1.8618   1.1406   0.3312 LP             1 S1                 0.0000
     52 ****         3.5928   3.2002   0.1868 LP             1 S1                 0.0000
     53 ****         3.7160  -0.1631   1.1946 LP             1 S1                 0.0000
     54 ****        -6.3604  -2.0479  -0.2556 LP             1 S1                 0.0000
     55 ****        -6.3399  -3.6342  -0.6427 LP             1 S1                 0.0000
@<TRIPOS>BOND
    1    1    2 1     
    2    1   24 1     
    3    1   25 1     
    4    1   26 1     
    5    2    3 1     
    6    2   19 1     
    7    2   27 1     
    8    3    4 am    
    9    3   28 1     
   10    4    5 2     
   11    4    6 am    
   12    6    7 1     
   13    6   29 1     
   14    7   18 ar    
   15    7    8 ar    
   16    8    9 ar    
   17    8   30 1     
   18    9   10 ar    
   19    9   31 1     
   20   10   11 1     
   21   10   17 ar    
   22   11   16 1     
   23   11   12 1     
   24   12   13 1     
   25   12   32 1     
   26   12   33 1     
   27   13   14 1     
   28   13   34 1     
   29   13   35 1     
   30   14   15 1     
   31   14   36 1     
   32   14   37 1     
   33   15   16 1     
   34   15   38 1     
   35   15   39 1     
   36   16   40 1     
   37   16   41 1     
   38   17   18 ar    
   39   18   42 1     
   40   19   23 1     
   41   19   20 1     
   42   19   43 1     
   43   20   21 1     
   44   20   44 1     
   45   20   45 1     
   46   21   22 1     
   47   21   46 1     
   48   21   47 1     
   49   22   23 1     
   50   22   48 1     
   51   22   49 1     
   52    5   50 1     
   53    5   51 1     
   54   11   52 1     
   55   17   53 1     
   56   23   54 1     
   57   23   55 1     
@<TRIPOS>SUBSTRUCTURE
      1 S1             1
@<TRIPOS>SET
LONE_PAIRS      STATIC     ATOMS    <user>   **** ""
6 50 51 52 53 54 55
DONOR_HYDROGENS      STATIC     ATOMS    <user>   **** ""
2 28 29
ATOM$BLUE        STATIC     ATOMS    COLORGROUP SYSTEM
6 50 51 52 53 54 55
ATOM$RED        STATIC     ATOMS    COLORGROUP SYSTEM
2 28 29
