AV-unprocessed.smi:550|AV-procd|sdf|2894|dock6
  -GOLD-   2262023393D 1   1.00000     0.00000
 Structure written by MMmdl.
 45 47  0  0  0  0  0  0  0  0  1 V2000
  147.3816  139.8947  154.6723 O   0  0  0  0  0  0  0  0  0  0  0  0
  148.2182  139.6170  153.8135 C   0  0  0  0  0  0  0  0  0  0  0  0
  147.9037  139.1407  152.6004 N   0  0  0  0  0  0  0  0  0  0  0  0
  146.5520  138.8693  152.1199 C   0  0  0  0  0  0  0  0  0  0  0  0
  146.2028  137.3704  152.1960 C   0  0  2  0  0  0  0  0  0  0  0  0
  145.8365  136.7862  150.8175 C   0  0  0  0  0  0  0  0  0  0  0  0
  145.2611  135.3808  151.0179 C   0  0  0  0  0  0  0  0  0  0  0  0
  144.3477  135.4450  152.6033 S   0  0  0  0  0  0  0  0  0  0  0  0
  142.9120  135.6185  152.3354 O   0  0  0  0  0  0  0  0  0  0  0  0
  144.8300  134.3648  153.4772 O   0  0  0  0  0  0  0  0  0  0  0  0
  145.0476  137.0453  153.1599 C   0  0  0  0  0  0  0  0  0  0  0  0
  149.5476  139.7607  153.9485 N   0  0  0  0  0  0  0  0  0  0  0  0
  150.2779  140.1928  155.0883 C   0  0  0  0  0  0  0  0  0  0  0  0
  149.7539  141.2571  155.8472 C   0  0  0  0  0  0  0  0  0  0  0  0
  150.4664  141.7193  156.9697 C   0  0  0  0  0  0  0  0  0  0  0  0
  151.6965  141.1051  157.3034 C   0  0  0  0  0  0  0  0  0  0  0  0
  152.4448  141.5390  158.4155 N   0  0  0  0  0  0  0  0  0  0  0  0
  152.8275  140.6285  159.4838 C   0  0  0  0  0  0  0  0  0  0  0  0
  153.4825  141.5218  160.5360 C   0  0  0  0  0  0  0  0  0  0  0  0
  152.7216  142.8398  160.3926 C   0  0  0  0  0  0  0  0  0  0  0  0
  152.3708  142.9098  158.9017 C   0  0  0  0  0  0  0  0  0  0  0  0
  152.2111  140.0955  156.5622 N   0  0  0  0  0  0  0  0  0  0  0  0
  151.5237  139.6539  155.4878 C   0  0  0  0  0  0  0  0  0  0  0  0
  148.6586  138.9474  151.9586 H   0  0  0  0  0  0  0  0  0  0  0  0
  145.8162  139.4629  152.6654 H   0  0  0  0  0  0  0  0  0  0  0  0
  146.4994  139.2030  151.0833 H   0  0  0  0  0  0  0  0  0  0  0  0
  147.0834  136.8303  152.5472 H   0  0  0  0  0  0  0  0  0  0  0  0
  145.0761  137.4149  150.3520 H   0  0  0  0  0  0  0  0  0  0  0  0
  146.6937  136.7715  150.1434 H   0  0  0  0  0  0  0  0  0  0  0  0
  144.5982  135.0690  150.2107 H   0  0  0  0  0  0  0  0  0  0  0  0
  146.0602  134.6461  151.1186 H   0  0  0  0  0  0  0  0  0  0  0  0
  145.3660  136.9741  154.2001 H   0  0  0  0  0  0  0  0  0  0  0  0
  144.2571  137.7931  153.0912 H   0  0  0  0  0  0  0  0  0  0  0  0
  150.1007  139.5773  153.1244 H   0  0  0  0  0  0  0  0  0  0  0  0
  148.8146  141.7167  155.5765 H   0  0  0  0  0  0  0  0  0  0  0  0
  150.0669  142.5375  157.5498 H   0  0  0  0  0  0  0  0  0  0  0  0
  151.9363  140.1470  159.8888 H   0  0  0  0  0  0  0  0  0  0  0  0
  153.5097  139.8547  159.1301 H   0  0  0  0  0  0  0  0  0  0  0  0
  153.4283  141.1030  161.5409 H   0  0  0  0  0  0  0  0  0  0  0  0
  154.5339  141.6750  160.2887 H   0  0  0  0  0  0  0  0  0  0  0  0
  151.8042  142.7944  160.9811 H   0  0  0  0  0  0  0  0  0  0  0  0
  153.2953  143.7020  160.7332 H   0  0  0  0  0  0  0  0  0  0  0  0
  153.0994  143.5148  158.3612 H   0  0  0  0  0  0  0  0  0  0  0  0
  151.3828  143.3477  158.7544 H   0  0  0  0  0  0  0  0  0  0  0  0
  152.0105  138.8651  154.9361 H   0  0  0  0  0  0  0  0  0  0  0  0
  1  2  2  0  0  0  0
  2  3  1  0  0  0  0
  2 12  1  0  0  0  0
  3  4  1  0  0  0  0
  3 24  1  0  0  0  0
  4  5  1  0  0  0  0
  4 25  1  0  0  0  0
  4 26  1  0  0  0  0
  5 11  1  0  0  0  0
  5  6  1  0  0  0  0
  5 27  1  0  0  0  0
  6  7  1  0  0  0  0
  6 28  1  0  0  0  0
  6 29  1  0  0  0  0
  7  8  1  0  0  0  0
  7 30  1  0  0  0  0
  7 31  1  0  0  0  0
  8  9  2  0  0  0  0
  8 10  2  0  0  0  0
  8 11  1  0  0  0  0
 11 32  1  0  0  0  0
 11 33  1  0  0  0  0
 12 13  1  0  0  0  0
 12 34  1  0  0  0  0
 13 23  1  0  0  0  0
 13 14  2  0  0  0  0
 14 15  1  0  0  0  0
 14 35  1  0  0  0  0
 15 16  2  0  0  0  0
 15 36  1  0  0  0  0
 16 17  1  0  0  0  0
 16 22  1  0  0  0  0
 17 21  1  0  0  0  0
 17 18  1  0  0  0  0
 18 19  1  0  0  0  0
 18 37  1  0  0  0  0
 18 38  1  0  0  0  0
 19 20  1  0  0  0  0
 19 39  1  0  0  0  0
 19 40  1  0  0  0  0
 20 21  1  0  0  0  0
 20 41  1  0  0  0  0
 20 42  1  0  0  0  0
 21 43  1  0  0  0  0
 21 44  1  0  0  0  0
 22 23  2  0  0  0  0
 23 45  1  0  0  0  0
M  END
> <s_m_source_file>
AV-unprocessed.smi

> <i_m_source_file_index>
550

> <i_lp_mmshare_version>
43012

> <i_f3d_flags>
0

> <s_epik_input>
Tz1TMSg9TylbQ0gyXVtDSDJdW0NASF0oW0NIMl0xKVtDSDJdW05IXUMoPU8pW05IXWMyW2NIXVtjSF1jKG5bY0hdMilOM1tDSDJdW0NIMl1bQ0gyXVtDSDJdMw==

> <s_epik_cmdline>
J2VwaWtfcHl0aG9uJywgJy1waCcsICc3LjAnLCAnLXRuJywgJzgnLCAnLW1hJywgJzIwMCcsICctbWV0YWxfYmluZGluZycsICctaW1hZScsICc8aW5maWxlLm1hZT4nLCAnLW9tYWUnLCAnPG91dGZpbGUubWFlPic=

> <r_lp_tautomer_probability>
1

> <r_epik_Ionization_Penalty>
0.0965651

> <r_epik_Ionization_Penalty_Charging>
0

> <r_epik_Ionization_Penalty_Neutral>
0.0965651

> <r_epik_State_Penalty>
0.0861592

> <r_epik_Charging_Adjusted_Penalty>
0.0861592

> <i_epik_Tot_Q>
0

> <i_epik_Tot_abs_Q>
0

> <r_epik_Metal_State_Penalty>
0.0740405

> <b_epik_Metal_Only>
0

> <s_lp_Force_Field>
OPLS_2005

> <r_lp_Energy>
29.4066

> <b_lp_Chiralities_Consistent>
1

> <s_lp_Variant>
AV-unprocessed.smi:550-1

> <Gold.Version>
5.8.1

> <Gold.Id.Protein>
6NUR|6NUR_protein|mol2

> <Gold.PLP.Fitness>
44.4098

> <Gold.PLP.PLP>
-41.9556

> <Gold.PLP.part.hbond>
-2.9189

> <Gold.PLP.part.metal>
0.0000

> <Gold.PLP.part.buried>
1.6042

> <Gold.PLP.part.nonpolar>
-40.4830

> <Gold.PLP.part.repulsive>
0.5909

> <Gold.PLP.ligand.clash>
0.0000

> <Gold.PLP.ligand.torsion>
1.8806

> <Gold.PLP.Chemscore.Hbond>
2.0071

> <Gold.PLP.Chemscore.CHOScore>
0.0000

> <Gold.PLP.Chemscore.Metal>
0.0000

> <Gold.Chemscore.Hbonds>
donor molecule, donor type, donor heavy atom, donor atom, acceptor molecule, acceptor atom, score
      L1  H     3    24       P1  7957  0.58
      L1  H    12    34       P1  7957  0.51
      P1  H  7997  8009       L1    22  0.76

> <Gold.PLP.Chemscore.Internal.Correction>
0.1942

> <Gold.Rescore>
     Score         DG    S(hbond)    S(metal)    S(lipo)     H(rot)  DE(clash)    DE(int)     intcor
     17.88     -21.34       2.30        0.00      97.26       1.25       0.37       3.09       ----

> <Gold.Chemscore.Fitness>
17.8802

> <Gold.Chemscore.DG>
-21.3374

> <Gold.Chemscore.ZeroCoef>
-5.4800

> <Gold.Chemscore.Hbond>
2.2991

> <Gold.Chemscore.Metal>
0.0000

> <Gold.Chemscore.Lipo>
97.2638

> <Gold.Chemscore.Internal_Hbond>
0.0000

> <Gold.Chemscore.DEClash>
0.3684

> <Gold.Chemscore.DEInternal>
3.0888

> <Gold.Chemscore.Rot>
1.2506

> <Gold.Chemscore.Internal.Correction>
   9.000000E+99

> <Gold.Chemscore.Hbonds>
donor molecule, donor type, donor heavy atom, donor atom, acceptor molecule, acceptor atom, score
      L1  H     3    24       P1  7957  0.52
      L1  H    12    34       P1  7957  0.48
      P1  H  7997  8009       L1    22  0.62

> <Gold.Chemscore.Hbond.Weighted>
-7.6791

> <Gold.Chemscore.Metal.Weighted>
-0.0000

> <Gold.Chemscore.Lipo.Weighted>
-11.3799

> <Gold.Chemscore.Internal_Hbond.Weighted>
0.0000

> <Gold.Chemscore.DEClash.Weighted>
0.3684

> <Gold.Chemscore.DEInternal.Weighted>
3.0888

> <Gold.Chemscore.Rot.Weighted>
3.2016

> <Gold.Chemscore.Internal.Correction.Weighted>
   9.000000E+99

> <Gold.Protein.RotatedTorsions>
[ 6907 6896 6895 6894 ] final  -79.25 input  -60.11 | X-H torsion
[ 7974 7965 7964 7962 ] final -177.11 input  175.53 | X-H torsion
[ 8008 7997 7996 7995 ] final -165.15 input   59.86 | X-H torsion
[ 10167 10162 10161 10158 ] final  -72.81 input  -65.29 | X-H torsion
[ 10718 10713 10712 10709 ] final   26.19 input   66.30 | X-H torsion
[ 10763 10752 10751 10750 ] final  114.05 input  -60.55 | X-H torsion
[ 11005 11000 10999 10996 ] final  -58.60 input  -57.11 | X-H torsion

> <Gold.Protein.ActiveResidues>
 VAL166  LYS551  ARG553  GLY616  TRP617  ASP618  TYR619  PRO620  LYS621  CYS622 
 ASP623  PHE694  ASN695  SER759  ASP760  ASP761  ALA762  ILE779  LEU786  VAL792 
 PHE793  MET794  SER795  GLU796  ALA797  LYS798  CYS799  TRP800  GLU811  SER814 

> <Gold.Protein.RotatedAtoms>
  150.6954  134.4149  159.5178 H   0  0  0  0  0  0  0  0  0  0  0  0  # atno 6907 bound_to 6896
  152.1902  134.8676  160.0527 H   0  0  0  0  0  0  0  0  0  0  0  0  # atno 6908 bound_to 6896
  151.9634  133.3667  159.4081 H   0  0  0  0  0  0  0  0  0  0  0  0  # atno 6909 bound_to 6896
  144.7127  140.1069  143.6413 H   0  0  0  0  0  0  0  0  0  0  0  0  # atno 7974 bound_to 7965
  155.8457  140.0955  157.1707 H   0  0  0  0  0  0  0  0  0  0  0  0  # atno 8008 bound_to 7997
  154.3983  140.1392  156.3844 H   0  0  0  0  0  0  0  0  0  0  0  0  # atno 8009 bound_to 7997
  155.8016  140.3452  155.5408 H   0  0  0  0  0  0  0  0  0  0  0  0  # atno 8010 bound_to 7997
  140.5161  143.2338  151.7510 H   0  0  0  0  0  0  0  0  0  0  0  0  # atno 10167 bound_to 10162
  157.2035  130.6901  149.6198 H   0  0  0  0  0  0  0  0  0  0  0  0  # atno 10718 bound_to 10713
  153.5015  135.3637  155.2542 H   0  0  0  0  0  0  0  0  0  0  0  0  # atno 10763 bound_to 10752
  154.8747  135.4001  154.3473 H   0  0  0  0  0  0  0  0  0  0  0  0  # atno 10764 bound_to 10752
  153.4110  135.7078  153.6426 H   0  0  0  0  0  0  0  0  0  0  0  0  # atno 10765 bound_to 10752
  141.1214  133.6613  156.4944 H   0  0  0  0  0  0  0  0  0  0  0  0  # atno 11005 bound_to 11000
  145.9489  139.2720  143.1224 LP  0  0  0  0  0  0  0  0  0  0  0  0  # atno 17320 bound_to 7965
  145.9344  140.9025  143.0339 LP  0  0  0  0  0  0  0  0  0  0  0  0  # atno 17321 bound_to 7965
  139.4910  144.4321  151.9860 LP  0  0  0  0  0  0  0  0  0  0  0  0  # atno 17342 bound_to 10162
  140.3416  144.3197  150.5966 LP  0  0  0  0  0  0  0  0  0  0  0  0  # atno 17343 bound_to 10162
  155.9698  130.4575  150.5964 LP  0  0  0  0  0  0  0  0  0  0  0  0  # atno 17370 bound_to 10713
  157.3743  131.0771  151.1531 LP  0  0  0  0  0  0  0  0  0  0  0  0  # atno 17371 bound_to 10713
  140.4496  134.6940  157.5033 LP  0  0  0  0  0  0  0  0  0  0  0  0  # atno 17394 bound_to 11000
  140.0174  134.6598  155.9289 LP  0  0  0  0  0  0  0  0  0  0  0  0  # atno 17395 bound_to 11000

$$$$
