AV-unprocessed.smi:1093|AV-procd|sdf|4741|dock5
  -GOLD-   22720 3273D 1   1.00000     0.00000
 Structure written by MMmdl.
 48 49  0  0  0  0  0  0  0  0  3 V2000
  154.7587  140.8813  160.6906 C   0  0  0  0  0  0  0  0  0  0  0  0
  153.4326  140.7318  159.9310 C   0  0  0  0  0  0  0  0  0  0  0  0
  153.0473  141.9694  159.2065 N   0  3  2  0  0  0  0  0  0  0  0  0
  152.9276  143.1371  160.1179 C   0  0  0  0  0  0  0  0  0  0  0  0
  152.6693  144.4324  159.3311 C   0  0  0  0  0  0  0  0  0  0  0  0
  151.4224  144.3025  158.4472 C   0  0  0  0  0  0  0  0  0  0  0  0
  151.5492  143.0698  157.5347 C   0  0  2  0  0  0  0  0  0  0  0  0
  150.3345  142.8853  156.7445 N   0  0  0  0  0  0  0  0  0  0  0  0
  150.0062  141.7645  156.0852 C   0  0  0  0  0  0  0  0  0  0  0  0
  150.7107  140.7557  156.0723 O   0  0  0  0  0  0  0  0  0  0  0  0
  148.8353  141.9028  155.4388 N   0  0  0  0  0  0  0  0  0  0  0  0
  148.1345  140.9399  154.6620 C   0  0  0  0  0  0  0  0  0  0  0  0
  148.7269  139.6711  154.4933 C   0  0  0  0  0  0  0  0  0  0  0  0
  148.0773  138.6895  153.7170 C   0  0  0  0  0  0  0  0  0  0  0  0
  146.8358  138.9846  153.1020 C   0  0  0  0  0  0  0  0  0  0  0  0
  146.1255  138.0572  152.3092 N   0  0  0  0  0  0  0  0  0  0  0  0
  146.1247  138.1966  150.8587 C   0  0  0  0  0  0  0  0  0  0  0  0
  145.5105  136.8920  152.9355 C   0  0  0  0  0  0  0  0  0  0  0  0
  146.3124  140.2219  153.2827 N   0  3  0  0  0  0  0  0  0  0  0  0
  146.8989  141.1903  154.0188 C   0  0  0  0  0  0  0  0  0  0  0  0
  151.8279  141.8052  158.3695 C   0  0  0  0  0  0  0  0  0  0  0  0
  154.9599  139.9910  161.2870 H   0  0  0  0  0  0  0  0  0  0  0  0
  154.7293  141.7329  161.3708 H   0  0  0  0  0  0  0  0  0  0  0  0
  155.6051  141.0151  160.0180 H   0  0  0  0  0  0  0  0  0  0  0  0
  153.4769  139.8898  159.2389 H   0  0  0  0  0  0  0  0  0  0  0  0
  152.6603  140.4893  160.6622 H   0  0  0  0  0  0  0  0  0  0  0  0
  152.1213  142.9623  160.8321 H   0  0  0  0  0  0  0  0  0  0  0  0
  153.8451  143.2501  160.6969 H   0  0  0  0  0  0  0  0  0  0  0  0
  152.5519  145.2697  160.0198 H   0  0  0  0  0  0  0  0  0  0  0  0
  153.5360  144.6624  158.7098 H   0  0  0  0  0  0  0  0  0  0  0  0
  150.5356  144.2128  159.0766 H   0  0  0  0  0  0  0  0  0  0  0  0
  151.2935  145.2077  157.8526 H   0  0  0  0  0  0  0  0  0  0  0  0
  152.3944  143.2171  156.8592 H   0  0  0  0  0  0  0  0  0  0  0  0
  149.7003  143.6694  156.6942 H   0  0  0  0  0  0  0  0  0  0  0  0
  148.4125  142.8188  155.4766 H   0  0  0  0  0  0  0  0  0  0  0  0
  149.6752  139.4441  154.9585 H   0  0  0  0  0  0  0  0  0  0  0  0
  148.5465  137.7236  153.6048 H   0  0  0  0  0  0  0  0  0  0  0  0
  145.6731  139.1445  150.5635 H   0  0  0  0  0  0  0  0  0  0  0  0
  145.5564  137.3968  150.3835 H   0  0  0  0  0  0  0  0  0  0  0  0
  147.1428  138.1587  150.4699 H   0  0  0  0  0  0  0  0  0  0  0  0
  144.7818  137.1994  153.6863 H   0  0  0  0  0  0  0  0  0  0  0  0
  146.2673  136.2733  153.4186 H   0  0  0  0  0  0  0  0  0  0  0  0
  144.9915  136.2742  152.2025 H   0  0  0  0  0  0  0  0  0  0  0  0
  146.3585  142.1242  154.0482 H   0  0  0  0  0  0  0  0  0  0  0  0
  151.9488  140.9576  157.6953 H   0  0  0  0  0  0  0  0  0  0  0  0
  150.9756  141.5781  159.0125 H   0  0  0  0  0  0  0  0  0  0  0  0
  153.8098  142.1810  158.5788 H   0  0  0  0  0  0  0  0  0  0  0  0
  145.4221  140.4372  152.8336 H   0  0  0  0  0  0  0  0  0  0  0  0
  1  2  1  0  0  0  0
  1 22  1  0  0  0  0
  1 23  1  0  0  0  0
  1 24  1  0  0  0  0
  2  3  1  0  0  0  0
  2 25  1  0  0  0  0
  2 26  1  0  0  0  0
  3 21  1  0  0  0  0
  3  4  1  0  0  0  0
  3 47  1  0  0  0  0
  4  5  1  0  0  0  0
  4 27  1  0  0  0  0
  4 28  1  0  0  0  0
  5  6  1  0  0  0  0
  5 29  1  0  0  0  0
  5 30  1  0  0  0  0
  6  7  1  0  0  0  0
  6 31  1  0  0  0  0
  6 32  1  0  0  0  0
  7  8  1  0  0  0  0
  7 21  1  0  0  0  0
  7 33  1  0  0  0  0
  8  9  1  0  0  0  0
  8 34  1  0  0  0  0
  9 10  2  0  0  0  0
  9 11  1  0  0  0  0
 11 12  1  0  0  0  0
 11 35  1  0  0  0  0
 12 20  1  0  0  0  0
 12 13  2  0  0  0  0
 13 14  1  0  0  0  0
 13 36  1  0  0  0  0
 14 15  2  0  0  0  0
 14 37  1  0  0  0  0
 15 16  1  0  0  0  0
 15 19  1  0  0  0  0
 16 17  1  0  0  0  0
 16 18  1  0  0  0  0
 17 38  1  0  0  0  0
 17 39  1  0  0  0  0
 17 40  1  0  0  0  0
 18 41  1  0  0  0  0
 18 42  1  0  0  0  0
 18 43  1  0  0  0  0
 19 20  2  0  0  0  0
 19 48  1  0  0  0  0
 20 44  1  0  0  0  0
 21 45  1  0  0  0  0
 21 46  1  0  0  0  0
M  CHG  1   3   1
M  CHG  1  19   1
M  END
> <s_m_source_file>
AV-unprocessed.smi

> <i_m_source_file_index>
1093

> <i_lp_mmshare_version>
43012

> <i_f3d_flags>
0

> <s_epik_input>
W0NIM11bQ0gyXU4xW0NIMl1bQ0gyXVtDSDJdW0NASF0oW0NIMl0xKVtOSF1DKD1PKVtOSF1jMltjSF1bY0hdYyhOKFtDSDNdKVtDSDNdKW5bY0hdMg==

> <s_epik_cmdline>
J2VwaWtfcHl0aG9uJywgJy1waCcsICc3LjAnLCAnLXRuJywgJzgnLCAnLW1hJywgJzIwMCcsICctbWV0YWxfYmluZGluZycsICctaW1hZScsICc8aW5maWxlLm1hZT4nLCAnLW9tYWUnLCAnPG91dGZpbGUubWFlPic=

> <r_lp_tautomer_probability>
0.999994

> <r_epik_Ionization_Penalty>
0.346711

> <r_epik_Ionization_Penalty_Charging>
0.346691

> <r_epik_Ionization_Penalty_Neutral>
1.93006e-05

> <r_epik_State_Penalty>
0.339838

> <r_epik_Charging_Adjusted_Penalty>
0.68653

> <i_epik_Tot_Q>
2

> <i_epik_Tot_abs_Q>
2

> <r_epik_Metal_State_Penalty>
0.600835

> <b_epik_Metal_Only>
0

> <s_lp_Force_Field>
OPLS_2005

> <r_lp_Energy>
27.882

> <b_lp_Chiralities_Consistent>
1

> <s_lp_Variant>
AV-unprocessed.smi:1093-4

> <Gold.Version>
5.8.1

> <Gold.Id.Protein>
6NUR|6NUR_protein|mol2

> <Gold.PLP.Fitness>
50.8703

> <Gold.PLP.PLP>
-42.1385

> <Gold.PLP.part.hbond>
-3.0000

> <Gold.PLP.part.metal>
0.0000

> <Gold.PLP.part.buried>
-0.8298

> <Gold.PLP.part.nonpolar>
-39.7088

> <Gold.PLP.part.repulsive>
0.3331

> <Gold.PLP.ligand.clash>
0.0000

> <Gold.PLP.ligand.torsion>
1.5870

> <Gold.PLP.Chemscore.Hbond>
3.9600

> <Gold.PLP.Chemscore.CHOScore>
0.0000

> <Gold.PLP.Chemscore.Metal>
0.0000

> <Gold.Chemscore.Hbonds>
donor molecule, donor type, donor heavy atom, donor atom, acceptor molecule, acceptor atom, score
      L1  H     8    34       P1  8028  0.91
      L1  H    11    35       P1  8028  0.85
      L1  H    19    48       P1 10175  2.00

> <Gold.PLP.Chemscore.Internal.Correction>
0.0258

> <Gold.Rescore>
     Score         DG    S(hbond)    S(metal)    S(lipo)     H(rot)  DE(clash)    DE(int)     intcor
     18.99     -25.54       2.89        0.00     115.19       1.19       2.14       4.41       ----

> <Gold.Chemscore.Fitness>
18.9932

> <Gold.Chemscore.DG>
-25.5436

> <Gold.Chemscore.ZeroCoef>
-5.4800

> <Gold.Chemscore.Hbond>
2.8877

> <Gold.Chemscore.Metal>
0.0000

> <Gold.Chemscore.Lipo>
115.1947

> <Gold.Chemscore.Internal_Hbond>
0.0000

> <Gold.Chemscore.DEClash>
2.1420

> <Gold.Chemscore.DEInternal>
4.4084

> <Gold.Chemscore.Rot>
1.1949

> <Gold.Chemscore.Internal.Correction>
   9.000000E+99

> <Gold.Chemscore.Hbonds>
donor molecule, donor type, donor heavy atom, donor atom, acceptor molecule, acceptor atom, score
      L1  H     8    34       P1  8028  0.89
      L1  H    11    35       P1  8028  0.82
      L1  H    19    48       P1 10175  0.85

> <Gold.Chemscore.Hbond.Weighted>
-9.6448

> <Gold.Chemscore.Metal.Weighted>
-0.0000

> <Gold.Chemscore.Lipo.Weighted>
-13.4778

> <Gold.Chemscore.Internal_Hbond.Weighted>
0.0000

> <Gold.Chemscore.DEClash.Weighted>
2.1420

> <Gold.Chemscore.DEInternal.Weighted>
4.4084

> <Gold.Chemscore.Rot.Weighted>
3.0590

> <Gold.Chemscore.Internal.Correction.Weighted>
   9.000000E+99

> <Gold.Protein.RotatedTorsions>
[ 6907 6896 6895 6894 ] final  -39.94 input  -60.11 | X-H torsion
[ 7974 7965 7964 7962 ] final -168.06 input  175.53 | X-H torsion
[ 8008 7997 7996 7995 ] final  103.47 input   59.86 | X-H torsion
[ 10167 10162 10161 10158 ] final -175.06 input  -65.29 | X-H torsion
[ 10718 10713 10712 10709 ] final -145.09 input   66.30 | X-H torsion
[ 10763 10752 10751 10750 ] final  -75.55 input  -60.55 | X-H torsion
[ 11005 11000 10999 10996 ] final   24.85 input  -57.11 | X-H torsion

> <Gold.Protein.ActiveResidues>
 VAL166  LYS551  ARG553  GLY616  TRP617  ASP618  TYR619  PRO620  LYS621  CYS622 
 ASP623  PHE694  ASN695  SER759  ASP760  ASP761  ALA762  ILE779  LEU786  VAL792 
 PHE793  MET794  SER795  GLU796  ALA797  LYS798  CYS799  TRP800  GLU811  SER814 

> <Gold.Protein.RotatedAtoms>
  150.9843  134.9192  159.7862 H   0  0  0  0  0  0  0  0  0  0  0  0  # atno 6907 bound_to 6896
  152.5231  134.3368  159.9212 H   0  0  0  0  0  0  0  0  0  0  0  0  # atno 6908 bound_to 6896
  151.3374  133.3935  159.2702 H   0  0  0  0  0  0  0  0  0  0  0  0  # atno 6909 bound_to 6896
  144.7210  140.2426  143.6289 H   0  0  0  0  0  0  0  0  0  0  0  0  # atno 7974 bound_to 7965
  156.1487  140.3164  155.8612 H   0  0  0  0  0  0  0  0  0  0  0  0  # atno 8008 bound_to 7997
  155.4014  140.0500  157.3053 H   0  0  0  0  0  0  0  0  0  0  0  0  # atno 8009 bound_to 7997
  154.5039  140.2139  155.9302 H   0  0  0  0  0  0  0  0  0  0  0  0  # atno 8010 bound_to 7997
  139.5600  144.1892  152.1224 H   0  0  0  0  0  0  0  0  0  0  0  0  # atno 10167 bound_to 10162
  156.3782  130.7823  151.2012 H   0  0  0  0  0  0  0  0  0  0  0  0  # atno 10718 bound_to 10713
  154.4880  135.5827  153.6438 H   0  0  0  0  0  0  0  0  0  0  0  0  # atno 10763 bound_to 10752
  152.9858  135.6106  154.3161 H   0  0  0  0  0  0  0  0  0  0  0  0  # atno 10764 bound_to 10752
  154.3058  135.2846  155.2568 H   0  0  0  0  0  0  0  0  0  0  0  0  # atno 10765 bound_to 10752
  140.3542  134.2195  155.7677 H   0  0  0  0  0  0  0  0  0  0  0  0  # atno 11005 bound_to 11000
  145.8305  139.2084  143.1885 LP  0  0  0  0  0  0  0  0  0  0  0  0  # atno 17320 bound_to 7965
  146.0435  140.8141  142.9817 LP  0  0  0  0  0  0  0  0  0  0  0  0  # atno 17321 bound_to 7965
  140.1404  144.5207  150.6747 LP  0  0  0  0  0  0  0  0  0  0  0  0  # atno 17342 bound_to 10162
  140.6879  143.2360  151.5211 LP  0  0  0  0  0  0  0  0  0  0  0  0  # atno 17343 bound_to 10162
  157.7490  131.0352  150.4352 LP  0  0  0  0  0  0  0  0  0  0  0  0  # atno 17370 bound_to 10713
  156.4591  130.4028  149.6587 LP  0  0  0  0  0  0  0  0  0  0  0  0  # atno 17371 bound_to 10713
  141.2003  133.7990  157.0495 LP  0  0  0  0  0  0  0  0  0  0  0  0  # atno 17394 bound_to 11000
  140.0678  134.9719  157.1416 LP  0  0  0  0  0  0  0  0  0  0  0  0  # atno 17395 bound_to 11000

$$$$
