#       Name:                AV-unprocessed.smi:160
#       Creating user name   scv26
#       Creation time:       Thu Mar 26 19:04:09 2020


#       File generated by GOLD software.
#

@<TRIPOS>MOLECULE
AV-unprocessed.smi:160
    41    42     1
SMALL
NO_CHARGES


@<TRIPOS>ATOM
      1 ****        -3.8879   0.9765  -0.1566 N.am           1 S1                 0.0000
      2 ****        -3.9786  -0.2193   0.4345 C.2            1 S1                 0.0000
      3 ****        -5.0513  -0.6862   0.8137 O.2            1 S1                 0.0000
      4 ****        -2.6889  -0.9714   0.6142 C.2            1 S1                 0.0000
      5 ****        -2.6647  -2.1971   1.2168 N.2            1 S1                 0.0000
      6 ****        -1.3619  -2.4388   1.1461 C.2            1 S1                 0.0000
      7 ****        -0.6576  -1.4716   0.5499 N.pl3          1 S1                 0.0000
      8 ****         0.8137  -1.3609   0.3158 C.3            1 S1                 0.0000
      9 ****         1.2670  -0.2649   1.0544 O.3            1 S1                 0.0000
     10 ****         1.9731   0.6520   0.2218 C.3            1 S1                 0.0000
     11 ****         1.7732   2.0821   0.7465 C.3            1 S1                 0.0000
     12 ****         2.6818   2.3466   1.7936 O.3            1 S1                 0.0000
     13 ****         1.3609   0.4179  -1.1602 C.3            1 S1                 0.0000
     14 ****         2.1921   0.8443  -2.2238 O.3            1 S1                 0.0000
     15 ****         1.1146  -1.0858  -1.1654 C.3            1 S1                 0.0000
     16 ****         2.2455  -1.8227  -1.5927 O.3            1 S1                 0.0000
     17 ****        -1.5182  -0.4823   0.2014 N.2            1 S1                 0.0000
     18 ****         1.2240  -2.3013   0.6872 H              1 S1                 0.0000
     19 ****         3.0295   0.3764   0.2048 H              1 S1                 0.0000
     20 ****         0.4060   0.9401  -1.2313 H              1 S1                 0.0000
     21 ****         0.2707  -1.3612  -1.7998 H              1 S1                 0.0000
     22 ****        -4.7197   1.5286  -0.3049 H              1 S1                 0.0000
     23 ****        -2.9851   1.3192  -0.4510 H              1 S1                 0.0000
     24 ****        -0.9118  -3.3389   1.5383 H              1 S1                 0.0000
     25 ****         1.9698   2.8048  -0.0457 H              1 S1                 0.0000
     26 ****         0.7477   2.2404   1.0823 H              1 S1                 0.0000
     27 ****         2.5358   3.2271   2.1038 H              1 S1                 0.0000
     28 ****         2.3403   1.7735  -2.1357 H              1 S1                 0.0000
     29 ****         2.4812  -1.5265  -2.4589 H              1 S1                 0.0000
     30 ****        -5.8963  -0.1674   0.6838 LP             1 S1                 0.0000
     31 ****        -5.0786  -1.5847   1.2520 LP             1 S1                 0.0000
     32 ****        -3.4074  -2.7480   1.5977 LP             1 S1                 0.0000
     33 ****         1.8774  -0.5874   1.7778 LP             1 S1                 0.0000
     34 ****         0.4826   0.2013   1.4635 LP             1 S1                 0.0000
     35 ****         3.6191   2.2592   1.4565 LP             1 S1                 0.0000
     36 ****         2.5341   1.6976   2.5399 LP             1 S1                 0.0000
     37 ****         1.7444   0.6557  -3.0979 LP             1 S1                 0.0000
     38 ****         3.0652   0.3585  -2.1848 LP             1 S1                 0.0000
     39 ****         2.0248  -2.7978  -1.6168 LP             1 S1                 0.0000
     40 ****         3.0072  -1.6688  -0.9634 LP             1 S1                 0.0000
     41 ****        -1.3248   0.3893  -0.2490 LP             1 S1                 0.0000
@<TRIPOS>BOND
    1    1    2 am    
    2    1   22 1     
    3    1   23 1     
    4    2    3 2     
    5    2    4 1     
    6    4   17 2     
    7    4    5 1     
    8    5    6 2     
    9    6    7 1     
   10    6   24 1     
   11    7    8 1     
   12    7   17 1     
   13    8   18 1     
   14    8   15 1     
   15    8    9 1     
   16    9   10 1     
   17   10   19 1     
   18   10   11 1     
   19   10   13 1     
   20   11   12 1     
   21   11   25 1     
   22   11   26 1     
   23   12   27 1     
   24   13   20 1     
   25   13   14 1     
   26   13   15 1     
   27   14   28 1     
   28   15   21 1     
   29   15   16 1     
   30   16   29 1     
   31    3   30 1     
   32    3   31 1     
   33    5   32 1     
   34    9   33 1     
   35    9   34 1     
   36   12   35 1     
   37   12   36 1     
   38   14   37 1     
   39   14   38 1     
   40   16   39 1     
   41   16   40 1     
   42   17   41 1     
@<TRIPOS>SUBSTRUCTURE
      1 S1             1
@<TRIPOS>SET
LONE_PAIRS      STATIC     ATOMS    <user>   **** ""
12 30 31 32 33 34 35 36 37 38 39 40 41
DONOR_HYDROGENS      STATIC     ATOMS    <user>   **** ""
5 22 23 27 28 29
ATOM$BLUE        STATIC     ATOMS    COLORGROUP SYSTEM
12 30 31 32 33 34 35 36 37 38 39 40 41
ATOM$RED        STATIC     ATOMS    COLORGROUP SYSTEM
5 22 23 27 28 29
