AV-unprocessed.smi:1965|AV-procd|sdf|7934|dock8
  -GOLD-   2272010103D 1   1.00000     0.00000
 Structure written by MMmdl.
 37 39  0  0  0  0  0  0  0  0  2 V2000
  144.5150  136.3164  151.5286 O   0  0  0  0  0  0  0  0  0  0  0  0
  145.7196  136.1787  151.7337 C   0  0  0  0  0  0  0  0  0  0  0  0
  146.3313  134.9939  151.5216 N   0  0  0  0  0  0  0  0  0  0  0  0
  145.8333  133.7397  151.0620 C   0  0  0  0  0  0  0  0  0  0  0  0
  146.5858  132.6861  150.7192 N   0  0  0  0  0  0  0  0  0  0  0  0
  145.8139  131.5944  150.3134 C   0  0  0  0  0  0  0  0  0  0  0  0
  144.4632  131.8329  150.3556 C   0  0  0  0  0  0  0  0  0  0  0  0
  144.1064  133.4471  150.9083 S   0  0  0  0  0  0  0  0  0  0  0  0
  146.4969  137.1795  152.1783 N   0  0  0  0  0  0  0  0  0  0  0  0
  146.0476  138.5330  152.4864 C   0  0  2  0  0  0  0  0  0  0  0  0
  146.9279  139.6164  151.8382 C   0  0  0  0  0  0  0  0  0  0  0  0
  147.0252  140.7444  152.8842 C   0  0  0  0  0  0  0  0  0  0  0  0
  146.1478  140.3253  153.9936 N   0  3  2  0  0  0  0  0  0  0  0  0
  146.4360  140.8891  155.3304 C   0  0  0  0  0  0  0  0  0  0  0  0
  145.3663  140.4021  156.3284 C   0  0  0  0  0  0  0  0  0  0  0  0
  145.2361  138.8653  156.3225 C   0  0  0  0  0  0  0  0  0  0  0  0
  145.0321  138.3291  154.8922 C   0  0  0  0  0  0  0  0  0  0  0  0
  146.1531  138.8547  153.9791 C   0  0  1  0  0  0  0  0  0  0  0  0
  147.3246  135.0015  151.7030 H   0  0  0  0  0  0  0  0  0  0  0  0
  146.3090  130.6836  150.0108 H   0  0  0  0  0  0  0  0  0  0  0  0
  143.6597  131.1595  150.0964 H   0  0  0  0  0  0  0  0  0  0  0  0
  147.4774  136.9802  152.3186 H   0  0  0  0  0  0  0  0  0  0  0  0
  145.0185  138.6822  152.1524 H   0  0  0  0  0  0  0  0  0  0  0  0
  147.9258  139.2374  151.6119 H   0  0  0  0  0  0  0  0  0  0  0  0
  146.4916  139.9668  150.9022 H   0  0  0  0  0  0  0  0  0  0  0  0
  148.0540  140.8404  153.2349 H   0  0  0  0  0  0  0  0  0  0  0  0
  146.7110  141.7097  152.4865 H   0  0  0  0  0  0  0  0  0  0  0  0
  147.4314  140.5833  155.6564 H   0  0  0  0  0  0  0  0  0  0  0  0
  146.4332  141.9783  155.2772 H   0  0  0  0  0  0  0  0  0  0  0  0
  145.6048  140.7528  157.3328 H   0  0  0  0  0  0  0  0  0  0  0  0
  144.4035  140.8444  156.0690 H   0  0  0  0  0  0  0  0  0  0  0  0
  146.1380  138.4243  156.7489 H   0  0  0  0  0  0  0  0  0  0  0  0
  144.4086  138.5555  156.9614 H   0  0  0  0  0  0  0  0  0  0  0  0
  145.0291  137.2390  154.9032 H   0  0  0  0  0  0  0  0  0  0  0  0
  144.0587  138.6420  154.5123 H   0  0  0  0  0  0  0  0  0  0  0  0
  147.1192  138.5069  154.3530 H   0  0  0  0  0  0  0  0  0  0  0  0
  145.2116  140.6087  153.7422 H   0  0  0  0  0  0  0  0  0  0  0  0
  1  2  2  0  0  0  0
  2  3  1  0  0  0  0
  2  9  1  0  0  0  0
  3  4  1  0  0  0  0
  3 19  1  0  0  0  0
  4  8  1  0  0  0  0
  4  5  2  0  0  0  0
  5  6  1  0  0  0  0
  6  7  2  0  0  0  0
  6 20  1  0  0  0  0
  7  8  1  0  0  0  0
  7 21  1  0  0  0  0
  9 10  1  0  0  0  0
  9 22  1  0  0  0  0
 10 18  1  0  0  0  0
 10 11  1  0  0  0  0
 10 23  1  0  0  0  0
 11 12  1  0  0  0  0
 11 24  1  0  0  0  0
 11 25  1  0  0  0  0
 12 13  1  0  0  0  0
 12 26  1  0  0  0  0
 12 27  1  0  0  0  0
 13 18  1  0  0  0  0
 13 14  1  0  0  0  0
 13 37  1  0  0  0  0
 14 15  1  0  0  0  0
 14 28  1  0  0  0  0
 14 29  1  0  0  0  0
 15 16  1  0  0  0  0
 15 30  1  0  0  0  0
 15 31  1  0  0  0  0
 16 17  1  0  0  0  0
 16 32  1  0  0  0  0
 16 33  1  0  0  0  0
 17 18  1  0  0  0  0
 17 34  1  0  0  0  0
 17 35  1  0  0  0  0
 18 36  1  0  0  0  0
M  CHG  1  13   1
M  END
> <s_m_source_file>
AV-unprocessed.smi

> <i_m_source_file_index>
1965

> <i_lp_mmshare_version>
43012

> <i_f3d_flags>
0

> <s_epik_input>
czFbY0hdW2NIXW5jMVtOSF1DKD1PKVtOSF1bQ0BIXShbQ0gyXVtDSDJdMilbQ0BASF0oTjIzKVtDSDJdW0NIMl1bQ0gyXVtDSDJdMw==

> <s_epik_cmdline>
J2VwaWtfcHl0aG9uJywgJy1waCcsICc3LjAnLCAnLXRuJywgJzgnLCAnLW1hJywgJzIwMCcsICctbWV0YWxfYmluZGluZycsICctaW1hZScsICc8aW5maWxlLm1hZT4nLCAnLW9tYWUnLCAnPG91dGZpbGUubWFlPic=

> <r_lp_tautomer_probability>
1

> <r_epik_Ionization_Penalty>
0.00125962

> <r_epik_Ionization_Penalty_Charging>
0.00107044

> <r_epik_Ionization_Penalty_Neutral>
0.000189176

> <r_epik_State_Penalty>
-0

> <r_epik_Charging_Adjusted_Penalty>
0.00107044

> <i_epik_Tot_Q>
1

> <i_epik_Tot_abs_Q>
1

> <r_epik_Metal_State_Penalty>
0.0179285

> <b_epik_Metal_Only>
0

> <s_lp_Force_Field>
OPLS_2005

> <r_lp_Energy>
35.2759

> <b_lp_Chiralities_Consistent>
1

> <s_lp_Variant>
AV-unprocessed.smi:1965-3

> <Gold.Version>
5.8.1

> <Gold.Id.Protein>
6NUR|6NUR_protein|mol2

> <Gold.PLP.Fitness>
35.8424

> <Gold.PLP.PLP>
-23.2587

> <Gold.PLP.part.hbond>
-3.0000

> <Gold.PLP.part.metal>
0.0000

> <Gold.PLP.part.buried>
0.1290

> <Gold.PLP.part.nonpolar>
-22.1711

> <Gold.PLP.part.repulsive>
2.0028

> <Gold.PLP.ligand.clash>
0.0000

> <Gold.PLP.ligand.torsion>
0.0985

> <Gold.PLP.Chemscore.Hbond>
3.8480

> <Gold.PLP.Chemscore.CHOScore>
0.4091

> <Gold.PLP.Chemscore.Metal>
0.0000

> <Gold.Chemscore.Hbonds>
donor molecule, donor type, donor heavy atom, donor atom, acceptor molecule, acceptor atom, score
      L1  H     3    19       P1  7948  0.88
      L1  H     9    22       P1  7948  1.00
      L1  H    13    37       P1 10175  1.95
      L1  C     6    20       P1 10747  0.43

> <Gold.PLP.Chemscore.Internal.Correction>
0.0094

> <Gold.Rescore>
     Score         DG    S(hbond)    S(metal)    S(lipo)     H(rot)  DE(clash)    DE(int)     intcor
     16.38     -18.96       2.54        0.00      64.46       1.00       1.32       1.27       ----

> <Gold.Chemscore.Fitness>
16.3764

> <Gold.Chemscore.DG>
-18.9614

> <Gold.Chemscore.ZeroCoef>
-5.4800

> <Gold.Chemscore.Hbond>
2.5447

> <Gold.Chemscore.Metal>
0.0000

> <Gold.Chemscore.Lipo>
64.4619

> <Gold.Chemscore.Internal_Hbond>
0.0000

> <Gold.Chemscore.DEClash>
1.3175

> <Gold.Chemscore.DEInternal>
1.2675

> <Gold.Chemscore.Rot>
1.0000

> <Gold.Chemscore.Internal.Correction>
   9.000000E+99

> <Gold.Chemscore.Hbonds>
donor molecule, donor type, donor heavy atom, donor atom, acceptor molecule, acceptor atom, score
      L1  H     3    19       P1  7948  0.71
      L1  H     9    22       P1  7948  0.95
      L1  H    13    37       P1 10175  0.89

> <Gold.Chemscore.Hbond.Weighted>
-8.4994

> <Gold.Chemscore.Metal.Weighted>
-0.0000

> <Gold.Chemscore.Lipo.Weighted>
-7.5420

> <Gold.Chemscore.Internal_Hbond.Weighted>
0.0000

> <Gold.Chemscore.DEClash.Weighted>
1.3175

> <Gold.Chemscore.DEInternal.Weighted>
1.2675

> <Gold.Chemscore.Rot.Weighted>
2.5600

> <Gold.Chemscore.Internal.Correction.Weighted>
   9.000000E+99

> <Gold.Protein.RotatedTorsions>
[ 6907 6896 6895 6894 ] final  -73.66 input  -60.11 | X-H torsion
[ 7974 7965 7964 7962 ] final  -60.26 input  175.53 | X-H torsion
[ 8008 7997 7996 7995 ] final  -75.88 input   59.86 | X-H torsion
[ 10167 10162 10161 10158 ] final   57.67 input  -65.29 | X-H torsion
[ 10718 10713 10712 10709 ] final  171.55 input   66.30 | X-H torsion
[ 10763 10752 10751 10750 ] final  162.27 input  -60.55 | X-H torsion
[ 11005 11000 10999 10996 ] final -177.41 input  -57.11 | X-H torsion

> <Gold.Protein.ActiveResidues>
 VAL166  LYS551  ARG553  GLY616  TRP617  ASP618  TYR619  PRO620  LYS621  CYS622 
 ASP623  PHE694  ASN695  SER759  ASP760  ASP761  ALA762  ILE779  LEU786  VAL792 
 PHE793  MET794  SER795  GLU796  ALA797  LYS798  CYS799  TRP800  GLU811  SER814 

> <Gold.Protein.RotatedAtoms>
  150.7122  134.4984  159.5549 H   0  0  0  0  0  0  0  0  0  0  0  0  # atno 6907 bound_to 6896
  152.2587  134.8054  160.0443 H   0  0  0  0  0  0  0  0  0  0  0  0  # atno 6908 bound_to 6896
  151.8776  133.3453  159.3792 H   0  0  0  0  0  0  0  0  0  0  0  0  # atno 6909 bound_to 6896
  145.8176  140.8560  143.0149 H   0  0  0  0  0  0  0  0  0  0  0  0  # atno 7974 bound_to 7965
  154.5456  140.0736  156.8583 H   0  0  0  0  0  0  0  0  0  0  0  0  # atno 8008 bound_to 7997
  155.3094  140.3389  155.4226 H   0  0  0  0  0  0  0  0  0  0  0  0  # atno 8009 bound_to 7997
  156.1915  140.1688  156.8069 H   0  0  0  0  0  0  0  0  0  0  0  0  # atno 8010 bound_to 7997
  140.1955  144.4042  150.6552 H   0  0  0  0  0  0  0  0  0  0  0  0  # atno 10167 bound_to 10162
  156.9919  131.0150  151.2854 H   0  0  0  0  0  0  0  0  0  0  0  0  # atno 10718 bound_to 10713
  154.2757  135.2764  155.2719 H   0  0  0  0  0  0  0  0  0  0  0  0  # atno 10763 bound_to 10752
  154.5262  135.5742  153.6724 H   0  0  0  0  0  0  0  0  0  0  0  0  # atno 10764 bound_to 10752
  152.9937  135.6216  154.2914 H   0  0  0  0  0  0  0  0  0  0  0  0  # atno 10765 bound_to 10752
  140.4413  134.6429  157.4758 H   0  0  0  0  0  0  0  0  0  0  0  0  # atno 11005 bound_to 11000
  144.6751  140.0487  143.7479 LP  0  0  0  0  0  0  0  0  0  0  0  0  # atno 17320 bound_to 7965
  145.9709  139.2869  143.1099 LP  0  0  0  0  0  0  0  0  0  0  0  0  # atno 17321 bound_to 7965
  140.6427  143.2207  151.6255 LP  0  0  0  0  0  0  0  0  0  0  0  0  # atno 17342 bound_to 10162
  139.5238  144.3121  152.0984 LP  0  0  0  0  0  0  0  0  0  0  0  0  # atno 17343 bound_to 10162
  157.5452  130.8146  149.8077 LP  0  0  0  0  0  0  0  0  0  0  0  0  # atno 17370 bound_to 10713
  156.0204  130.3798  150.1980 LP  0  0  0  0  0  0  0  0  0  0  0  0  # atno 17371 bound_to 10713
  140.0068  134.6751  155.9442 LP  0  0  0  0  0  0  0  0  0  0  0  0  # atno 17394 bound_to 11000
  141.1704  133.6537  156.4632 LP  0  0  0  0  0  0  0  0  0  0  0  0  # atno 17395 bound_to 11000

$$$$
