AV-unprocessed.smi:2663|AV-procd|sdf|10322|dock2
  -GOLD-   2272014333D 1   1.00000     0.00000
 Structure written by MMmdl.
 39 40  0  0  0  0  0  0  0  0  1 V2000
  145.0800  135.0060  154.3463 C   0  0  0  0  0  0  0  0  0  0  0  0
  145.1451  135.7314  152.9819 C   0  0  1  0  0  0  0  0  0  0  0  0
  143.9199  136.6858  152.8642 C   0  0  0  0  0  0  0  0  0  0  0  0
  144.1476  137.7479  151.9567 O   0  0  0  0  0  0  0  0  0  0  0  0
  146.3881  136.5221  152.9939 N   0  0  0  0  0  0  0  0  0  0  0  0
  146.6476  137.6682  153.6478 C   0  0  0  0  0  0  0  0  0  0  0  0
  145.8299  138.2594  154.3528 O   0  0  0  0  0  0  0  0  0  0  0  0
  147.9097  138.0732  153.4231 N   0  0  0  0  0  0  0  0  0  0  0  0
  148.5686  139.2253  153.9286 C   0  0  0  0  0  0  0  0  0  0  0  0
  149.8554  139.2404  154.3107 N   0  0  0  0  0  0  0  0  0  0  0  0
  150.2481  140.4926  154.7650 N   0  0  0  0  0  0  0  0  0  0  0  0
  149.2435  141.3715  154.7082 C   0  0  0  0  0  0  0  0  0  0  0  0
  147.7192  140.7557  154.0936 S   0  0  0  0  0  0  0  0  0  0  0  0
  145.1663  134.7007  151.7944 C   0  0  0  0  0  0  0  0  0  0  0  0
  143.9168  133.7855  151.7174 C   0  0  0  0  0  0  0  0  0  0  0  0
  143.9390  132.8887  150.4685 C   0  0  0  0  0  0  0  0  0  0  0  0
  145.2161  132.0397  150.4125 C   0  0  0  0  0  0  0  0  0  0  0  0
  146.4664  132.9265  150.4852 C   0  0  0  0  0  0  0  0  0  0  0  0
  146.4443  133.8208  151.7352 C   0  0  0  0  0  0  0  0  0  0  0  0
  144.1505  134.4503  154.4682 H   0  0  0  0  0  0  0  0  0  0  0  0
  145.1329  135.7128  155.1751 H   0  0  0  0  0  0  0  0  0  0  0  0
  145.9045  134.3065  154.4799 H   0  0  0  0  0  0  0  0  0  0  0  0
  143.0258  136.1483  152.5481 H   0  0  0  0  0  0  0  0  0  0  0  0
  143.6820  137.1365  153.8269 H   0  0  0  0  0  0  0  0  0  0  0  0
  143.9771  138.5637  152.4019 H   0  0  0  0  0  0  0  0  0  0  0  0
  147.1437  136.1353  152.4481 H   0  0  0  0  0  0  0  0  0  0  0  0
  148.4670  137.4856  152.8209 H   0  0  0  0  0  0  0  0  0  0  0  0
  149.4016  142.3900  155.0303 H   0  0  0  0  0  0  0  0  0  0  0  0
  145.1577  135.2841  150.8732 H   0  0  0  0  0  0  0  0  0  0  0  0
  143.8565  133.1517  152.6021 H   0  0  0  0  0  0  0  0  0  0  0  0
  143.0016  134.3747  151.6947 H   0  0  0  0  0  0  0  0  0  0  0  0
  143.0627  132.2399  150.4626 H   0  0  0  0  0  0  0  0  0  0  0  0
  143.8706  133.5071  149.5727 H   0  0  0  0  0  0  0  0  0  0  0  0
  145.2213  131.3297  151.2405 H   0  0  0  0  0  0  0  0  0  0  0  0
  145.2313  131.4485  149.4964 H   0  0  0  0  0  0  0  0  0  0  0  0
  147.3621  132.3046  150.4895 H   0  0  0  0  0  0  0  0  0  0  0  0
  146.5276  133.5490  149.5917 H   0  0  0  0  0  0  0  0  0  0  0  0
  147.3450  134.4338  151.7296 H   0  0  0  0  0  0  0  0  0  0  0  0
  146.5094  133.1892  152.6211 H   0  0  0  0  0  0  0  0  0  0  0  0
  1  2  1  0  0  0  0
  1 20  1  0  0  0  0
  1 21  1  0  0  0  0
  1 22  1  0  0  0  0
  2  3  1  0  0  0  0
  2  5  1  0  0  0  0
  2 14  1  0  0  0  0
  3  4  1  0  0  0  0
  3 23  1  0  0  0  0
  3 24  1  0  0  0  0
  4 25  1  0  0  0  0
  5  6  1  0  0  0  0
  5 26  1  0  0  0  0
  6  7  2  0  0  0  0
  6  8  1  0  0  0  0
  8  9  1  0  0  0  0
  8 27  1  0  0  0  0
  9 13  1  0  0  0  0
  9 10  2  0  0  0  0
 10 11  1  0  0  0  0
 11 12  2  0  0  0  0
 12 13  1  0  0  0  0
 12 28  1  0  0  0  0
 14 19  1  0  0  0  0
 14 15  1  0  0  0  0
 14 29  1  0  0  0  0
 15 16  1  0  0  0  0
 15 30  1  0  0  0  0
 15 31  1  0  0  0  0
 16 17  1  0  0  0  0
 16 32  1  0  0  0  0
 16 33  1  0  0  0  0
 17 18  1  0  0  0  0
 17 34  1  0  0  0  0
 17 35  1  0  0  0  0
 18 19  1  0  0  0  0
 18 36  1  0  0  0  0
 18 37  1  0  0  0  0
 19 38  1  0  0  0  0
 19 39  1  0  0  0  0
M  END
> <s_m_source_file>
AV-unprocessed.smi

> <i_m_source_file_index>
2663

> <i_lp_mmshare_version>
43012

> <i_f3d_flags>
0

> <s_epik_input>
W0NIMl0xW0NIMl1bQ0gyXVtDSDJdW0NIMl1bQ0hdMVtDQF0oW0NIM10pKFtDSDJdW09IXSlbTkhdQyg9TylbTkhdYzJubltjSF1zMg==

> <s_epik_cmdline>
J2VwaWtfcHl0aG9uJywgJy1waCcsICc3LjAnLCAnLXRuJywgJzgnLCAnLW1hJywgJzIwMCcsICctbWV0YWxfYmluZGluZycsICctaW1hZScsICc8aW5maWxlLm1hZT4nLCAnLW9tYWUnLCAnPG91dGZpbGUubWFlPic=

> <r_lp_tautomer_probability>
1

> <r_epik_Ionization_Penalty>
0.000410407

> <r_epik_Ionization_Penalty_Charging>
0

> <r_epik_Ionization_Penalty_Neutral>
0.000410407

> <r_epik_State_Penalty>
-0

> <r_epik_Charging_Adjusted_Penalty>
0

> <i_epik_Tot_Q>
0

> <i_epik_Tot_abs_Q>
0

> <r_epik_Metal_State_Penalty>
0.197604

> <b_epik_Metal_Only>
0

> <s_lp_Force_Field>
OPLS_2005

> <r_lp_Energy>
19.5674

> <b_lp_Chiralities_Consistent>
1

> <s_lp_Variant>
AV-unprocessed.smi:2663-1

> <Gold.Version>
5.8.1

> <Gold.Id.Protein>
6NUR|6NUR_protein|mol2

> <Gold.PLP.Fitness>
44.2153

> <Gold.PLP.PLP>
-31.1546

> <Gold.PLP.part.hbond>
-4.4177

> <Gold.PLP.part.metal>
0.0000

> <Gold.PLP.part.buried>
-5.1979

> <Gold.PLP.part.nonpolar>
-22.4138

> <Gold.PLP.part.repulsive>
0.3991

> <Gold.PLP.ligand.clash>
0.0000

> <Gold.PLP.ligand.torsion>
0.9635

> <Gold.PLP.Chemscore.Hbond>
3.9760

> <Gold.PLP.Chemscore.CHOScore>
1.0000

> <Gold.PLP.Chemscore.Metal>
0.0000

> <Gold.Chemscore.Hbonds>
donor molecule, donor type, donor heavy atom, donor atom, acceptor molecule, acceptor atom, score
      L1  H     4    25       P1 10175  1.00
      L1  H     5    26       P1  7948  1.00
      L1  H     8    27       P1  7948  1.00
      P1  H  7989  7998       L1    11  0.96
      L1  C    12    28       P1  8028  1.00

> <Gold.PLP.Chemscore.Internal.Correction>
0.0597

> <Gold.Rescore>
     Score         DG    S(hbond)    S(metal)    S(lipo)     H(rot)  DE(clash)    DE(int)     intcor
     16.02     -17.78       3.11        0.00      64.82       2.21       0.06       1.70       ----

> <Gold.Chemscore.Fitness>
16.0167

> <Gold.Chemscore.DG>
-17.7818

> <Gold.Chemscore.ZeroCoef>
-5.4800

> <Gold.Chemscore.Hbond>
3.1079

> <Gold.Chemscore.Metal>
0.0000

> <Gold.Chemscore.Lipo>
64.8230

> <Gold.Chemscore.Internal_Hbond>
0.0000

> <Gold.Chemscore.DEClash>
0.0602

> <Gold.Chemscore.DEInternal>
1.7049

> <Gold.Chemscore.Rot>
2.2120

> <Gold.Chemscore.Internal.Correction>
   9.000000E+99

> <Gold.Chemscore.Hbonds>
donor molecule, donor type, donor heavy atom, donor atom, acceptor molecule, acceptor atom, score
      L1  H     4    25       P1 10175  0.97
      L1  H     5    26       P1  7948  0.94
      L1  H     8    27       P1  7948  0.99
      P1  H  7989  7998       L1    11  0.19

> <Gold.Chemscore.Hbond.Weighted>
-10.3803

> <Gold.Chemscore.Metal.Weighted>
-0.0000

> <Gold.Chemscore.Lipo.Weighted>
-7.5843

> <Gold.Chemscore.Internal_Hbond.Weighted>
0.0000

> <Gold.Chemscore.DEClash.Weighted>
0.0602

> <Gold.Chemscore.DEInternal.Weighted>
1.7049

> <Gold.Chemscore.Rot.Weighted>
5.6627

> <Gold.Chemscore.Internal.Correction.Weighted>
   9.000000E+99

> <Gold.Protein.RotatedTorsions>
[ 6907 6896 6895 6894 ] final  148.58 input  -60.11 | X-H torsion
[ 7974 7965 7964 7962 ] final  -76.22 input  175.53 | X-H torsion
[ 8008 7997 7996 7995 ] final  -66.79 input   59.86 | X-H torsion
[ 10167 10162 10161 10158 ] final  140.05 input  -65.29 | X-H torsion
[ 10718 10713 10712 10709 ] final -106.34 input   66.30 | X-H torsion
[ 10763 10752 10751 10750 ] final  119.25 input  -60.55 | X-H torsion
[ 11005 11000 10999 10996 ] final  134.74 input  -57.11 | X-H torsion

> <Gold.Protein.ActiveResidues>
 VAL166  LYS551  ARG553  GLY616  TRP617  ASP618  TYR619  PRO620  LYS621  CYS622 
 ASP623  PHE694  ASN695  SER759  ASP760  ASP761  ALA762  ILE779  LEU786  VAL792 
 PHE793  MET794  SER795  GLU796  ALA797  LYS798  CYS799  TRP800  GLU811  SER814 

> <Gold.Protein.RotatedAtoms>
  152.1395  133.4455  159.4759 H   0  0  0  0  0  0  0  0  0  0  0  0  # atno 6907 bound_to 6896
  150.6885  134.2322  159.4448 H   0  0  0  0  0  0  0  0  0  0  0  0  # atno 6908 bound_to 6896
  152.0212  134.9821  160.0621 H   0  0  0  0  0  0  0  0  0  0  0  0  # atno 6909 bound_to 6896
  145.6157  140.9375  143.1165 H   0  0  0  0  0  0  0  0  0  0  0  0  # atno 7974 bound_to 7965
  154.4757  140.0905  156.7256 H   0  0  0  0  0  0  0  0  0  0  0  0  # atno 8008 bound_to 7997
  155.4603  140.3461  155.4293 H   0  0  0  0  0  0  0  0  0  0  0  0  # atno 8009 bound_to 7997
  156.1112  140.1448  156.9323 H   0  0  0  0  0  0  0  0  0  0  0  0  # atno 8010 bound_to 7997
  139.5060  144.6258  151.5941 H   0  0  0  0  0  0  0  0  0  0  0  0  # atno 10167 bound_to 10162
  156.0386  130.5608  150.7667 H   0  0  0  0  0  0  0  0  0  0  0  0  # atno 10718 bound_to 10713
  153.5802  135.3485  155.2872 H   0  0  0  0  0  0  0  0  0  0  0  0  # atno 10763 bound_to 10752
  154.8669  135.4180  154.2629 H   0  0  0  0  0  0  0  0  0  0  0  0  # atno 10764 bound_to 10752
  153.3414  135.7050  153.6935 H   0  0  0  0  0  0  0  0  0  0  0  0  # atno 10765 bound_to 10752
  139.9934  134.9506  156.9909 H   0  0  0  0  0  0  0  0  0  0  0  0  # atno 11005 bound_to 11000
  144.7251  139.7901  143.7368 LP  0  0  0  0  0  0  0  0  0  0  0  0  # atno 17320 bound_to 7965
  146.1470  139.4542  143.0073 LP  0  0  0  0  0  0  0  0  0  0  0  0  # atno 17321 bound_to 7965
  140.5974  143.9671  150.6363 LP  0  0  0  0  0  0  0  0  0  0  0  0  # atno 17342 bound_to 10162
  140.2872  143.3349  152.1096 LP  0  0  0  0  0  0  0  0  0  0  0  0  # atno 17343 bound_to 10162
  157.5171  131.0929  151.0125 LP  0  0  0  0  0  0  0  0  0  0  0  0  # atno 17370 bound_to 10713
  157.0465  130.5770  149.5364 LP  0  0  0  0  0  0  0  0  0  0  0  0  # atno 17371 bound_to 10713
  140.4864  134.1237  155.7225 LP  0  0  0  0  0  0  0  0  0  0  0  0  # atno 17394 bound_to 11000
  141.1585  133.8838  157.1913 LP  0  0  0  0  0  0  0  0  0  0  0  0  # atno 17395 bound_to 11000

$$$$
