#       Name:                AV-unprocessed.smi:3106
#       Creating user name   scv26
#       Creation time:       Fri Mar 27 17:19:49 2020


#       File generated by GOLD software.
#

@<TRIPOS>MOLECULE
AV-unprocessed.smi:3106
    34    35     1
SMALL
NO_CHARGES


@<TRIPOS>ATOM
      1 ****        -5.5228  -0.5646   0.0126 C.3            1 S1                 0.0000
      2 ****        -4.0105  -0.5193   0.0703 C.ar           1 S1                 0.0000
      3 ****        -3.2335  -1.5576  -0.4769 C.ar           1 S1                 0.0000
      4 ****        -1.8303  -1.4678  -0.4002 C.ar           1 S1                 0.0000
      5 ****        -1.2376  -0.3448   0.2197 C.ar           1 S1                 0.0000
      6 ****         0.1820  -0.3526   0.2454 N.am           1 S1                 0.0000
      7 ****         1.0162   0.5744   0.7542 C.2            1 S1                 0.0000
      8 ****         0.6498   1.6075   1.3154 O.2            1 S1                 0.0000
      9 ****         2.5166   0.2746   0.6281 C.3            1 S1                 0.0000
     10 ****         3.3913   1.5150   0.4234 C.3            1 S1                 0.0000
     11 ****         4.5855   0.9312  -0.2969 C.3            1 S1                 0.0000
     12 ****         3.9318  -0.1092  -1.2003 C.3            1 S1                 0.0000
     13 ****         2.7649  -0.5509  -0.5112 O.3            1 S1                 0.0000
     14 ****        -1.9951   0.6516   0.7425 N.ar           1 S1                 0.0000
     15 ****        -3.3398   0.5652   0.6684 C.ar           1 S1                 0.0000
     16 ****        -5.8814  -1.5934   0.0583 H              1 S1                 0.0000
     17 ****        -5.8770  -0.1171  -0.9162 H              1 S1                 0.0000
     18 ****        -5.9596  -0.0165   0.8479 H              1 S1                 0.0000
     19 ****        -3.7015  -2.4095  -0.9481 H              1 S1                 0.0000
     20 ****        -1.2190  -2.2562  -0.8147 H              1 S1                 0.0000
     21 ****         0.6215  -1.1543  -0.1826 H              1 S1                 0.0000
     22 ****         2.8488  -0.2675   1.5146 H              1 S1                 0.0000
     23 ****         2.8948   2.2515  -0.2112 H              1 S1                 0.0000
     24 ****         3.6649   1.9991   1.3613 H              1 S1                 0.0000
     25 ****         5.1616   1.6745  -0.8487 H              1 S1                 0.0000
     26 ****         5.2500   0.4438   0.4179 H              1 S1                 0.0000
     27 ****         3.6238   0.3460  -2.1424 H              1 S1                 0.0000
     28 ****         4.5994  -0.9405  -1.4282 H              1 S1                 0.0000
     29 ****        -3.8940   1.3862   1.0990 H              1 S1                 0.0000
     30 ****        -0.3258   1.8023   1.4171 LP             1 S1                 0.0000
     31 ****         1.3278   2.2517   1.6694 LP             1 S1                 0.0000
     32 ****         1.9800  -0.5044  -1.1291 LP             1 S1                 0.0000
     33 ****         2.8973  -1.4955  -0.2111 LP             1 S1                 0.0000
     34 ****        -1.5622   1.4410   1.1777 LP             1 S1                 0.0000
@<TRIPOS>BOND
    1    1    2 1     
    2    1   16 1     
    3    1   17 1     
    4    1   18 1     
    5    2   15 ar    
    6    2    3 ar    
    7    3    4 ar    
    8    3   19 1     
    9    4    5 ar    
   10    4   20 1     
   11    5    6 1     
   12    5   14 ar    
   13    6    7 am    
   14    6   21 1     
   15    7    8 2     
   16    7    9 1     
   17    9   13 1     
   18    9   10 1     
   19    9   22 1     
   20   10   11 1     
   21   10   23 1     
   22   10   24 1     
   23   11   12 1     
   24   11   25 1     
   25   11   26 1     
   26   12   13 1     
   27   12   27 1     
   28   12   28 1     
   29   14   15 ar    
   30   15   29 1     
   31    8   30 1     
   32    8   31 1     
   33   13   32 1     
   34   13   33 1     
   35   14   34 1     
@<TRIPOS>SUBSTRUCTURE
      1 S1             1
@<TRIPOS>SET
LONE_PAIRS      STATIC     ATOMS    <user>   **** ""
5 30 31 32 33 34
DONOR_HYDROGENS      STATIC     ATOMS    <user>   **** ""
1 21
ATOM$BLUE        STATIC     ATOMS    COLORGROUP SYSTEM
5 30 31 32 33 34
ATOM$RED        STATIC     ATOMS    COLORGROUP SYSTEM
1 21
