AV-unprocessed.smi:2731|AV-procd|sdf|10531|dock10
  -GOLD-   2272014573D 1   1.00000     0.00000
 Structure written by MMmdl.
 46 47  0  0  0  0  0  0  0  0  2 V2000
  148.9726  141.0668  154.4041 C   0  0  0  0  0  0  0  0  0  0  0  0
  149.8387  141.3930  155.5735 C   0  0  0  0  0  0  0  0  0  0  0  0
  150.0396  142.6498  156.0522 N   0  3  0  0  0  0  0  0  0  0  0  0
  150.8815  142.6203  157.0951 N   0  0  0  0  0  0  0  0  0  0  0  0
  151.2326  143.8774  157.7566 C   0  0  0  0  0  0  0  0  0  0  0  0
  151.2683  141.3378  157.3509 C   0  0  0  0  0  0  0  0  0  0  0  0
  152.2122  140.9268  158.4342 C   0  0  0  0  0  0  0  0  0  0  0  0
  150.6167  140.5598  156.3850 C   0  0  0  0  0  0  0  0  0  0  0  0
  150.7520  139.0692  156.2217 C   0  0  0  0  0  0  0  0  0  0  0  0
  150.8487  138.3027  157.5564 C   0  0  0  0  0  0  0  0  0  0  0  0
  149.5966  137.6374  157.9103 N   0  0  0  0  0  0  0  0  0  0  0  0
  149.3421  137.0348  159.0824 C   0  0  0  0  0  0  0  0  0  0  0  0
  150.1736  136.9468  159.9875 O   0  0  0  0  0  0  0  0  0  0  0  0
  147.9273  136.4669  159.2540 C   0  0  0  0  0  0  0  0  0  0  0  0
  147.7661  135.7210  160.5094 N   0  0  0  0  0  0  0  0  0  0  0  0
  147.8476  134.2569  160.4346 C   0  0  0  0  0  0  0  0  0  0  0  0
  146.6668  133.6089  161.1774 C   0  0  0  0  0  0  0  0  0  0  0  0
  146.5157  134.1392  162.6178 C   0  0  0  0  0  0  0  0  0  0  0  0
  147.3246  135.4221  162.9129 C   0  0  0  0  0  0  0  0  0  0  0  0
  147.4847  136.3283  161.6854 C   0  0  0  0  0  0  0  0  0  0  0  0
  147.3658  137.5467  161.8122 O   0  0  0  0  0  0  0  0  0  0  0  0
  149.5888  140.8662  153.5275 H   0  0  0  0  0  0  0  0  0  0  0  0
  148.3049  141.8982  154.1768 H   0  0  0  0  0  0  0  0  0  0  0  0
  148.3678  140.1852  154.6148 H   0  0  0  0  0  0  0  0  0  0  0  0
  150.6279  143.9858  158.6572 H   0  0  0  0  0  0  0  0  0  0  0  0
  151.0472  144.7178  157.0862 H   0  0  0  0  0  0  0  0  0  0  0  0
  152.2891  143.8610  158.0250 H   0  0  0  0  0  0  0  0  0  0  0  0
  153.1974  140.7258  158.0135 H   0  0  0  0  0  0  0  0  0  0  0  0
  151.8535  140.0238  158.9273 H   0  0  0  0  0  0  0  0  0  0  0  0
  152.3084  141.7082  159.1879 H   0  0  0  0  0  0  0  0  0  0  0  0
  149.9094  138.6761  155.6529 H   0  0  0  0  0  0  0  0  0  0  0  0
  151.6326  138.8426  155.6201 H   0  0  0  0  0  0  0  0  0  0  0  0
  151.6288  137.5445  157.4852 H   0  0  0  0  0  0  0  0  0  0  0  0
  151.1594  138.9780  158.3554 H   0  0  0  0  0  0  0  0  0  0  0  0
  148.8616  137.6535  157.2178 H   0  0  0  0  0  0  0  0  0  0  0  0
  147.2056  137.2849  159.2294 H   0  0  0  0  0  0  0  0  0  0  0  0
  147.6922  135.8418  158.3911 H   0  0  0  0  0  0  0  0  0  0  0  0
  147.8532  133.9194  159.3977 H   0  0  0  0  0  0  0  0  0  0  0  0
  148.7933  133.9326  160.8712 H   0  0  0  0  0  0  0  0  0  0  0  0
  145.7517  133.8255  160.6242 H   0  0  0  0  0  0  0  0  0  0  0  0
  146.7676  132.5234  161.1816 H   0  0  0  0  0  0  0  0  0  0  0  0
  145.4595  134.3143  162.8260 H   0  0  0  0  0  0  0  0  0  0  0  0
  146.8294  133.3655  163.3192 H   0  0  0  0  0  0  0  0  0  0  0  0
  146.8688  135.9752  163.7349 H   0  0  0  0  0  0  0  0  0  0  0  0
  148.3275  135.1500  163.2443 H   0  0  0  0  0  0  0  0  0  0  0  0
  149.6507  143.5224  155.7178 H   0  0  0  0  0  0  0  0  0  0  0  0
  1  2  1  0  0  0  0
  1 22  1  0  0  0  0
  1 23  1  0  0  0  0
  1 24  1  0  0  0  0
  2  8  1  0  0  0  0
  2  3  2  0  0  0  0
  3  4  1  0  0  0  0
  3 46  1  0  0  0  0
  4  5  1  0  0  0  0
  4  6  1  0  0  0  0
  5 25  1  0  0  0  0
  5 26  1  0  0  0  0
  5 27  1  0  0  0  0
  6  7  1  0  0  0  0
  6  8  2  0  0  0  0
  7 28  1  0  0  0  0
  7 29  1  0  0  0  0
  7 30  1  0  0  0  0
  8  9  1  0  0  0  0
  9 10  1  0  0  0  0
  9 31  1  0  0  0  0
  9 32  1  0  0  0  0
 10 11  1  0  0  0  0
 10 33  1  0  0  0  0
 10 34  1  0  0  0  0
 11 12  1  0  0  0  0
 11 35  1  0  0  0  0
 12 13  2  0  0  0  0
 12 14  1  0  0  0  0
 14 15  1  0  0  0  0
 14 36  1  0  0  0  0
 14 37  1  0  0  0  0
 15 20  1  0  0  0  0
 15 16  1  0  0  0  0
 16 17  1  0  0  0  0
 16 38  1  0  0  0  0
 16 39  1  0  0  0  0
 17 18  1  0  0  0  0
 17 40  1  0  0  0  0
 17 41  1  0  0  0  0
 18 19  1  0  0  0  0
 18 42  1  0  0  0  0
 18 43  1  0  0  0  0
 19 20  1  0  0  0  0
 19 44  1  0  0  0  0
 19 45  1  0  0  0  0
 20 21  2  0  0  0  0
M  CHG  1   3   1
M  END
> <s_m_source_file>
AV-unprocessed.smi

> <i_m_source_file_index>
2731

> <i_lp_mmshare_version>
43012

> <i_f3d_flags>
0

> <s_epik_input>
W0NIM11jMW5uKFtDSDNdKWMoW0NIM10pYzFbQ0gyXVtDSDJdW05IXUMoPU8pW0NIMl1OMltDSDJdW0NIMl1bQ0gyXVtDSDJdQzI9Tw==

> <s_epik_cmdline>
J2VwaWtfcHl0aG9uJywgJy1waCcsICc3LjAnLCAnLXRuJywgJzgnLCAnLW1hJywgJzIwMCcsICctbWV0YWxfYmluZGluZycsICctaW1hZScsICc8aW5maWxlLm1hZT4nLCAnLW9tYWUnLCAnPG91dGZpbGUubWFlPic=

> <r_lp_tautomer_probability>
1

> <r_epik_Ionization_Penalty>
2.35701

> <r_epik_Ionization_Penalty_Charging>
2.357

> <r_epik_Ionization_Penalty_Neutral>
2.49505e-07

> <r_epik_State_Penalty>
2.51177

> <r_epik_Charging_Adjusted_Penalty>
4.86877

> <i_epik_Tot_Q>
1

> <i_epik_Tot_abs_Q>
1

> <r_epik_Metal_State_Penalty>
2.52284

> <b_epik_Metal_Only>
0

> <s_lp_Force_Field>
OPLS_2005

> <r_lp_Energy>
19.064

> <b_lp_Chiralities_Consistent>
1

> <s_lp_Variant>
AV-unprocessed.smi:2731-2

> <Gold.Version>
5.8.1

> <Gold.Id.Protein>
6NUR|6NUR_protein|mol2

> <Gold.PLP.Fitness>
54.7646

> <Gold.PLP.PLP>
-43.0959

> <Gold.PLP.part.hbond>
-4.4782

> <Gold.PLP.part.metal>
0.0000

> <Gold.PLP.part.buried>
-3.7713

> <Gold.PLP.part.nonpolar>
-36.2983

> <Gold.PLP.part.repulsive>
0.2125

> <Gold.PLP.ligand.clash>
0.0000

> <Gold.PLP.ligand.torsion>
1.0067

> <Gold.PLP.Chemscore.Hbond>
4.5520

> <Gold.PLP.Chemscore.CHOScore>
0.0000

> <Gold.PLP.Chemscore.Metal>
0.0000

> <Gold.Chemscore.Hbonds>
donor molecule, donor type, donor heavy atom, donor atom, acceptor molecule, acceptor atom, score
      L1  H     3    46       P1  8028  1.43
      P1  H  6896  6909       L1    13  0.78
      P1  H  6931  6943       L1    21  0.72
      P1  H  6934  6947       L1    21  0.70

> <Gold.PLP.Chemscore.Internal.Correction>
0.0262

> <Gold.Rescore>
     Score         DG    S(hbond)    S(metal)    S(lipo)     H(rot)  DE(clash)    DE(int)     intcor
     22.29     -23.19       3.73        0.00      85.27       1.85       0.04       0.86       ----

> <Gold.Chemscore.Fitness>
22.2879

> <Gold.Chemscore.DG>
-23.1875

> <Gold.Chemscore.ZeroCoef>
-5.4800

> <Gold.Chemscore.Hbond>
3.7326

> <Gold.Chemscore.Metal>
0.0000

> <Gold.Chemscore.Lipo>
85.2707

> <Gold.Chemscore.Internal_Hbond>
0.0000

> <Gold.Chemscore.DEClash>
0.0427

> <Gold.Chemscore.DEInternal>
0.8568

> <Gold.Chemscore.Rot>
1.8501

> <Gold.Chemscore.Internal.Correction>
   9.000000E+99

> <Gold.Chemscore.Hbonds>
donor molecule, donor type, donor heavy atom, donor atom, acceptor molecule, acceptor atom, score
      L1  H     3    46       P1  8028  0.73
      P1  H  6896  6909       L1    13  0.65
      P1  H  6931  6943       L1    21  0.47
      P1  H  6934  6947       L1    21  0.70

> <Gold.Chemscore.Hbond.Weighted>
-12.4670

> <Gold.Chemscore.Metal.Weighted>
-0.0000

> <Gold.Chemscore.Lipo.Weighted>
-9.9767

> <Gold.Chemscore.Internal_Hbond.Weighted>
0.0000

> <Gold.Chemscore.DEClash.Weighted>
0.0427

> <Gold.Chemscore.DEInternal.Weighted>
0.8568

> <Gold.Chemscore.Rot.Weighted>
4.7362

> <Gold.Chemscore.Internal.Correction.Weighted>
   9.000000E+99

> <Gold.Protein.RotatedTorsions>
[ 6907 6896 6895 6894 ] final  103.65 input  -60.11 | X-H torsion
[ 7974 7965 7964 7962 ] final   99.80 input  175.53 | X-H torsion
[ 8008 7997 7996 7995 ] final  -80.22 input   59.86 | X-H torsion
[ 10167 10162 10161 10158 ] final  -27.56 input  -65.29 | X-H torsion
[ 10718 10713 10712 10709 ] final  -62.37 input   66.30 | X-H torsion
[ 10763 10752 10751 10750 ] final -173.70 input  -60.55 | X-H torsion
[ 11005 11000 10999 10996 ] final   15.89 input  -57.11 | X-H torsion

> <Gold.Protein.ActiveResidues>
 VAL166  LYS551  ARG553  GLY616  TRP617  ASP618  TYR619  PRO620  LYS621  CYS622 
 ASP623  PHE694  ASN695  SER759  ASP760  ASP761  ALA762  ILE779  LEU786  VAL792 
 PHE793  MET794  SER795  GLU796  ALA797  LYS798  CYS799  TRP800  GLU811  SER814 

> <Gold.Protein.RotatedAtoms>
  152.5289  133.9794  159.7799 H   0  0  0  0  0  0  0  0  0  0  0  0  # atno 6907 bound_to 6896
  151.0050  133.6011  159.2697 H   0  0  0  0  0  0  0  0  0  0  0  0  # atno 6908 bound_to 6896
  151.3106  135.0799  159.9324 H   0  0  0  0  0  0  0  0  0  0  0  0  # atno 6909 bound_to 6896
  145.3940  139.2358  143.3336 H   0  0  0  0  0  0  0  0  0  0  0  0  # atno 7974 bound_to 7965
  154.5862  140.0666  156.9174 H   0  0  0  0  0  0  0  0  0  0  0  0  # atno 8008 bound_to 7997
  155.2376  140.3342  155.4278 H   0  0  0  0  0  0  0  0  0  0  0  0  # atno 8009 bound_to 7997
  156.2224  140.1804  156.7430 H   0  0  0  0  0  0  0  0  0  0  0  0  # atno 8010 bound_to 7997
  140.7276  143.4083  151.1149 H   0  0  0  0  0  0  0  0  0  0  0  0  # atno 10167 bound_to 10162
  156.0860  130.4208  150.1125 H   0  0  0  0  0  0  0  0  0  0  0  0  # atno 10718 bound_to 10713
  154.6048  135.2858  155.0497 H   0  0  0  0  0  0  0  0  0  0  0  0  # atno 10763 bound_to 10752
  154.1748  135.6466  153.5022 H   0  0  0  0  0  0  0  0  0  0  0  0  # atno 10764 bound_to 10752
  153.0171  135.5409  154.6780 H   0  0  0  0  0  0  0  0  0  0  0  0  # atno 10765 bound_to 10752
  140.4532  134.1203  155.7705 H   0  0  0  0  0  0  0  0  0  0  0  0  # atno 11005 bound_to 11000
  146.2784  140.4628  142.8786 LP  0  0  0  0  0  0  0  0  0  0  0  0  # atno 17320 bound_to 7965
  144.8420  140.6871  143.6223 LP  0  0  0  0  0  0  0  0  0  0  0  0  # atno 17321 bound_to 7965
  139.7712  143.8491  152.3121 LP  0  0  0  0  0  0  0  0  0  0  0  0  # atno 17342 bound_to 10162
  139.8410  144.7210  150.9331 LP  0  0  0  0  0  0  0  0  0  0  0  0  # atno 17343 bound_to 10162
  156.9146  130.9663  151.3558 LP  0  0  0  0  0  0  0  0  0  0  0  0  # atno 17370 bound_to 10713
  157.5994  130.8501  149.8778 LP  0  0  0  0  0  0  0  0  0  0  0  0  # atno 17371 bound_to 10713
  141.1655  133.8712  157.1728 LP  0  0  0  0  0  0  0  0  0  0  0  0  # atno 17394 bound_to 11000
  139.9993  135.0034  157.0154 LP  0  0  0  0  0  0  0  0  0  0  0  0  # atno 17395 bound_to 11000

$$$$
