#       Name:                AV-unprocessed.smi:653
#       Creating user name   scv26
#       Creation time:       Fri Mar 27 00:14:57 2020


#       File generated by GOLD software.
#

@<TRIPOS>MOLECULE
AV-unprocessed.smi:653
    49    50     1
SMALL
NO_CHARGES


@<TRIPOS>ATOM
      1 ****        -4.7873   2.5508  -4.4463 C.3            1 S1                 0.0000
      2 ****        -4.2744   1.8829  -3.1880 C.ar           1 S1                 0.0000
      3 ****        -4.0799   0.4876  -3.1013 C.ar           1 S1                 0.0000
      4 ****        -3.5927  -0.0665  -1.8994 C.ar           1 S1                 0.0000
      5 ****        -3.3080   0.7846  -0.8085 C.ar           1 S1                 0.0000
      6 ****        -2.7764   0.2199   0.4969 C.3            1 S1                 0.0000
      7 ****        -1.2610   0.4051   0.5794 C.2            1 S1                 0.0000
      8 ****        -0.7907   1.3259   1.2464 O.2            1 S1                 0.0000
      9 ****        -0.5111  -0.4725  -0.1050 N.am           1 S1                 0.0000
     10 ****         0.9469  -0.4693  -0.1533 C.3            1 S1                 0.0000
     11 ****         1.5647  -1.1421   1.0880 C.3            1 S1                 0.0000
     12 ****         1.1920  -2.6027   1.2569 C.3            1 S1                 0.0000
     13 ****         2.2771  -3.0884   2.2098 C.3            1 S1                 0.0000
     14 ****         3.4471  -2.3616   1.8507 O.3            1 S1                 0.0000
     15 ****         3.0988  -1.2291   1.0549 C.3            1 S1                 0.0000
     16 ****         3.8614   0.0343   1.5162 C.3            1 S1                 0.0000
     17 ****         5.3546  -0.0728   1.1694 C.3            1 S1                 0.0000
     18 ****         3.6754   0.3499   3.0120 C.3            1 S1                 0.0000
     19 ****        -3.5245   2.1724  -0.9530 C.ar           1 S1                 0.0000
     20 ****        -3.9917   2.6642  -2.1213 N.pl3          1 S1                 1.0000
     21 ****        -5.2107   1.8176  -5.1334 H              1 S1                 0.0000
     22 ****        -3.9747   3.0683  -4.9569 H              1 S1                 0.0000
     23 ****        -5.5636   3.2783  -4.2071 H              1 S1                 0.0000
     24 ****        -4.2990  -0.1521  -3.9440 H              1 S1                 0.0000
     25 ****        -3.4366  -1.1326  -1.8196 H              1 S1                 0.0000
     26 ****        -3.2560   0.7260   1.3361 H              1 S1                 0.0000
     27 ****        -3.0270  -0.8385   0.5828 H              1 S1                 0.0000
     28 ****        -0.9816  -1.1994  -0.6242 H              1 S1                 0.0000
     29 ****         1.2551  -0.9937  -1.0582 H              1 S1                 0.0000
     30 ****         1.3133   0.5537  -0.2524 H              1 S1                 0.0000
     31 ****         1.2424  -0.6117   1.9836 H              1 S1                 0.0000
     32 ****         0.1864  -2.7481   1.6527 H              1 S1                 0.0000
     33 ****         1.2663  -3.1309   0.3052 H              1 S1                 0.0000
     34 ****         2.0161  -2.8405   3.2394 H              1 S1                 0.0000
     35 ****         2.4388  -4.1647   2.1490 H              1 S1                 0.0000
     36 ****         3.3988  -1.4713   0.0340 H              1 S1                 0.0000
     37 ****         3.4682   0.8812   0.9527 H              1 S1                 0.0000
     38 ****         5.8263  -0.9005   1.7002 H              1 S1                 0.0000
     39 ****         5.8873   0.8401   1.4370 H              1 S1                 0.0000
     40 ****         5.5014  -0.2360   0.1015 H              1 S1                 0.0000
     41 ****         4.0219  -0.4726   3.6387 H              1 S1                 0.0000
     42 ****         2.6338   0.5448   3.2637 H              1 S1                 0.0000
     43 ****         4.2410   1.2381   3.2948 H              1 S1                 0.0000
     44 ****        -3.3335   2.8995  -0.1768 H              1 S1                 0.0000
     45 ****        -4.1365   3.6710  -2.2024 H              1 S1                 0.0000
     46 ****        -1.3994   1.9520   1.7337 LP             1 S1                 0.0000
     47 ****         0.2003   1.4482   1.3012 LP             1 S1                 0.0000
     48 ****         4.0585  -2.9565   1.3289 LP             1 S1                 0.0000
     49 ****         3.9114  -2.0520   2.6805 LP             1 S1                 0.0000
@<TRIPOS>BOND
    1    1    2 1     
    2    1   21 1     
    3    1   22 1     
    4    1   23 1     
    5    2   20 ar    
    6    2    3 ar    
    7    3    4 ar    
    8    3   24 1     
    9    4    5 ar    
   10    4   25 1     
   11    5    6 1     
   12    5   19 ar    
   13    6    7 1     
   14    6   26 1     
   15    6   27 1     
   16    7    8 2     
   17    7    9 am    
   18    9   10 1     
   19    9   28 1     
   20   10   11 1     
   21   10   29 1     
   22   10   30 1     
   23   11   15 1     
   24   11   12 1     
   25   11   31 1     
   26   12   13 1     
   27   12   32 1     
   28   12   33 1     
   29   13   14 1     
   30   13   34 1     
   31   13   35 1     
   32   14   15 1     
   33   15   16 1     
   34   15   36 1     
   35   16   17 1     
   36   16   18 1     
   37   16   37 1     
   38   17   38 1     
   39   17   39 1     
   40   17   40 1     
   41   18   41 1     
   42   18   42 1     
   43   18   43 1     
   44   19   20 ar    
   45   19   44 1     
   46   20   45 1     
   47    8   46 1     
   48    8   47 1     
   49   14   48 1     
   50   14   49 1     
@<TRIPOS>SUBSTRUCTURE
      1 S1             1
@<TRIPOS>SET
LONE_PAIRS      STATIC     ATOMS    <user>   **** ""
4 46 47 48 49
DONOR_HYDROGENS      STATIC     ATOMS    <user>   **** ""
2 28 45
ATOM$BLUE        STATIC     ATOMS    COLORGROUP SYSTEM
4 46 47 48 49
ATOM$RED        STATIC     ATOMS    COLORGROUP SYSTEM
2 28 45
