AV-unprocessed.smi:1032|AV-procd|sdf|4486|dock3
  -GOLD-   22720 2463D 1   1.00000     0.00000
 Structure written by MMmdl.
 47 48  0  0  0  0  0  0  0  0  3 V2000
  154.3634  126.3101  155.9163 C   0  0  0  0  0  0  0  0  0  0  0  0
  153.2085  127.3069  155.7445 C   0  0  2  0  0  0  0  0  0  0  0  0
  151.9228  126.6154  155.2610 C   0  0  0  0  0  0  0  0  0  0  0  0
  150.7825  127.6292  155.0659 C   0  0  0  0  0  0  0  0  0  0  0  0
  151.1774  128.7037  154.1161 N   0  3  1  0  0  0  0  0  0  0  0  0
  150.0743  129.6461  153.7941 C   0  0  0  0  0  0  0  0  0  0  0  0
  149.8717  130.7311  154.8726 C   0  0  2  0  0  0  0  0  0  0  0  0
  148.8186  130.3058  155.7152 O   0  0  0  0  0  0  0  0  0  0  0  0
  149.4652  132.0795  154.2428 C   0  0  0  0  0  0  0  0  0  0  0  0
  148.6669  131.9016  153.0331 N   0  0  0  0  0  0  0  0  0  0  0  0
  147.4134  132.3489  152.8690 C   0  0  0  0  0  0  0  0  0  0  0  0
  146.7841  132.9361  153.7492 O   0  0  0  0  0  0  0  0  0  0  0  0
  146.9416  132.0519  151.6459 N   0  0  0  0  0  0  0  0  0  0  0  0
  145.6871  132.4043  151.0780 C   0  0  0  0  0  0  0  0  0  0  0  0
  144.7163  132.9755  151.9307 C   0  0  0  0  0  0  0  0  0  0  0  0
  143.4520  133.3214  151.4115 C   0  0  0  0  0  0  0  0  0  0  0  0
  143.1743  133.0939  150.1098 N   0  3  0  0  0  0  0  0  0  0  0  0
  144.0632  132.5358  149.2605 C   0  0  0  0  0  0  0  0  0  0  0  0
  145.3446  132.1707  149.7218 C   0  0  0  0  0  0  0  0  0  0  0  0
  152.3996  129.4119  154.5768 C   0  0  0  0  0  0  0  0  0  0  0  0
  153.5726  128.4359  154.7662 C   0  0  0  0  0  0  0  0  0  0  0  0
  154.6202  125.8310  154.9707 H   0  0  0  0  0  0  0  0  0  0  0  0
  154.1030  125.5255  156.6271 H   0  0  0  0  0  0  0  0  0  0  0  0
  155.2583  126.8081  156.2906 H   0  0  0  0  0  0  0  0  0  0  0  0
  153.0080  127.7527  156.7199 H   0  0  0  0  0  0  0  0  0  0  0  0
  152.1123  126.0951  154.3209 H   0  0  0  0  0  0  0  0  0  0  0  0
  151.6164  125.8533  155.9785 H   0  0  0  0  0  0  0  0  0  0  0  0
  149.9038  127.0988  154.7018 H   0  0  0  0  0  0  0  0  0  0  0  0
  150.5075  128.0718  156.0246 H   0  0  0  0  0  0  0  0  0  0  0  0
  150.2711  130.1031  152.8231 H   0  0  0  0  0  0  0  0  0  0  0  0
  149.1396  129.0933  153.6843 H   0  0  0  0  0  0  0  0  0  0  0  0
  150.7782  130.8551  155.4638 H   0  0  0  0  0  0  0  0  0  0  0  0
  148.1055  130.9222  155.6411 H   0  0  0  0  0  0  0  0  0  0  0  0
  148.8802  132.6635  154.9558 H   0  0  0  0  0  0  0  0  0  0  0  0
  150.3426  132.6860  154.0137 H   0  0  0  0  0  0  0  0  0  0  0  0
  149.1104  131.4248  152.2614 H   0  0  0  0  0  0  0  0  0  0  0  0
  147.5333  131.4732  151.0680 H   0  0  0  0  0  0  0  0  0  0  0  0
  144.9364  133.1540  152.9733 H   0  0  0  0  0  0  0  0  0  0  0  0
  142.6594  133.7667  151.9950 H   0  0  0  0  0  0  0  0  0  0  0  0
  143.7234  132.3927  148.2451 H   0  0  0  0  0  0  0  0  0  0  0  0
  146.0329  131.7067  149.0317 H   0  0  0  0  0  0  0  0  0  0  0  0
  152.6841  130.1708  153.8467 H   0  0  0  0  0  0  0  0  0  0  0  0
  152.1885  129.9341  155.5116 H   0  0  0  0  0  0  0  0  0  0  0  0
  154.4451  128.9791  155.1309 H   0  0  0  0  0  0  0  0  0  0  0  0
  153.8534  128.0138  153.8002 H   0  0  0  0  0  0  0  0  0  0  0  0
  151.4241  128.2542  153.2456 H   0  0  0  0  0  0  0  0  0  0  0  0
  142.2524  133.3492  149.7542 H   0  0  0  0  0  0  0  0  0  0  0  0
  1  2  1  0  0  0  0
  1 22  1  0  0  0  0
  1 23  1  0  0  0  0
  1 24  1  0  0  0  0
  2 21  1  0  0  0  0
  2  3  1  0  0  0  0
  2 25  1  0  0  0  0
  3  4  1  0  0  0  0
  3 26  1  0  0  0  0
  3 27  1  0  0  0  0
  4  5  1  0  0  0  0
  4 28  1  0  0  0  0
  4 29  1  0  0  0  0
  5  6  1  0  0  0  0
  5 20  1  0  0  0  0
  5 46  1  0  0  0  0
  6  7  1  0  0  0  0
  6 30  1  0  0  0  0
  6 31  1  0  0  0  0
  7  8  1  0  0  0  0
  7  9  1  0  0  0  0
  7 32  1  0  0  0  0
  8 33  1  0  0  0  0
  9 10  1  0  0  0  0
  9 34  1  0  0  0  0
  9 35  1  0  0  0  0
 10 11  1  0  0  0  0
 10 36  1  0  0  0  0
 11 12  2  0  0  0  0
 11 13  1  0  0  0  0
 13 14  1  0  0  0  0
 13 37  1  0  0  0  0
 14 19  1  0  0  0  0
 14 15  2  0  0  0  0
 15 16  1  0  0  0  0
 15 38  1  0  0  0  0
 16 17  2  0  0  0  0
 16 39  1  0  0  0  0
 17 18  1  0  0  0  0
 17 47  1  0  0  0  0
 18 19  2  0  0  0  0
 18 40  1  0  0  0  0
 19 41  1  0  0  0  0
 20 21  1  0  0  0  0
 20 42  1  0  0  0  0
 20 43  1  0  0  0  0
 21 44  1  0  0  0  0
 21 45  1  0  0  0  0
M  CHG  1   5   1
M  CHG  1  17   1
M  END
> <s_m_source_file>
AV-unprocessed.smi

> <i_m_source_file_index>
1032

> <i_lp_mmshare_version>
43012

> <i_f3d_flags>
0

> <s_epik_input>
W0NIM11bQ0hdMVtDSDJdW0NIMl1OKFtDSDJdW0NIMl0xKVtDSDJdW0NASF0oW09IXSlbQ0gyXVtOSF1DKD1PKVtOSF1jMltjSF1bY0hdbltjSF1bY0hdMg==

> <s_epik_cmdline>
J2VwaWtfcHl0aG9uJywgJy1waCcsICc3LjAnLCAnLXRuJywgJzgnLCAnLW1hJywgJzIwMCcsICctbWV0YWxfYmluZGluZycsICctaW1hZScsICc8aW5maWxlLm1hZT4nLCAnLW9tYWUnLCAnPG91dGZpbGUubWFlPic=

> <r_epik_Ionization_Penalty>
1.02509

> <r_epik_Ionization_Penalty_Charging>
1.02507

> <r_epik_Ionization_Penalty_Neutral>
1.85474e-05

> <r_epik_State_Penalty>
1.07411

> <r_epik_Charging_Adjusted_Penalty>
2.09917

> <i_epik_Tot_Q>
2

> <i_epik_Tot_abs_Q>
2

> <r_epik_Metal_State_Penalty>
1.1725

> <b_epik_Metal_Only>
0

> <s_lp_Force_Field>
OPLS_2005

> <r_lp_Energy>
32.4913

> <b_lp_Chiralities_Consistent>
1

> <s_lp_Variant>
AV-unprocessed.smi:1032-5

> <Gold.Version>
5.8.1

> <Gold.Id.Protein>
6NUR|6NUR_protein|mol2

> <Gold.PLP.Fitness>
47.3013

> <Gold.PLP.PLP>
-34.3051

> <Gold.PLP.part.hbond>
-4.0000

> <Gold.PLP.part.metal>
0.0000

> <Gold.PLP.part.buried>
-6.2790

> <Gold.PLP.part.nonpolar>
-24.6500

> <Gold.PLP.part.repulsive>
0.2232

> <Gold.PLP.ligand.clash>
0.0000

> <Gold.PLP.ligand.torsion>
0.9798

> <Gold.PLP.Chemscore.Hbond>
4.9600

> <Gold.PLP.Chemscore.CHOScore>
0.0000

> <Gold.PLP.Chemscore.Metal>
0.0000

> <Gold.Chemscore.Hbonds>
donor molecule, donor type, donor heavy atom, donor atom, acceptor molecule, acceptor atom, score
      L1  H     5    46       P1 10737  1.00
      L1  H    10    36       P1 10747  0.94
      L1  H    13    37       P1 10747  1.00
      L1  H    17    47       P1 10186  2.00

> <Gold.PLP.Chemscore.Internal.Correction>
0.0757

> <Gold.Rescore>
     Score         DG    S(hbond)    S(metal)    S(lipo)     H(rot)  DE(clash)    DE(int)     intcor
     17.97     -20.87       3.51        0.00      82.58       2.34       0.62       2.27       ----

> <Gold.Chemscore.Fitness>
17.9744

> <Gold.Chemscore.DG>
-20.8695

> <Gold.Chemscore.ZeroCoef>
-5.4800

> <Gold.Chemscore.Hbond>
3.5079

> <Gold.Chemscore.Metal>
0.0000

> <Gold.Chemscore.Lipo>
82.5804

> <Gold.Chemscore.Internal_Hbond>
0.0000

> <Gold.Chemscore.DEClash>
0.6227

> <Gold.Chemscore.DEInternal>
2.2725

> <Gold.Chemscore.Rot>
2.3393

> <Gold.Chemscore.Internal.Correction>
   9.000000E+99

> <Gold.Chemscore.Hbonds>
donor molecule, donor type, donor heavy atom, donor atom, acceptor molecule, acceptor atom, score
      L1  H     5    46       P1 10737  1.00
      L1  H    10    36       P1 10747  0.47
      L1  H    13    37       P1 10747  1.00
      L1  H    17    47       P1 10186  0.97

> <Gold.Chemscore.Hbond.Weighted>
-11.7162

> <Gold.Chemscore.Metal.Weighted>
-0.0000

> <Gold.Chemscore.Lipo.Weighted>
-9.6619

> <Gold.Chemscore.Internal_Hbond.Weighted>
0.0000

> <Gold.Chemscore.DEClash.Weighted>
0.6227

> <Gold.Chemscore.DEInternal.Weighted>
2.2725

> <Gold.Chemscore.Rot.Weighted>
5.9886

> <Gold.Chemscore.Internal.Correction.Weighted>
   9.000000E+99

> <Gold.Protein.RotatedTorsions>
[ 6907 6896 6895 6894 ] final -163.74 input  -60.11 | X-H torsion
[ 7974 7965 7964 7962 ] final  -54.10 input  175.53 | X-H torsion
[ 8008 7997 7996 7995 ] final -154.79 input   59.86 | X-H torsion
[ 10167 10162 10161 10158 ] final  -21.54 input  -65.29 | X-H torsion
[ 10718 10713 10712 10709 ] final  112.34 input   66.30 | X-H torsion
[ 10763 10752 10751 10750 ] final   26.32 input  -60.55 | X-H torsion
[ 11005 11000 10999 10996 ] final -142.60 input  -57.11 | X-H torsion

> <Gold.Protein.ActiveResidues>
 VAL166  LYS551  ARG553  GLY616  TRP617  ASP618  TYR619  PRO620  LYS621  CYS622 
 ASP623  PHE694  ASN695  SER759  ASP760  ASP761  ALA762  ILE779  LEU786  VAL792 
 PHE793  MET794  SER795  GLU796  ALA797  LYS798  CYS799  TRP800  GLU811  SER814 

> <Gold.Protein.RotatedAtoms>
  151.4008  133.3758  159.2731 H   0  0  0  0  0  0  0  0  0  0  0  0  # atno 6907 bound_to 6896
  150.9435  134.8843  159.7637 H   0  0  0  0  0  0  0  0  0  0  0  0  # atno 6908 bound_to 6896
  152.5081  134.3960  159.9452 H   0  0  0  0  0  0  0  0  0  0  0  0  # atno 6909 bound_to 6896
  145.8894  140.8082  142.9799 H   0  0  0  0  0  0  0  0  0  0  0  0  # atno 7974 bound_to 7965
  155.6918  140.0756  157.2445 H   0  0  0  0  0  0  0  0  0  0  0  0  # atno 8008 bound_to 7997
  154.4087  140.1663  156.2147 H   0  0  0  0  0  0  0  0  0  0  0  0  # atno 8009 bound_to 7997
  155.9445  140.3382  155.6358 H   0  0  0  0  0  0  0  0  0  0  0  0  # atno 8010 bound_to 7997
  140.7282  143.4618  151.0369 H   0  0  0  0  0  0  0  0  0  0  0  0  # atno 10167 bound_to 10162
  157.6397  131.0966  150.6881 H   0  0  0  0  0  0  0  0  0  0  0  0  # atno 10718 bound_to 10713
  153.0631  135.6563  154.0418 H   0  0  0  0  0  0  0  0  0  0  0  0  # atno 10763 bound_to 10752
  154.0081  135.2931  155.3397 H   0  0  0  0  0  0  0  0  0  0  0  0  # atno 10764 bound_to 10752
  154.6977  135.5257  153.8550 H   0  0  0  0  0  0  0  0  0  0  0  0  # atno 10765 bound_to 10752
  140.8209  134.2632  157.4900 H   0  0  0  0  0  0  0  0  0  0  0  0  # atno 11005 bound_to 11000
  144.6730  140.1507  143.7430 LP  0  0  0  0  0  0  0  0  0  0  0  0  # atno 17320 bound_to 7965
  145.8926  139.2384  143.1540 LP  0  0  0  0  0  0  0  0  0  0  0  0  # atno 17321 bound_to 7965
  139.8303  143.7700  152.3179 LP  0  0  0  0  0  0  0  0  0  0  0  0  # atno 17342 bound_to 10162
  139.7813  144.7443  151.0084 LP  0  0  0  0  0  0  0  0  0  0  0  0  # atno 17343 bound_to 10162
  156.7207  130.4679  149.5523 LP  0  0  0  0  0  0  0  0  0  0  0  0  # atno 17370 bound_to 10713
  156.1667  130.6410  151.0787 LP  0  0  0  0  0  0  0  0  0  0  0  0  # atno 17371 bound_to 10713
  139.8708  134.9535  156.4146 LP  0  0  0  0  0  0  0  0  0  0  0  0  # atno 17394 bound_to 11000
  140.9100  133.7718  155.9780 LP  0  0  0  0  0  0  0  0  0  0  0  0  # atno 17395 bound_to 11000

$$$$
