AV-unprocessed.smi:707|AV-procd|sdf|3456|dock9
  -GOLD-   22720 0443D 1   1.00000     0.00000
 Structure written by MMmdl.
 44 45  0  0  0  0  0  0  0  0  1 V2000
  152.7098  142.6070  160.3072 C   0  0  0  0  0  0  0  0  0  0  0  0
  151.9911  143.8666  159.9466 C   0  0  0  0  0  0  0  0  0  0  0  0
  151.8097  144.8886  160.7916 N   0  0  0  0  0  0  0  0  0  0  0  0
  151.1090  145.8406  160.0772 N   0  0  0  0  0  0  0  0  0  0  0  0
  150.9382  145.2976  158.8724 C   0  0  0  0  0  0  0  0  0  0  0  0
  151.4624  144.0715  158.7232 N   0  0  0  0  0  0  0  0  0  0  0  0
  151.4442  143.2181  157.5501 C   0  0  0  0  0  0  0  0  0  0  0  0
  150.3349  142.1570  157.6431 C   0  0  0  0  0  0  0  0  0  0  0  0
  149.6525  141.9791  156.3672 N   0  0  0  0  0  0  0  0  0  0  0  0
  150.1028  141.2278  155.3507 C   0  0  0  0  0  0  0  0  0  0  0  0
  151.1571  140.5939  155.3894 O   0  0  0  0  0  0  0  0  0  0  0  0
  149.2244  141.1781  154.1037 C   0  0  0  0  0  0  0  0  0  0  0  0
  148.2294  142.1855  154.2152 O   0  0  0  0  0  0  0  0  0  0  0  0
  147.0251  141.9214  153.5029 C   0  0  1  0  0  0  0  0  0  0  0  0
  146.2962  140.7786  154.2314 C   0  0  0  0  0  0  0  0  0  0  0  0
  145.7872  141.2169  155.6151 C   0  0  0  0  0  0  0  0  0  0  0  0
  144.8962  142.4654  155.5154 C   0  0  0  0  0  0  0  0  0  0  0  0
  145.6208  143.6228  154.8019 C   0  0  2  0  0  0  0  0  0  0  0  0
  144.7264  144.8663  154.6971 C   0  0  0  0  0  0  0  0  0  0  0  0
  146.1192  143.1696  153.4152 C   0  0  0  0  0  0  0  0  0  0  0  0
  153.0109  142.6257  161.3551 H   0  0  0  0  0  0  0  0  0  0  0  0
  153.6036  142.4958  159.6934 H   0  0  0  0  0  0  0  0  0  0  0  0
  152.0624  141.7445  160.1488 H   0  0  0  0  0  0  0  0  0  0  0  0
  150.4147  145.8076  158.0767 H   0  0  0  0  0  0  0  0  0  0  0  0
  151.3005  143.8497  156.6726 H   0  0  0  0  0  0  0  0  0  0  0  0
  152.4206  142.7457  157.4392 H   0  0  0  0  0  0  0  0  0  0  0  0
  150.7607  141.1963  157.9347 H   0  0  0  0  0  0  0  0  0  0  0  0
  149.6127  142.4230  158.4170 H   0  0  0  0  0  0  0  0  0  0  0  0
  148.7776  142.4677  156.2429 H   0  0  0  0  0  0  0  0  0  0  0  0
  149.8454  141.3302  153.2211 H   0  0  0  0  0  0  0  0  0  0  0  0
  148.7671  140.1908  154.0249 H   0  0  0  0  0  0  0  0  0  0  0  0
  147.2747  141.5790  152.4973 H   0  0  0  0  0  0  0  0  0  0  0  0
  145.4510  140.4466  153.6271 H   0  0  0  0  0  0  0  0  0  0  0  0
  146.9572  139.9174  154.3326 H   0  0  0  0  0  0  0  0  0  0  0  0
  145.2330  140.4020  156.0812 H   0  0  0  0  0  0  0  0  0  0  0  0
  146.6350  141.4246  156.2690 H   0  0  0  0  0  0  0  0  0  0  0  0
  143.9811  142.2156  154.9766 H   0  0  0  0  0  0  0  0  0  0  0  0
  144.5902  142.7760  156.5151 H   0  0  0  0  0  0  0  0  0  0  0  0
  146.4908  143.8967  155.4007 H   0  0  0  0  0  0  0  0  0  0  0  0
  143.8323  144.6635  154.1069 H   0  0  0  0  0  0  0  0  0  0  0  0
  145.2580  145.6923  154.2237 H   0  0  0  0  0  0  0  0  0  0  0  0
  144.4057  145.2037  155.6831 H   0  0  0  0  0  0  0  0  0  0  0  0
  146.6338  143.9882  152.9134 H   0  0  0  0  0  0  0  0  0  0  0  0
  145.2593  142.9358  152.7859 H   0  0  0  0  0  0  0  0  0  0  0  0
  1  2  1  0  0  0  0
  1 21  1  0  0  0  0
  1 22  1  0  0  0  0
  1 23  1  0  0  0  0
  2  6  1  0  0  0  0
  2  3  2  0  0  0  0
  3  4  1  0  0  0  0
  4  5  2  0  0  0  0
  5  6  1  0  0  0  0
  5 24  1  0  0  0  0
  6  7  1  0  0  0  0
  7  8  1  0  0  0  0
  7 25  1  0  0  0  0
  7 26  1  0  0  0  0
  8  9  1  0  0  0  0
  8 27  1  0  0  0  0
  8 28  1  0  0  0  0
  9 10  1  0  0  0  0
  9 29  1  0  0  0  0
 10 11  2  0  0  0  0
 10 12  1  0  0  0  0
 12 13  1  0  0  0  0
 12 30  1  0  0  0  0
 12 31  1  0  0  0  0
 13 14  1  0  0  0  0
 14 20  1  0  0  0  0
 14 15  1  0  0  0  0
 14 32  1  0  0  0  0
 15 16  1  0  0  0  0
 15 33  1  0  0  0  0
 15 34  1  0  0  0  0
 16 17  1  0  0  0  0
 16 35  1  0  0  0  0
 16 36  1  0  0  0  0
 17 18  1  0  0  0  0
 17 37  1  0  0  0  0
 17 38  1  0  0  0  0
 18 19  1  0  0  0  0
 18 20  1  0  0  0  0
 18 39  1  0  0  0  0
 19 40  1  0  0  0  0
 19 41  1  0  0  0  0
 19 42  1  0  0  0  0
 20 43  1  0  0  0  0
 20 44  1  0  0  0  0
M  END
> <s_m_source_file>
AV-unprocessed.smi

> <i_m_source_file_index>
707

> <i_lp_mmshare_version>
43012

> <i_f3d_flags>
0

> <s_epik_input>
W0NIM11jMW5uW2NIXW4xW0NIMl1bQ0gyXVtOSF1DKD1PKVtDSDJdT1tDQEBIXTJbQ0gyXVtDSDJdW0NIMl1bQ0BASF0oW0NIM10pW0NIMl0y

> <s_epik_cmdline>
J2VwaWtfcHl0aG9uJywgJy1waCcsICc3LjAnLCAnLXRuJywgJzgnLCAnLW1hJywgJzIwMCcsICctbWV0YWxfYmluZGluZycsICctaW1hZScsICc8aW5maWxlLm1hZT4nLCAnLW9tYWUnLCAnPG91dGZpbGUubWFlPic=

> <r_lp_tautomer_probability>
1

> <r_epik_Ionization_Penalty>
0.000271783

> <r_epik_Ionization_Penalty_Charging>
0

> <r_epik_Ionization_Penalty_Neutral>
0.000271783

> <r_epik_State_Penalty>
-0

> <r_epik_Charging_Adjusted_Penalty>
0

> <i_epik_Tot_Q>
0

> <i_epik_Tot_abs_Q>
0

> <r_epik_Metal_State_Penalty>
-0

> <b_epik_Metal_Only>
0

> <s_lp_Force_Field>
OPLS_2005

> <r_lp_Energy>
13.3948

> <b_lp_Chiralities_Consistent>
1

> <s_lp_Variant>
AV-unprocessed.smi:707-4

> <Gold.Version>
5.8.1

> <Gold.Id.Protein>
6NUR|6NUR_protein|mol2

> <Gold.PLP.Fitness>
45.7167

> <Gold.PLP.PLP>
-42.2171

> <Gold.PLP.part.hbond>
-3.6971

> <Gold.PLP.part.metal>
0.0000

> <Gold.PLP.part.buried>
-6.0906

> <Gold.PLP.part.nonpolar>
-34.0418

> <Gold.PLP.part.repulsive>
1.1807

> <Gold.PLP.ligand.clash>
0.0000

> <Gold.PLP.ligand.torsion>
1.0846

> <Gold.PLP.Chemscore.Hbond>
0.8800

> <Gold.PLP.Chemscore.CHOScore>
1.0000

> <Gold.PLP.Chemscore.Metal>
0.0000

> <Gold.Chemscore.Hbonds>
donor molecule, donor type, donor heavy atom, donor atom, acceptor molecule, acceptor atom, score
      L1  H     9    29       P1  8028  0.09
      P1  H  7989  7998       L1    11  0.70
      L1  C     5    24       P1  8029  0.72

> <Gold.PLP.Chemscore.Internal.Correction>
0.0288

> <Gold.Rescore>
     Score         DG    S(hbond)    S(metal)    S(lipo)     H(rot)  DE(clash)    DE(int)     intcor
      8.63      -9.64       0.89        0.00      62.99       2.42       0.09       0.92       ----

> <Gold.Chemscore.Fitness>
8.6257

> <Gold.Chemscore.DG>
-9.6401

> <Gold.Chemscore.ZeroCoef>
-5.4800

> <Gold.Chemscore.Hbond>
0.8932

> <Gold.Chemscore.Metal>
0.0000

> <Gold.Chemscore.Lipo>
62.9902

> <Gold.Chemscore.Internal_Hbond>
0.0000

> <Gold.Chemscore.DEClash>
0.0916

> <Gold.Chemscore.DEInternal>
0.9229

> <Gold.Chemscore.Rot>
2.4191

> <Gold.Chemscore.Internal.Correction>
   9.000000E+99

> <Gold.Chemscore.Hbonds>
donor molecule, donor type, donor heavy atom, donor atom, acceptor molecule, acceptor atom, score
      L1  H     9    29       P1  8028  0.10
      P1  H  7989  7998       L1    11  0.10

> <Gold.Chemscore.Hbond.Weighted>
-2.9832

> <Gold.Chemscore.Metal.Weighted>
-0.0000

> <Gold.Chemscore.Lipo.Weighted>
-7.3699

> <Gold.Chemscore.Internal_Hbond.Weighted>
0.0000

> <Gold.Chemscore.DEClash.Weighted>
0.0916

> <Gold.Chemscore.DEInternal.Weighted>
0.9229

> <Gold.Chemscore.Rot.Weighted>
6.1929

> <Gold.Chemscore.Internal.Correction.Weighted>
   9.000000E+99

> <Gold.Protein.RotatedTorsions>
[ 6907 6896 6895 6894 ] final  169.45 input  -60.11 | X-H torsion
[ 7974 7965 7964 7962 ] final  150.07 input  175.53 | X-H torsion
[ 8008 7997 7996 7995 ] final   -1.43 input   59.86 | X-H torsion
[ 10167 10162 10161 10158 ] final -164.11 input  -65.29 | X-H torsion
[ 10718 10713 10712 10709 ] final -140.60 input   66.30 | X-H torsion
[ 10763 10752 10751 10750 ] final -128.86 input  -60.55 | X-H torsion
[ 11005 11000 10999 10996 ] final  -32.91 input  -57.11 | X-H torsion

> <Gold.Protein.ActiveResidues>
 VAL166  LYS551  ARG553  GLY616  TRP617  ASP618  TYR619  PRO620  LYS621  CYS622 
 ASP623  PHE694  ASN695  SER759  ASP760  ASP761  ALA762  ILE779  LEU786  VAL792 
 PHE793  MET794  SER795  GLU796  ALA797  LYS798  CYS799  TRP800  GLU811  SER814 

> <Gold.Protein.RotatedAtoms>
  151.8316  133.3409  159.3615 H   0  0  0  0  0  0  0  0  0  0  0  0  # atno 6907 bound_to 6896
  150.7262  134.5477  159.5788 H   0  0  0  0  0  0  0  0  0  0  0  0  # atno 6908 bound_to 6896
  152.2931  134.7699  160.0425 H   0  0  0  0  0  0  0  0  0  0  0  0  # atno 6909 bound_to 6896
  144.8391  139.6361  143.6024 H   0  0  0  0  0  0  0  0  0  0  0  0  # atno 7974 bound_to 7965
  154.6469  140.2559  155.7258 H   0  0  0  0  0  0  0  0  0  0  0  0  # atno 8008 bound_to 7997
  156.2556  140.2876  156.0807 H   0  0  0  0  0  0  0  0  0  0  0  0  # atno 8009 bound_to 7997
  155.1511  140.0382  157.2811 H   0  0  0  0  0  0  0  0  0  0  0  0  # atno 8010 bound_to 7997
  139.6273  144.0507  152.1986 H   0  0  0  0  0  0  0  0  0  0  0  0  # atno 10167 bound_to 10162
  156.3242  130.7551  151.1655 H   0  0  0  0  0  0  0  0  0  0  0  0  # atno 10718 bound_to 10713
  154.8757  135.3914  154.3825 H   0  0  0  0  0  0  0  0  0  0  0  0  # atno 10763 bound_to 10752
  153.4571  135.7029  153.6078 H   0  0  0  0  0  0  0  0  0  0  0  0  # atno 10764 bound_to 10752
  153.4593  135.3815  155.2298 H   0  0  0  0  0  0  0  0  0  0  0  0  # atno 10765 bound_to 10752
  140.9591  133.7175  156.1341 H   0  0  0  0  0  0  0  0  0  0  0  0  # atno 11005 bound_to 11000
  146.2686  139.6580  142.9312 LP  0  0  0  0  0  0  0  0  0  0  0  0  # atno 17320 bound_to 7965
  145.4731  141.0436  143.2687 LP  0  0  0  0  0  0  0  0  0  0  0  0  # atno 17321 bound_to 7965
  140.0163  144.6186  150.7604 LP  0  0  0  0  0  0  0  0  0  0  0  0  # atno 17342 bound_to 10162
  140.7419  143.2824  151.3560 LP  0  0  0  0  0  0  0  0  0  0  0  0  # atno 17343 bound_to 10162
  157.7418  131.0499  150.5071 LP  0  0  0  0  0  0  0  0  0  0  0  0  # atno 17370 bound_to 10713
  156.5228  130.4166  149.6242 LP  0  0  0  0  0  0  0  0  0  0  0  0  # atno 17371 bound_to 10713
  140.7493  134.4063  157.5544 LP  0  0  0  0  0  0  0  0  0  0  0  0  # atno 17394 bound_to 11000
  139.8872  134.8889  156.2541 LP  0  0  0  0  0  0  0  0  0  0  0  0  # atno 17395 bound_to 11000

$$$$
