AV-unprocessed.smi:1491|AV-procd|sdf|6035|dock8
  -GOLD-   22720 6143D 1   1.00000     0.00000
 Structure written by MMmdl.
 38 39  0  0  0  0  0  0  0  0  1 V2000
  144.7021  136.1629  153.1319 O   0  0  0  0  0  0  0  0  0  0  0  0
  145.8825  136.1137  152.7853 C   0  0  0  0  0  0  0  0  0  0  0  0
  146.7887  137.0615  153.0640 N   0  0  0  0  0  0  0  0  0  0  0  0
  146.5349  138.2612  153.8566 C   0  0  0  0  0  0  0  0  0  0  0  0
  146.9978  139.5369  153.1291 C   0  0  0  0  0  0  0  0  0  0  0  0
  148.1113  140.1872  153.7946 N   0  0  0  0  0  0  0  0  0  0  0  0
  148.1582  141.4914  154.2703 C   0  0  0  0  0  0  0  0  0  0  0  0
  149.4098  141.6659  154.8160 C   0  0  0  0  0  0  0  0  0  0  0  0
  150.1433  140.4883  154.6928 N   0  0  0  0  0  0  0  0  0  0  0  0
  149.3093  139.6587  154.0789 C   0  0  0  0  0  0  0  0  0  0  0  0
  146.4225  135.0989  152.0962 N   0  0  0  0  0  0  0  0  0  0  0  0
  145.7106  133.8996  151.6661 C   0  0  2  0  0  0  0  0  0  0  0  0
  146.5019  133.2037  150.5443 C   0  0  0  0  0  0  0  0  0  0  0  0
  145.7630  131.9593  150.0217 C   0  0  0  0  0  0  0  0  0  0  0  0
  144.3265  132.2813  149.5686 C   0  0  2  0  0  0  0  0  0  0  0  0
  144.3544  133.0546  148.3853 O   0  0  0  0  0  0  0  0  0  0  0  0
  143.5389  133.0214  150.6665 C   0  0  0  0  0  0  0  0  0  0  0  0
  144.2888  134.2584  151.1914 C   0  0  0  0  0  0  0  0  0  0  0  0
  147.7319  136.9287  152.7299 H   0  0  0  0  0  0  0  0  0  0  0  0
  145.4603  138.3178  154.0303 H   0  0  0  0  0  0  0  0  0  0  0  0
  146.9968  138.1912  154.8429 H   0  0  0  0  0  0  0  0  0  0  0  0
  147.2845  139.3088  152.1015 H   0  0  0  0  0  0  0  0  0  0  0  0
  146.1748  140.2502  153.0723 H   0  0  0  0  0  0  0  0  0  0  0  0
  147.3233  142.1702  154.1773 H   0  0  0  0  0  0  0  0  0  0  0  0
  149.8353  142.5413  155.2841 H   0  0  0  0  0  0  0  0  0  0  0  0
  149.5773  138.6431  153.8269 H   0  0  0  0  0  0  0  0  0  0  0  0
  147.4026  135.1529  151.8603 H   0  0  0  0  0  0  0  0  0  0  0  0
  145.6364  133.2043  152.5048 H   0  0  0  0  0  0  0  0  0  0  0  0
  146.6697  133.8998  149.7210 H   0  0  0  0  0  0  0  0  0  0  0  0
  147.4888  132.9148  150.9080 H   0  0  0  0  0  0  0  0  0  0  0  0
  146.3245  131.5048  149.2048 H   0  0  0  0  0  0  0  0  0  0  0  0
  145.7256  131.2128  150.8160 H   0  0  0  0  0  0  0  0  0  0  0  0
  143.8129  131.3502  149.3269 H   0  0  0  0  0  0  0  0  0  0  0  0
  145.1981  133.4753  148.3210 H   0  0  0  0  0  0  0  0  0  0  0  0
  142.5538  133.3093  150.2977 H   0  0  0  0  0  0  0  0  0  0  0  0
  143.3631  132.3378  151.4980 H   0  0  0  0  0  0  0  0  0  0  0  0
  143.7227  134.7065  152.0089 H   0  0  0  0  0  0  0  0  0  0  0  0
  144.3413  135.0127  150.4051 H   0  0  0  0  0  0  0  0  0  0  0  0
  1  2  2  0  0  0  0
  2  3  1  0  0  0  0
  2 11  1  0  0  0  0
  3  4  1  0  0  0  0
  3 19  1  0  0  0  0
  4  5  1  0  0  0  0
  4 20  1  0  0  0  0
  4 21  1  0  0  0  0
  5  6  1  0  0  0  0
  5 22  1  0  0  0  0
  5 23  1  0  0  0  0
  6 10  1  0  0  0  0
  6  7  1  0  0  0  0
  7  8  2  0  0  0  0
  7 24  1  0  0  0  0
  8  9  1  0  0  0  0
  8 25  1  0  0  0  0
  9 10  2  0  0  0  0
 10 26  1  0  0  0  0
 11 12  1  0  0  0  0
 11 27  1  0  0  0  0
 12 18  1  0  0  0  0
 12 13  1  0  0  0  0
 12 28  1  0  0  0  0
 13 14  1  0  0  0  0
 13 29  1  0  0  0  0
 13 30  1  0  0  0  0
 14 15  1  0  0  0  0
 14 31  1  0  0  0  0
 14 32  1  0  0  0  0
 15 16  1  0  0  0  0
 15 17  1  0  0  0  0
 15 33  1  0  0  0  0
 16 34  1  0  0  0  0
 17 18  1  0  0  0  0
 17 35  1  0  0  0  0
 17 36  1  0  0  0  0
 18 37  1  0  0  0  0
 18 38  1  0  0  0  0
M  END
> <s_m_source_file>
AV-unprocessed.smi

> <i_m_source_file_index>
1491

> <i_lp_mmshare_version>
43012

> <i_f3d_flags>
0

> <s_epik_input>
W0NIMl0xW0NIMl1bQ0BIXShbT0hdKVtDSDJdW0NIMl1bQ0BIXTFbTkhdQyg9TylbTkhdW0NIMl1bQ0gyXW4yW2NIXVtjSF1uW2NIXTI=

> <s_epik_cmdline>
J2VwaWtfcHl0aG9uJywgJy1waCcsICc3LjAnLCAnLXRuJywgJzgnLCAnLW1hJywgJzIwMCcsICctbWV0YWxfYmluZGluZycsICctaW1hZScsICc8aW5maWxlLm1hZT4nLCAnLW9tYWUnLCAnPG91dGZpbGUubWFlPic=

> <r_lp_tautomer_probability>
1

> <r_epik_Ionization_Penalty>
0.623245

> <r_epik_Ionization_Penalty_Charging>
0.623187

> <r_epik_Ionization_Penalty_Neutral>
5.75214e-05

> <r_epik_State_Penalty>
0.639392

> <r_epik_Charging_Adjusted_Penalty>
1.26258

> <i_epik_Tot_Q>
0

> <i_epik_Tot_abs_Q>
0

> <r_epik_Metal_State_Penalty>
0.307266

> <b_epik_Metal_Only>
0

> <s_lp_Force_Field>
OPLS_2005

> <r_lp_Energy>
9.71392

> <b_lp_Chiralities_Consistent>
1

> <s_lp_Variant>
AV-unprocessed.smi:1491-4

> <Gold.Version>
5.8.1

> <Gold.Id.Protein>
6NUR|6NUR_protein|mol2

> <Gold.PLP.Fitness>
48.2312

> <Gold.PLP.PLP>
-35.0823

> <Gold.PLP.part.hbond>
-4.9059

> <Gold.PLP.part.metal>
0.0000

> <Gold.PLP.part.buried>
0.2215

> <Gold.PLP.part.nonpolar>
-29.9347

> <Gold.PLP.part.repulsive>
0.2393

> <Gold.PLP.ligand.clash>
0.0000

> <Gold.PLP.ligand.torsion>
0.6794

> <Gold.PLP.Chemscore.Hbond>
3.8480

> <Gold.PLP.Chemscore.CHOScore>
0.9814

> <Gold.PLP.Chemscore.Metal>
0.0000

> <Gold.Chemscore.Hbonds>
donor molecule, donor type, donor heavy atom, donor atom, acceptor molecule, acceptor atom, score
      L1  H     3    19       P1  7948  1.00
      L1  H    11    27       P1  7948  0.94
      L1  H    16    34       P1  7921  0.93
      P1  H  7989  7998       L1     9  0.94
      L1  C     8    25       P1  8028  1.00

> <Gold.PLP.Chemscore.Internal.Correction>
0.0194

> <Gold.Rescore>
     Score         DG    S(hbond)    S(metal)    S(lipo)     H(rot)  DE(clash)    DE(int)     intcor
     15.83     -19.60       3.67        0.00      72.35       2.57       1.48       2.30       ----

> <Gold.Chemscore.Fitness>
15.8281

> <Gold.Chemscore.DG>
-19.6041

> <Gold.Chemscore.ZeroCoef>
-5.4800

> <Gold.Chemscore.Hbond>
3.6671

> <Gold.Chemscore.Metal>
0.0000

> <Gold.Chemscore.Lipo>
72.3484

> <Gold.Chemscore.Internal_Hbond>
0.0000

> <Gold.Chemscore.DEClash>
1.4771

> <Gold.Chemscore.DEInternal>
2.2988

> <Gold.Chemscore.Rot>
2.5738

> <Gold.Chemscore.Internal.Correction>
   9.000000E+99

> <Gold.Chemscore.Hbonds>
donor molecule, donor type, donor heavy atom, donor atom, acceptor molecule, acceptor atom, score
      L1  H     3    19       P1  7948  0.99
      L1  H    11    27       P1  7948  0.86
      L1  H    16    34       P1  7921  0.45
      P1  H  7989  7998       L1     9  0.35

> <Gold.Chemscore.Hbond.Weighted>
-12.2483

> <Gold.Chemscore.Metal.Weighted>
-0.0000

> <Gold.Chemscore.Lipo.Weighted>
-8.4648

> <Gold.Chemscore.Internal_Hbond.Weighted>
0.0000

> <Gold.Chemscore.DEClash.Weighted>
1.4771

> <Gold.Chemscore.DEInternal.Weighted>
2.2988

> <Gold.Chemscore.Rot.Weighted>
6.5890

> <Gold.Chemscore.Internal.Correction.Weighted>
   9.000000E+99

> <Gold.Protein.RotatedTorsions>
[ 6907 6896 6895 6894 ] final  -88.77 input  -60.11 | X-H torsion
[ 7974 7965 7964 7962 ] final  179.24 input  175.53 | X-H torsion
[ 8008 7997 7996 7995 ] final -146.34 input   59.86 | X-H torsion
[ 10167 10162 10161 10158 ] final  -86.01 input  -65.29 | X-H torsion
[ 10718 10713 10712 10709 ] final   95.97 input   66.30 | X-H torsion
[ 10763 10752 10751 10750 ] final   64.60 input  -60.55 | X-H torsion
[ 11005 11000 10999 10996 ] final   99.49 input  -57.11 | X-H torsion

> <Gold.Protein.ActiveResidues>
 VAL166  LYS551  ARG553  GLY616  TRP617  ASP618  TYR619  PRO620  LYS621  CYS622 
 ASP623  PHE694  ASN695  SER759  ASP760  ASP761  ALA762  ILE779  LEU786  VAL792 
 PHE793  MET794  SER795  GLU796  ALA797  LYS798  CYS799  TRP800  GLU811  SER814 

> <Gold.Protein.RotatedAtoms>
  150.6870  134.2690  159.4579 H   0  0  0  0  0  0  0  0  0  0  0  0  # atno 6907 bound_to 6896
  152.0613  134.9589  160.0584 H   0  0  0  0  0  0  0  0  0  0  0  0  # atno 6908 bound_to 6896
  152.1015  133.4218  159.4626 H   0  0  0  0  0  0  0  0  0  0  0  0  # atno 6909 bound_to 6896
  144.7147  140.0519  143.6435 H   0  0  0  0  0  0  0  0  0  0  0  0  # atno 7974 bound_to 7965
  155.5579  140.0622  157.2835 H   0  0  0  0  0  0  0  0  0  0  0  0  # atno 8008 bound_to 7997
  154.4400  140.1891  156.0797 H   0  0  0  0  0  0  0  0  0  0  0  0  # atno 8009 bound_to 7997
  156.0469  140.3289  155.7310 H   0  0  0  0  0  0  0  0  0  0  0  0  # atno 8010 bound_to 7997
  140.3983  143.2674  151.9176 H   0  0  0  0  0  0  0  0  0  0  0  0  # atno 10167 bound_to 10162
  157.6932  131.0563  150.4420 H   0  0  0  0  0  0  0  0  0  0  0  0  # atno 10718 bound_to 10713
  153.0062  135.5387  154.6536 H   0  0  0  0  0  0  0  0  0  0  0  0  # atno 10763 bound_to 10752
  154.5762  135.2846  155.0780 H   0  0  0  0  0  0  0  0  0  0  0  0  # atno 10764 bound_to 10752
  154.1927  135.6497  153.5117 H   0  0  0  0  0  0  0  0  0  0  0  0  # atno 10765 bound_to 10752
  139.8771  134.9098  156.4613 H   0  0  0  0  0  0  0  0  0  0  0  0  # atno 11005 bound_to 11000
  145.9937  139.3035  143.0969 LP  0  0  0  0  0  0  0  0  0  0  0  0  # atno 17320 bound_to 7965
  145.8874  140.9325  143.0570 LP  0  0  0  0  0  0  0  0  0  0  0  0  # atno 17321 bound_to 7965
  139.4786  144.5659  151.8165 LP  0  0  0  0  0  0  0  0  0  0  0  0  # atno 17342 bound_to 10162
  140.4767  144.1509  150.5926 LP  0  0  0  0  0  0  0  0  0  0  0  0  # atno 17343 bound_to 10162
  156.4777  130.4067  149.6480 LP  0  0  0  0  0  0  0  0  0  0  0  0  # atno 17370 bound_to 10713
  156.3537  130.7445  151.2408 LP  0  0  0  0  0  0  0  0  0  0  0  0  # atno 17371 bound_to 10713
  140.8862  133.7882  155.9520 LP  0  0  0  0  0  0  0  0  0  0  0  0  # atno 17394 bound_to 11000
  140.8802  134.2620  157.5148 LP  0  0  0  0  0  0  0  0  0  0  0  0  # atno 17395 bound_to 11000

$$$$
