AV-unprocessed.smi:3343|AV-procd|sdf|12892|dock8
  -GOLD-   2272019303D 1   1.00000     0.00000
 Structure written by MMmdl.
 42 43  0  0  0  0  0  0  0  0  2 V2000
  149.6488  132.2577  154.2179 C   0  0  0  0  0  0  0  0  0  0  0  0
  149.3135  133.7523  154.0615 C   0  0  1  0  0  0  0  0  0  0  0  0
  147.8268  134.0506  154.3020 C   0  0  0  0  0  0  0  0  0  0  0  0
  147.2096  133.4784  155.2017 O   0  0  0  0  0  0  0  0  0  0  0  0
  147.2706  134.9767  153.5056 N   0  0  0  0  0  0  0  0  0  0  0  0
  145.9056  135.4706  153.6301 C   0  0  0  0  0  0  0  0  0  0  0  0
  144.8958  134.3673  153.2627 C   0  0  0  0  0  0  0  0  0  0  0  0
  143.7013  134.8995  152.6033 N   0  0  0  0  0  0  0  0  0  0  0  0
  143.9601  135.6677  151.3796 C   0  0  0  0  0  0  0  0  0  0  0  0
  144.4660  134.7770  150.2250 C   0  0  0  0  0  0  0  0  0  0  0  0
  143.4947  133.6946  149.9426 N   0  3  0  0  0  0  0  0  0  0  0  0
  143.9043  132.8413  148.8068 C   0  0  0  0  0  0  0  0  0  0  0  0
  143.2079  132.9154  151.1694 C   0  0  0  0  0  0  0  0  0  0  0  0
  142.7253  133.8484  152.3013 C   0  0  0  0  0  0  0  0  0  0  0  0
  150.1265  134.5724  154.9488 N   0  0  0  0  0  0  0  0  0  0  0  0
  150.9054  135.6284  154.6964 C   0  0  0  0  0  0  0  0  0  0  0  0
  151.5307  136.1026  155.7646 N   0  0  0  0  0  0  0  0  0  0  0  0
  151.0624  135.2321  156.7075 C   0  0  0  0  0  0  0  0  0  0  0  0
  150.2239  134.2922  156.2706 N   0  0  0  0  0  0  0  0  0  0  0  0
  149.0424  131.6456  153.5494 H   0  0  0  0  0  0  0  0  0  0  0  0
  149.4796  131.9053  155.2359 H   0  0  0  0  0  0  0  0  0  0  0  0
  150.6948  132.0686  153.9744 H   0  0  0  0  0  0  0  0  0  0  0  0
  149.5483  134.0327  153.0326 H   0  0  0  0  0  0  0  0  0  0  0  0
  147.8469  135.3972  152.7905 H   0  0  0  0  0  0  0  0  0  0  0  0
  145.7508  135.7924  154.6605 H   0  0  0  0  0  0  0  0  0  0  0  0
  145.7869  136.3552  153.0038 H   0  0  0  0  0  0  0  0  0  0  0  0
  145.3751  133.6021  152.6535 H   0  0  0  0  0  0  0  0  0  0  0  0
  144.5876  133.8732  154.1853 H   0  0  0  0  0  0  0  0  0  0  0  0
  143.0308  136.1533  151.0785 H   0  0  0  0  0  0  0  0  0  0  0  0
  144.6655  136.4748  151.5724 H   0  0  0  0  0  0  0  0  0  0  0  0
  144.5908  135.3866  149.3295 H   0  0  0  0  0  0  0  0  0  0  0  0
  145.4469  134.3567  150.4506 H   0  0  0  0  0  0  0  0  0  0  0  0
  144.8377  132.3205  149.0248 H   0  0  0  0  0  0  0  0  0  0  0  0
  144.0486  133.4413  147.9079 H   0  0  0  0  0  0  0  0  0  0  0  0
  143.1387  132.0955  148.5905 H   0  0  0  0  0  0  0  0  0  0  0  0
  142.4316  132.1808  150.9533 H   0  0  0  0  0  0  0  0  0  0  0  0
  144.0918  132.3523  151.4727 H   0  0  0  0  0  0  0  0  0  0  0  0
  142.5128  133.2726  153.2029 H   0  0  0  0  0  0  0  0  0  0  0  0
  141.7847  134.3182  152.0110 H   0  0  0  0  0  0  0  0  0  0  0  0
  151.0228  136.0536  153.7101 H   0  0  0  0  0  0  0  0  0  0  0  0
  151.3527  135.2897  157.7463 H   0  0  0  0  0  0  0  0  0  0  0  0
  142.6300  134.1432  149.6760 H   0  0  0  0  0  0  0  0  0  0  0  0
  1  2  1  0  0  0  0
  1 20  1  0  0  0  0
  1 21  1  0  0  0  0
  1 22  1  0  0  0  0
  2  3  1  0  0  0  0
  2 15  1  0  0  0  0
  2 23  1  0  0  0  0
  3  4  2  0  0  0  0
  3  5  1  0  0  0  0
  5  6  1  0  0  0  0
  5 24  1  0  0  0  0
  6  7  1  0  0  0  0
  6 25  1  0  0  0  0
  6 26  1  0  0  0  0
  7  8  1  0  0  0  0
  7 27  1  0  0  0  0
  7 28  1  0  0  0  0
  8 14  1  0  0  0  0
  8  9  1  0  0  0  0
  9 10  1  0  0  0  0
  9 29  1  0  0  0  0
  9 30  1  0  0  0  0
 10 11  1  0  0  0  0
 10 31  1  0  0  0  0
 10 32  1  0  0  0  0
 11 12  1  0  0  0  0
 11 13  1  0  0  0  0
 11 42  1  0  0  0  0
 12 33  1  0  0  0  0
 12 34  1  0  0  0  0
 12 35  1  0  0  0  0
 13 14  1  0  0  0  0
 13 36  1  0  0  0  0
 13 37  1  0  0  0  0
 14 38  1  0  0  0  0
 14 39  1  0  0  0  0
 15 19  1  0  0  0  0
 15 16  1  0  0  0  0
 16 17  2  0  0  0  0
 16 40  1  0  0  0  0
 17 18  1  0  0  0  0
 18 19  2  0  0  0  0
 18 41  1  0  0  0  0
M  CHG  1  11   1
M  END
> <s_m_source_file>
AV-unprocessed.smi

> <i_m_source_file_index>
3343

> <i_lp_mmshare_version>
43012

> <i_f3d_flags>
0

> <s_epik_input>
bjFbY0hdbltjSF1uMVtDQEhdKFtDSDNdKUMoPU8pW05IXVtDSDJdW0NIMl1OMltDSDJdW0NIMl1OKFtDSDNdKVtDSDJdW0NIMl0y

> <s_epik_cmdline>
J2VwaWtfcHl0aG9uJywgJy1waCcsICc3LjAnLCAnLXRuJywgJzgnLCAnLW1hJywgJzIwMCcsICctbWV0YWxfYmluZGluZycsICctaW1hZScsICc8aW5maWxlLm1hZT4nLCAnLW9tYWUnLCAnPG91dGZpbGUubWFlPic=

> <r_lp_tautomer_probability>
1

> <r_epik_Ionization_Penalty>
0.0359277

> <r_epik_Ionization_Penalty_Charging>
0.0358005

> <r_epik_Ionization_Penalty_Neutral>
0.000127293

> <r_epik_State_Penalty>
0.0476325

> <r_epik_Charging_Adjusted_Penalty>
0.0834329

> <i_epik_Tot_Q>
1

> <i_epik_Tot_abs_Q>
1

> <r_epik_Metal_State_Penalty>
0.0476323

> <b_epik_Metal_Only>
0

> <s_lp_Force_Field>
OPLS_2005

> <r_lp_Energy>
19.669

> <b_lp_Chiralities_Consistent>
1

> <s_lp_Variant>
AV-unprocessed.smi:3343-2

> <Gold.Version>
5.8.1

> <Gold.Id.Protein>
6NUR|6NUR_protein|mol2

> <Gold.PLP.Fitness>
38.7726

> <Gold.PLP.PLP>
-27.5006

> <Gold.PLP.part.hbond>
-3.0000

> <Gold.PLP.part.metal>
0.0000

> <Gold.PLP.part.buried>
0.7444

> <Gold.PLP.part.nonpolar>
-24.9242

> <Gold.PLP.part.repulsive>
0.2473

> <Gold.PLP.ligand.clash>
0.0000

> <Gold.PLP.ligand.torsion>
1.1271

> <Gold.PLP.Chemscore.Hbond>
3.5376

> <Gold.PLP.Chemscore.CHOScore>
0.9439

> <Gold.PLP.Chemscore.Metal>
0.0000

> <Gold.Chemscore.Hbonds>
donor molecule, donor type, donor heavy atom, donor atom, acceptor molecule, acceptor atom, score
      L1  H     5    24       P1  7948  1.00
      L1  H    11    42       P1 10186  2.00
      P1  H 10752 10765       L1    17  0.59
      L1  C    16    40       P1  7949  0.96

> <Gold.PLP.Chemscore.Internal.Correction>
0.0818

> <Gold.Rescore>
     Score         DG    S(hbond)    S(metal)    S(lipo)     H(rot)  DE(clash)    DE(int)     intcor
     11.01     -12.22       2.00        0.00      58.04       2.63       0.17       1.04       ----

> <Gold.Chemscore.Fitness>
11.0134

> <Gold.Chemscore.DG>
-12.2211

> <Gold.Chemscore.ZeroCoef>
-5.4800

> <Gold.Chemscore.Hbond>
1.9994

> <Gold.Chemscore.Metal>
0.0000

> <Gold.Chemscore.Lipo>
58.0353

> <Gold.Chemscore.Internal_Hbond>
0.0000

> <Gold.Chemscore.DEClash>
0.1722

> <Gold.Chemscore.DEInternal>
1.0355

> <Gold.Chemscore.Rot>
2.6278

> <Gold.Chemscore.Internal.Correction>
   9.000000E+99

> <Gold.Chemscore.Hbonds>
donor molecule, donor type, donor heavy atom, donor atom, acceptor molecule, acceptor atom, score
      L1  H     5    24       P1  7948  1.00
      L1  H    11    42       P1 10186  0.99
      P1  H 10752 10765       L1    17  0.03

> <Gold.Chemscore.Hbond.Weighted>
-6.6781

> <Gold.Chemscore.Metal.Weighted>
-0.0000

> <Gold.Chemscore.Lipo.Weighted>
-6.7901

> <Gold.Chemscore.Internal_Hbond.Weighted>
0.0000

> <Gold.Chemscore.DEClash.Weighted>
0.1722

> <Gold.Chemscore.DEInternal.Weighted>
1.0355

> <Gold.Chemscore.Rot.Weighted>
6.7271

> <Gold.Chemscore.Internal.Correction.Weighted>
   9.000000E+99

> <Gold.Protein.RotatedTorsions>
[ 6907 6896 6895 6894 ] final -164.76 input  -60.11 | X-H torsion
[ 7974 7965 7964 7962 ] final  126.38 input  175.53 | X-H torsion
[ 8008 7997 7996 7995 ] final  173.37 input   59.86 | X-H torsion
[ 10167 10162 10161 10158 ] final  -30.20 input  -65.29 | X-H torsion
[ 10718 10713 10712 10709 ] final  -43.85 input   66.30 | X-H torsion
[ 10763 10752 10751 10750 ] final -138.49 input  -60.55 | X-H torsion
[ 11005 11000 10999 10996 ] final  -94.08 input  -57.11 | X-H torsion

> <Gold.Protein.ActiveResidues>
 VAL166  LYS551  ARG553  GLY616  TRP617  ASP618  TYR619  PRO620  LYS621  CYS622 
 ASP623  PHE694  ASN695  SER759  ASP760  ASP761  ALA762  ILE779  LEU786  VAL792 
 PHE793  MET794  SER795  GLU796  ALA797  LYS798  CYS799  TRP800  GLU811  SER814 

> <Gold.Protein.RotatedAtoms>
  151.4168  133.3710  159.2750 H   0  0  0  0  0  0  0  0  0  0  0  0  # atno 6907 bound_to 6896
  150.9322  134.8738  159.7569 H   0  0  0  0  0  0  0  0  0  0  0  0  # atno 6908 bound_to 6896
  152.5033  134.4114  159.9502 H   0  0  0  0  0  0  0  0  0  0  0  0  # atno 6909 bound_to 6896
  145.0624  139.3794  143.4999 H   0  0  0  0  0  0  0  0  0  0  0  0  # atno 7974 bound_to 7965
  156.1082  140.1462  156.9375 H   0  0  0  0  0  0  0  0  0  0  0  0  # atno 8008 bound_to 7997
  154.4748  140.0898  156.7279 H   0  0  0  0  0  0  0  0  0  0  0  0  # atno 8009 bound_to 7997
  155.4643  140.3439  155.4319 H   0  0  0  0  0  0  0  0  0  0  0  0  # atno 8010 bound_to 7997
  140.7252  143.3868  151.1501 H   0  0  0  0  0  0  0  0  0  0  0  0  # atno 10167 bound_to 10162
  156.2446  130.4183  149.8720 H   0  0  0  0  0  0  0  0  0  0  0  0  # atno 10718 bound_to 10713
  154.8635  135.3610  154.5393 H   0  0  0  0  0  0  0  0  0  0  0  0  # atno 10763 bound_to 10752
  153.6016  135.7012  153.5387 H   0  0  0  0  0  0  0  0  0  0  0  0  # atno 10764 bound_to 10752
  153.3286  135.4131  155.1438 H   0  0  0  0  0  0  0  0  0  0  0  0  # atno 10765 bound_to 10752
  141.1480  133.7931  157.0248 H   0  0  0  0  0  0  0  0  0  0  0  0  # atno 11005 bound_to 11000
  146.3525  140.0329  142.8649 LP  0  0  0  0  0  0  0  0  0  0  0  0  # atno 17320 bound_to 7965
  145.1392  140.9562  143.4498 LP  0  0  0  0  0  0  0  0  0  0  0  0  # atno 17321 bound_to 7965
  139.7466  143.8842  152.3065 LP  0  0  0  0  0  0  0  0  0  0  0  0  # atno 17342 bound_to 10162
  139.8682  144.7082  150.9019 LP  0  0  0  0  0  0  0  0  0  0  0  0  # atno 17343 bound_to 10162
  156.6289  130.8657  151.3491 LP  0  0  0  0  0  0  0  0  0  0  0  0  # atno 17370 bound_to 10713
  157.7190  130.9533  150.1363 LP  0  0  0  0  0  0  0  0  0  0  0  0  # atno 17371 bound_to 10713
  140.0792  134.9658  157.1596 LP  0  0  0  0  0  0  0  0  0  0  0  0  # atno 17394 bound_to 11000
  140.3601  134.2504  155.7188 LP  0  0  0  0  0  0  0  0  0  0  0  0  # atno 17395 bound_to 11000

$$$$
