#       Name:                AV-unprocessed.smi:2850
#       Creating user name   scv26
#       Creation time:       Fri Mar 27 15:42:03 2020


#       File generated by GOLD software.
#

@<TRIPOS>MOLECULE
AV-unprocessed.smi:2850
    49    50     1
SMALL
NO_CHARGES


@<TRIPOS>ATOM
      1 ****        -2.1245   2.1860   5.3206 C.3            1 S1                 0.0000
      2 ****        -3.0030   3.1771   4.0798 S.3            1 S1                 0.0000
      3 ****        -3.0365   2.2333   2.5865 C.ar           1 S1                 0.0000
      4 ****        -3.5042   2.8024   1.3885 C.ar           1 S1                 0.0000
      5 ****        -3.4888   1.9850   0.2447 C.ar           1 S1                 0.0000
      6 ****        -3.0113   0.6663   0.3871 C.ar           1 S1                 0.0000
      7 ****        -2.9729  -0.1645  -0.7424 N.pl3          1 S1                 0.0000
      8 ****        -2.4526  -1.5264  -0.6805 C.3            1 S1                 0.0000
      9 ****        -0.9163  -1.5841  -0.5887 C.3            1 S1                 0.0000
     10 ****        -0.2148  -1.0343  -1.8497 C.3            1 S1                 0.0000
     11 ****         1.2587  -1.1594  -1.7365 N.4            1 S1                 1.0000
     12 ****         1.8719  -0.1424  -0.8389 C.3            1 S1                 0.0000
     13 ****         3.3553   0.1354  -1.1617 C.3            1 S1                 0.0000
     14 ****         3.9665   1.0721  -0.1087 C.3            1 S1                 0.0000
     15 ****         3.5365   0.7222  -2.5715 C.3            1 S1                 0.0000
     16 ****         1.6349  -2.5641  -1.4340 C.3            1 S1                 0.0000
     17 ****         0.8551  -3.1110  -0.2220 C.3            1 S1                 0.0000
     18 ****        -0.5429  -2.9487  -0.4320 O.3            1 S1                 0.0000
     19 ****        -2.5833   0.1846   1.5817 N.ar           1 S1                 0.0000
     20 ****        -2.5911   0.9594   2.6717 N.ar           1 S1                 0.0000
     21 ****        -2.0530   2.7376   6.2579 H              1 S1                 0.0000
     22 ****        -1.1155   1.9550   4.9786 H              1 S1                 0.0000
     23 ****        -2.6526   1.2515   5.5113 H              1 S1                 0.0000
     24 ****        -3.8551   3.8228   1.3461 H              1 S1                 0.0000
     25 ****        -3.8295   2.3615  -0.7088 H              1 S1                 0.0000
     26 ****        -3.3151   0.1834  -1.6267 H              1 S1                 0.0000
     27 ****        -2.8992  -2.0424   0.1703 H              1 S1                 0.0000
     28 ****        -2.7891  -2.0609  -1.5692 H              1 S1                 0.0000
     29 ****        -0.5885  -1.0316   0.2924 H              1 S1                 0.0000
     30 ****        -0.5431  -1.5961  -2.7254 H              1 S1                 0.0000
     31 ****        -0.4899   0.0047  -2.0345 H              1 S1                 0.0000
     32 ****         1.3248   0.7973  -0.9288 H              1 S1                 0.0000
     33 ****         1.7629  -0.4505   0.2010 H              1 S1                 0.0000
     34 ****         3.9142  -0.7987  -1.1139 H              1 S1                 0.0000
     35 ****         3.4587   2.0371  -0.0928 H              1 S1                 0.0000
     36 ****         5.0225   1.2560  -0.3092 H              1 S1                 0.0000
     37 ****         3.8934   0.6416   0.8905 H              1 S1                 0.0000
     38 ****         3.0006   1.6655  -2.6814 H              1 S1                 0.0000
     39 ****         3.1714   0.0395  -3.3390 H              1 S1                 0.0000
     40 ****         4.5891   0.9130  -2.7830 H              1 S1                 0.0000
     41 ****         1.4015  -3.1714  -2.3095 H              1 S1                 0.0000
     42 ****         2.7078  -2.6628  -1.2754 H              1 S1                 0.0000
     43 ****         1.0684  -4.1720  -0.0917 H              1 S1                 0.0000
     44 ****         1.1555  -2.6180   0.7034 H              1 S1                 0.0000
     45 ****         1.6240  -0.9526  -2.6553 H              1 S1                 0.0000
     46 ****        -0.8033  -3.4491  -1.2577 LP             1 S1                 0.0000
     47 ****        -1.0313  -3.3264   0.3547 LP             1 S1                 0.0000
     48 ****        -2.2589  -0.7590   1.6474 LP             1 S1                 0.0000
     49 ****        -2.2687   0.5980   3.5466 LP             1 S1                 0.0000
@<TRIPOS>BOND
    1    1    2 1     
    2    1   21 1     
    3    1   22 1     
    4    1   23 1     
    5    2    3 1     
    6    3   20 ar    
    7    3    4 ar    
    8    4    5 ar    
    9    4   24 1     
   10    5    6 ar    
   11    5   25 1     
   12    6    7 1     
   13    6   19 ar    
   14    7    8 1     
   15    7   26 1     
   16    8    9 1     
   17    8   27 1     
   18    8   28 1     
   19    9   18 1     
   20    9   10 1     
   21    9   29 1     
   22   10   11 1     
   23   10   30 1     
   24   10   31 1     
   25   11   12 1     
   26   11   16 1     
   27   11   45 1     
   28   12   13 1     
   29   12   32 1     
   30   12   33 1     
   31   13   14 1     
   32   13   15 1     
   33   13   34 1     
   34   14   35 1     
   35   14   36 1     
   36   14   37 1     
   37   15   38 1     
   38   15   39 1     
   39   15   40 1     
   40   16   17 1     
   41   16   41 1     
   42   16   42 1     
   43   17   18 1     
   44   17   43 1     
   45   17   44 1     
   46   19   20 ar    
   47   18   46 1     
   48   18   47 1     
   49   19   48 1     
   50   20   49 1     
@<TRIPOS>SUBSTRUCTURE
      1 S1             1
@<TRIPOS>SET
LONE_PAIRS      STATIC     ATOMS    <user>   **** ""
4 46 47 48 49
DONOR_HYDROGENS      STATIC     ATOMS    <user>   **** ""
2 26 45
ATOM$BLUE        STATIC     ATOMS    COLORGROUP SYSTEM
4 46 47 48 49
ATOM$RED        STATIC     ATOMS    COLORGROUP SYSTEM
2 26 45
