#       Name:                AV-unprocessed.smi:3285
#       Creating user name   scv26
#       Creation time:       Fri Mar 27 18:50:44 2020


#       File generated by GOLD software.
#

@<TRIPOS>MOLECULE
AV-unprocessed.smi:3285
    48    49     1
SMALL
NO_CHARGES


@<TRIPOS>ATOM
      1 ****        -3.3477   1.3948   3.6612 C.3            1 S1                 0.0000
      2 ****        -3.5407   1.7091   2.2053 C.2            1 S1                 0.0000
      3 ****        -3.9107   2.9280   1.8525 N.2            1 S1                 0.0000
      4 ****        -4.0088   2.9113   0.4583 O.3            1 S1                 0.0000
      5 ****        -3.6902   1.6677   0.0199 C.2            1 S1                 0.0000
      6 ****        -3.7336   1.4568  -1.4564 C.3            1 S1                 0.0000
      7 ****        -3.3788   0.8546   1.0762 C.2            1 S1                 0.0000
      8 ****        -2.9603  -0.5943   1.0630 C.3            1 S1                 0.0000
      9 ****        -1.4328  -0.7553   1.0952 C.3            1 S1                 0.0000
     10 ****        -0.8032  -0.1388  -0.0923 N.4            1 S1                 1.0000
     11 ****         0.6752  -0.1054  -0.0861 C.3            1 S1                 0.0000
     12 ****         1.1709   0.9127  -1.1243 C.3            1 S1                 0.0000
     13 ****         2.7039   0.9679  -1.1601 C.3            1 S1                 0.0000
     14 ****         3.3248  -0.4135  -1.4487 C.3            1 S1                 0.0000
     15 ****         4.8591  -0.2985  -1.4838 C.3            1 S1                 0.0000
     16 ****         2.8201  -1.4640  -0.4240 C.3            1 S1                 0.0000
     17 ****         3.3608  -2.8782  -0.7008 C.3            1 S1                 0.0000
     18 ****         1.2774  -1.4929  -0.3822 C.3            1 S1                 0.0000
     19 ****        -2.7933   0.4670   3.8003 H              1 S1                 0.0000
     20 ****        -4.3071   1.2864   4.1672 H              1 S1                 0.0000
     21 ****        -2.7934   2.1864   4.1662 H              1 S1                 0.0000
     22 ****        -3.4757   0.4307  -1.7178 H              1 S1                 0.0000
     23 ****        -3.0300   2.1188  -1.9611 H              1 S1                 0.0000
     24 ****        -4.7304   1.6627  -1.8466 H              1 S1                 0.0000
     25 ****        -3.3866  -1.1196   1.9182 H              1 S1                 0.0000
     26 ****        -3.3583  -1.1061   0.1863 H              1 S1                 0.0000
     27 ****        -1.0326  -0.2967   2.0005 H              1 S1                 0.0000
     28 ****        -1.1806  -1.8149   1.1345 H              1 S1                 0.0000
     29 ****        -1.1201  -0.6145  -0.9249 H              1 S1                 0.0000
     30 ****         1.0056   0.2274   0.8993 H              1 S1                 0.0000
     31 ****         0.7937   0.6511  -2.1142 H              1 S1                 0.0000
     32 ****         0.7762   1.9034  -0.8949 H              1 S1                 0.0000
     33 ****         3.0197   1.6836  -1.9201 H              1 S1                 0.0000
     34 ****         3.0760   1.3485  -0.2076 H              1 S1                 0.0000
     35 ****         2.9967  -0.7227  -2.4425 H              1 S1                 0.0000
     36 ****         5.2624  -0.0677  -0.4974 H              1 S1                 0.0000
     37 ****         5.1763   0.4925  -2.1640 H              1 S1                 0.0000
     38 ****         5.3266  -1.2192  -1.8316 H              1 S1                 0.0000
     39 ****         3.1714  -1.1675   0.5656 H              1 S1                 0.0000
     40 ****         3.1099  -3.2094  -1.7091 H              1 S1                 0.0000
     41 ****         2.9414  -3.6017  -0.0011 H              1 S1                 0.0000
     42 ****         4.4439  -2.9263  -0.5913 H              1 S1                 0.0000
     43 ****         0.9570  -2.2077   0.3758 H              1 S1                 0.0000
     44 ****         0.8938  -1.8634  -1.3343 H              1 S1                 0.0000
     45 ****        -1.1257   0.8178  -0.1304 H              1 S1                 0.0000
     46 ****        -4.0849   3.7037   2.4592 LP             1 S1                 0.0000
     47 ****        -3.3757   3.5794   0.0675 LP             1 S1                 0.0000
     48 ****        -4.9433   3.1370   0.1831 LP             1 S1                 0.0000
@<TRIPOS>BOND
    1    1    2 1     
    2    1   19 1     
    3    1   20 1     
    4    1   21 1     
    5    2    7 1     
    6    2    3 2     
    7    3    4 1     
    8    4    5 1     
    9    5    6 1     
   10    5    7 2     
   11    6   22 1     
   12    6   23 1     
   13    6   24 1     
   14    7    8 1     
   15    8    9 1     
   16    8   25 1     
   17    8   26 1     
   18    9   10 1     
   19    9   27 1     
   20    9   28 1     
   21   10   11 1     
   22   10   29 1     
   23   10   45 1     
   24   11   18 1     
   25   11   12 1     
   26   11   30 1     
   27   12   13 1     
   28   12   31 1     
   29   12   32 1     
   30   13   14 1     
   31   13   33 1     
   32   13   34 1     
   33   14   15 1     
   34   14   16 1     
   35   14   35 1     
   36   15   36 1     
   37   15   37 1     
   38   15   38 1     
   39   16   17 1     
   40   16   18 1     
   41   16   39 1     
   42   17   40 1     
   43   17   41 1     
   44   17   42 1     
   45   18   43 1     
   46   18   44 1     
   47    3   46 1     
   48    4   47 1     
   49    4   48 1     
@<TRIPOS>SUBSTRUCTURE
      1 S1             1
@<TRIPOS>SET
LONE_PAIRS      STATIC     ATOMS    <user>   **** ""
3 46 47 48
DONOR_HYDROGENS      STATIC     ATOMS    <user>   **** ""
2 29 45
ATOM$BLUE        STATIC     ATOMS    COLORGROUP SYSTEM
3 46 47 48
ATOM$RED        STATIC     ATOMS    COLORGROUP SYSTEM
2 29 45
