#       Name:                AV-unprocessed.smi:268
#       Creating user name   scv26
#       Creation time:       Thu Mar 26 21:25:41 2020


#       File generated by GOLD software.
#

@<TRIPOS>MOLECULE
AV-unprocessed.smi:268
    60    63     1
SMALL
NO_CHARGES


@<TRIPOS>ATOM
      1 ****        -6.5400  -2.9073   1.4421 C.3            1 S1                 0.0000
      2 ****        -5.5806  -1.7490   1.1595 C.3            1 S1                 0.0000
      3 ****        -4.5387  -2.2109   0.3161 O.3            1 S1                 0.0000
      4 ****        -3.5989  -1.1968   0.0011 C.3            1 S1                 0.0000
      5 ****        -4.0547  -0.2382  -1.1070 C.3            1 S1                 0.0000
      6 ****        -2.6785  -0.4044  -1.7785 C.3            1 S1                 0.0000
      7 ****        -1.7364   0.6629  -1.4171 N.3            1 S1                 0.0000
      8 ****        -2.0853   2.0259  -1.8096 C.3            1 S1                 0.0000
      9 ****        -0.4065   0.4150  -1.5419 C.ar           1 S1                 0.0000
     10 ****         0.0338  -0.5380  -2.4070 N.ar           1 S1                 0.0000
     11 ****         1.3417  -0.7774  -2.5387 C.ar           1 S1                 0.0000
     12 ****         2.3645  -0.1894  -1.9152 N.ar           1 S1                 0.0000
     13 ****         1.9298   0.7706  -1.0495 C.ar           1 S1                 0.0000
     14 ****         0.5759   1.1361  -0.8069 C.ar           1 S1                 0.0000
     15 ****         0.5223   2.1513   0.1404 N.2            1 S1                 0.0000
     16 ****         1.7729   2.3739   0.4399 C.2            1 S1                 0.0000
     17 ****         2.6854   1.5816  -0.2199 N.pl3          1 S1                 0.0000
     18 ****         4.1329   1.6110  -0.0756 C.3            1 S1                 0.0000
     19 ****         4.6521   0.8284   1.1451 C.3            1 S1                 0.0000
     20 ****         4.2436  -0.6513   0.9923 C.3            1 S1                 0.0000
     21 ****         4.7693  -1.4669   2.0205 O.3            1 S1                 0.0000
     22 ****         6.1207   1.0947   1.5058 C.3            1 S1                 0.0000
     23 ****         5.7874   1.4274   2.8717 O.3            1 S1                 0.0000
     24 ****         4.3869   1.4617   2.5186 C.3            1 S1                 0.0000
     25 ****        -2.5049  -1.6940  -0.9486 C.3            1 S1                 0.0000
     26 ****        -7.3551  -2.5882   2.0918 H              1 S1                 0.0000
     27 ****        -6.0235  -3.7323   1.9334 H              1 S1                 0.0000
     28 ****        -6.9770  -3.2871   0.5183 H              1 S1                 0.0000
     29 ****        -6.1195  -0.9288   0.6832 H              1 S1                 0.0000
     30 ****        -5.1662  -1.3726   2.0958 H              1 S1                 0.0000
     31 ****        -3.1818  -0.6834   0.8697 H              1 S1                 0.0000
     32 ****        -4.8621  -0.6512  -1.7138 H              1 S1                 0.0000
     33 ****        -4.2998   0.7641  -0.7546 H              1 S1                 0.0000
     34 ****        -2.7475  -0.5866  -2.8518 H              1 S1                 0.0000
     35 ****        -2.2067   2.6482  -0.9226 H              1 S1                 0.0000
     36 ****        -3.0225   2.0475  -2.3664 H              1 S1                 0.0000
     37 ****        -1.3221   2.4813  -2.4435 H              1 S1                 0.0000
     38 ****         1.6059  -1.5508  -3.2446 H              1 S1                 0.0000
     39 ****         2.0632   3.1265   1.1581 H              1 S1                 0.0000
     40 ****         4.5803   1.2278  -0.9936 H              1 S1                 0.0000
     41 ****         4.4362   2.6571  -0.0165 H              1 S1                 0.0000
     42 ****         3.1599  -0.7656   1.0165 H              1 S1                 0.0000
     43 ****         4.5833  -1.0511   0.0364 H              1 S1                 0.0000
     44 ****         4.4841  -2.3559   1.8750 H              1 S1                 0.0000
     45 ****         6.7698   0.2215   1.4319 H              1 S1                 0.0000
     46 ****         6.5593   1.9443   0.9802 H              1 S1                 0.0000
     47 ****         4.0124   2.4849   2.4742 H              1 S1                 0.0000
     48 ****         3.7713   0.8523   3.1812 H              1 S1                 0.0000
     49 ****        -1.5354  -1.8367  -0.4705 H              1 S1                 0.0000
     50 ****        -2.8034  -2.5844  -1.5042 H              1 S1                 0.0000
     51 ****        -4.9417  -2.5488  -0.5344 LP             1 S1                 0.0000
     52 ****        -4.0605  -2.9577   0.7781 LP             1 S1                 0.0000
     53 ****        -1.8967   0.6239  -0.4308 LP             1 S1                 0.0000
     54 ****        -0.6247  -1.0620  -2.9471 LP             1 S1                 0.0000
     55 ****         3.3256  -0.4225  -2.0636 LP             1 S1                 0.0000
     56 ****        -0.2884   2.6068   0.5082 LP             1 S1                 0.0000
     57 ****         4.4366  -1.1471   2.9076 LP             1 S1                 0.0000
     58 ****         5.7684  -1.4266   2.0050 LP             1 S1                 0.0000
     59 ****         6.1530   2.3060   3.1791 LP             1 S1                 0.0000
     60 ****         6.0244   0.7174   3.5347 LP             1 S1                 0.0000
@<TRIPOS>BOND
    1    1    2 1     
    2    1   26 1     
    3    1   27 1     
    4    1   28 1     
    5    2    3 1     
    6    2   29 1     
    7    2   30 1     
    8    3    4 1     
    9    4   25 1     
   10    4    5 1     
   11    4   31 1     
   12    5    6 1     
   13    5   32 1     
   14    5   33 1     
   15    6    7 1     
   16    6   25 1     
   17    6   34 1     
   18    7    8 1     
   19    7    9 1     
   20    8   35 1     
   21    8   36 1     
   22    8   37 1     
   23    9   14 ar    
   24    9   10 ar    
   25   10   11 ar    
   26   11   12 ar    
   27   11   38 1     
   28   12   13 ar    
   29   13   17 1     
   30   13   14 ar    
   31   14   15 1     
   32   15   16 2     
   33   16   17 1     
   34   16   39 1     
   35   17   18 1     
   36   18   19 1     
   37   18   40 1     
   38   18   41 1     
   39   19   24 1     
   40   19   20 1     
   41   19   22 1     
   42   20   21 1     
   43   20   42 1     
   44   20   43 1     
   45   21   44 1     
   46   22   23 1     
   47   22   45 1     
   48   22   46 1     
   49   23   24 1     
   50   24   47 1     
   51   24   48 1     
   52   25   49 1     
   53   25   50 1     
   54    3   51 1     
   55    3   52 1     
   56    7   53 1     
   57   10   54 1     
   58   12   55 1     
   59   15   56 1     
   60   21   57 1     
   61   21   58 1     
   62   23   59 1     
   63   23   60 1     
@<TRIPOS>SUBSTRUCTURE
      1 S1             1
@<TRIPOS>SET
LONE_PAIRS      STATIC     ATOMS    <user>   **** ""
10 51 52 53 54 55 56 57 58 59 60
DONOR_HYDROGENS      STATIC     ATOMS    <user>   **** ""
1 44
ATOM$BLUE        STATIC     ATOMS    COLORGROUP SYSTEM
10 51 52 53 54 55 56 57 58 59 60
ATOM$RED        STATIC     ATOMS    COLORGROUP SYSTEM
1 44
