AV-unprocessed.smi:3146|AV-procd|sdf|11985|dock1
  -GOLD-   2272017393D 1   1.00000     0.00000
 Structure written by MMmdl.
 35 36  0  0  0  0  0  0  0  0  2 V2000
  151.9265  140.7740  157.9915 O   0  0  0  0  0  0  0  0  0  0  0  0
  151.7871  141.7735  158.6984 C   0  0  0  0  0  0  0  0  0  0  0  0
  150.7838  142.8609  158.2878 C   0  0  0  0  0  0  0  0  0  0  0  0
  149.8043  142.3761  157.2940 N   0  3  0  0  0  0  0  0  0  0  0  0
  148.7553  141.5006  157.8544 C   0  0  0  0  0  0  0  0  0  0  0  0
  147.3467  141.9924  157.4842 C   0  0  0  0  0  0  0  0  0  0  0  0
  147.1045  141.9432  156.0535 N   0  0  0  0  0  0  0  0  0  0  0  0
  146.0315  142.4462  155.3480 C   0  0  0  0  0  0  0  0  0  0  0  0
  146.2460  142.1661  154.0289 C   0  0  0  0  0  0  0  0  0  0  0  0
  147.4921  141.4787  154.0264 C   0  0  0  0  0  0  0  0  0  0  0  0
  148.0044  141.3488  155.2398 N   0  0  0  0  0  0  0  0  0  0  0  0
  152.4891  141.9513  159.8365 N   0  0  0  0  0  0  0  0  0  0  0  0
  153.4849  141.0273  160.3787 C   0  0  0  0  0  0  0  0  0  0  0  0
  154.1523  141.7714  161.5360 C   0  0  0  0  0  0  0  0  0  0  0  0
  153.1057  142.7822  161.9842 C   0  0  0  0  0  0  0  0  0  0  0  0
  152.3385  143.1173  160.7051 C   0  0  0  0  0  0  0  0  0  0  0  0
  150.2496  143.2083  159.1731 H   0  0  0  0  0  0  0  0  0  0  0  0
  151.3227  143.7111  157.8674 H   0  0  0  0  0  0  0  0  0  0  0  0
  149.3591  143.1768  156.8678 H   0  0  0  0  0  0  0  0  0  0  0  0
  148.9015  140.4906  157.4698 H   0  0  0  0  0  0  0  0  0  0  0  0
  148.8603  141.4474  158.9388 H   0  0  0  0  0  0  0  0  0  0  0  0
  146.5829  141.4063  157.9976 H   0  0  0  0  0  0  0  0  0  0  0  0
  147.2194  143.0245  157.8129 H   0  0  0  0  0  0  0  0  0  0  0  0
  145.2140  142.9560  155.8367 H   0  0  0  0  0  0  0  0  0  0  0  0
  145.6090  142.4130  153.1924 H   0  0  0  0  0  0  0  0  0  0  0  0
  148.0357  141.0744  153.1851 H   0  0  0  0  0  0  0  0  0  0  0  0
  152.9798  140.1319  160.7436 H   0  0  0  0  0  0  0  0  0  0  0  0
  154.2218  140.7251  159.6333 H   0  0  0  0  0  0  0  0  0  0  0  0
  154.4703  141.1063  162.3395 H   0  0  0  0  0  0  0  0  0  0  0  0
  155.0345  142.2992  161.1712 H   0  0  0  0  0  0  0  0  0  0  0  0
  152.4314  142.3150  162.7032 H   0  0  0  0  0  0  0  0  0  0  0  0
  153.5424  143.6616  162.4587 H   0  0  0  0  0  0  0  0  0  0  0  0
  152.7771  143.9860  160.2119 H   0  0  0  0  0  0  0  0  0  0  0  0
  151.2918  143.3403  160.9178 H   0  0  0  0  0  0  0  0  0  0  0  0
  150.3010  141.8698  156.5747 H   0  0  0  0  0  0  0  0  0  0  0  0
  1  2  2  0  0  0  0
  2  3  1  0  0  0  0
  2 12  1  0  0  0  0
  3  4  1  0  0  0  0
  3 17  1  0  0  0  0
  3 18  1  0  0  0  0
  4  5  1  0  0  0  0
  4 19  1  0  0  0  0
  4 35  1  0  0  0  0
  5  6  1  0  0  0  0
  5 20  1  0  0  0  0
  5 21  1  0  0  0  0
  6  7  1  0  0  0  0
  6 22  1  0  0  0  0
  6 23  1  0  0  0  0
  7 11  1  0  0  0  0
  7  8  1  0  0  0  0
  8  9  2  0  0  0  0
  8 24  1  0  0  0  0
  9 10  1  0  0  0  0
  9 25  1  0  0  0  0
 10 11  2  0  0  0  0
 10 26  1  0  0  0  0
 12 16  1  0  0  0  0
 12 13  1  0  0  0  0
 13 14  1  0  0  0  0
 13 27  1  0  0  0  0
 13 28  1  0  0  0  0
 14 15  1  0  0  0  0
 14 29  1  0  0  0  0
 14 30  1  0  0  0  0
 15 16  1  0  0  0  0
 15 31  1  0  0  0  0
 15 32  1  0  0  0  0
 16 33  1  0  0  0  0
 16 34  1  0  0  0  0
M  CHG  1   4   1
M  END
> <s_m_source_file>
AV-unprocessed.smi

> <i_m_source_file_index>
3146

> <i_lp_mmshare_version>
43012

> <i_f3d_flags>
0

> <s_epik_input>
W0NIMl0xW0NIMl1bQ0gyXVtDSDJdTjFDKD1PKVtDSDJdW05IXVtDSDJdW0NIMl1uMltjSF1bY0hdW2NIXW4y

> <s_epik_cmdline>
J2VwaWtfcHl0aG9uJywgJy1waCcsICc3LjAnLCAnLXRuJywgJzgnLCAnLW1hJywgJzIwMCcsICctbWV0YWxfYmluZGluZycsICctaW1hZScsICc8aW5maWxlLm1hZT4nLCAnLW9tYWUnLCAnPG91dGZpbGUubWFlPic=

> <r_lp_tautomer_probability>
1

> <r_epik_Ionization_Penalty>
0.203171

> <r_epik_Ionization_Penalty_Charging>
0.203168

> <r_epik_Ionization_Penalty_Neutral>
2.33614e-06

> <r_epik_State_Penalty>
0.193072

> <r_epik_Charging_Adjusted_Penalty>
0.39624

> <i_epik_Tot_Q>
1

> <i_epik_Tot_abs_Q>
1

> <r_epik_Metal_State_Penalty>
0.193553

> <b_epik_Metal_Only>
0

> <s_lp_Force_Field>
OPLS_2005

> <r_lp_Energy>
25.7734

> <b_lp_Chiralities_Consistent>
1

> <s_lp_Variant>
AV-unprocessed.smi:3146-1

> <Gold.Version>
5.8.1

> <Gold.Id.Protein>
6NUR|6NUR_protein|mol2

> <Gold.PLP.Fitness>
43.6399

> <Gold.PLP.PLP>
-36.0175

> <Gold.PLP.part.hbond>
-1.0000

> <Gold.PLP.part.metal>
0.0000

> <Gold.PLP.part.buried>
-4.3637

> <Gold.PLP.part.nonpolar>
-29.5838

> <Gold.PLP.part.repulsive>
0.1342

> <Gold.PLP.ligand.clash>
0.0000

> <Gold.PLP.ligand.torsion>
0.7289

> <Gold.PLP.Chemscore.Hbond>
2.0000

> <Gold.PLP.Chemscore.CHOScore>
1.0000

> <Gold.PLP.Chemscore.Metal>
0.0000

> <Gold.Chemscore.Hbonds>
donor molecule, donor type, donor heavy atom, donor atom, acceptor molecule, acceptor atom, score
      L1  H     4    19       P1  8028  2.00
      L1  C    10    26       P1  7957  0.44

> <Gold.PLP.Chemscore.Internal.Correction>
0.0801

> <Gold.Rescore>
     Score         DG    S(hbond)    S(metal)    S(lipo)     H(rot)  DE(clash)    DE(int)     intcor
     11.96     -12.91       0.99        0.00      76.66       1.90       0.19       0.75       ----

> <Gold.Chemscore.Fitness>
11.9589

> <Gold.Chemscore.DG>
-12.9055

> <Gold.Chemscore.ZeroCoef>
-5.4800

> <Gold.Chemscore.Hbond>
0.9922

> <Gold.Chemscore.Metal>
0.0000

> <Gold.Chemscore.Lipo>
76.6573

> <Gold.Chemscore.Internal_Hbond>
0.0000

> <Gold.Chemscore.DEClash>
0.1927

> <Gold.Chemscore.DEInternal>
0.7539

> <Gold.Chemscore.Rot>
1.8974

> <Gold.Chemscore.Internal.Correction>
   9.000000E+99

> <Gold.Chemscore.Hbonds>
donor molecule, donor type, donor heavy atom, donor atom, acceptor molecule, acceptor atom, score
      L1  H     4    19       P1  8028  0.94

> <Gold.Chemscore.Hbond.Weighted>
-3.3139

> <Gold.Chemscore.Metal.Weighted>
-0.0000

> <Gold.Chemscore.Lipo.Weighted>
-8.9689

> <Gold.Chemscore.Internal_Hbond.Weighted>
0.0000

> <Gold.Chemscore.DEClash.Weighted>
0.1927

> <Gold.Chemscore.DEInternal.Weighted>
0.7539

> <Gold.Chemscore.Rot.Weighted>
4.8572

> <Gold.Chemscore.Internal.Correction.Weighted>
   9.000000E+99

> <Gold.Protein.RotatedTorsions>
[ 6907 6896 6895 6894 ] final  -14.73 input  -60.11 | X-H torsion
[ 7974 7965 7964 7962 ] final -137.15 input  175.53 | X-H torsion
[ 8008 7997 7996 7995 ] final -135.43 input   59.86 | X-H torsion
[ 10167 10162 10161 10158 ] final -145.62 input  -65.29 | X-H torsion
[ 10718 10713 10712 10709 ] final   59.07 input   66.30 | X-H torsion
[ 10763 10752 10751 10750 ] final -146.90 input  -60.55 | X-H torsion
[ 11005 11000 10999 10996 ] final  -60.38 input  -57.11 | X-H torsion

> <Gold.Protein.ActiveResidues>
 VAL166  LYS551  ARG553  GLY616  TRP617  ASP618  TYR619  PRO620  LYS621  CYS622 
 ASP623  PHE694  ASN695  SER759  ASP760  ASP761  ALA762  ILE779  LEU786  VAL792 
 PHE793  MET794  SER795  GLU796  ALA797  LYS798  CYS799  TRP800  GLU811  SER814 

> <Gold.Protein.RotatedAtoms>
  151.3349  135.0850  159.9350 H   0  0  0  0  0  0  0  0  0  0  0  0  # atno 6907 bound_to 6896
  152.5226  133.9506  159.7680 H   0  0  0  0  0  0  0  0  0  0  0  0  # atno 6908 bound_to 6896
  150.9851  133.6153  159.2746 H   0  0  0  0  0  0  0  0  0  0  0  0  # atno 6909 bound_to 6896
  144.8866  140.6583  143.5172 H   0  0  0  0  0  0  0  0  0  0  0  0  # atno 7974 bound_to 7965
  155.3785  140.0492  157.3044 H   0  0  0  0  0  0  0  0  0  0  0  0  # atno 8008 bound_to 7997
  154.5094  140.2186  155.9148 H   0  0  0  0  0  0  0  0  0  0  0  0  # atno 8009 bound_to 7997
  156.1565  140.3125  155.8740 H   0  0  0  0  0  0  0  0  0  0  0  0  # atno 8010 bound_to 7997
  139.7789  143.8130  152.2636 H   0  0  0  0  0  0  0  0  0  0  0  0  # atno 10167 bound_to 10162
  157.5647  130.8862  149.9167 H   0  0  0  0  0  0  0  0  0  0  0  0  # atno 10718 bound_to 10713
  154.8313  135.3374  154.6733 H   0  0  0  0  0  0  0  0  0  0  0  0  # atno 10763 bound_to 10752
  153.7353  135.6949  153.4984 H   0  0  0  0  0  0  0  0  0  0  0  0  # atno 10764 bound_to 10752
  153.2283  135.4425  155.0518 H   0  0  0  0  0  0  0  0  0  0  0  0  # atno 10765 bound_to 10752
  141.1285  133.6622  156.5215 H   0  0  0  0  0  0  0  0  0  0  0  0  # atno 11005 bound_to 11000
  145.3858  139.1627  143.4256 LP  0  0  0  0  0  0  0  0  0  0  0  0  # atno 17320 bound_to 7965
  146.3028  140.3942  142.8698 LP  0  0  0  0  0  0  0  0  0  0  0  0  # atno 17321 bound_to 7965
  139.8187  144.7305  150.9601 LP  0  0  0  0  0  0  0  0  0  0  0  0  # atno 17342 bound_to 10162
  140.7817  143.4180  151.0886 LP  0  0  0  0  0  0  0  0  0  0  0  0  # atno 17343 bound_to 10162
  156.0696  130.3687  150.0804 LP  0  0  0  0  0  0  0  0  0  0  0  0  # atno 17370 bound_to 10713
  156.8964  130.9606  151.3582 LP  0  0  0  0  0  0  0  0  0  0  0  0  # atno 17371 bound_to 10713
  140.4288  134.7120  157.4931 LP  0  0  0  0  0  0  0  0  0  0  0  0  # atno 17394 bound_to 11000
  140.0308  134.6409  155.9109 LP  0  0  0  0  0  0  0  0  0  0  0  0  # atno 17395 bound_to 11000

$$$$
