AV-unprocessed.smi:332|AV-procd|sdf|2359|dock10
  -GOLD-   2262022273D 1   1.00000     0.00000
 Structure written by MMmdl.
 42 44  0  0  0  0  0  0  0  0  1 V2000
  150.8087  140.8234  157.5915 C   0  0  0  0  0  0  0  0  0  0  0  0
  150.9572  142.0312  156.6516 C   0  0  1  0  0  0  0  0  0  0  0  0
  149.7906  142.0770  155.7719 N   0  0  0  0  0  0  0  0  0  0  0  0
  149.5407  141.2436  154.7499 C   0  0  0  0  0  0  0  0  0  0  0  0
  150.2647  140.2916  154.4555 O   0  0  0  0  0  0  0  0  0  0  0  0
  148.2670  141.5335  153.9442 C   0  0  0  0  0  0  0  0  0  0  0  0
  147.5045  140.3167  153.6194 N   0  0  0  0  0  0  0  0  0  0  0  0
  147.3831  139.9781  152.2569 C   0  0  0  0  0  0  0  0  0  0  0  0
  146.7059  138.8917  151.8533 C   0  0  0  0  0  0  0  0  0  0  0  0
  146.0907  138.0582  152.8588 C   0  0  0  0  0  0  0  0  0  0  0  0
  146.1976  138.3747  154.1646 C   0  0  0  0  0  0  0  0  0  0  0  0
  146.9358  139.5622  154.6104 C   0  0  0  0  0  0  0  0  0  0  0  0
  147.0367  139.8606  155.8011 O   0  0  0  0  0  0  0  0  0  0  0  0
  151.0924  143.3676  157.4234 C   0  0  1  0  0  0  0  0  0  0  0  0
  150.0516  143.5346  158.5575 C   0  0  0  0  0  0  0  0  0  0  0  0
  150.9164  143.8438  159.7921 C   0  0  2  0  0  0  0  0  0  0  0  0
  151.5379  145.2447  159.6489 C   0  0  0  0  0  0  0  0  0  0  0  0
  152.6047  145.0304  158.5595 C   0  0  0  0  0  0  0  0  0  0  0  0
  152.4264  143.5436  158.1971 C   0  0  1  0  0  0  0  0  0  0  0  0
  152.1161  142.9352  159.5605 C   0  0  0  0  0  0  0  0  0  0  0  0
  151.6792  140.7069  158.2367 H   0  0  0  0  0  0  0  0  0  0  0  0
  150.7014  139.8982  157.0243 H   0  0  0  0  0  0  0  0  0  0  0  0
  149.9318  140.9238  158.2320 H   0  0  0  0  0  0  0  0  0  0  0  0
  151.8625  141.8787  156.0622 H   0  0  0  0  0  0  0  0  0  0  0  0
  149.1327  142.8250  155.9376 H   0  0  0  0  0  0  0  0  0  0  0  0
  147.6561  142.2331  154.5162 H   0  0  0  0  0  0  0  0  0  0  0  0
  148.5242  142.0633  153.0248 H   0  0  0  0  0  0  0  0  0  0  0  0
  147.8652  140.6565  151.5681 H   0  0  0  0  0  0  0  0  0  0  0  0
  146.6200  138.6500  150.8040 H   0  0  0  0  0  0  0  0  0  0  0  0
  145.5405  137.1774  152.5622 H   0  0  0  0  0  0  0  0  0  0  0  0
  145.7288  137.7403  154.9025 H   0  0  0  0  0  0  0  0  0  0  0  0
  150.9860  144.1818  156.7046 H   0  0  0  0  0  0  0  0  0  0  0  0
  149.3316  144.3260  158.3460 H   0  0  0  0  0  0  0  0  0  0  0  0
  149.4899  142.6148  158.7255 H   0  0  0  0  0  0  0  0  0  0  0  0
  150.3971  143.6901  160.7383 H   0  0  0  0  0  0  0  0  0  0  0  0
  150.7997  145.9963  159.3668 H   0  0  0  0  0  0  0  0  0  0  0  0
  152.0021  145.5633  160.5830 H   0  0  0  0  0  0  0  0  0  0  0  0
  152.4667  145.6901  157.7023 H   0  0  0  0  0  0  0  0  0  0  0  0
  153.6024  145.2132  158.9608 H   0  0  0  0  0  0  0  0  0  0  0  0
  153.3033  143.1269  157.7020 H   0  0  0  0  0  0  0  0  0  0  0  0
  152.9142  143.0788  160.2909 H   0  0  0  0  0  0  0  0  0  0  0  0
  151.8584  141.8757  159.5181 H   0  0  0  0  0  0  0  0  0  0  0  0
  1  2  1  0  0  0  0
  1 21  1  0  0  0  0
  1 22  1  0  0  0  0
  1 23  1  0  0  0  0
  2  3  1  0  0  0  0
  2 14  1  0  0  0  0
  2 24  1  0  0  0  0
  3  4  1  0  0  0  0
  3 25  1  0  0  0  0
  4  5  2  0  0  0  0
  4  6  1  0  0  0  0
  6  7  1  0  0  0  0
  6 26  1  0  0  0  0
  6 27  1  0  0  0  0
  7 12  1  0  0  0  0
  7  8  1  0  0  0  0
  8  9  2  0  0  0  0
  8 28  1  0  0  0  0
  9 10  1  0  0  0  0
  9 29  1  0  0  0  0
 10 11  2  0  0  0  0
 10 30  1  0  0  0  0
 11 12  1  0  0  0  0
 11 31  1  0  0  0  0
 12 13  2  0  0  0  0
 14 19  1  0  0  0  0
 14 15  1  0  0  0  0
 14 32  1  0  0  0  0
 15 16  1  0  0  0  0
 15 33  1  0  0  0  0
 15 34  1  0  0  0  0
 16 20  1  0  0  0  0
 16 17  1  0  0  0  0
 16 35  1  0  0  0  0
 17 18  1  0  0  0  0
 17 36  1  0  0  0  0
 17 37  1  0  0  0  0
 18 19  1  0  0  0  0
 18 38  1  0  0  0  0
 18 39  1  0  0  0  0
 19 20  1  0  0  0  0
 19 40  1  0  0  0  0
 20 41  1  0  0  0  0
 20 42  1  0  0  0  0
M  END
> <s_m_source_file>
AV-unprocessed.smi

> <i_m_source_file_index>
332

> <i_lp_mmshare_version>
43012

> <i_f3d_flags>
0

> <s_epik_input>
W0NIMl0xW0NIMl1bQ0BIXShbQ0gyXTIpW0NAQEhdKFtDSDJdW0NAQEhdMTIpW0NASF0oW0NIM10pW05IXUMoPU8pW0NIMl1uM1tjSF1bY0hdW2NIXVtjSF1jMz1P

> <s_epik_cmdline>
J2VwaWtfcHl0aG9uJywgJy1waCcsICc3LjAnLCAnLXRuJywgJzgnLCAnLW1hJywgJzIwMCcsICctbWV0YWxfYmluZGluZycsICctaW1hZScsICc8aW5maWxlLm1hZT4nLCAnLW9tYWUnLCAnPG91dGZpbGUubWFlPic=

> <r_lp_tautomer_probability>
1

> <r_epik_Ionization_Penalty>
4.05802e-07

> <r_epik_Ionization_Penalty_Charging>
3.84175e-07

> <r_epik_Ionization_Penalty_Neutral>
2.16269e-08

> <r_epik_State_Penalty>
-0

> <r_epik_Charging_Adjusted_Penalty>
3.84175e-07

> <i_epik_Tot_Q>
0

> <i_epik_Tot_abs_Q>
0

> <r_epik_Metal_State_Penalty>
-0

> <b_epik_Metal_Only>
0

> <s_lp_Force_Field>
OPLS_2005

> <r_lp_Energy>
59.7004

> <b_lp_Chiralities_Consistent>
1

> <s_lp_Variant>
AV-unprocessed.smi:332-8

> <Gold.Version>
5.8.1

> <Gold.Id.Protein>
6NUR|6NUR_protein|mol2

> <Gold.PLP.Fitness>
48.7613

> <Gold.PLP.PLP>
-42.2331

> <Gold.PLP.part.hbond>
-2.0000

> <Gold.PLP.part.metal>
0.0000

> <Gold.PLP.part.buried>
-2.1210

> <Gold.PLP.part.nonpolar>
-39.6231

> <Gold.PLP.part.repulsive>
0.2284

> <Gold.PLP.ligand.clash>
0.0000

> <Gold.PLP.ligand.torsion>
0.5762

> <Gold.PLP.Chemscore.Hbond>
1.8320

> <Gold.PLP.Chemscore.CHOScore>
0.7237

> <Gold.PLP.Chemscore.Metal>
0.0000

> <Gold.Chemscore.Hbonds>
donor molecule, donor type, donor heavy atom, donor atom, acceptor molecule, acceptor atom, score
      L1  H     3    25       P1  8028  0.85
      P1  H  7989  7998       L1     5  1.00
      L1  C     8    28       P1  7957  0.35

> <Gold.PLP.Chemscore.Internal.Correction>
0.0136

> <Gold.Rescore>
     Score         DG    S(hbond)    S(metal)    S(lipo)     H(rot)  DE(clash)    DE(int)     intcor
     19.39     -21.65       1.58        0.00     126.78       1.54       1.61       0.65       ----

> <Gold.Chemscore.Fitness>
19.3944

> <Gold.Chemscore.DG>
-21.6525

> <Gold.Chemscore.ZeroCoef>
-5.4800

> <Gold.Chemscore.Hbond>
1.5810

> <Gold.Chemscore.Metal>
0.0000

> <Gold.Chemscore.Lipo>
126.7836

> <Gold.Chemscore.Internal_Hbond>
0.0000

> <Gold.Chemscore.DEClash>
1.6127

> <Gold.Chemscore.DEInternal>
0.6454

> <Gold.Chemscore.Rot>
1.5398

> <Gold.Chemscore.Internal.Correction>
   9.000000E+99

> <Gold.Chemscore.Hbonds>
donor molecule, donor type, donor heavy atom, donor atom, acceptor molecule, acceptor atom, score
      L1  H     3    25       P1  8028  0.83
      P1  H  7989  7998       L1     5  0.67

> <Gold.Chemscore.Hbond.Weighted>
-5.2807

> <Gold.Chemscore.Metal.Weighted>
-0.0000

> <Gold.Chemscore.Lipo.Weighted>
-14.8337

> <Gold.Chemscore.Internal_Hbond.Weighted>
0.0000

> <Gold.Chemscore.DEClash.Weighted>
1.6127

> <Gold.Chemscore.DEInternal.Weighted>
0.6454

> <Gold.Chemscore.Rot.Weighted>
3.9419

> <Gold.Chemscore.Internal.Correction.Weighted>
   9.000000E+99

> <Gold.Protein.RotatedTorsions>
[ 6907 6896 6895 6894 ] final  -53.44 input  -60.11 | X-H torsion
[ 7974 7965 7964 7962 ] final  -67.51 input  175.53 | X-H torsion
[ 8008 7997 7996 7995 ] final -137.38 input   59.86 | X-H torsion
[ 10167 10162 10161 10158 ] final -125.05 input  -65.29 | X-H torsion
[ 10718 10713 10712 10709 ] final -148.62 input   66.30 | X-H torsion
[ 10763 10752 10751 10750 ] final  -19.83 input  -60.55 | X-H torsion
[ 11005 11000 10999 10996 ] final  -76.10 input  -57.11 | X-H torsion

> <Gold.Protein.ActiveResidues>
 VAL166  LYS551  ARG553  GLY616  TRP617  ASP618  TYR619  PRO620  LYS621  CYS622 
 ASP623  PHE694  ASN695  SER759  ASP760  ASP761  ALA762  ILE779  LEU786  VAL792 
 PHE793  MET794  SER795  GLU796  ALA797  LYS798  CYS799  TRP800  GLU811  SER814 

> <Gold.Protein.RotatedAtoms>
  150.8427  134.7725  159.6945 H   0  0  0  0  0  0  0  0  0  0  0  0  # atno 6907 bound_to 6896
  152.4511  134.5389  159.9843 H   0  0  0  0  0  0  0  0  0  0  0  0  # atno 6908 bound_to 6896
  151.5525  133.3377  159.2991 H   0  0  0  0  0  0  0  0  0  0  0  0  # atno 6909 bound_to 6896
  145.7282  140.9008  143.0594 H   0  0  0  0  0  0  0  0  0  0  0  0  # atno 7974 bound_to 7965
  155.4108  140.0512  157.3032 H   0  0  0  0  0  0  0  0  0  0  0  0  # atno 8008 bound_to 7997
  154.4947  140.2134  155.9433 H   0  0  0  0  0  0  0  0  0  0  0  0  # atno 8009 bound_to 7997
  156.1389  140.3158  155.8470 H   0  0  0  0  0  0  0  0  0  0  0  0  # atno 8010 bound_to 7997
  139.9863  143.5689  152.2359 H   0  0  0  0  0  0  0  0  0  0  0  0  # atno 10167 bound_to 10162
  156.4225  130.8036  151.2259 H   0  0  0  0  0  0  0  0  0  0  0  0  # atno 10718 bound_to 10713
  153.6109  135.6996  153.5347 H   0  0  0  0  0  0  0  0  0  0  0  0  # atno 10763 bound_to 10752
  153.3017  135.4127  155.1258 H   0  0  0  0  0  0  0  0  0  0  0  0  # atno 10764 bound_to 10752
  154.8563  135.3650  154.5648 H   0  0  0  0  0  0  0  0  0  0  0  0  # atno 10765 bound_to 10752
  141.1651  133.6971  156.7618 H   0  0  0  0  0  0  0  0  0  0  0  0  # atno 11005 bound_to 11000
  144.6899  139.9295  143.7471 LP  0  0  0  0  0  0  0  0  0  0  0  0  # atno 17320 bound_to 7965
  146.0562  139.3559  143.0609 LP  0  0  0  0  0  0  0  0  0  0  0  0  # atno 17321 bound_to 7965
  139.6373  144.7651  151.2412 LP  0  0  0  0  0  0  0  0  0  0  0  0  # atno 17342 bound_to 10162
  140.7471  143.6377  150.8364 LP  0  0  0  0  0  0  0  0  0  0  0  0  # atno 17343 bound_to 10162
  157.7508  131.0223  150.3788 LP  0  0  0  0  0  0  0  0  0  0  0  0  # atno 17370 bound_to 10713
  156.4108  130.3934  149.6893 LP  0  0  0  0  0  0  0  0  0  0  0  0  # atno 17371 bound_to 10713
  140.2528  134.8527  157.3684 LP  0  0  0  0  0  0  0  0  0  0  0  0  # atno 17394 bound_to 11000
  140.1686  134.4637  155.7846 LP  0  0  0  0  0  0  0  0  0  0  0  0  # atno 17395 bound_to 11000

$$$$
