AV-unprocessed.smi:2599|AV-procd|sdf|10179|dock2
  -GOLD-   2272014193D 1   1.00000     0.00000
 Structure written by MMmdl.
 40 41  0  0  0  0  0  0  0  0  1 V2000
  153.0313  139.5257  158.4985 C   0  0  0  0  0  0  0  0  0  0  0  0
  152.9531  139.6533  157.0831 O   0  0  0  0  0  0  0  0  0  0  0  0
  152.1604  138.7621  156.3900 C   0  0  0  0  0  0  0  0  0  0  0  0
  152.0248  138.9087  154.9983 C   0  0  0  0  0  0  0  0  0  0  0  0
  151.2122  137.9829  154.3222 C   0  0  0  0  0  0  0  0  0  0  0  0
  150.5837  136.9686  155.0744 C   0  0  0  0  0  0  0  0  0  0  0  0
  149.7835  136.0644  154.3271 N   0  0  0  0  0  0  0  0  0  0  0  0
  149.3806  134.8307  154.6779 C   0  0  0  0  0  0  0  0  0  0  0  0
  149.6118  134.2867  155.7579 O   0  0  0  0  0  0  0  0  0  0  0  0
  148.6804  134.2512  153.6915 N   0  0  0  0  0  0  0  0  0  0  0  0
  148.0848  132.9159  153.7395 C   0  0  2  0  0  0  0  0  0  0  0  0
  149.2017  131.8782  153.9634 C   0  0  0  0  0  0  0  0  0  0  0  0
  147.2597  132.6576  152.4513 C   0  0  0  0  0  0  0  0  0  0  0  0
  146.2441  133.7853  152.1661 C   0  0  0  0  0  0  0  0  0  0  0  0
  145.3942  133.4721  150.9243 C   0  0  0  0  0  0  0  0  0  0  0  0
  144.7258  132.2287  151.0943 O   0  0  0  0  0  0  0  0  0  0  0  0
  145.6268  131.1372  151.2312 C   0  0  0  0  0  0  0  0  0  0  0  0
  146.4912  131.3207  152.4895 C   0  0  0  0  0  0  0  0  0  0  0  0
  150.7610  136.8910  156.4186 N   0  0  0  0  0  0  0  0  0  0  0  0
  151.5333  137.7680  157.0681 N   0  0  0  0  0  0  0  0  0  0  0  0
  153.6943  140.2951  158.8938 H   0  0  0  0  0  0  0  0  0  0  0  0
  153.4386  138.5565  158.7899 H   0  0  0  0  0  0  0  0  0  0  0  0
  152.0548  139.6591  158.9662 H   0  0  0  0  0  0  0  0  0  0  0  0
  152.5281  139.7034  154.4676 H   0  0  0  0  0  0  0  0  0  0  0  0
  151.0776  138.0524  153.2526 H   0  0  0  0  0  0  0  0  0  0  0  0
  149.4998  136.3875  153.4142 H   0  0  0  0  0  0  0  0  0  0  0  0
  148.5423  134.7744  152.8394 H   0  0  0  0  0  0  0  0  0  0  0  0
  147.4016  132.8703  154.5899 H   0  0  0  0  0  0  0  0  0  0  0  0
  148.7983  130.8812  154.1365 H   0  0  0  0  0  0  0  0  0  0  0  0
  149.8031  132.1267  154.8384 H   0  0  0  0  0  0  0  0  0  0  0  0
  149.8728  131.8254  153.1055 H   0  0  0  0  0  0  0  0  0  0  0  0
  147.9540  132.6169  151.6102 H   0  0  0  0  0  0  0  0  0  0  0  0
  145.5880  133.9168  153.0276 H   0  0  0  0  0  0  0  0  0  0  0  0
  146.7517  134.7379  152.0147 H   0  0  0  0  0  0  0  0  0  0  0  0
  144.6490  134.2533  150.7748 H   0  0  0  0  0  0  0  0  0  0  0  0
  146.0120  133.4470  150.0254 H   0  0  0  0  0  0  0  0  0  0  0  0
  145.0510  130.2146  151.3047 H   0  0  0  0  0  0  0  0  0  0  0  0
  146.2501  131.0519  150.3396 H   0  0  0  0  0  0  0  0  0  0  0  0
  147.1802  130.4799  152.5639 H   0  0  0  0  0  0  0  0  0  0  0  0
  145.8548  131.2836  153.3747 H   0  0  0  0  0  0  0  0  0  0  0  0
  1  2  1  0  0  0  0
  1 21  1  0  0  0  0
  1 22  1  0  0  0  0
  1 23  1  0  0  0  0
  2  3  1  0  0  0  0
  3 20  1  0  0  0  0
  3  4  2  0  0  0  0
  4  5  1  0  0  0  0
  4 24  1  0  0  0  0
  5  6  2  0  0  0  0
  5 25  1  0  0  0  0
  6  7  1  0  0  0  0
  6 19  1  0  0  0  0
  7  8  1  0  0  0  0
  7 26  1  0  0  0  0
  8  9  2  0  0  0  0
  8 10  1  0  0  0  0
 10 11  1  0  0  0  0
 10 27  1  0  0  0  0
 11 12  1  0  0  0  0
 11 13  1  0  0  0  0
 11 28  1  0  0  0  0
 12 29  1  0  0  0  0
 12 30  1  0  0  0  0
 12 31  1  0  0  0  0
 13 18  1  0  0  0  0
 13 14  1  0  0  0  0
 13 32  1  0  0  0  0
 14 15  1  0  0  0  0
 14 33  1  0  0  0  0
 14 34  1  0  0  0  0
 15 16  1  0  0  0  0
 15 35  1  0  0  0  0
 15 36  1  0  0  0  0
 16 17  1  0  0  0  0
 17 18  1  0  0  0  0
 17 37  1  0  0  0  0
 17 38  1  0  0  0  0
 18 39  1  0  0  0  0
 18 40  1  0  0  0  0
 19 20  2  0  0  0  0
M  END
> <s_m_source_file>
AV-unprocessed.smi

> <i_m_source_file_index>
2599

> <i_lp_mmshare_version>
43012

> <i_f3d_flags>
0

> <s_epik_input>
W0NIM11PYzFbY0hdW2NIXWMobm4xKVtOSF1DKD1PKVtOSF1bQ0BIXShbQ0gzXSlbQ0hdMltDSDJdW0NIMl1PW0NIMl1bQ0gyXTI=

> <s_epik_cmdline>
J2VwaWtfcHl0aG9uJywgJy1waCcsICc3LjAnLCAnLXRuJywgJzgnLCAnLW1hJywgJzIwMCcsICctbWV0YWxfYmluZGluZycsICctaW1hZScsICc8aW5maWxlLm1hZT4nLCAnLW9tYWUnLCAnPG91dGZpbGUubWFlPic=

> <r_lp_tautomer_probability>
1

> <r_epik_Ionization_Penalty>
0.00150063

> <r_epik_Ionization_Penalty_Charging>
0

> <r_epik_Ionization_Penalty_Neutral>
0.00150063

> <r_epik_State_Penalty>
-0

> <r_epik_Charging_Adjusted_Penalty>
0

> <i_epik_Tot_Q>
0

> <i_epik_Tot_abs_Q>
0

> <r_epik_Metal_State_Penalty>
-0

> <b_epik_Metal_Only>
0

> <s_lp_Force_Field>
OPLS_2005

> <r_lp_Energy>
16.4266

> <b_lp_Chiralities_Consistent>
1

> <s_lp_Variant>
AV-unprocessed.smi:2599-1

> <Gold.Version>
5.8.1

> <Gold.Id.Protein>
6NUR|6NUR_protein|mol2

> <Gold.PLP.Fitness>
40.6215

> <Gold.PLP.PLP>
-31.9024

> <Gold.PLP.part.hbond>
-3.4781

> <Gold.PLP.part.metal>
0.0000

> <Gold.PLP.part.buried>
-2.6252

> <Gold.PLP.part.nonpolar>
-25.7365

> <Gold.PLP.part.repulsive>
0.2076

> <Gold.PLP.ligand.clash>
0.0000

> <Gold.PLP.ligand.torsion>
0.1402

> <Gold.PLP.Chemscore.Hbond>
2.9920

> <Gold.PLP.Chemscore.CHOScore>
0.0000

> <Gold.PLP.Chemscore.Metal>
0.0000

> <Gold.Chemscore.Hbonds>
donor molecule, donor type, donor heavy atom, donor atom, acceptor molecule, acceptor atom, score
      L1  H     7    26       P1  7948  1.00
      L1  H    10    27       P1  7948  0.96
      P1  H  7997  8010       L1     2  1.00

> <Gold.PLP.Chemscore.Internal.Correction>
0.0235

> <Gold.Rescore>
     Score         DG    S(hbond)    S(metal)    S(lipo)     H(rot)  DE(clash)    DE(int)     intcor
     15.52     -16.94       2.56        0.00      58.81       1.55       0.00       1.42       ----

> <Gold.Chemscore.Fitness>
15.5187

> <Gold.Chemscore.DG>
-16.9367

> <Gold.Chemscore.ZeroCoef>
-5.4800

> <Gold.Chemscore.Hbond>
2.5575

> <Gold.Chemscore.Metal>
0.0000

> <Gold.Chemscore.Lipo>
58.8075

> <Gold.Chemscore.Internal_Hbond>
0.0000

> <Gold.Chemscore.DEClash>
0.0000

> <Gold.Chemscore.DEInternal>
1.4180

> <Gold.Chemscore.Rot>
1.5492

> <Gold.Chemscore.Internal.Correction>
   9.000000E+99

> <Gold.Chemscore.Hbonds>
donor molecule, donor type, donor heavy atom, donor atom, acceptor molecule, acceptor atom, score
      L1  H     7    26       P1  7948  0.59
      L1  H    10    27       P1  7948  0.28
      P1  H  7997  8010       L1     2  0.52

> <Gold.Chemscore.Hbond.Weighted>
-8.5421

> <Gold.Chemscore.Metal.Weighted>
-0.0000

> <Gold.Chemscore.Lipo.Weighted>
-6.8805

> <Gold.Chemscore.Internal_Hbond.Weighted>
0.0000

> <Gold.Chemscore.DEClash.Weighted>
0.0000

> <Gold.Chemscore.DEInternal.Weighted>
1.4180

> <Gold.Chemscore.Rot.Weighted>
3.9659

> <Gold.Chemscore.Internal.Correction.Weighted>
   9.000000E+99

> <Gold.Protein.RotatedTorsions>
[ 6907 6896 6895 6894 ] final   -9.31 input  -60.11 | X-H torsion
[ 7974 7965 7964 7962 ] final  150.33 input  175.53 | X-H torsion
[ 8008 7997 7996 7995 ] final   62.55 input   59.86 | X-H torsion
[ 10167 10162 10161 10158 ] final   38.55 input  -65.29 | X-H torsion
[ 10718 10713 10712 10709 ] final   -9.68 input   66.30 | X-H torsion
[ 10763 10752 10751 10750 ] final   62.93 input  -60.55 | X-H torsion
[ 11005 11000 10999 10996 ] final  -61.37 input  -57.11 | X-H torsion

> <Gold.Protein.ActiveResidues>
 VAL166  LYS551  ARG553  GLY616  TRP617  ASP618  TYR619  PRO620  LYS621  CYS622 
 ASP623  PHE694  ASN695  SER759  ASP760  ASP761  ALA762  ILE779  LEU786  VAL792 
 PHE793  MET794  SER795  GLU796  ALA797  LYS798  CYS799  TRP800  GLU811  SER814 

> <Gold.Protein.RotatedAtoms>
  151.4197  135.0996  159.9609 H   0  0  0  0  0  0  0  0  0  0  0  0  # atno 6907 bound_to 6896
  152.4992  133.8718  159.7313 H   0  0  0  0  0  0  0  0  0  0  0  0  # atno 6908 bound_to 6896
  150.9232  133.6798  159.2855 H   0  0  0  0  0  0  0  0  0  0  0  0  # atno 6909 bound_to 6896
  144.8372  139.6395  143.6033 H   0  0  0  0  0  0  0  0  0  0  0  0  # atno 7974 bound_to 7965
  155.6160  140.3495  155.4637 H   0  0  0  0  0  0  0  0  0  0  0  0  # atno 8008 bound_to 7997
  156.0116  140.1234  157.0472 H   0  0  0  0  0  0  0  0  0  0  0  0  # atno 8009 bound_to 7997
  154.4283  140.1080  156.5824 H   0  0  0  0  0  0  0  0  0  0  0  0  # atno 8010 bound_to 7997
  140.3926  144.1832  150.6131 H   0  0  0  0  0  0  0  0  0  0  0  0  # atno 10167 bound_to 10162
  156.6845  130.5047  149.5961 H   0  0  0  0  0  0  0  0  0  0  0  0  # atno 10718 bound_to 10713
  153.0000  135.5447  154.6271 H   0  0  0  0  0  0  0  0  0  0  0  0  # atno 10763 bound_to 10752
  154.5557  135.2830  155.0969 H   0  0  0  0  0  0  0  0  0  0  0  0  # atno 10764 bound_to 10752
  154.2191  135.6454  153.5191 H   0  0  0  0  0  0  0  0  0  0  0  0  # atno 10765 bound_to 10752
  141.1322  133.6629  156.5365 H   0  0  0  0  0  0  0  0  0  0  0  0  # atno 11005 bound_to 11000
  146.2669  139.6541  142.9323 LP  0  0  0  0  0  0  0  0  0  0  0  0  # atno 17320 bound_to 7965
  145.4770  141.0437  143.2667 LP  0  0  0  0  0  0  0  0  0  0  0  0  # atno 17321 bound_to 7965
  140.4824  143.2374  151.8936 LP  0  0  0  0  0  0  0  0  0  0  0  0  # atno 17342 bound_to 10162
  139.4788  144.5255  151.8741 LP  0  0  0  0  0  0  0  0  0  0  0  0  # atno 17343 bound_to 10162
  156.1843  130.6519  151.0988 LP  0  0  0  0  0  0  0  0  0  0  0  0  # atno 17370 bound_to 10713
  157.7031  131.0767  150.6755 LP  0  0  0  0  0  0  0  0  0  0  0  0  # atno 17371 bound_to 10713
  140.4174  134.7218  157.4870 LP  0  0  0  0  0  0  0  0  0  0  0  0  # atno 17394 bound_to 11000
  140.0384  134.6303  155.9013 LP  0  0  0  0  0  0  0  0  0  0  0  0  # atno 17395 bound_to 11000

$$$$
