#       Name:                AV-unprocessed.smi:741
#       Creating user name   scv26
#       Creation time:       Fri Mar 27 00:55:13 2020


#       File generated by GOLD software.
#

@<TRIPOS>MOLECULE
AV-unprocessed.smi:741
    45    46     1
SMALL
NO_CHARGES


@<TRIPOS>ATOM
      1 ****        -4.0454   0.5303  -0.8645 C.3            1 S1                 0.0000
      2 ****        -3.2871  -0.7970  -0.7179 C.3            1 S1                 0.0000
      3 ****        -1.7540  -0.6422  -0.7361 C.3            1 S1                 0.0000
      4 ****        -1.0552  -2.0200  -0.7004 C.3            1 S1                 0.0000
      5 ****         0.4169  -1.9256  -0.8547 N.4            1 S1                 1.0000
      6 ****         1.1659  -3.1108  -0.3769 C.3            1 S1                 0.0000
      7 ****         2.3414  -3.3157  -1.3441 C.3            1 S1                 0.0000
      8 ****         2.3479  -2.0708  -2.2277 C.3            1 S1                 0.0000
      9 ****         0.8871  -1.6364  -2.2249 C.3            1 S1                 0.0000
     10 ****        -1.3283   0.1862   0.3948 N.am           1 S1                 0.0000
     11 ****        -0.3317   1.0839   0.3872 C.2            1 S1                 0.0000
     12 ****         0.3847   1.2898  -0.5915 O.2            1 S1                 0.0000
     13 ****        -0.2140   1.6881   1.5822 N.am           1 S1                 0.0000
     14 ****         0.7190   2.6799   1.9913 C.ar           1 S1                 0.0000
     15 ****         0.9078   2.8694   3.3761 C.ar           1 S1                 0.0000
     16 ****         1.8171   3.8548   3.8097 C.ar           1 S1                 0.0000
     17 ****         2.5172   4.6404   2.9652 N.ar           1 S1                 0.0000
     18 ****         2.3243   4.4687   1.6405 C.ar           1 S1                 0.0000
     19 ****         1.4405   3.5122   1.1017 C.ar           1 S1                 0.0000
     20 ****        -5.1216   0.3586  -0.8941 H              1 S1                 0.0000
     21 ****        -3.7667   1.0425  -1.7857 H              1 S1                 0.0000
     22 ****        -3.8439   1.2038  -0.0314 H              1 S1                 0.0000
     23 ****        -3.5994  -1.2902   0.2036 H              1 S1                 0.0000
     24 ****        -3.5899  -1.4575  -1.5311 H              1 S1                 0.0000
     25 ****        -1.4947  -0.1422  -1.6711 H              1 S1                 0.0000
     26 ****        -1.2780  -2.4966   0.2557 H              1 S1                 0.0000
     27 ****        -1.4579  -2.6790  -1.4710 H              1 S1                 0.0000
     28 ****         1.5116  -2.9298   0.6412 H              1 S1                 0.0000
     29 ****         0.5364  -4.0021  -0.3612 H              1 S1                 0.0000
     30 ****         3.2900  -3.4600  -0.8261 H              1 S1                 0.0000
     31 ****         2.1616  -4.1999  -1.9567 H              1 S1                 0.0000
     32 ****         2.9647  -1.2947  -1.7721 H              1 S1                 0.0000
     33 ****         2.7326  -2.2629  -3.2297 H              1 S1                 0.0000
     34 ****         0.3255  -2.2334  -2.9453 H              1 S1                 0.0000
     35 ****         0.7658  -0.5866  -2.4907 H              1 S1                 0.0000
     36 ****        -1.8579   0.0828   1.2484 H              1 S1                 0.0000
     37 ****        -0.8346   1.3593   2.3075 H              1 S1                 0.0000
     38 ****         0.3716   2.2709   4.0981 H              1 S1                 0.0000
     39 ****         1.9845   4.0171   4.8643 H              1 S1                 0.0000
     40 ****         2.8879   5.1186   0.9875 H              1 S1                 0.0000
     41 ****         1.3285   3.4500   0.0304 H              1 S1                 0.0000
     42 ****         0.7290  -1.1548  -0.2809 H              1 S1                 0.0000
     43 ****         0.2374   0.7752  -1.4361 LP             1 S1                 0.0000
     44 ****         1.1145   1.9718  -0.5424 LP             1 S1                 0.0000
     45 ****         3.1577   5.3270   3.3094 LP             1 S1                 0.0000
@<TRIPOS>BOND
    1    1    2 1     
    2    1   20 1     
    3    1   21 1     
    4    1   22 1     
    5    2    3 1     
    6    2   23 1     
    7    2   24 1     
    8    3    4 1     
    9    3   10 1     
   10    3   25 1     
   11    4    5 1     
   12    4   26 1     
   13    4   27 1     
   14    5    9 1     
   15    5    6 1     
   16    5   42 1     
   17    6    7 1     
   18    6   28 1     
   19    6   29 1     
   20    7    8 1     
   21    7   30 1     
   22    7   31 1     
   23    8    9 1     
   24    8   32 1     
   25    8   33 1     
   26    9   34 1     
   27    9   35 1     
   28   10   11 am    
   29   10   36 1     
   30   11   12 2     
   31   11   13 am    
   32   13   14 1     
   33   13   37 1     
   34   14   19 ar    
   35   14   15 ar    
   36   15   16 ar    
   37   15   38 1     
   38   16   17 ar    
   39   16   39 1     
   40   17   18 ar    
   41   18   19 ar    
   42   18   40 1     
   43   19   41 1     
   44   12   43 1     
   45   12   44 1     
   46   17   45 1     
@<TRIPOS>SUBSTRUCTURE
      1 S1             1
@<TRIPOS>SET
LONE_PAIRS      STATIC     ATOMS    <user>   **** ""
3 43 44 45
DONOR_HYDROGENS      STATIC     ATOMS    <user>   **** ""
3 42 36 37
ATOM$BLUE        STATIC     ATOMS    COLORGROUP SYSTEM
3 43 44 45
ATOM$RED        STATIC     ATOMS    COLORGROUP SYSTEM
3 42 36 37
