AV-unprocessed.smi:901|AV-procd|sdf|4090|dock4
  -GOLD-   22720 1583D 1   1.00000     0.00000
 Structure written by MMmdl.
 43 44  0  0  0  0  0  0  0  0  1 V2000
  142.1860  134.1338  163.1848 C   0  0  0  0  0  0  0  0  0  0  0  0
  143.1956  135.1834  162.7642 C   0  0  0  0  0  0  0  0  0  0  0  0
  142.6395  136.5939  162.6753 C   0  0  0  0  0  0  0  0  0  0  0  0
  144.4760  134.8627  162.4955 C   0  0  0  0  0  0  0  0  0  0  0  0
  145.5593  135.7844  162.0603 C   0  0  2  0  0  0  0  0  0  0  0  0
  146.4098  135.4911  160.8363 C   0  0  1  0  0  0  0  0  0  0  0  0
  146.7896  136.6291  159.9392 C   0  0  0  0  0  0  0  0  0  0  0  0
  146.3837  137.7786  160.1109 O   0  0  0  0  0  0  0  0  0  0  0  0
  147.5987  136.2541  158.9320 N   0  0  0  0  0  0  0  0  0  0  0  0
  148.1549  137.0494  157.8967 C   0  0  0  0  0  0  0  0  0  0  0  0
  147.8417  138.4146  157.6217 C   0  0  0  0  0  0  0  0  0  0  0  0
  148.6307  138.7063  156.5461 C   0  0  0  0  0  0  0  0  0  0  0  0
  149.3481  137.5685  156.2351 N   0  0  0  0  0  0  0  0  0  0  0  0
  150.3225  137.3794  155.1753 C   0  0  0  0  0  0  0  0  0  0  0  0
  150.3047  138.5520  154.1932 C   0  0  0  0  0  0  0  0  0  0  0  0
  149.6302  138.3829  153.0529 N   0  0  0  0  0  0  0  0  0  0  0  0
  150.8922  139.5980  154.4601 O   0  0  0  0  0  0  0  0  0  0  0  0
  149.0526  136.5455  157.0673 N   0  0  0  0  0  0  0  0  0  0  0  0
  147.0193  135.4008  162.2317 C   0  0  0  0  0  0  0  0  0  0  0  0
  147.9914  136.4378  162.7832 C   0  0  0  0  0  0  0  0  0  0  0  0
  147.4189  134.0215  162.7345 C   0  0  0  0  0  0  0  0  0  0  0  0
  141.7859  134.3678  164.1717 H   0  0  0  0  0  0  0  0  0  0  0  0
  142.6326  133.1397  163.2272 H   0  0  0  0  0  0  0  0  0  0  0  0
  141.3572  134.1030  162.4770 H   0  0  0  0  0  0  0  0  0  0  0  0
  141.8879  136.6523  161.8879 H   0  0  0  0  0  0  0  0  0  0  0  0
  143.4084  137.3363  162.4658 H   0  0  0  0  0  0  0  0  0  0  0  0
  142.1669  136.8690  163.6184 H   0  0  0  0  0  0  0  0  0  0  0  0
  144.7768  133.8309  162.6039 H   0  0  0  0  0  0  0  0  0  0  0  0
  145.3066  136.8204  162.2795 H   0  0  0  0  0  0  0  0  0  0  0  0
  146.2368  134.5402  160.3332 H   0  0  0  0  0  0  0  0  0  0  0  0
  147.8521  135.2772  158.9067 H   0  0  0  0  0  0  0  0  0  0  0  0
  147.1565  139.0845  158.1182 H   0  0  0  0  0  0  0  0  0  0  0  0
  148.7423  139.6208  155.9827 H   0  0  0  0  0  0  0  0  0  0  0  0
  151.3182  137.2756  155.6097 H   0  0  0  0  0  0  0  0  0  0  0  0
  150.1011  136.4458  154.6565 H   0  0  0  0  0  0  0  0  0  0  0  0
  149.5916  139.1273  152.3723 H   0  0  0  0  0  0  0  0  0  0  0  0
  149.1617  137.5061  152.8750 H   0  0  0  0  0  0  0  0  0  0  0  0
  148.9646  136.3371  162.3020 H   0  0  0  0  0  0  0  0  0  0  0  0
  148.1215  136.3028  163.8571 H   0  0  0  0  0  0  0  0  0  0  0  0
  147.6302  137.4534  162.6264 H   0  0  0  0  0  0  0  0  0  0  0  0
  148.4466  133.7972  162.4475 H   0  0  0  0  0  0  0  0  0  0  0  0
  146.7750  133.2478  162.3151 H   0  0  0  0  0  0  0  0  0  0  0  0
  147.3429  133.9759  163.8212 H   0  0  0  0  0  0  0  0  0  0  0  0
  1  2  1  0  0  0  0
  1 22  1  0  0  0  0
  1 23  1  0  0  0  0
  1 24  1  0  0  0  0
  2  3  1  0  0  0  0
  2  4  2  0  0  0  0
  3 25  1  0  0  0  0
  3 26  1  0  0  0  0
  3 27  1  0  0  0  0
  4  5  1  0  0  0  0
  4 28  1  0  0  0  0
  5 19  1  0  0  0  0
  5  6  1  0  0  0  0
  5 29  1  0  0  0  0
  6  7  1  0  0  0  0
  6 19  1  0  0  0  0
  6 30  1  0  0  0  0
  7  8  2  0  0  0  0
  7  9  1  0  0  0  0
  9 10  1  0  0  0  0
  9 31  1  0  0  0  0
 10 18  2  0  0  0  0
 10 11  1  0  0  0  0
 11 12  2  0  0  0  0
 11 32  1  0  0  0  0
 12 13  1  0  0  0  0
 12 33  1  0  0  0  0
 13 14  1  0  0  0  0
 13 18  1  0  0  0  0
 14 15  1  0  0  0  0
 14 34  1  0  0  0  0
 14 35  1  0  0  0  0
 15 16  1  0  0  0  0
 15 17  2  0  0  0  0
 16 36  1  0  0  0  0
 16 37  1  0  0  0  0
 19 20  1  0  0  0  0
 19 21  1  0  0  0  0
 20 38  1  0  0  0  0
 20 39  1  0  0  0  0
 20 40  1  0  0  0  0
 21 41  1  0  0  0  0
 21 42  1  0  0  0  0
 21 43  1  0  0  0  0
M  END
> <s_m_source_file>
AV-unprocessed.smi

> <i_m_source_file_index>
901

> <i_lp_mmshare_version>
43012

> <i_f3d_flags>
0

> <s_epik_input>
W0NIM11DKFtDSDNdKT1bQ0hdW0NAQEhdKEMxKFtDSDNdKVtDSDNdKVtDQEhdMUMoPU8pW05IXWMyW2NIXVtjSF1uKG4yKVtDSDJdQyg9TylbTkgyXQ==

> <s_epik_cmdline>
J2VwaWtfcHl0aG9uJywgJy1waCcsICc3LjAnLCAnLXRuJywgJzgnLCAnLW1hJywgJzIwMCcsICctbWV0YWxfYmluZGluZycsICctaW1hZScsICc8aW5maWxlLm1hZT4nLCAnLW9tYWUnLCAnPG91dGZpbGUubWFlPic=

> <r_lp_tautomer_probability>
1

> <r_epik_Ionization_Penalty>
1.01454e-05

> <r_epik_Ionization_Penalty_Charging>
0

> <r_epik_Ionization_Penalty_Neutral>
1.01454e-05

> <r_epik_State_Penalty>
-0

> <r_epik_Charging_Adjusted_Penalty>
0

> <i_epik_Tot_Q>
0

> <i_epik_Tot_abs_Q>
0

> <r_epik_Metal_State_Penalty>
-0

> <b_epik_Metal_Only>
0

> <s_lp_Force_Field>
OPLS_2005

> <r_lp_Energy>
20.5353

> <b_lp_Chiralities_Consistent>
1

> <s_lp_Variant>
AV-unprocessed.smi:901-1

> <Gold.Version>
5.8.1

> <Gold.Id.Protein>
6NUR|6NUR_protein|mol2

> <Gold.PLP.Fitness>
44.7893

> <Gold.PLP.PLP>
-34.1406

> <Gold.PLP.part.hbond>
-3.7990

> <Gold.PLP.part.metal>
0.0000

> <Gold.PLP.part.buried>
-5.0355

> <Gold.PLP.part.nonpolar>
-24.8774

> <Gold.PLP.part.repulsive>
0.2659

> <Gold.PLP.ligand.clash>
0.0000

> <Gold.PLP.ligand.torsion>
0.7656

> <Gold.PLP.Chemscore.Hbond>
4.0000

> <Gold.PLP.Chemscore.CHOScore>
0.0000

> <Gold.PLP.Chemscore.Metal>
0.0000

> <Gold.Chemscore.Hbonds>
donor molecule, donor type, donor heavy atom, donor atom, acceptor molecule, acceptor atom, score
      L1  H    16    36       P1  7957  0.93
      L1  H    16    37       P1  7948  0.91
      P1  H  6934  6947       L1     8  1.00
      P1  H  7989  7998       L1    17  1.00

> <Gold.PLP.Chemscore.Internal.Correction>
0.1799

> <Gold.Rescore>
     Score         DG    S(hbond)    S(metal)    S(lipo)     H(rot)  DE(clash)    DE(int)     intcor
     19.50     -21.35       3.85        0.00      72.42       2.13       0.01       1.84       ----

> <Gold.Chemscore.Fitness>
19.5033

> <Gold.Chemscore.DG>
-21.3470

> <Gold.Chemscore.ZeroCoef>
-5.4800

> <Gold.Chemscore.Hbond>
3.8471

> <Gold.Chemscore.Metal>
0.0000

> <Gold.Chemscore.Lipo>
72.4171

> <Gold.Chemscore.Internal_Hbond>
0.0000

> <Gold.Chemscore.DEClash>
0.0072

> <Gold.Chemscore.DEInternal>
1.8365

> <Gold.Chemscore.Rot>
2.1309

> <Gold.Chemscore.Internal.Correction>
   9.000000E+99

> <Gold.Chemscore.Hbonds>
donor molecule, donor type, donor heavy atom, donor atom, acceptor molecule, acceptor atom, score
      L1  H    16    36       P1  7957  0.78
      L1  H    16    37       P1  7948  0.86
      P1  H  6934  6947       L1     8  0.99
      P1  H  7989  7998       L1    17  1.00

> <Gold.Chemscore.Hbond.Weighted>
-12.8494

> <Gold.Chemscore.Metal.Weighted>
-0.0000

> <Gold.Chemscore.Lipo.Weighted>
-8.4728

> <Gold.Chemscore.Internal_Hbond.Weighted>
0.0000

> <Gold.Chemscore.DEClash.Weighted>
0.0072

> <Gold.Chemscore.DEInternal.Weighted>
1.8365

> <Gold.Chemscore.Rot.Weighted>
5.4552

> <Gold.Chemscore.Internal.Correction.Weighted>
   9.000000E+99

> <Gold.Protein.RotatedTorsions>
[ 6907 6896 6895 6894 ] final    6.19 input  -60.11 | X-H torsion
[ 7974 7965 7964 7962 ] final  -38.34 input  175.53 | X-H torsion
[ 8008 7997 7996 7995 ] final   88.41 input   59.86 | X-H torsion
[ 10167 10162 10161 10158 ] final   92.19 input  -65.29 | X-H torsion
[ 10718 10713 10712 10709 ] final -124.87 input   66.30 | X-H torsion
[ 10763 10752 10751 10750 ] final -142.88 input  -60.55 | X-H torsion
[ 11005 11000 10999 10996 ] final -120.92 input  -57.11 | X-H torsion

> <Gold.Protein.ActiveResidues>
 VAL166  LYS551  ARG553  GLY616  TRP617  ASP618  TYR619  PRO620  LYS621  CYS622 
 ASP623  PHE694  ASN695  SER759  ASP760  ASP761  ALA762  ILE779  LEU786  VAL792 
 PHE793  MET794  SER795  GLU796  ALA797  LYS798  CYS799  TRP800  GLU811  SER814 

> <Gold.Protein.RotatedAtoms>
  151.6697  135.0978  160.0195 H   0  0  0  0  0  0  0  0  0  0  0  0  # atno 6907 bound_to 6896
  152.3898  133.6659  159.6237 H   0  0  0  0  0  0  0  0  0  0  0  0  # atno 6908 bound_to 6896
  150.7816  133.8889  159.3349 H   0  0  0  0  0  0  0  0  0  0  0  0  # atno 6909 bound_to 6896
  146.0495  140.6500  142.9048 H   0  0  0  0  0  0  0  0  0  0  0  0  # atno 7974 bound_to 7965
  155.9874  140.3372  155.6720 H   0  0  0  0  0  0  0  0  0  0  0  0  # atno 8008 bound_to 7997
  155.6467  140.0701  157.2619 H   0  0  0  0  0  0  0  0  0  0  0  0  # atno 8009 bound_to 7997
  154.4209  140.1733  156.1618 H   0  0  0  0  0  0  0  0  0  0  0  0  # atno 8010 bound_to 7997
  139.8301  144.6691  150.9410 H   0  0  0  0  0  0  0  0  0  0  0  0  # atno 10167 bound_to 10162
  156.1625  130.6612  151.0070 H   0  0  0  0  0  0  0  0  0  0  0  0  # atno 10718 bound_to 10713
  154.8492  135.3483  154.6099 H   0  0  0  0  0  0  0  0  0  0  0  0  # atno 10763 bound_to 10752
  153.6708  135.6985  153.5152 H   0  0  0  0  0  0  0  0  0  0  0  0  # atno 10764 bound_to 10752
  153.2744  135.4283  155.0975 H   0  0  0  0  0  0  0  0  0  0  0  0  # atno 10765 bound_to 10752
  141.0108  134.0267  157.3415 H   0  0  0  0  0  0  0  0  0  0  0  0  # atno 11005 bound_to 11000
  144.7115  140.4057  143.7077 LP  0  0  0  0  0  0  0  0  0  0  0  0  # atno 17320 bound_to 7965
  145.6748  139.1606  143.2734 LP  0  0  0  0  0  0  0  0  0  0  0  0  # atno 17321 bound_to 7965
  140.7807  143.4009  151.1151 LP  0  0  0  0  0  0  0  0  0  0  0  0  # atno 17342 bound_to 10162
  139.7663  143.8560  152.3111 LP  0  0  0  0  0  0  0  0  0  0  0  0  # atno 17343 bound_to 10162
  157.6743  131.0854  150.7533 LP  0  0  0  0  0  0  0  0  0  0  0  0  # atno 17370 bound_to 10713
  156.7595  130.4794  149.5440 LP  0  0  0  0  0  0  0  0  0  0  0  0  # atno 17371 bound_to 10713
  139.9089  135.0186  156.7607 LP  0  0  0  0  0  0  0  0  0  0  0  0  # atno 17394 bound_to 11000
  140.6736  133.9537  155.7870 LP  0  0  0  0  0  0  0  0  0  0  0  0  # atno 17395 bound_to 11000

$$$$
