AV-unprocessed.smi:458|AV-procd|sdf|2621|dock3
  -GOLD-   2262023 23D 1   1.00000     0.00000
 Structure written by MMmdl.
 36 38  0  0  0  0  0  0  0  0  1 V2000
  153.1253  139.7571  154.7072 O   0  0  0  0  0  0  0  0  0  0  0  0
  152.2747  139.6814  155.8311 C   0  0  0  0  0  0  0  0  0  0  0  0
  150.9109  140.2420  155.5640 C   0  0  0  0  0  0  0  0  0  0  0  0
  150.3348  140.1519  154.3649 N   0  0  0  0  0  0  0  0  0  0  0  0
  149.1161  140.7700  154.5659 C   0  0  0  0  0  0  0  0  0  0  0  0
  148.0430  140.9955  153.6742 C   0  0  0  0  0  0  0  0  0  0  0  0
  146.8783  141.6594  154.1121 C   0  0  0  0  0  0  0  0  0  0  0  0
  146.7699  142.1064  155.4449 C   0  0  0  0  0  0  0  0  0  0  0  0
  147.8272  141.8916  156.3498 C   0  0  0  0  0  0  0  0  0  0  0  0
  148.9877  141.2280  155.9079 C   0  0  0  0  0  0  0  0  0  0  0  0
  150.1819  140.8652  156.5240 N   0  0  0  0  0  0  0  0  0  0  0  0
  150.5462  141.1092  157.9133 C   0  0  0  0  0  0  0  0  0  0  0  0
  151.0837  142.5345  158.1523 C   0  0  1  0  0  0  0  0  0  0  0  0
  150.0323  143.4753  158.0460 O   0  0  0  0  0  0  0  0  0  0  0  0
  151.8148  142.6266  159.4827 C   0  0  0  0  0  0  0  0  0  0  0  0
  152.7949  141.6734  159.8389 C   0  0  0  0  0  0  0  0  0  0  0  0
  153.4728  141.7784  161.0693 C   0  0  0  0  0  0  0  0  0  0  0  0
  153.1793  142.8390  161.9476 C   0  0  0  0  0  0  0  0  0  0  0  0
  153.8334  142.9411  163.1287 F   0  0  0  0  0  0  0  0  0  0  0  0
  152.2071  143.7948  161.5956 C   0  0  0  0  0  0  0  0  0  0  0  0
  151.5277  143.6893  160.3663 C   0  0  0  0  0  0  0  0  0  0  0  0
  152.8742  139.0827  154.0948 H   0  0  0  0  0  0  0  0  0  0  0  0
  152.1954  138.6444  156.1550 H   0  0  0  0  0  0  0  0  0  0  0  0
  152.7351  140.2304  156.6533 H   0  0  0  0  0  0  0  0  0  0  0  0
  148.1159  140.6565  152.6515 H   0  0  0  0  0  0  0  0  0  0  0  0
  146.0643  141.8267  153.4220 H   0  0  0  0  0  0  0  0  0  0  0  0
  145.8747  142.6148  155.7722 H   0  0  0  0  0  0  0  0  0  0  0  0
  147.7486  142.2348  157.3706 H   0  0  0  0  0  0  0  0  0  0  0  0
  149.6717  140.9253  158.5390 H   0  0  0  0  0  0  0  0  0  0  0  0
  151.2891  140.3702  158.2139 H   0  0  0  0  0  0  0  0  0  0  0  0
  151.7934  142.7844  157.3633 H   0  0  0  0  0  0  0  0  0  0  0  0
  149.9484  143.7298  157.1398 H   0  0  0  0  0  0  0  0  0  0  0  0
  153.0339  140.8601  159.1694 H   0  0  0  0  0  0  0  0  0  0  0  0
  154.2200  141.0463  161.3381 H   0  0  0  0  0  0  0  0  0  0  0  0
  151.9834  144.6104  162.2675 H   0  0  0  0  0  0  0  0  0  0  0  0
  150.7873  144.4304  160.1023 H   0  0  0  0  0  0  0  0  0  0  0  0
  1  2  1  0  0  0  0
  1 22  1  0  0  0  0
  2  3  1  0  0  0  0
  2 23  1  0  0  0  0
  2 24  1  0  0  0  0
  3 11  1  0  0  0  0
  3  4  2  0  0  0  0
  4  5  1  0  0  0  0
  5 10  2  0  0  0  0
  5  6  1  0  0  0  0
  6  7  2  0  0  0  0
  6 25  1  0  0  0  0
  7  8  1  0  0  0  0
  7 26  1  0  0  0  0
  8  9  2  0  0  0  0
  8 27  1  0  0  0  0
  9 10  1  0  0  0  0
  9 28  1  0  0  0  0
 10 11  1  0  0  0  0
 11 12  1  0  0  0  0
 12 13  1  0  0  0  0
 12 29  1  0  0  0  0
 12 30  1  0  0  0  0
 13 14  1  0  0  0  0
 13 15  1  0  0  0  0
 13 31  1  0  0  0  0
 14 32  1  0  0  0  0
 15 21  1  0  0  0  0
 15 16  2  0  0  0  0
 16 17  1  0  0  0  0
 16 33  1  0  0  0  0
 17 18  2  0  0  0  0
 17 34  1  0  0  0  0
 18 19  1  0  0  0  0
 18 20  1  0  0  0  0
 20 21  2  0  0  0  0
 20 35  1  0  0  0  0
 21 36  1  0  0  0  0
M  END
> <s_m_source_file>
AV-unprocessed.smi

> <i_m_source_file_index>
458

> <i_lp_mmshare_version>
43012

> <i_f3d_flags>
0

> <s_epik_input>
W2NIXTFbY0hdW2NIXVtjSF1jKGMxMiluKGMobjIpW0NIMl1bT0hdKVtDSDJdW0NASF0oW09IXSljM1tjSF1bY0hdYyhGKVtjSF1bY0hdMw==

> <s_epik_cmdline>
J2VwaWtfcHl0aG9uJywgJy1waCcsICc3LjAnLCAnLXRuJywgJzgnLCAnLW1hJywgJzIwMCcsICctbWV0YWxfYmluZGluZycsICctaW1hZScsICc8aW5maWxlLm1hZT4nLCAnLW9tYWUnLCAnPG91dGZpbGUubWFlPic=

> <r_epik_Ionization_Penalty>
0.0634724

> <r_epik_Ionization_Penalty_Charging>
0

> <r_epik_Ionization_Penalty_Neutral>
0.0634724

> <r_epik_State_Penalty>
0.0551572

> <r_epik_Charging_Adjusted_Penalty>
0.0551572

> <i_epik_Tot_Q>
0

> <i_epik_Tot_abs_Q>
0

> <r_epik_Metal_State_Penalty>
5.78034e-05

> <b_epik_Metal_Only>
0

> <s_lp_Force_Field>
OPLS_2005

> <r_lp_Energy>
11.6134

> <b_lp_Chiralities_Consistent>
1

> <s_lp_Variant>
AV-unprocessed.smi:458-2

> <Gold.Version>
5.8.1

> <Gold.Id.Protein>
6NUR|6NUR_protein|mol2

> <Gold.PLP.Fitness>
58.2712

> <Gold.PLP.PLP>
-51.6996

> <Gold.PLP.part.hbond>
-4.0618

> <Gold.PLP.part.metal>
0.0000

> <Gold.PLP.part.buried>
-1.5060

> <Gold.PLP.part.nonpolar>
-44.1706

> <Gold.PLP.part.repulsive>
0.1083

> <Gold.PLP.ligand.clash>
0.0000

> <Gold.PLP.ligand.torsion>
0.9524

> <Gold.PLP.Chemscore.Hbond>
2.8064

> <Gold.PLP.Chemscore.CHOScore>
0.0000

> <Gold.PLP.Chemscore.Metal>
0.0000

> <Gold.Chemscore.Hbonds>
donor molecule, donor type, donor heavy atom, donor atom, acceptor molecule, acceptor atom, score
      L1  H    14    32       P1  8028  0.90
      P1  H  7989  7998       L1     4  0.80
      P1  H  7997  8010       L1     1  0.85

> <Gold.PLP.Chemscore.Internal.Correction>
0.0571

> <Gold.Rescore>
     Score         DG    S(hbond)    S(metal)    S(lipo)     H(rot)  DE(clash)    DE(int)     intcor
     17.40     -18.41       1.86        0.00     117.67       2.75       0.25       0.75       ----

> <Gold.Chemscore.Fitness>
17.4045

> <Gold.Chemscore.DG>
-18.4054

> <Gold.Chemscore.ZeroCoef>
-5.4800

> <Gold.Chemscore.Hbond>
1.8556

> <Gold.Chemscore.Metal>
0.0000

> <Gold.Chemscore.Lipo>
117.6710

> <Gold.Chemscore.Internal_Hbond>
0.0000

> <Gold.Chemscore.DEClash>
0.2517

> <Gold.Chemscore.DEInternal>
0.7492

> <Gold.Chemscore.Rot>
2.7500

> <Gold.Chemscore.Internal.Correction>
   9.000000E+99

> <Gold.Chemscore.Hbonds>
donor molecule, donor type, donor heavy atom, donor atom, acceptor molecule, acceptor atom, score
      L1  H    14    32       P1  8028  0.78
      P1  H  7989  7998       L1     4  0.11
      P1  H  7997  8010       L1     1  0.15

> <Gold.Chemscore.Hbond.Weighted>
-6.1979

> <Gold.Chemscore.Metal.Weighted>
-0.0000

> <Gold.Chemscore.Lipo.Weighted>
-13.7675

> <Gold.Chemscore.Internal_Hbond.Weighted>
0.0000

> <Gold.Chemscore.DEClash.Weighted>
0.2517

> <Gold.Chemscore.DEInternal.Weighted>
0.7492

> <Gold.Chemscore.Rot.Weighted>
7.0399

> <Gold.Chemscore.Internal.Correction.Weighted>
   9.000000E+99

> <Gold.Protein.RotatedTorsions>
[ 6907 6896 6895 6894 ] final  139.71 input  -60.11 | X-H torsion
[ 7974 7965 7964 7962 ] final   59.34 input  175.53 | X-H torsion
[ 8008 7997 7996 7995 ] final  125.22 input   59.86 | X-H torsion
[ 10167 10162 10161 10158 ] final -108.29 input  -65.29 | X-H torsion
[ 10718 10713 10712 10709 ] final  156.85 input   66.30 | X-H torsion
[ 10763 10752 10751 10750 ] final  -37.21 input  -60.55 | X-H torsion
[ 11005 11000 10999 10996 ] final -138.29 input  -57.11 | X-H torsion

> <Gold.Protein.ActiveResidues>
 VAL166  LYS551  ARG553  GLY616  TRP617  ASP618  TYR619  PRO620  LYS621  CYS622 
 ASP623  PHE694  ASN695  SER759  ASP760  ASP761  ALA762  ILE779  LEU786  VAL792 
 PHE793  MET794  SER795  GLU796  ALA797  LYS798  CYS799  TRP800  GLU811  SER814 

> <Gold.Protein.RotatedAtoms>
  152.2517  133.5220  159.5328 H   0  0  0  0  0  0  0  0  0  0  0  0  # atno 6907 bound_to 6896
  150.7095  134.0951  159.3955 H   0  0  0  0  0  0  0  0  0  0  0  0  # atno 6908 bound_to 6896
  151.8871  135.0431  160.0545 H   0  0  0  0  0  0  0  0  0  0  0  0  # atno 6909 bound_to 6896
  145.9082  139.3633  143.0551 H   0  0  0  0  0  0  0  0  0  0  0  0  # atno 7974 bound_to 7965
  156.2827  140.2721  156.1914 H   0  0  0  0  0  0  0  0  0  0  0  0  # atno 8008 bound_to 7997
  155.0455  140.0386  157.2543 H   0  0  0  0  0  0  0  0  0  0  0  0  # atno 8009 bound_to 7997
  154.7239  140.2693  155.6522 H   0  0  0  0  0  0  0  0  0  0  0  0  # atno 8010 bound_to 7997
  140.1678  143.4068  152.1378 H   0  0  0  0  0  0  0  0  0  0  0  0  # atno 10167 bound_to 10162
  157.1995  131.0673  151.2033 H   0  0  0  0  0  0  0  0  0  0  0  0  # atno 10718 bound_to 10713
  153.8924  135.6810  153.4760 H   0  0  0  0  0  0  0  0  0  0  0  0  # atno 10763 bound_to 10752
  153.1173  135.4755  154.9135 H   0  0  0  0  0  0  0  0  0  0  0  0  # atno 10764 bound_to 10752
  154.7615  135.3212  154.8321 H   0  0  0  0  0  0  0  0  0  0  0  0  # atno 10765 bound_to 10752
  140.8630  134.2145  157.4696 H   0  0  0  0  0  0  0  0  0  0  0  0  # atno 11005 bound_to 11000
  145.8705  140.9423  143.0653 LP  0  0  0  0  0  0  0  0  0  0  0  0  # atno 17320 bound_to 7965
  144.6741  140.0648  143.7475 LP  0  0  0  0  0  0  0  0  0  0  0  0  # atno 17321 bound_to 7965
  139.5352  144.7201  151.4919 LP  0  0  0  0  0  0  0  0  0  0  0  0  # atno 17342 bound_to 10162
  140.6602  143.8515  150.6879 LP  0  0  0  0  0  0  0  0  0  0  0  0  # atno 17343 bound_to 10162
  157.3781  130.7217  149.6611 LP  0  0  0  0  0  0  0  0  0  0  0  0  # atno 17370 bound_to 10713
  155.9702  130.4180  150.4306 LP  0  0  0  0  0  0  0  0  0  0  0  0  # atno 17371 bound_to 10713
  139.8708  134.9738  156.4825 LP  0  0  0  0  0  0  0  0  0  0  0  0  # atno 17394 bound_to 11000
  140.8661  133.8023  155.9315 LP  0  0  0  0  0  0  0  0  0  0  0  0  # atno 17395 bound_to 11000

$$$$
