#       Name:                AV-unprocessed.smi:3161
#       Creating user name   scv26
#       Creation time:       Fri Mar 27 17:48:54 2020


#       File generated by GOLD software.
#

@<TRIPOS>MOLECULE
AV-unprocessed.smi:3161
    44    45     1
SMALL
NO_CHARGES


@<TRIPOS>ATOM
      1 ****        -3.7897   2.9217   1.1254 C.3            1 S1                 0.0000
      2 ****        -3.1641   1.5986   1.4603 C.2            1 S1                 0.0000
      3 ****        -2.5482   1.2064   2.6824 C.2            1 S1                 0.0000
      4 ****        -2.0958  -0.0363   2.6546 N.2            1 S1                 0.0000
      5 ****        -2.3879  -0.4761   1.4115 N.pl3          1 S1                 0.0000
      6 ****        -2.0555  -1.8371   1.0223 C.3            1 S1                 0.0000
      7 ****        -0.5537  -2.1935   1.1666 C.3            1 S1                 0.0000
      8 ****        -0.3774  -3.7119   1.3124 C.3            1 S1                 0.0000
      9 ****         0.2607  -1.7357   0.0337 N.3            1 S1                 0.0000
     10 ****         0.3634  -0.2880  -0.1429 C.3            1 S1                 0.0000
     11 ****         1.3829   0.0704  -1.2339 C.3            1 S1                 0.0000
     12 ****         2.8404  -0.1686  -0.7877 C.3            1 S1                 0.0000
     13 ****         3.8189   0.2949  -1.8727 C.3            1 S1                 0.0000
     14 ****         3.5126   1.7456  -2.2590 C.3            1 S1                 0.0000
     15 ****         2.0271   1.8986  -2.6216 C.3            1 S1                 0.0000
     16 ****         1.2144   1.4530  -1.5399 O.3            1 S1                 0.0000
     17 ****        -3.0504   0.4852   0.6769 C.2            1 S1                 0.0000
     18 ****        -4.0246   3.4969   2.0214 H              1 S1                 0.0000
     19 ****        -4.7199   2.7992   0.5702 H              1 S1                 0.0000
     20 ****        -3.1277   3.5351   0.5140 H              1 S1                 0.0000
     21 ****        -2.4221   1.7841   3.5861 H              1 S1                 0.0000
     22 ****        -2.6539  -2.4955   1.6534 H              1 S1                 0.0000
     23 ****        -2.3942  -2.0099  -0.0002 H              1 S1                 0.0000
     24 ****        -0.1666  -1.7485   2.0839 H              1 S1                 0.0000
     25 ****        -0.9110  -4.0872   2.1859 H              1 S1                 0.0000
     26 ****         0.6731  -3.9775   1.4352 H              1 S1                 0.0000
     27 ****        -0.7560  -4.2426   0.4378 H              1 S1                 0.0000
     28 ****         1.1931  -2.1289   0.1134 H              1 S1                 0.0000
     29 ****        -0.6039   0.1144  -0.4375 H              1 S1                 0.0000
     30 ****         0.6364   0.1967   0.7953 H              1 S1                 0.0000
     31 ****         1.1642  -0.5126  -2.1309 H              1 S1                 0.0000
     32 ****         3.0371   0.3755   0.1371 H              1 S1                 0.0000
     33 ****         3.0051  -1.2242  -0.5699 H              1 S1                 0.0000
     34 ****         4.8476   0.2018  -1.5238 H              1 S1                 0.0000
     35 ****         3.7244  -0.3464  -2.7499 H              1 S1                 0.0000
     36 ****         3.7535   2.4061  -1.4252 H              1 S1                 0.0000
     37 ****         4.1405   2.0544  -3.0952 H              1 S1                 0.0000
     38 ****         1.7974   2.9442  -2.8268 H              1 S1                 0.0000
     39 ****         1.7875   1.3372  -3.5258 H              1 S1                 0.0000
     40 ****        -3.3768   0.3009  -0.3361 H              1 S1                 0.0000
     41 ****        -1.6396  -0.5379   3.3896 LP             1 S1                 0.0000
     42 ****        -0.2233  -2.0601  -0.7791 LP             1 S1                 0.0000
     43 ****         1.4475   1.9877  -0.7277 LP             1 S1                 0.0000
     44 ****         0.2560   1.6099  -1.7785 LP             1 S1                 0.0000
@<TRIPOS>BOND
    1    1    2 1     
    2    1   18 1     
    3    1   19 1     
    4    1   20 1     
    5    2   17 2     
    6    2    3 1     
    7    3    4 2     
    8    3   21 1     
    9    4    5 1     
   10    5    6 1     
   11    5   17 1     
   12    6    7 1     
   13    6   22 1     
   14    6   23 1     
   15    7    8 1     
   16    7    9 1     
   17    7   24 1     
   18    8   25 1     
   19    8   26 1     
   20    8   27 1     
   21    9   10 1     
   22    9   28 1     
   23   10   11 1     
   24   10   29 1     
   25   10   30 1     
   26   11   16 1     
   27   11   12 1     
   28   11   31 1     
   29   12   13 1     
   30   12   32 1     
   31   12   33 1     
   32   13   14 1     
   33   13   34 1     
   34   13   35 1     
   35   14   15 1     
   36   14   36 1     
   37   14   37 1     
   38   15   16 1     
   39   15   38 1     
   40   15   39 1     
   41   17   40 1     
   42    4   41 1     
   43    9   42 1     
   44   16   43 1     
   45   16   44 1     
@<TRIPOS>SUBSTRUCTURE
      1 S1             1
@<TRIPOS>SET
LONE_PAIRS      STATIC     ATOMS    <user>   **** ""
4 41 42 43 44
DONOR_HYDROGENS      STATIC     ATOMS    <user>   **** ""
1 28
ATOM$BLUE        STATIC     ATOMS    COLORGROUP SYSTEM
4 41 42 43 44
ATOM$RED        STATIC     ATOMS    COLORGROUP SYSTEM
1 28
