AV-unprocessed.smi:1486|AV-procd|sdf|6005|dock9
  -GOLD-   22720 6103D 1   1.00000     0.00000
 Structure written by MMmdl.
 39 40  0  0  0  0  0  0  0  0  1 V2000
  148.6409  131.4049  153.4405 C   0  0  0  0  0  0  0  0  0  0  0  0
  149.2691  132.2683  154.3708 O   0  0  0  0  0  0  0  0  0  0  0  0
  149.2427  133.6263  153.9606 C   0  0  0  0  0  0  0  0  0  0  0  0
  150.0453  134.4831  154.9550 C   0  0  2  0  0  0  0  0  0  0  0  0
  149.3017  134.6468  156.2873 C   0  0  0  0  0  0  0  0  0  0  0  0
  150.2924  135.8023  154.3803 N   0  0  0  0  0  0  0  0  0  0  0  0
  151.1881  136.6979  154.8264 C   0  0  0  0  0  0  0  0  0  0  0  0
  151.8553  136.5458  155.8495 O   0  0  0  0  0  0  0  0  0  0  0  0
  151.3760  137.9512  153.9708 C   0  0  0  0  0  0  0  0  0  0  0  0
  150.9526  139.1642  154.7483 C   0  0  0  0  0  0  0  0  0  0  0  0
  149.8993  139.9988  154.4637 C   0  0  0  0  0  0  0  0  0  0  0  0
  149.7356  141.2700  155.6435 S   0  0  0  0  0  0  0  0  0  0  0  0
  151.1368  140.6138  156.4957 C   0  0  0  0  0  0  0  0  0  0  0  0
  151.7172  141.1278  157.6937 N   0  0  0  0  0  0  0  0  0  0  0  0
  151.2762  142.3899  158.2804 C   0  0  0  0  0  0  0  0  0  0  0  0
  151.9700  142.4869  159.6434 C   0  0  0  0  0  0  0  0  0  0  0  0
  153.0748  141.4329  159.6108 C   0  0  0  0  0  0  0  0  0  0  0  0
  152.7213  140.5817  158.4023 C   0  0  0  0  0  0  0  0  0  0  0  0
  153.3212  139.5365  158.1557 O   0  0  0  0  0  0  0  0  0  0  0  0
  151.6523  139.5316  155.9030 N   0  0  0  0  0  0  0  0  0  0  0  0
  148.6801  130.3797  153.8086 H   0  0  0  0  0  0  0  0  0  0  0  0
  149.1458  131.4340  152.4742 H   0  0  0  0  0  0  0  0  0  0  0  0
  147.5934  131.6727  153.2981 H   0  0  0  0  0  0  0  0  0  0  0  0
  149.6566  133.7281  152.9556 H   0  0  0  0  0  0  0  0  0  0  0  0
  148.2074  133.9689  153.9226 H   0  0  0  0  0  0  0  0  0  0  0  0
  150.9913  133.9812  155.1660 H   0  0  0  0  0  0  0  0  0  0  0  0
  149.1168  133.6790  156.7540 H   0  0  0  0  0  0  0  0  0  0  0  0
  148.3382  135.1382  156.1477 H   0  0  0  0  0  0  0  0  0  0  0  0
  149.8823  135.2446  156.9906 H   0  0  0  0  0  0  0  0  0  0  0  0
  149.7937  136.0247  153.5310 H   0  0  0  0  0  0  0  0  0  0  0  0
  152.4200  138.0248  153.6633 H   0  0  0  0  0  0  0  0  0  0  0  0
  150.7893  137.8583  153.0560 H   0  0  0  0  0  0  0  0  0  0  0  0
  149.2051  139.9350  153.6388 H   0  0  0  0  0  0  0  0  0  0  0  0
  151.5811  143.2125  157.6318 H   0  0  0  0  0  0  0  0  0  0  0  0
  150.1911  142.4255  158.3871 H   0  0  0  0  0  0  0  0  0  0  0  0
  152.3624  143.4875  159.8280 H   0  0  0  0  0  0  0  0  0  0  0  0
  151.2627  142.2582  160.4420 H   0  0  0  0  0  0  0  0  0  0  0  0
  154.0540  141.8879  159.4587 H   0  0  0  0  0  0  0  0  0  0  0  0
  153.1029  140.8373  160.5239 H   0  0  0  0  0  0  0  0  0  0  0  0
  1  2  1  0  0  0  0
  1 21  1  0  0  0  0
  1 22  1  0  0  0  0
  1 23  1  0  0  0  0
  2  3  1  0  0  0  0
  3  4  1  0  0  0  0
  3 24  1  0  0  0  0
  3 25  1  0  0  0  0
  4  5  1  0  0  0  0
  4  6  1  0  0  0  0
  4 26  1  0  0  0  0
  5 27  1  0  0  0  0
  5 28  1  0  0  0  0
  5 29  1  0  0  0  0
  6  7  1  0  0  0  0
  6 30  1  0  0  0  0
  7  8  2  0  0  0  0
  7  9  1  0  0  0  0
  9 10  1  0  0  0  0
  9 31  1  0  0  0  0
  9 32  1  0  0  0  0
 10 20  1  0  0  0  0
 10 11  2  0  0  0  0
 11 12  1  0  0  0  0
 11 33  1  0  0  0  0
 12 13  1  0  0  0  0
 13 14  1  0  0  0  0
 13 20  2  0  0  0  0
 14 18  1  0  0  0  0
 14 15  1  0  0  0  0
 15 16  1  0  0  0  0
 15 34  1  0  0  0  0
 15 35  1  0  0  0  0
 16 17  1  0  0  0  0
 16 36  1  0  0  0  0
 16 37  1  0  0  0  0
 17 18  1  0  0  0  0
 17 38  1  0  0  0  0
 17 39  1  0  0  0  0
 18 19  2  0  0  0  0
M  END
> <s_m_source_file>
AV-unprocessed.smi

> <i_m_source_file_index>
1486

> <i_lp_mmshare_version>
43012

> <i_f3d_flags>
0

> <s_epik_input>
W0NIM11PW0NIMl1bQ0BIXShbQ0gzXSlbTkhdQyg9TylbQ0gyXWMxW2NIXXNjKG4xKU4yW0NIMl1bQ0gyXVtDSDJdQzI9Tw==

> <s_epik_cmdline>
J2VwaWtfcHl0aG9uJywgJy1waCcsICc3LjAnLCAnLXRuJywgJzgnLCAnLW1hJywgJzIwMCcsICctbWV0YWxfYmluZGluZycsICctaW1hZScsICc8aW5maWxlLm1hZT4nLCAnLW9tYWUnLCAnPG91dGZpbGUubWFlPic=

> <r_lp_tautomer_probability>
1

> <r_epik_Ionization_Penalty>
3.00988e-05

> <r_epik_Ionization_Penalty_Charging>
0

> <r_epik_Ionization_Penalty_Neutral>
3.00988e-05

> <r_epik_State_Penalty>
-0

> <r_epik_Charging_Adjusted_Penalty>
0

> <i_epik_Tot_Q>
0

> <i_epik_Tot_abs_Q>
0

> <r_epik_Metal_State_Penalty>
-0

> <b_epik_Metal_Only>
0

> <s_lp_Force_Field>
OPLS_2005

> <r_lp_Energy>
17.4933

> <b_lp_Chiralities_Consistent>
1

> <s_lp_Variant>
AV-unprocessed.smi:1486-1

> <Gold.Version>
5.8.1

> <Gold.Id.Protein>
6NUR|6NUR_protein|mol2

> <Gold.PLP.Fitness>
47.7588

> <Gold.PLP.PLP>
-36.3856

> <Gold.PLP.part.hbond>
-3.7666

> <Gold.PLP.part.metal>
0.0000

> <Gold.PLP.part.buried>
-0.9544

> <Gold.PLP.part.nonpolar>
-31.5550

> <Gold.PLP.part.repulsive>
0.1420

> <Gold.PLP.ligand.clash>
0.0000

> <Gold.PLP.ligand.torsion>
0.3153

> <Gold.PLP.Chemscore.Hbond>
2.9920

> <Gold.PLP.Chemscore.CHOScore>
1.0000

> <Gold.PLP.Chemscore.Metal>
0.0000

> <Gold.Chemscore.Hbonds>
donor molecule, donor type, donor heavy atom, donor atom, acceptor molecule, acceptor atom, score
      L1  H     6    30       P1  7948  0.80
      P1  H  7997  8008       L1    19  1.00
      P1  H 10752 10763       L1     8  0.91
      L1  C    11    33       P1  7957  1.00

> <Gold.PLP.Chemscore.Internal.Correction>
0.0278

> <Gold.Rescore>
     Score         DG    S(hbond)    S(metal)    S(lipo)     H(rot)  DE(clash)    DE(int)     intcor
     15.64     -17.47       2.53        0.00      72.61       1.94       0.08       1.75       ----

> <Gold.Chemscore.Fitness>
15.6405

> <Gold.Chemscore.DG>
-17.4670

> <Gold.Chemscore.ZeroCoef>
-5.4800

> <Gold.Chemscore.Hbond>
2.5302

> <Gold.Chemscore.Metal>
0.0000

> <Gold.Chemscore.Lipo>
72.6115

> <Gold.Chemscore.Internal_Hbond>
0.0000

> <Gold.Chemscore.DEClash>
0.0762

> <Gold.Chemscore.DEInternal>
1.7502

> <Gold.Chemscore.Rot>
1.9373

> <Gold.Chemscore.Internal.Correction>
   9.000000E+99

> <Gold.Chemscore.Hbonds>
donor molecule, donor type, donor heavy atom, donor atom, acceptor molecule, acceptor atom, score
      L1  H     6    30       P1  7948  0.12
      P1  H  7997  8008       L1    19  0.40
      P1  H 10752 10763       L1     8  0.20

> <Gold.Chemscore.Hbond.Weighted>
-8.4508

> <Gold.Chemscore.Metal.Weighted>
-0.0000

> <Gold.Chemscore.Lipo.Weighted>
-8.4956

> <Gold.Chemscore.Internal_Hbond.Weighted>
0.0000

> <Gold.Chemscore.DEClash.Weighted>
0.0762

> <Gold.Chemscore.DEInternal.Weighted>
1.7502

> <Gold.Chemscore.Rot.Weighted>
4.9594

> <Gold.Chemscore.Internal.Correction.Weighted>
   9.000000E+99

> <Gold.Protein.RotatedTorsions>
[ 6907 6896 6895 6894 ] final -172.66 input  -60.11 | X-H torsion
[ 7974 7965 7964 7962 ] final -161.06 input  175.53 | X-H torsion
[ 8008 7997 7996 7995 ] final  -82.94 input   59.86 | X-H torsion
[ 10167 10162 10161 10158 ] final    5.04 input  -65.29 | X-H torsion
[ 10718 10713 10712 10709 ] final  -78.57 input   66.30 | X-H torsion
[ 10763 10752 10751 10750 ] final   99.48 input  -60.55 | X-H torsion
[ 11005 11000 10999 10996 ] final -110.14 input  -57.11 | X-H torsion

> <Gold.Protein.ActiveResidues>
 VAL166  LYS551  ARG553  GLY616  TRP617  ASP618  TYR619  PRO620  LYS621  CYS622 
 ASP623  PHE694  ASN695  SER759  ASP760  ASP761  ALA762  ILE779  LEU786  VAL792 
 PHE793  MET794  SER795  GLU796  ALA797  LYS798  CYS799  TRP800  GLU811  SER814 

> <Gold.Protein.RotatedAtoms>
  151.5436  133.3429  159.2939 H   0  0  0  0  0  0  0  0  0  0  0  0  # atno 6907 bound_to 6896
  150.8521  134.7851  159.7028 H   0  0  0  0  0  0  0  0  0  0  0  0  # atno 6908 bound_to 6896
  152.4564  134.5290  159.9857 H   0  0  0  0  0  0  0  0  0  0  0  0  # atno 6909 bound_to 6896
  144.7404  140.3451  143.6127 H   0  0  0  0  0  0  0  0  0  0  0  0  # atno 7974 bound_to 7965
  154.6139  140.0626  156.9529 H   0  0  0  0  0  0  0  0  0  0  0  0  # atno 8008 bound_to 7997
  155.1928  140.3308  155.4337 H   0  0  0  0  0  0  0  0  0  0  0  0  # atno 8009 bound_to 7997
  156.2392  140.1878  156.7017 H   0  0  0  0  0  0  0  0  0  0  0  0  # atno 8010 bound_to 7997
  140.6503  143.7561  150.7564 H   0  0  0  0  0  0  0  0  0  0  0  0  # atno 10167 bound_to 10162
  156.0114  130.4522  150.3517 H   0  0  0  0  0  0  0  0  0  0  0  0  # atno 10718 bound_to 10713
  153.3020  135.4112  155.1260 H   0  0  0  0  0  0  0  0  0  0  0  0  # atno 10763 bound_to 10752
  154.8552  135.3543  154.5839 H   0  0  0  0  0  0  0  0  0  0  0  0  # atno 10764 bound_to 10752
  153.6265  135.7062  153.5349 H   0  0  0  0  0  0  0  0  0  0  0  0  # atno 10765 bound_to 10752
  141.0809  133.9222  157.2291 H   0  0  0  0  0  0  0  0  0  0  0  0  # atno 11005 bound_to 11000
  145.7334  139.1743  143.2417 LP  0  0  0  0  0  0  0  0  0  0  0  0  # atno 17320 bound_to 7965
  146.1189  140.7334  142.9467 LP  0  0  0  0  0  0  0  0  0  0  0  0  # atno 17321 bound_to 7965
  140.1210  143.4611  152.2313 LP  0  0  0  0  0  0  0  0  0  0  0  0  # atno 17342 bound_to 10162
  139.5717  144.7466  151.3872 LP  0  0  0  0  0  0  0  0  0  0  0  0  # atno 17343 bound_to 10162
  157.1609  131.0345  151.2841 LP  0  0  0  0  0  0  0  0  0  0  0  0  # atno 17370 bound_to 10713
  157.4312  130.7491  149.6991 LP  0  0  0  0  0  0  0  0  0  0  0  0  # atno 17371 bound_to 10713
  139.9622  135.0151  156.9292 LP  0  0  0  0  0  0  0  0  0  0  0  0  # atno 17394 bound_to 11000
  140.5471  134.0663  155.7358 LP  0  0  0  0  0  0  0  0  0  0  0  0  # atno 17395 bound_to 11000

$$$$
