#       Name:                AV-unprocessed.smi:912
#       Creating user name   scv26
#       Creation time:       Fri Mar 27 02:05:00 2020


#       File generated by GOLD software.
#

@<TRIPOS>MOLECULE
AV-unprocessed.smi:912
    30    30     1
SMALL
NO_CHARGES


@<TRIPOS>ATOM
      1 ****        -2.1491   2.0277   0.1573 C.3            1 S1                 0.0000
      2 ****        -1.4989   0.6991   0.0687 N.4            1 S1                 1.0000
      3 ****        -0.0099   0.6376   0.1403 C.3            1 S1                 0.0000
      4 ****         0.4904   1.3661   1.4154 C.3            1 S1                 0.0000
      5 ****         0.5551   1.2892  -1.1480 C.2            1 S1                 0.0000
      6 ****         0.3252   0.6730  -2.3137 N.am           1 S1                 0.0000
      7 ****         1.1809   2.3466  -1.1004 O.2            1 S1                 0.0000
      8 ****         0.4623  -0.8312   0.1925 C.ar           1 S1                 0.0000
      9 ****        -0.4397  -1.9260   0.1943 C.ar           1 S1                 0.0000
     10 ****         0.0750  -3.2372   0.2480 C.ar           1 S1                 0.0000
     11 ****         1.3928  -3.5172   0.3000 N.ar           1 S1                 0.0000
     12 ****         2.2549  -2.4808   0.3004 C.ar           1 S1                 0.0000
     13 ****         1.8447  -1.1343   0.2485 C.ar           1 S1                 0.0000
     14 ****        -3.2201   1.9150  -0.0107 H              1 S1                 0.0000
     15 ****        -1.7689   2.7220  -0.5922 H              1 S1                 0.0000
     16 ****        -2.0216   2.4713   1.1445 H              1 S1                 0.0000
     17 ****        -1.8628   0.1336   0.8222 H              1 S1                 0.0000
     18 ****         1.5750   1.3158   1.5159 H              1 S1                 0.0000
     19 ****         0.0631   0.9200   2.3141 H              1 S1                 0.0000
     20 ****         0.2335   2.4256   1.4220 H              1 S1                 0.0000
     21 ****         0.6514   1.0771  -3.1797 H              1 S1                 0.0000
     22 ****        -0.2028  -0.1885  -2.3255 H              1 S1                 0.0000
     23 ****        -1.5104  -1.7968   0.1559 H              1 S1                 0.0000
     24 ****        -0.5935  -4.0854   0.2489 H              1 S1                 0.0000
     25 ****         3.3048  -2.7306   0.3421 H              1 S1                 0.0000
     26 ****         2.5885  -0.3510   0.2478 H              1 S1                 0.0000
     27 ****        -1.7759   0.2745  -0.8046 H              1 S1                 0.0000
     28 ****         1.3318   2.7991  -0.2216 LP             1 S1                 0.0000
     29 ****         1.5389   2.7540  -1.9406 LP             1 S1                 0.0000
     30 ****         1.7196  -4.4616   0.3370 LP             1 S1                 0.0000
@<TRIPOS>BOND
    1    1    2 1     
    2    1   14 1     
    3    1   15 1     
    4    1   16 1     
    5    2    3 1     
    6    2   17 1     
    7    2   27 1     
    8    3    4 1     
    9    3    5 1     
   10    3    8 1     
   11    4   18 1     
   12    4   19 1     
   13    4   20 1     
   14    5    6 am    
   15    5    7 2     
   16    6   21 1     
   17    6   22 1     
   18    8   13 ar    
   19    8    9 ar    
   20    9   10 ar    
   21    9   23 1     
   22   10   11 ar    
   23   10   24 1     
   24   11   12 ar    
   25   12   13 ar    
   26   12   25 1     
   27   13   26 1     
   28    7   28 1     
   29    7   29 1     
   30   11   30 1     
@<TRIPOS>SUBSTRUCTURE
      1 S1             1
@<TRIPOS>SET
LONE_PAIRS      STATIC     ATOMS    <user>   **** ""
3 28 29 30
DONOR_HYDROGENS      STATIC     ATOMS    <user>   **** ""
4 17 27 21 22
ATOM$BLUE        STATIC     ATOMS    COLORGROUP SYSTEM
3 28 29 30
ATOM$RED        STATIC     ATOMS    COLORGROUP SYSTEM
4 17 27 21 22
