AV-unprocessed.smi:2397|AV-procd|sdf|9494|dock1
  -GOLD-   2272013123D 1   1.00000     0.00000
 Structure written by MMmdl.
 36 37  0  0  0  0  0  0  0  0  1 V2000
  151.7705  145.2599  160.1299 C   0  0  0  0  0  0  0  0  0  0  0  0
  152.4918  144.6401  158.9228 C   0  0  0  0  0  0  0  0  0  0  0  0
  152.0279  145.2274  157.5805 C   0  0  0  0  0  0  0  0  0  0  0  0
  152.4159  143.1189  158.9338 C   0  0  0  0  0  0  0  0  0  0  0  0
  152.9662  142.4913  159.9775 N   0  0  0  0  0  0  0  0  0  0  0  0
  152.9036  141.1430  159.9807 C   0  0  0  0  0  0  0  0  0  0  0  0
  152.2929  140.4245  158.9336 C   0  0  0  0  0  0  0  0  0  0  0  0
  151.7457  141.1844  157.8757 C   0  0  0  0  0  0  0  0  0  0  0  0
  151.1131  140.5347  156.7939 N   0  0  0  0  0  0  0  0  0  0  0  0
  150.3108  141.4881  156.0284 C   0  0  0  0  0  0  0  0  0  0  0  0
  149.4973  140.7750  154.9406 C   0  0  0  0  0  0  0  0  0  0  0  0
  150.3845  140.0442  154.1074 O   0  0  0  0  0  0  0  0  0  0  0  0
  151.0540  139.0220  154.8342 C   0  0  0  0  0  0  0  0  0  0  0  0
  151.9254  139.6239  155.9632 C   0  0  2  0  0  0  0  0  0  0  0  0
  152.6067  138.4485  156.6978 C   0  0  0  0  0  0  0  0  0  0  0  0
  151.8362  137.5417  157.3083 N   0  0  0  0  0  0  0  0  0  0  0  0
  153.8332  138.3693  156.7201 O   0  0  0  0  0  0  0  0  0  0  0  0
  151.8078  142.5377  157.8950 N   0  0  0  0  0  0  0  0  0  0  0  0
  152.1727  144.8741  161.0670 H   0  0  0  0  0  0  0  0  0  0  0  0
  150.7023  145.0417  160.1102 H   0  0  0  0  0  0  0  0  0  0  0  0
  151.8867  146.3439  160.1420 H   0  0  0  0  0  0  0  0  0  0  0  0
  153.5442  144.9107  159.0253 H   0  0  0  0  0  0  0  0  0  0  0  0
  152.6097  144.8203  156.7531 H   0  0  0  0  0  0  0  0  0  0  0  0
  152.1450  146.3112  157.5654 H   0  0  0  0  0  0  0  0  0  0  0  0
  150.9774  145.0053  157.3894 H   0  0  0  0  0  0  0  0  0  0  0  0
  153.3461  140.6326  160.8233 H   0  0  0  0  0  0  0  0  0  0  0  0
  152.2530  139.3452  158.9421 H   0  0  0  0  0  0  0  0  0  0  0  0
  149.6266  142.0334  156.6795 H   0  0  0  0  0  0  0  0  0  0  0  0
  150.9702  142.2277  155.5704 H   0  0  0  0  0  0  0  0  0  0  0  0
  148.7493  140.1116  155.3780 H   0  0  0  0  0  0  0  0  0  0  0  0
  148.9610  141.5042  154.3333 H   0  0  0  0  0  0  0  0  0  0  0  0
  150.3196  138.3194  155.2333 H   0  0  0  0  0  0  0  0  0  0  0  0
  151.6733  138.4613  154.1327 H   0  0  0  0  0  0  0  0  0  0  0  0
  152.7116  140.2154  155.4903 H   0  0  0  0  0  0  0  0  0  0  0  0
  152.2626  136.7642  157.7910 H   0  0  0  0  0  0  0  0  0  0  0  0
  150.8314  137.6371  157.2808 H   0  0  0  0  0  0  0  0  0  0  0  0
  1  2  1  0  0  0  0
  1 19  1  0  0  0  0
  1 20  1  0  0  0  0
  1 21  1  0  0  0  0
  2  3  1  0  0  0  0
  2  4  1  0  0  0  0
  2 22  1  0  0  0  0
  3 23  1  0  0  0  0
  3 24  1  0  0  0  0
  3 25  1  0  0  0  0
  4 18  1  0  0  0  0
  4  5  2  0  0  0  0
  5  6  1  0  0  0  0
  6  7  2  0  0  0  0
  6 26  1  0  0  0  0
  7  8  1  0  0  0  0
  7 27  1  0  0  0  0
  8  9  1  0  0  0  0
  8 18  2  0  0  0  0
  9 14  1  0  0  0  0
  9 10  1  0  0  0  0
 10 11  1  0  0  0  0
 10 28  1  0  0  0  0
 10 29  1  0  0  0  0
 11 12  1  0  0  0  0
 11 30  1  0  0  0  0
 11 31  1  0  0  0  0
 12 13  1  0  0  0  0
 13 14  1  0  0  0  0
 13 32  1  0  0  0  0
 13 33  1  0  0  0  0
 14 15  1  0  0  0  0
 14 34  1  0  0  0  0
 15 16  1  0  0  0  0
 15 17  2  0  0  0  0
 16 35  1  0  0  0  0
 16 36  1  0  0  0  0
M  END
> <s_m_source_file>
AV-unprocessed.smi

> <i_m_source_file_index>
2397

> <i_lp_mmshare_version>
43012

> <i_f3d_flags>
0

> <s_epik_input>
W0NIM11bQ0hdKFtDSDNdKWMxbltjSF1bY0hdYyhuMSlOMltDSDJdW0NIMl1PW0NIMl1bQ0BIXTJDKD1PKVtOSDJd

> <s_epik_cmdline>
J2VwaWtfcHl0aG9uJywgJy1waCcsICc3LjAnLCAnLXRuJywgJzgnLCAnLW1hJywgJzIwMCcsICctbWV0YWxfYmluZGluZycsICctaW1hZScsICc8aW5maWxlLm1hZT4nLCAnLW9tYWUnLCAnPG91dGZpbGUubWFlPic=

> <r_lp_tautomer_probability>
1

> <r_epik_Ionization_Penalty>
0.0323151

> <r_epik_Ionization_Penalty_Charging>
0

> <r_epik_Ionization_Penalty_Neutral>
0.0323151

> <r_epik_State_Penalty>
0.0267324

> <r_epik_Charging_Adjusted_Penalty>
0.0267324

> <i_epik_Tot_Q>
0

> <i_epik_Tot_abs_Q>
0

> <r_epik_Metal_State_Penalty>
0.0253461

> <b_epik_Metal_Only>
0

> <s_lp_Force_Field>
OPLS_2005

> <r_lp_Energy>
6.15108

> <b_lp_Chiralities_Consistent>
1

> <s_lp_Variant>
AV-unprocessed.smi:2397-2

> <Gold.Version>
5.8.1

> <Gold.Id.Protein>
6NUR|6NUR_protein|mol2

> <Gold.PLP.Fitness>
42.1399

> <Gold.PLP.PLP>
-37.3100

> <Gold.PLP.part.hbond>
-2.0000

> <Gold.PLP.part.metal>
0.0000

> <Gold.PLP.part.buried>
-5.8135

> <Gold.PLP.part.nonpolar>
-30.3495

> <Gold.PLP.part.repulsive>
0.8715

> <Gold.PLP.ligand.clash>
0.0000

> <Gold.PLP.ligand.torsion>
0.2802

> <Gold.PLP.Chemscore.Hbond>
1.7040

> <Gold.PLP.Chemscore.CHOScore>
0.0000

> <Gold.PLP.Chemscore.Metal>
0.0000

> <Gold.Chemscore.Hbonds>
donor molecule, donor type, donor heavy atom, donor atom, acceptor molecule, acceptor atom, score
      P1  H  7989  7998       L1    12  1.00
      P1  H  7997  8009       L1    17  0.69

> <Gold.PLP.Chemscore.Internal.Correction>
0.2783

> <Gold.Rescore>
     Score         DG    S(hbond)    S(metal)    S(lipo)     H(rot)  DE(clash)    DE(int)     intcor
     13.13     -14.59       1.31        0.00      78.63       1.74       0.06       1.40       ----

> <Gold.Chemscore.Fitness>
13.1320

> <Gold.Chemscore.DG>
-14.5908

> <Gold.Chemscore.ZeroCoef>
-5.4800

> <Gold.Chemscore.Hbond>
1.3090

> <Gold.Chemscore.Metal>
0.0000

> <Gold.Chemscore.Lipo>
78.6304

> <Gold.Chemscore.Internal_Hbond>
0.0000

> <Gold.Chemscore.DEClash>
0.0571

> <Gold.Chemscore.DEInternal>
1.4016

> <Gold.Chemscore.Rot>
1.7426

> <Gold.Chemscore.Internal.Correction>
   9.000000E+99

> <Gold.Chemscore.Hbonds>
donor molecule, donor type, donor heavy atom, donor atom, acceptor molecule, acceptor atom, score
      P1  H  7989  7998       L1    12  0.31
      P1  H  7997  8009       L1    17  0.38

> <Gold.Chemscore.Hbond.Weighted>
-4.3720

> <Gold.Chemscore.Metal.Weighted>
-0.0000

> <Gold.Chemscore.Lipo.Weighted>
-9.1998

> <Gold.Chemscore.Internal_Hbond.Weighted>
0.0000

> <Gold.Chemscore.DEClash.Weighted>
0.0571

> <Gold.Chemscore.DEInternal.Weighted>
1.4016

> <Gold.Chemscore.Rot.Weighted>
4.4610

> <Gold.Chemscore.Internal.Correction.Weighted>
   9.000000E+99

> <Gold.Protein.RotatedTorsions>
[ 6907 6896 6895 6894 ] final -106.36 input  -60.11 | X-H torsion
[ 7974 7965 7964 7962 ] final   10.73 input  175.53 | X-H torsion
[ 8008 7997 7996 7995 ] final  177.92 input   59.86 | X-H torsion
[ 10167 10162 10161 10158 ] final  105.61 input  -65.29 | X-H torsion
[ 10718 10713 10712 10709 ] final  -75.99 input   66.30 | X-H torsion
[ 10763 10752 10751 10750 ] final  104.76 input  -60.55 | X-H torsion
[ 11005 11000 10999 10996 ] final -140.43 input  -57.11 | X-H torsion

> <Gold.Protein.ActiveResidues>
 VAL166  LYS551  ARG553  GLY616  TRP617  ASP618  TYR619  PRO620  LYS621  CYS622 
 ASP623  PHE694  ASN695  SER759  ASP760  ASP761  ALA762  ILE779  LEU786  VAL792 
 PHE793  MET794  SER795  GLU796  ALA797  LYS798  CYS799  TRP800  GLU811  SER814 

> <Gold.Protein.RotatedAtoms>
  150.7385  133.9988  159.3631 H   0  0  0  0  0  0  0  0  0  0  0  0  # atno 6907 bound_to 6896
  151.7941  135.0725  160.0400 H   0  0  0  0  0  0  0  0  0  0  0  0  # atno 6908 bound_to 6896
  152.3187  133.5794  159.5766 H   0  0  0  0  0  0  0  0  0  0  0  0  # atno 6909 bound_to 6896
  146.2383  139.9590  142.8461 H   0  0  0  0  0  0  0  0  0  0  0  0  # atno 7974 bound_to 7965
  156.0604  140.1346  156.9948 H   0  0  0  0  0  0  0  0  0  0  0  0  # atno 8008 bound_to 7997
  154.4479  140.0992  156.6579 H   0  0  0  0  0  0  0  0  0  0  0  0  # atno 8009 bound_to 7997
  155.5386  140.3460  155.4444 H   0  0  0  0  0  0  0  0  0  0  0  0  # atno 8010 bound_to 7997
  139.7078  144.7083  151.1077 H   0  0  0  0  0  0  0  0  0  0  0  0  # atno 10167 bound_to 10162
  156.0189  130.4454  150.3126 H   0  0  0  0  0  0  0  0  0  0  0  0  # atno 10718 bound_to 10713
  153.3702  135.3932  155.1783 H   0  0  0  0  0  0  0  0  0  0  0  0  # atno 10763 bound_to 10752
  154.8693  135.3701  154.4987 H   0  0  0  0  0  0  0  0  0  0  0  0  # atno 10764 bound_to 10752
  153.5454  135.7084  153.5677 H   0  0  0  0  0  0  0  0  0  0  0  0  # atno 10765 bound_to 10752
  140.8423  134.2386  157.4803 H   0  0  0  0  0  0  0  0  0  0  0  0  # atno 11005 bound_to 11000
  145.1789  140.9757  143.4278 LP  0  0  0  0  0  0  0  0  0  0  0  0  # atno 17320 bound_to 7965
  144.9960  139.3643  143.6191 LP  0  0  0  0  0  0  0  0  0  0  0  0  # atno 17321 bound_to 7965
  140.7726  143.5334  150.9396 LP  0  0  0  0  0  0  0  0  0  0  0  0  # atno 17342 bound_to 10162
  139.9018  143.6827  152.3130 LP  0  0  0  0  0  0  0  0  0  0  0  0  # atno 17343 bound_to 10162
  157.1227  131.0251  151.3002 LP  0  0  0  0  0  0  0  0  0  0  0  0  # atno 17370 bound_to 10713
  157.4615  130.7656  149.7240 LP  0  0  0  0  0  0  0  0  0  0  0  0  # atno 17371 bound_to 10713
  139.8703  134.9642  156.4486 LP  0  0  0  0  0  0  0  0  0  0  0  0  # atno 17394 bound_to 11000
  140.8881  133.7868  155.9541 LP  0  0  0  0  0  0  0  0  0  0  0  0  # atno 17395 bound_to 11000

$$$$
