#       Name:                AV-unprocessed.smi:1285
#       Creating user name   scv26
#       Creation time:       Fri Mar 27 04:51:34 2020


#       File generated by GOLD software.
#

@<TRIPOS>MOLECULE
AV-unprocessed.smi:1285
    53    54     1
SMALL
NO_CHARGES


@<TRIPOS>ATOM
      1 ****        -2.5481  -0.8626   0.3912 C.3            1 S1                 0.0000
      2 ****        -1.0189  -0.6931   0.4326 C.3            1 S1                 0.0000
      3 ****        -0.3820  -0.0003  -0.8119 C.3            1 S1                 0.0000
      4 ****        -0.8611   1.4761  -0.8080 C.3            1 S1                 0.0000
      5 ****         1.1744  -0.0235  -0.6935 C.3            1 S1                 0.0000
      6 ****         1.6691   0.6953   0.4786 N.am           1 S1                 0.0000
      7 ****         2.0937   0.1379   1.6235 C.2            1 S1                 0.0000
      8 ****         2.1925  -1.0786   1.7878 O.2            1 S1                 0.0000
      9 ****         2.4086   1.1160   2.7641 C.3            1 S1                 0.0000
     10 ****         3.3199   0.5069   3.8462 C.3            1 S1                 0.0000
     11 ****         1.1623   1.6096   3.3341 N.pl3          1 S1                 0.0000
     12 ****         0.2449   1.0010   4.0912 C.2            1 S1                 0.0000
     13 ****        -0.8026   1.7600   4.3798 N.2            1 S1                 0.0000
     14 ****        -0.4445   2.9022   3.7222 C.2            1 S1                 0.0000
     15 ****         0.7176   2.8619   3.0705 N.2            1 S1                 0.0000
     16 ****        -0.8307  -0.6957  -2.0735 N.4            1 S1                 1.0000
     17 ****        -0.5217   0.0039  -3.3529 C.3            1 S1                 0.0000
     18 ****        -1.1988  -0.7092  -4.5360 C.3            1 S1                 0.0000
     19 ****        -0.7808  -2.0659  -4.5853 O.3            1 S1                 0.0000
     20 ****        -1.1479  -2.7716  -3.4084 C.3            1 S1                 0.0000
     21 ****        -0.4577  -2.1343  -2.1916 C.3            1 S1                 0.0000
     22 ****        -2.9002  -1.3464   1.3025 H              1 S1                 0.0000
     23 ****        -2.8678  -1.4811  -0.4471 H              1 S1                 0.0000
     24 ****        -3.0603   0.0965   0.3183 H              1 S1                 0.0000
     25 ****        -0.7855  -0.1200   1.3302 H              1 S1                 0.0000
     26 ****        -0.5586  -1.6655   0.6055 H              1 S1                 0.0000
     27 ****        -0.7589   1.9315   0.1780 H              1 S1                 0.0000
     28 ****        -1.9097   1.5634  -1.0932 H              1 S1                 0.0000
     29 ****        -0.2810   2.0968  -1.4913 H              1 S1                 0.0000
     30 ****         1.5538  -1.0454  -0.6812 H              1 S1                 0.0000
     31 ****         1.6302   0.4520  -1.5612 H              1 S1                 0.0000
     32 ****         1.6245   1.7038   0.4415 H              1 S1                 0.0000
     33 ****         2.9410   1.9647   2.3297 H              1 S1                 0.0000
     34 ****         4.2611   0.1597   3.4184 H              1 S1                 0.0000
     35 ****         2.8495  -0.3403   4.3468 H              1 S1                 0.0000
     36 ****         3.5623   1.2468   4.6097 H              1 S1                 0.0000
     37 ****         0.3397  -0.0214   4.4273 H              1 S1                 0.0000
     38 ****        -1.0632   3.7875   3.7166 H              1 S1                 0.0000
     39 ****        -0.8765   1.0327  -3.3450 H              1 S1                 0.0000
     40 ****         0.5560   0.0351  -3.5152 H              1 S1                 0.0000
     41 ****        -2.2855  -0.6533  -4.4540 H              1 S1                 0.0000
     42 ****        -0.9262  -0.2228  -5.4728 H              1 S1                 0.0000
     43 ****        -2.2326  -2.7717  -3.2884 H              1 S1                 0.0000
     44 ****        -0.8393  -3.8119  -3.5127 H              1 S1                 0.0000
     45 ****         0.6215  -2.2397  -2.3037 H              1 S1                 0.0000
     46 ****        -0.7453  -2.6970  -1.3058 H              1 S1                 0.0000
     47 ****        -1.8390  -0.6902  -2.0135 H              1 S1                 0.0000
     48 ****         1.9505  -1.7046   1.0465 LP             1 S1                 0.0000
     49 ****         2.5148  -1.4404   2.6626 LP             1 S1                 0.0000
     50 ****        -1.6179   1.5558   4.9215 LP             1 S1                 0.0000
     51 ****         1.1526   3.5773   2.5236 LP             1 S1                 0.0000
     52 ****         0.2139  -2.0952  -4.6838 LP             1 S1                 0.0000
     53 ****        -1.2071  -2.5079  -5.3745 LP             1 S1                 0.0000
@<TRIPOS>BOND
    1    1    2 1     
    2    1   22 1     
    3    1   23 1     
    4    1   24 1     
    5    2    3 1     
    6    2   25 1     
    7    2   26 1     
    8    3    4 1     
    9    3    5 1     
   10    3   16 1     
   11    4   27 1     
   12    4   28 1     
   13    4   29 1     
   14    5    6 1     
   15    5   30 1     
   16    5   31 1     
   17    6    7 am    
   18    6   32 1     
   19    7    8 2     
   20    7    9 1     
   21    9   10 1     
   22    9   11 1     
   23    9   33 1     
   24   10   34 1     
   25   10   35 1     
   26   10   36 1     
   27   11   15 1     
   28   11   12 1     
   29   12   13 2     
   30   12   37 1     
   31   13   14 1     
   32   14   15 2     
   33   14   38 1     
   34   16   21 1     
   35   16   17 1     
   36   16   47 1     
   37   17   18 1     
   38   17   39 1     
   39   17   40 1     
   40   18   19 1     
   41   18   41 1     
   42   18   42 1     
   43   19   20 1     
   44   20   21 1     
   45   20   43 1     
   46   20   44 1     
   47   21   45 1     
   48   21   46 1     
   49    8   48 1     
   50    8   49 1     
   51   13   50 1     
   52   15   51 1     
   53   19   52 1     
   54   19   53 1     
@<TRIPOS>SUBSTRUCTURE
      1 S1             1
@<TRIPOS>SET
LONE_PAIRS      STATIC     ATOMS    <user>   **** ""
6 48 49 50 51 52 53
DONOR_HYDROGENS      STATIC     ATOMS    <user>   **** ""
2 32 47
ATOM$BLUE        STATIC     ATOMS    COLORGROUP SYSTEM
6 48 49 50 51 52 53
ATOM$RED        STATIC     ATOMS    COLORGROUP SYSTEM
2 32 47
