AV-unprocessed.smi:1366|AV-procd|sdf|5570|dock5
  -GOLD-   22720 5163D 1   1.00000     0.00000
 Structure written by MMmdl.
 31 32  0  0  0  0  0  0  0  0  1 V2000
  151.5052  135.6121  154.8202 N   0  0  0  0  0  0  0  0  0  0  0  0
  151.4485  136.7509  155.0167 C   0  0  0  0  0  0  0  0  0  0  0  0
  151.3769  138.1844  155.2640 C   0  0  0  0  0  0  0  0  0  0  0  0
  151.8420  138.7238  156.4836 C   0  0  0  0  0  0  0  0  0  0  0  0
  151.7890  140.0477  156.7465 N   0  0  0  0  0  0  0  0  0  0  0  0
  151.2746  140.8182  155.7869 C   0  0  0  0  0  0  0  0  0  0  0  0
  151.1953  142.5551  156.1329 S   0  0  0  0  0  0  0  0  0  0  0  0
  150.6232  142.4807  157.8521 C   0  0  0  0  0  0  0  0  0  0  0  0
  151.7654  142.7323  158.8454 C   0  0  2  0  0  0  0  0  0  0  0  0
  152.7383  141.5394  158.9187 C   0  0  0  0  0  0  0  0  0  0  0  0
  153.8178  141.7887  159.9782 C   0  0  0  0  0  0  0  0  0  0  0  0
  153.1577  142.1460  161.3141 C   0  0  0  0  0  0  0  0  0  0  0  0
  152.1625  143.3016  161.1253 C   0  0  0  0  0  0  0  0  0  0  0  0
  151.1992  142.9535  160.1359 O   0  0  0  0  0  0  0  0  0  0  0  0
  150.8039  140.4341  154.5989 N   0  0  0  0  0  0  0  0  0  0  0  0
  150.8510  139.1115  154.3277 C   0  0  0  0  0  0  0  0  0  0  0  0
  150.3529  138.7212  153.0832 N   0  0  0  0  0  0  0  0  0  0  0  0
  152.2587  138.0938  157.2563 H   0  0  0  0  0  0  0  0  0  0  0  0
  149.8290  143.2148  157.9933 H   0  0  0  0  0  0  0  0  0  0  0  0
  150.1850  141.4973  158.0247 H   0  0  0  0  0  0  0  0  0  0  0  0
  152.3108  143.6254  158.5342 H   0  0  0  0  0  0  0  0  0  0  0  0
  152.1884  140.6305  159.1669 H   0  0  0  0  0  0  0  0  0  0  0  0
  153.2031  141.3682  157.9474 H   0  0  0  0  0  0  0  0  0  0  0  0
  154.4524  140.9091  160.0897 H   0  0  0  0  0  0  0  0  0  0  0  0
  154.4658  142.6058  159.6584 H   0  0  0  0  0  0  0  0  0  0  0  0
  152.6327  141.2750  161.7087 H   0  0  0  0  0  0  0  0  0  0  0  0
  153.9154  142.4155  162.0502 H   0  0  0  0  0  0  0  0  0  0  0  0
  151.6455  143.5079  162.0625 H   0  0  0  0  0  0  0  0  0  0  0  0
  152.6791  144.2188  160.8387 H   0  0  0  0  0  0  0  0  0  0  0  0
  150.3461  137.7534  152.7948 H   0  0  0  0  0  0  0  0  0  0  0  0
  149.9778  139.3970  152.4330 H   0  0  0  0  0  0  0  0  0  0  0  0
  1  2  3  0  0  0  0
  2  3  1  0  0  0  0
  3 16  1  0  0  0  0
  3  4  2  0  0  0  0
  4  5  1  0  0  0  0
  4 18  1  0  0  0  0
  5  6  2  0  0  0  0
  6  7  1  0  0  0  0
  6 15  1  0  0  0  0
  7  8  1  0  0  0  0
  8  9  1  0  0  0  0
  8 19  1  0  0  0  0
  8 20  1  0  0  0  0
  9 14  1  0  0  0  0
  9 10  1  0  0  0  0
  9 21  1  0  0  0  0
 10 11  1  0  0  0  0
 10 22  1  0  0  0  0
 10 23  1  0  0  0  0
 11 12  1  0  0  0  0
 11 24  1  0  0  0  0
 11 25  1  0  0  0  0
 12 13  1  0  0  0  0
 12 26  1  0  0  0  0
 12 27  1  0  0  0  0
 13 14  1  0  0  0  0
 13 28  1  0  0  0  0
 13 29  1  0  0  0  0
 15 16  2  0  0  0  0
 16 17  1  0  0  0  0
 17 30  1  0  0  0  0
 17 31  1  0  0  0  0
M  END
> <s_m_source_file>
AV-unprocessed.smi

> <i_m_source_file_index>
1366

> <i_lp_mmshare_version>
43012

> <i_f3d_flags>
0

> <s_epik_input>
TiNDYzFbY0hdbmMobmMxW05IMl0pU1tDSDJdW0NAQEhdMltDSDJdW0NIMl1bQ0gyXVtDSDJdTzI=

> <s_epik_cmdline>
J2VwaWtfcHl0aG9uJywgJy1waCcsICc3LjAnLCAnLXRuJywgJzgnLCAnLW1hJywgJzIwMCcsICctbWV0YWxfYmluZGluZycsICctaW1hZScsICc8aW5maWxlLm1hZT4nLCAnLW9tYWUnLCAnPG91dGZpbGUubWFlPic=

> <r_lp_tautomer_probability>
1

> <r_epik_Ionization_Penalty>
5.69531e-05

> <r_epik_Ionization_Penalty_Charging>
0

> <r_epik_Ionization_Penalty_Neutral>
5.69531e-05

> <r_epik_State_Penalty>
-0

> <r_epik_Charging_Adjusted_Penalty>
0

> <i_epik_Tot_Q>
0

> <i_epik_Tot_abs_Q>
0

> <r_epik_Metal_State_Penalty>
-0

> <b_epik_Metal_Only>
0

> <s_lp_Force_Field>
OPLS_2005

> <r_lp_Energy>
5.78872

> <b_lp_Chiralities_Consistent>
1

> <s_lp_Variant>
AV-unprocessed.smi:1366-1

> <Gold.Version>
5.8.1

> <Gold.Id.Protein>
6NUR|6NUR_protein|mol2

> <Gold.PLP.Fitness>
43.6836

> <Gold.PLP.PLP>
-34.5924

> <Gold.PLP.part.hbond>
-5.0000

> <Gold.PLP.part.metal>
0.0000

> <Gold.PLP.part.buried>
-3.8875

> <Gold.PLP.part.nonpolar>
-25.1738

> <Gold.PLP.part.repulsive>
0.3781

> <Gold.PLP.ligand.clash>
0.0000

> <Gold.PLP.ligand.torsion>
0.6150

> <Gold.PLP.Chemscore.Hbond>
3.4400

> <Gold.PLP.Chemscore.CHOScore>
0.0000

> <Gold.PLP.Chemscore.Metal>
0.0000

> <Gold.Chemscore.Hbonds>
donor molecule, donor type, donor heavy atom, donor atom, acceptor molecule, acceptor atom, score
      L1  H    17    30       P1  7948  0.26
      L1  H    17    31       P1  7957  0.83
      P1  H  7989  7998       L1    15  0.70
      P1  H 10752 10764       L1     1  0.74

> <Gold.PLP.Chemscore.Internal.Correction>
0.0012

> <Gold.Rescore>
     Score         DG    S(hbond)    S(metal)    S(lipo)     H(rot)  DE(clash)    DE(int)     intcor
     17.40     -18.29       2.48        0.00      76.41       1.73       0.14       0.75       ----

> <Gold.Chemscore.Fitness>
17.3991

> <Gold.Chemscore.DG>
-18.2888

> <Gold.Chemscore.ZeroCoef>
-5.4800

> <Gold.Chemscore.Hbond>
2.4817

> <Gold.Chemscore.Metal>
0.0000

> <Gold.Chemscore.Lipo>
76.4089

> <Gold.Chemscore.Internal_Hbond>
0.0000

> <Gold.Chemscore.DEClash>
0.1431

> <Gold.Chemscore.DEInternal>
0.7465

> <Gold.Chemscore.Rot>
1.7266

> <Gold.Chemscore.Internal.Correction>
   9.000000E+99

> <Gold.Chemscore.Hbonds>
donor molecule, donor type, donor heavy atom, donor atom, acceptor molecule, acceptor atom, score
      L1  H    17    30       P1  7948  0.01
      L1  H    17    31       P1  7957  0.70
      P1  H  7989  7998       L1    15  0.12
      P1  H 10752 10764       L1     1  0.12

> <Gold.Chemscore.Hbond.Weighted>
-8.2889

> <Gold.Chemscore.Metal.Weighted>
-0.0000

> <Gold.Chemscore.Lipo.Weighted>
-8.9398

> <Gold.Chemscore.Internal_Hbond.Weighted>
0.0000

> <Gold.Chemscore.DEClash.Weighted>
0.1431

> <Gold.Chemscore.DEInternal.Weighted>
0.7465

> <Gold.Chemscore.Rot.Weighted>
4.4200

> <Gold.Chemscore.Internal.Correction.Weighted>
   9.000000E+99

> <Gold.Protein.RotatedTorsions>
[ 6907 6896 6895 6894 ] final   16.06 input  -60.11 | X-H torsion
[ 7974 7965 7964 7962 ] final  156.01 input  175.53 | X-H torsion
[ 8008 7997 7996 7995 ] final   33.98 input   59.86 | X-H torsion
[ 10167 10162 10161 10158 ] final -138.88 input  -65.29 | X-H torsion
[ 10718 10713 10712 10709 ] final  -67.25 input   66.30 | X-H torsion
[ 10763 10752 10751 10750 ] final  -45.13 input  -60.55 | X-H torsion
[ 11005 11000 10999 10996 ] final -108.26 input  -57.11 | X-H torsion

> <Gold.Protein.ActiveResidues>
 VAL166  LYS551  ARG553  GLY616  TRP617  ASP618  TYR619  PRO620  LYS621  CYS622 
 ASP623  PHE694  ASN695  SER759  ASP760  ASP761  ALA762  ILE779  LEU786  VAL792 
 PHE793  MET794  SER795  GLU796  ALA797  LYS798  CYS799  TRP800  GLU811  SER814 

> <Gold.Protein.RotatedAtoms>
  151.8279  135.0631  160.0432 H   0  0  0  0  0  0  0  0  0  0  0  0  # atno 6907 bound_to 6896
  152.2902  133.5549  159.5561 H   0  0  0  0  0  0  0  0  0  0  0  0  # atno 6908 bound_to 6896
  150.7227  134.0355  159.3790 H   0  0  0  0  0  0  0  0  0  0  0  0  # atno 6909 bound_to 6896
  144.7989  139.7146  143.6190 H   0  0  0  0  0  0  0  0  0  0  0  0  # atno 7974 bound_to 7965
  155.1474  140.3272  155.4438 H   0  0  0  0  0  0  0  0  0  0  0  0  # atno 8008 bound_to 7997
  156.2585  140.1983  156.6537 H   0  0  0  0  0  0  0  0  0  0  0  0  # atno 8009 bound_to 7997
  154.6498  140.0560  156.9928 H   0  0  0  0  0  0  0  0  0  0  0  0  # atno 8010 bound_to 7997
  139.8434  143.7292  152.2662 H   0  0  0  0  0  0  0  0  0  0  0  0  # atno 10167 bound_to 10162
  156.0568  130.4275  150.1827 H   0  0  0  0  0  0  0  0  0  0  0  0  # atno 10718 bound_to 10713
  154.0235  135.6666  153.4774 H   0  0  0  0  0  0  0  0  0  0  0  0  # atno 10763 bound_to 10752
  153.0570  135.5050  154.8001 H   0  0  0  0  0  0  0  0  0  0  0  0  # atno 10764 bound_to 10752
  154.6923  135.3063  154.9427 H   0  0  0  0  0  0  0  0  0  0  0  0  # atno 10765 bound_to 10752
  141.0911  133.9053  157.2073 H   0  0  0  0  0  0  0  0  0  0  0  0  # atno 11005 bound_to 11000
  146.2265  139.5732  142.9584 LP  0  0  0  0  0  0  0  0  0  0  0  0  # atno 17320 bound_to 7965
  145.5603  141.0405  143.2230 LP  0  0  0  0  0  0  0  0  0  0  0  0  # atno 17321 bound_to 7965
  139.7536  144.7527  151.0469 LP  0  0  0  0  0  0  0  0  0  0  0  0  # atno 17342 bound_to 10162
  140.7795  143.4831  150.9991 LP  0  0  0  0  0  0  0  0  0  0  0  0  # atno 17343 bound_to 10162
  156.9901  130.9891  151.3416 LP  0  0  0  0  0  0  0  0  0  0  0  0  # atno 17370 bound_to 10713
  157.5544  130.8204  149.8186 LP  0  0  0  0  0  0  0  0  0  0  0  0  # atno 17371 bound_to 10713
  139.9737  135.0120  156.9577 LP  0  0  0  0  0  0  0  0  0  0  0  0  # atno 17394 bound_to 11000
  140.5250  134.0870  155.7301 LP  0  0  0  0  0  0  0  0  0  0  0  0  # atno 17395 bound_to 11000

$$$$
