AV-unprocessed.smi:697|AV-procd|sdf|3390|dock10
  -GOLD-   22720 0373D 1   1.00000     0.00000
 Structure written by MMmdl.
 44 45  0  0  0  0  0  0  0  0  1 V2000
  151.4189  139.9971  158.9389 C   0  0  0  0  0  0  0  0  0  0  0  0
  151.6840  139.5284  157.6223 O   0  0  0  0  0  0  0  0  0  0  0  0
  150.5967  139.5381  156.6867 C   0  0  2  0  0  0  0  0  0  0  0  0
  149.9757  140.9377  156.5998 C   0  0  0  0  0  0  0  0  0  0  0  0
  149.6819  138.3192  156.9156 C   0  0  0  0  0  0  0  0  0  0  0  0
  150.6689  137.5142  156.0723 C   0  0  1  0  0  0  0  0  0  0  0  0
  150.0136  136.5382  155.2075 N   0  0  0  0  0  0  0  0  0  0  0  0
  150.0877  135.2111  155.3758 C   0  0  0  0  0  0  0  0  0  0  0  0
  150.7027  134.6818  156.3015 O   0  0  0  0  0  0  0  0  0  0  0  0
  149.4358  134.5633  154.3930 N   0  0  0  0  0  0  0  0  0  0  0  0
  149.2748  133.1810  154.2025 C   0  0  0  0  0  0  0  0  0  0  0  0
  150.0090  132.2234  154.8271 C   0  0  0  0  0  0  0  0  0  0  0  0
  149.7901  130.8062  154.5895 C   0  0  0  0  0  0  0  0  0  0  0  0
  150.5824  129.7422  155.3336 C   0  0  0  0  0  0  0  0  0  0  0  0
  151.4637  130.2906  156.1710 F   0  0  0  0  0  0  0  0  0  0  0  0
  149.7554  128.9766  156.0443 F   0  0  0  0  0  0  0  0  0  0  0  0
  151.2456  128.9583  154.4833 F   0  0  0  0  0  0  0  0  0  0  0  0
  148.7978  130.4870  153.7381 C   0  0  0  0  0  0  0  0  0  0  0  0
  148.0372  131.4653  153.0939 N   0  0  0  0  0  0  0  0  0  0  0  0
  148.2029  132.7954  153.2699 C   0  0  0  0  0  0  0  0  0  0  0  0
  147.4852  133.5956  152.6707 O   0  0  0  0  0  0  0  0  0  0  0  0
  151.0715  138.8373  155.3716 C   0  0  0  0  0  0  0  0  0  0  0  0
  150.2957  139.2077  154.0930 C   0  0  0  0  0  0  0  0  0  0  0  0
  152.5548  138.9794  155.0120 C   0  0  0  0  0  0  0  0  0  0  0  0
  147.3170  131.1447  152.4626 H   0  0  0  0  0  0  0  0  0  0  0  0
  152.2847  139.7932  159.5686 H   0  0  0  0  0  0  0  0  0  0  0  0
  150.5590  139.5038  159.3906 H   0  0  0  0  0  0  0  0  0  0  0  0
  151.2561  141.0746  158.9581 H   0  0  0  0  0  0  0  0  0  0  0  0
  149.2161  140.9968  155.8212 H   0  0  0  0  0  0  0  0  0  0  0  0
  150.7307  141.6922  156.3785 H   0  0  0  0  0  0  0  0  0  0  0  0
  149.4788  141.2213  157.5271 H   0  0  0  0  0  0  0  0  0  0  0  0
  149.5882  137.9752  157.9450 H   0  0  0  0  0  0  0  0  0  0  0  0
  148.7008  138.4334  156.4514 H   0  0  0  0  0  0  0  0  0  0  0  0
  151.4713  137.0957  156.6845 H   0  0  0  0  0  0  0  0  0  0  0  0
  149.4923  136.8964  154.4207 H   0  0  0  0  0  0  0  0  0  0  0  0
  149.0487  135.1365  153.6573 H   0  0  0  0  0  0  0  0  0  0  0  0
  150.7762  132.4899  155.5361 H   0  0  0  0  0  0  0  0  0  0  0  0
  148.5095  129.4759  153.4907 H   0  0  0  0  0  0  0  0  0  0  0  0
  150.5568  138.5542  153.2597 H   0  0  0  0  0  0  0  0  0  0  0  0
  150.5099  140.2297  153.7786 H   0  0  0  0  0  0  0  0  0  0  0  0
  149.2165  139.1333  154.2286 H   0  0  0  0  0  0  0  0  0  0  0  0
  152.8107  138.3931  154.1289 H   0  0  0  0  0  0  0  0  0  0  0  0
  153.2055  138.6319  155.8145 H   0  0  0  0  0  0  0  0  0  0  0  0
  152.8174  140.0175  154.8074 H   0  0  0  0  0  0  0  0  0  0  0  0
  1  2  1  0  0  0  0
  1 26  1  0  0  0  0
  1 27  1  0  0  0  0
  1 28  1  0  0  0  0
  2  3  1  0  0  0  0
  3 22  1  0  0  0  0
  3  4  1  0  0  0  0
  3  5  1  0  0  0  0
  4 29  1  0  0  0  0
  4 30  1  0  0  0  0
  4 31  1  0  0  0  0
  5  6  1  0  0  0  0
  5 32  1  0  0  0  0
  5 33  1  0  0  0  0
  6  7  1  0  0  0  0
  6 22  1  0  0  0  0
  6 34  1  0  0  0  0
  7  8  1  0  0  0  0
  7 35  1  0  0  0  0
  8  9  2  0  0  0  0
  8 10  1  0  0  0  0
 10 11  1  0  0  0  0
 10 36  1  0  0  0  0
 11 20  1  0  0  0  0
 11 12  2  0  0  0  0
 12 13  1  0  0  0  0
 12 37  1  0  0  0  0
 13 14  1  0  0  0  0
 13 18  2  0  0  0  0
 14 15  1  0  0  0  0
 14 16  1  0  0  0  0
 14 17  1  0  0  0  0
 18 19  1  0  0  0  0
 18 38  1  0  0  0  0
 19 25  1  0  0  0  0
 19 20  1  0  0  0  0
 20 21  2  0  0  0  0
 22 23  1  0  0  0  0
 22 24  1  0  0  0  0
 23 39  1  0  0  0  0
 23 40  1  0  0  0  0
 23 41  1  0  0  0  0
 24 42  1  0  0  0  0
 24 43  1  0  0  0  0
 24 44  1  0  0  0  0
M  END
> <s_m_source_file>
AV-unprocessed.smi

> <i_m_source_file_index>
697

> <i_lp_mmshare_version>
43012

> <i_f3d_flags>
0

> <s_epik_input>
W0NIM11PW0NAQF0xKFtDSDNdKVtDSDJdW0NASF0oQzEoW0NIM10pW0NIM10pW05IXUMoPU8pW05IXWMyW2NIXWMoQyhGKShGKUYpW2NIXVtuSF1jMj1P

> <s_epik_cmdline>
J2VwaWtfcHl0aG9uJywgJy1waCcsICc3LjAnLCAnLXRuJywgJzgnLCAnLW1hJywgJzIwMCcsICctbWV0YWxfYmluZGluZycsICctaW1hZScsICc8aW5maWxlLm1hZT4nLCAnLW9tYWUnLCAnPG91dGZpbGUubWFlPic=

> <r_lp_tautomer_probability>
1

> <r_epik_Ionization_Penalty>
0.0036482

> <r_epik_Ionization_Penalty_Charging>
0.00362828

> <r_epik_Ionization_Penalty_Neutral>
1.99208e-05

> <r_epik_State_Penalty>
-0

> <r_epik_Charging_Adjusted_Penalty>
0.00362828

> <i_epik_Tot_Q>
0

> <i_epik_Tot_abs_Q>
0

> <r_epik_Metal_State_Penalty>
0.369362

> <b_epik_Metal_Only>
0

> <s_lp_Force_Field>
OPLS_2005

> <r_lp_Energy>
34.8139

> <b_lp_Chiralities_Consistent>
1

> <s_lp_Variant>
AV-unprocessed.smi:697-2

> <Gold.Version>
5.8.1

> <Gold.Id.Protein>
6NUR|6NUR_protein|mol2

> <Gold.PLP.Fitness>
36.3271

> <Gold.PLP.PLP>
-33.7505

> <Gold.PLP.part.hbond>
-2.0000

> <Gold.PLP.part.metal>
0.0000

> <Gold.PLP.part.buried>
-2.1112

> <Gold.PLP.part.nonpolar>
-30.5168

> <Gold.PLP.part.repulsive>
0.8665

> <Gold.PLP.ligand.clash>
0.0000

> <Gold.PLP.ligand.torsion>
0.4128

> <Gold.PLP.Chemscore.Hbond>
1.0000

> <Gold.PLP.Chemscore.CHOScore>
0.0000

> <Gold.PLP.Chemscore.Metal>
0.0000

> <Gold.Chemscore.Hbonds>
donor molecule, donor type, donor heavy atom, donor atom, acceptor molecule, acceptor atom, score
      L1  H    10    36       P1  7948  0.89

> <Gold.PLP.Chemscore.Internal.Correction>
0.4022

> <Gold.Rescore>
     Score         DG    S(hbond)    S(metal)    S(lipo)     H(rot)  DE(clash)    DE(int)     intcor
     12.34     -14.41       1.14        0.00      72.52       1.31       0.43       1.64       ----

> <Gold.Chemscore.Fitness>
12.3405

> <Gold.Chemscore.DG>
-14.4124

> <Gold.Chemscore.ZeroCoef>
-5.4800

> <Gold.Chemscore.Hbond>
1.1354

> <Gold.Chemscore.Metal>
0.0000

> <Gold.Chemscore.Lipo>
72.5151

> <Gold.Chemscore.Internal_Hbond>
0.0000

> <Gold.Chemscore.DEClash>
0.4288

> <Gold.Chemscore.DEInternal>
1.6430

> <Gold.Chemscore.Rot>
1.3062

> <Gold.Chemscore.Internal.Correction>
   9.000000E+99

> <Gold.Chemscore.Hbonds>
donor molecule, donor type, donor heavy atom, donor atom, acceptor molecule, acceptor atom, score
      L1  H    10    36       P1  7948  0.39

> <Gold.Chemscore.Hbond.Weighted>
-3.7921

> <Gold.Chemscore.Metal.Weighted>
-0.0000

> <Gold.Chemscore.Lipo.Weighted>
-8.4843

> <Gold.Chemscore.Internal_Hbond.Weighted>
0.0000

> <Gold.Chemscore.DEClash.Weighted>
0.4288

> <Gold.Chemscore.DEInternal.Weighted>
1.6430

> <Gold.Chemscore.Rot.Weighted>
3.3440

> <Gold.Chemscore.Internal.Correction.Weighted>
   9.000000E+99

> <Gold.Protein.RotatedTorsions>
[ 6907 6896 6895 6894 ] final  -30.34 input  -60.11 | X-H torsion
[ 7974 7965 7964 7962 ] final  -22.61 input  175.53 | X-H torsion
[ 8008 7997 7996 7995 ] final  -65.52 input   59.86 | X-H torsion
[ 10167 10162 10161 10158 ] final  -30.78 input  -65.29 | X-H torsion
[ 10718 10713 10712 10709 ] final -127.29 input   66.30 | X-H torsion
[ 10763 10752 10751 10750 ] final -145.23 input  -60.55 | X-H torsion
[ 11005 11000 10999 10996 ] final  -74.56 input  -57.11 | X-H torsion

> <Gold.Protein.ActiveResidues>
 VAL166  LYS551  ARG553  GLY616  TRP617  ASP618  TYR619  PRO620  LYS621  CYS622 
 ASP623  PHE694  ASN695  SER759  ASP760  ASP761  ALA762  ILE779  LEU786  VAL792 
 PHE793  MET794  SER795  GLU796  ALA797  LYS798  CYS799  TRP800  GLU811  SER814 

> <Gold.Protein.RotatedAtoms>
  151.1068  135.0004  159.8474 H   0  0  0  0  0  0  0  0  0  0  0  0  # atno 6907 bound_to 6896
  152.5440  134.1883  159.8673 H   0  0  0  0  0  0  0  0  0  0  0  0  # atno 6908 bound_to 6896
  151.1930  133.4611  159.2628 H   0  0  0  0  0  0  0  0  0  0  0  0  # atno 6909 bound_to 6896
  146.1665  140.4502  142.8549 H   0  0  0  0  0  0  0  0  0  0  0  0  # atno 7974 bound_to 7965
  154.4677  140.0931  156.7063 H   0  0  0  0  0  0  0  0  0  0  0  0  # atno 8008 bound_to 7997
  155.4812  140.3467  155.4322 H   0  0  0  0  0  0  0  0  0  0  0  0  # atno 8009 bound_to 7997
  156.0984  140.1416  156.9488 H   0  0  0  0  0  0  0  0  0  0  0  0  # atno 8010 bound_to 7997
  140.7245  143.3821  151.1581 H   0  0  0  0  0  0  0  0  0  0  0  0  # atno 10167 bound_to 10162
  156.1843  130.6753  151.0345 H   0  0  0  0  0  0  0  0  0  0  0  0  # atno 10718 bound_to 10713
  154.8393  135.3419  154.6471 H   0  0  0  0  0  0  0  0  0  0  0  0  # atno 10763 bound_to 10752
  153.7083  135.6965  153.5049 H   0  0  0  0  0  0  0  0  0  0  0  0  # atno 10764 bound_to 10752
  153.2471  135.4365  155.0712 H   0  0  0  0  0  0  0  0  0  0  0  0  # atno 10765 bound_to 10752
  141.1636  133.6916  156.7383 H   0  0  0  0  0  0  0  0  0  0  0  0  # atno 11005 bound_to 11000
  144.8101  140.6370  143.6421 LP  0  0  0  0  0  0  0  0  0  0  0  0  # atno 17320 bound_to 7965
  145.4452  139.1530  143.3948 LP  0  0  0  0  0  0  0  0  0  0  0  0  # atno 17321 bound_to 7965
  139.7412  143.8921  152.3050 LP  0  0  0  0  0  0  0  0  0  0  0  0  # atno 17342 bound_to 10162
  139.8743  144.7052  150.8951 LP  0  0  0  0  0  0  0  0  0  0  0  0  # atno 17343 bound_to 10162
  157.6889  131.0816  150.7165 LP  0  0  0  0  0  0  0  0  0  0  0  0  # atno 17370 bound_to 10713
  156.7222  130.4684  149.5520 LP  0  0  0  0  0  0  0  0  0  0  0  0  # atno 17371 bound_to 10713
  140.2693  134.8404  157.3832 LP  0  0  0  0  0  0  0  0  0  0  0  0  # atno 17394 bound_to 11000
  140.1536  134.4818  155.7943 LP  0  0  0  0  0  0  0  0  0  0  0  0  # atno 17395 bound_to 11000

$$$$
