AV-unprocessed.smi:7|AV-procd|sdf|43|dock1
  -GOLD-   2262015153D 1   1.00000     0.00000
 Structure written by MMmdl.
 45 48  0  0  0  0  0  0  0  0  1 V2000
  152.8507  136.6622  159.8878 O   0  0  0  0  0  0  0  0  0  0  0  0
  153.1982  137.7965  160.2182 C   0  0  0  0  0  0  0  0  0  0  0  0
  152.5510  139.0142  159.6763 C   0  0  0  0  0  0  0  0  0  0  0  0
  151.5180  139.1569  158.7504 N   0  0  0  0  0  0  0  0  0  0  0  0
  151.3770  140.4794  158.6660 C   0  0  0  0  0  0  0  0  0  0  0  0
  152.2258  141.1678  159.4518 N   0  0  0  0  0  0  0  0  0  0  0  0
  152.1899  142.5805  159.4888 C   0  0  0  0  0  0  0  0  0  0  0  0
  151.9692  143.3280  158.3101 C   0  0  0  0  0  0  0  0  0  0  0  0
  151.9419  144.7356  158.3602 C   0  0  0  0  0  0  0  0  0  0  0  0
  152.1347  145.4018  159.5859 C   0  0  0  0  0  0  0  0  0  0  0  0
  152.3567  144.6604  160.7624 C   0  0  0  0  0  0  0  0  0  0  0  0
  152.3858  143.2530  160.7142 C   0  0  0  0  0  0  0  0  0  0  0  0
  152.9985  140.2286  160.1195 C   0  0  0  0  0  0  0  0  0  0  0  0
  154.0012  140.4968  161.0229 N   0  0  0  0  0  0  0  0  0  0  0  0
  154.5570  139.4037  161.4771 C   0  0  0  0  0  0  0  0  0  0  0  0
  154.2010  138.0720  161.1055 N   0  0  0  0  0  0  0  0  0  0  0  0
  154.9656  136.9878  161.7416 C   0  0  0  0  0  0  0  0  0  0  0  0
  154.2327  136.4060  162.9771 C   0  0  2  0  0  0  0  0  0  0  0  0
  154.4578  137.2912  164.0597 O   0  0  0  0  0  0  0  0  0  0  0  0
  154.7173  134.9848  163.3780 C   0  0  0  0  0  0  0  0  0  0  0  0
  156.0961  135.0708  163.6949 O   0  0  0  0  0  0  0  0  0  0  0  0
  153.9999  134.3747  164.5970 C   0  0  0  0  0  0  0  0  0  0  0  0
  154.1618  132.8655  164.4260 C   0  0  0  0  0  0  0  0  0  0  0  0
  154.0435  132.6459  162.9179 C   0  0  0  0  0  0  0  0  0  0  0  0
  154.5883  133.9223  162.2580 C   0  0  0  0  0  0  0  0  0  0  0  0
  150.6383  140.9437  158.0285 H   0  0  0  0  0  0  0  0  0  0  0  0
  151.8270  142.8274  157.3634 H   0  0  0  0  0  0  0  0  0  0  0  0
  151.7747  145.3042  157.4572 H   0  0  0  0  0  0  0  0  0  0  0  0
  152.1135  146.4811  159.6233 H   0  0  0  0  0  0  0  0  0  0  0  0
  152.5047  145.1706  161.7028 H   0  0  0  0  0  0  0  0  0  0  0  0
  152.5544  142.6917  161.6215 H   0  0  0  0  0  0  0  0  0  0  0  0
  155.3657  139.4513  162.2083 H   0  0  0  0  0  0  0  0  0  0  0  0
  155.1238  136.2072  160.9959 H   0  0  0  0  0  0  0  0  0  0  0  0
  155.9768  137.3044  162.0061 H   0  0  0  0  0  0  0  0  0  0  0  0
  153.1577  136.3655  162.7940 H   0  0  0  0  0  0  0  0  0  0  0  0
  154.1030  136.9012  164.8440 H   0  0  0  0  0  0  0  0  0  0  0  0
  156.2844  134.4534  164.3849 H   0  0  0  0  0  0  0  0  0  0  0  0
  154.3912  134.7336  165.5501 H   0  0  0  0  0  0  0  0  0  0  0  0
  152.9366  134.6158  164.5749 H   0  0  0  0  0  0  0  0  0  0  0  0
  155.1512  132.5585  164.7679 H   0  0  0  0  0  0  0  0  0  0  0  0
  153.4231  132.2968  164.9917 H   0  0  0  0  0  0  0  0  0  0  0  0
  154.5710  131.7498  162.5891 H   0  0  0  0  0  0  0  0  0  0  0  0
  152.9929  132.5220  162.6518 H   0  0  0  0  0  0  0  0  0  0  0  0
  153.9086  134.2366  161.4656 H   0  0  0  0  0  0  0  0  0  0  0  0
  155.5461  133.7292  161.7718 H   0  0  0  0  0  0  0  0  0  0  0  0
  1  2  2  0  0  0  0
  2 16  1  0  0  0  0
  2  3  1  0  0  0  0
  3 13  2  0  0  0  0
  3  4  1  0  0  0  0
  4  5  2  0  0  0  0
  5  6  1  0  0  0  0
  5 26  1  0  0  0  0
  6  7  1  0  0  0  0
  6 13  1  0  0  0  0
  7 12  1  0  0  0  0
  7  8  2  0  0  0  0
  8  9  1  0  0  0  0
  8 27  1  0  0  0  0
  9 10  2  0  0  0  0
  9 28  1  0  0  0  0
 10 11  1  0  0  0  0
 10 29  1  0  0  0  0
 11 12  2  0  0  0  0
 11 30  1  0  0  0  0
 12 31  1  0  0  0  0
 13 14  1  0  0  0  0
 14 15  2  0  0  0  0
 15 16  1  0  0  0  0
 15 32  1  0  0  0  0
 16 17  1  0  0  0  0
 17 18  1  0  0  0  0
 17 33  1  0  0  0  0
 17 34  1  0  0  0  0
 18 19  1  0  0  0  0
 18 20  1  0  0  0  0
 18 35  1  0  0  0  0
 19 36  1  0  0  0  0
 20 25  1  0  0  0  0
 20 21  1  0  0  0  0
 20 22  1  0  0  0  0
 21 37  1  0  0  0  0
 22 23  1  0  0  0  0
 22 38  1  0  0  0  0
 22 39  1  0  0  0  0
 23 24  1  0  0  0  0
 23 40  1  0  0  0  0
 23 41  1  0  0  0  0
 24 25  1  0  0  0  0
 24 42  1  0  0  0  0
 24 43  1  0  0  0  0
 25 44  1  0  0  0  0
 25 45  1  0  0  0  0
M  END
> <s_m_source_file>
AV-unprocessed.smi

> <i_m_source_file_index>
7

> <i_lp_mmshare_version>
43012

> <i_f3d_flags>
0

> <s_epik_input>
W0NIMl0xW0NIMl1bQ0gyXVtDSDJdQzEoW09IXSlbQ0BASF0oW09IXSlbQ0gyXW4oYzI9TylbY0hdbmMoYzIzKW4oW2NIXW4zKS1jNFtjSF1bY0hdW2NIXVtjSF1bY0hdNA==

> <s_epik_cmdline>
J2VwaWtfcHl0aG9uJywgJy1waCcsICc3LjAnLCAnLXRuJywgJzgnLCAnLW1hJywgJzIwMCcsICctbWV0YWxfYmluZGluZycsICctaW1hZScsICc8aW5maWxlLm1hZT4nLCAnLW9tYWUnLCAnPG91dGZpbGUubWFlPic=

> <r_lp_tautomer_probability>
1

> <r_epik_Ionization_Penalty>
0.000116694

> <r_epik_Ionization_Penalty_Charging>
6.60428e-09

> <r_epik_Ionization_Penalty_Neutral>
0.000116688

> <r_epik_State_Penalty>
-0

> <r_epik_Charging_Adjusted_Penalty>
6.60428e-09

> <i_epik_Tot_Q>
0

> <i_epik_Tot_abs_Q>
0

> <r_epik_Metal_State_Penalty>
-0

> <b_epik_Metal_Only>
0

> <s_lp_Force_Field>
OPLS_2005

> <r_lp_Energy>
55.7438

> <b_lp_Chiralities_Consistent>
1

> <s_lp_Variant>
AV-unprocessed.smi:7-1

> <Gold.Version>
5.8.1

> <Gold.Id.Protein>
6NUR|6NUR_protein|mol2

> <Gold.PLP.Fitness>
52.6274

> <Gold.PLP.PLP>
-51.7392

> <Gold.PLP.part.hbond>
-1.0000

> <Gold.PLP.part.metal>
0.0000

> <Gold.PLP.part.buried>
-7.2025

> <Gold.PLP.part.nonpolar>
-44.0064

> <Gold.PLP.part.repulsive>
0.0000

> <Gold.PLP.ligand.clash>
0.0000

> <Gold.PLP.ligand.torsion>
1.0927

> <Gold.PLP.Chemscore.Hbond>
1.0000

> <Gold.PLP.Chemscore.CHOScore>
0.0000

> <Gold.PLP.Chemscore.Metal>
0.0000

> <Gold.Chemscore.Hbonds>
donor molecule, donor type, donor heavy atom, donor atom, acceptor molecule, acceptor atom, score
      P1  H  6896  6907       L1     1  1.00

> <Gold.PLP.Chemscore.Internal.Correction>
0.0737

> <Gold.Rescore>
     Score         DG    S(hbond)    S(metal)    S(lipo)     H(rot)  DE(clash)    DE(int)     intcor
     15.31     -16.26       1.00        0.00     124.59       2.79       0.08       0.87       ----

> <Gold.Chemscore.Fitness>
15.3102

> <Gold.Chemscore.DG>
-16.2615

> <Gold.Chemscore.ZeroCoef>
-5.4800

> <Gold.Chemscore.Hbond>
0.9988

> <Gold.Chemscore.Metal>
0.0000

> <Gold.Chemscore.Lipo>
124.5947

> <Gold.Chemscore.Internal_Hbond>
0.0000

> <Gold.Chemscore.DEClash>
0.0816

> <Gold.Chemscore.DEInternal>
0.8697

> <Gold.Chemscore.Rot>
2.7860

> <Gold.Chemscore.Internal.Correction>
   9.000000E+99

> <Gold.Chemscore.Hbonds>
donor molecule, donor type, donor heavy atom, donor atom, acceptor molecule, acceptor atom, score
      P1  H  6896  6907       L1     1  1.00

> <Gold.Chemscore.Hbond.Weighted>
-3.3361

> <Gold.Chemscore.Metal.Weighted>
-0.0000

> <Gold.Chemscore.Lipo.Weighted>
-14.5776

> <Gold.Chemscore.Internal_Hbond.Weighted>
0.0000

> <Gold.Chemscore.DEClash.Weighted>
0.0816

> <Gold.Chemscore.DEInternal.Weighted>
0.8697

> <Gold.Chemscore.Rot.Weighted>
7.1322

> <Gold.Chemscore.Internal.Correction.Weighted>
   9.000000E+99

> <Gold.Protein.RotatedTorsions>
[ 6907 6896 6895 6894 ] final   30.12 input  -60.11 | X-H torsion
[ 7974 7965 7964 7962 ] final   40.24 input  175.53 | X-H torsion
[ 8008 7997 7996 7995 ] final  -84.42 input   59.86 | X-H torsion
[ 10167 10162 10161 10158 ] final  -28.20 input  -65.29 | X-H torsion
[ 10718 10713 10712 10709 ] final  177.97 input   66.30 | X-H torsion
[ 10763 10752 10751 10750 ] final -179.32 input  -60.55 | X-H torsion
[ 11005 11000 10999 10996 ] final  138.64 input  -57.11 | X-H torsion

> <Gold.Protein.ActiveResidues>
 VAL166  LYS551  ARG553  GLY616  TRP617  ASP618  TYR619  PRO620  LYS621  CYS622 
 ASP623  PHE694  ASN695  SER759  ASP760  ASP761  ALA762  ILE779  LEU786  VAL792 
 PHE793  MET794  SER795  GLU796  ALA797  LYS798  CYS799  TRP800  GLU811  SER814 

> <Gold.Protein.RotatedAtoms>
  152.0415  134.9709  160.0573 H   0  0  0  0  0  0  0  0  0  0  0  0  # atno 6907 bound_to 6896
  152.1146  133.4314  159.4655 H   0  0  0  0  0  0  0  0  0  0  0  0  # atno 6908 bound_to 6896
  150.6845  134.2527  159.4560 H   0  0  0  0  0  0  0  0  0  0  0  0  # atno 6909 bound_to 6896
  146.0921  139.5556  142.9469 H   0  0  0  0  0  0  0  0  0  0  0  0  # atno 7974 bound_to 7965
  154.6296  140.0605  156.9715 H   0  0  0  0  0  0  0  0  0  0  0  0  # atno 8008 bound_to 7997
  155.1687  140.3289  155.4378 H   0  0  0  0  0  0  0  0  0  0  0  0  # atno 8009 bound_to 7997
  156.2475  140.1918  156.6790 H   0  0  0  0  0  0  0  0  0  0  0  0  # atno 8010 bound_to 7997
  140.7272  143.4030  151.1233 H   0  0  0  0  0  0  0  0  0  0  0  0  # atno 10167 bound_to 10162
  156.8975  130.9868  151.3040 H   0  0  0  0  0  0  0  0  0  0  0  0  # atno 10718 bound_to 10713
  154.5366  135.2803  155.1133 H   0  0  0  0  0  0  0  0  0  0  0  0  # atno 10763 bound_to 10752
  154.2632  135.6317  153.5286 H   0  0  0  0  0  0  0  0  0  0  0  0  # atno 10764 bound_to 10752
  152.9969  135.5610  154.5893 H   0  0  0  0  0  0  0  0  0  0  0  0  # atno 10765 bound_to 10752
  140.0198  134.9402  157.0450 H   0  0  0  0  0  0  0  0  0  0  0  0  # atno 11005 bound_to 11000
  145.6020  141.0354  143.2013 LP  0  0  0  0  0  0  0  0  0  0  0  0  # atno 17320 bound_to 7965
  144.7367  139.7564  143.7326 LP  0  0  0  0  0  0  0  0  0  0  0  0  # atno 17321 bound_to 7965
  139.7652  143.8576  152.3109 LP  0  0  0  0  0  0  0  0  0  0  0  0  # atno 17342 bound_to 10162
  139.8475  144.7180  150.9254 LP  0  0  0  0  0  0  0  0  0  0  0  0  # atno 17343 bound_to 10162
  157.6046  130.8538  149.8856 LP  0  0  0  0  0  0  0  0  0  0  0  0  # atno 17370 bound_to 10713
  156.0598  130.3702  150.1007 LP  0  0  0  0  0  0  0  0  0  0  0  0  # atno 17371 bound_to 10713
  140.4408  134.1683  155.7173 LP  0  0  0  0  0  0  0  0  0  0  0  0  # atno 17394 bound_to 11000
  141.1766  133.8501  157.1400 LP  0  0  0  0  0  0  0  0  0  0  0  0  # atno 17395 bound_to 11000

$$$$
