AV-unprocessed.smi:1450|AV-procd|sdf|5897|dock10
  -GOLD-   22720 5583D 1   1.00000     0.00000
 Structure written by MMmdl.
 31 32  0  0  0  0  0  0  0  0  1 V2000
  145.4690  138.3970  153.0284 O   0  0  0  0  0  0  0  0  0  0  0  0
  146.4847  137.8043  152.6646 C   0  0  0  0  0  0  0  0  0  0  0  0
  146.4645  136.6284  152.0221 N   0  0  0  0  0  0  0  0  0  0  0  0
  145.2584  135.8876  151.6685 C   0  0  0  0  0  0  0  0  0  0  0  0
  145.5866  134.5643  150.9527 C   0  0  2  0  0  0  0  0  0  0  0  0
  144.3797  133.7155  150.6023 C   0  0  0  0  0  0  0  0  0  0  0  0
  145.0092  132.3410  150.3978 C   0  0  0  0  0  0  0  0  0  0  0  0
  146.1341  132.2930  151.2707 O   0  0  0  0  0  0  0  0  0  0  0  0
  146.3989  133.5877  151.8026 C   0  0  0  0  0  0  0  0  0  0  0  0
  147.7452  138.2224  152.8712 N   0  0  0  0  0  0  0  0  0  0  0  0
  148.1870  139.4239  153.4877 C   0  0  0  0  0  0  0  0  0  0  0  0
  147.4273  140.6178  153.5397 C   0  0  0  0  0  0  0  0  0  0  0  0
  147.9857  141.7515  154.1612 C   0  0  0  0  0  0  0  0  0  0  0  0
  149.2827  141.6527  154.7012 C   0  0  0  0  0  0  0  0  0  0  0  0
  150.0232  140.5256  154.6466 N   0  0  0  0  0  0  0  0  0  0  0  0
  149.4819  139.4431  154.0482 C   0  0  0  0  0  0  0  0  0  0  0  0
  147.3468  136.2105  151.7651 H   0  0  0  0  0  0  0  0  0  0  0  0
  144.6599  135.6953  152.5606 H   0  0  0  0  0  0  0  0  0  0  0  0
  144.6504  136.5223  151.0234 H   0  0  0  0  0  0  0  0  0  0  0  0
  146.1448  134.7705  150.0375 H   0  0  0  0  0  0  0  0  0  0  0  0
  143.6792  133.6851  151.4381 H   0  0  0  0  0  0  0  0  0  0  0  0
  143.8454  134.0704  149.7204 H   0  0  0  0  0  0  0  0  0  0  0  0
  144.3109  131.5290  150.6022 H   0  0  0  0  0  0  0  0  0  0  0  0
  145.3626  132.2339  149.3716 H   0  0  0  0  0  0  0  0  0  0  0  0
  147.4658  133.8122  151.7892 H   0  0  0  0  0  0  0  0  0  0  0  0
  146.0639  133.6049  152.8408 H   0  0  0  0  0  0  0  0  0  0  0  0
  148.4764  137.5816  152.5993 H   0  0  0  0  0  0  0  0  0  0  0  0
  146.4425  140.6914  153.1053 H   0  0  0  0  0  0  0  0  0  0  0  0
  147.4337  142.6780  154.2182 H   0  0  0  0  0  0  0  0  0  0  0  0
  149.7406  142.5037  155.1838 H   0  0  0  0  0  0  0  0  0  0  0  0
  150.1039  138.5602  154.0201 H   0  0  0  0  0  0  0  0  0  0  0  0
  1  2  2  0  0  0  0
  2  3  1  0  0  0  0
  2 10  1  0  0  0  0
  3  4  1  0  0  0  0
  3 17  1  0  0  0  0
  4  5  1  0  0  0  0
  4 18  1  0  0  0  0
  4 19  1  0  0  0  0
  5  9  1  0  0  0  0
  5  6  1  0  0  0  0
  5 20  1  0  0  0  0
  6  7  1  0  0  0  0
  6 21  1  0  0  0  0
  6 22  1  0  0  0  0
  7  8  1  0  0  0  0
  7 23  1  0  0  0  0
  7 24  1  0  0  0  0
  8  9  1  0  0  0  0
  9 25  1  0  0  0  0
  9 26  1  0  0  0  0
 10 11  1  0  0  0  0
 10 27  1  0  0  0  0
 11 16  1  0  0  0  0
 11 12  2  0  0  0  0
 12 13  1  0  0  0  0
 12 28  1  0  0  0  0
 13 14  2  0  0  0  0
 13 29  1  0  0  0  0
 14 15  1  0  0  0  0
 14 30  1  0  0  0  0
 15 16  2  0  0  0  0
 16 31  1  0  0  0  0
M  END
> <s_m_source_file>
AV-unprocessed.smi

> <i_m_source_file_index>
1450

> <i_lp_mmshare_version>
43012

> <i_f3d_flags>
0

> <s_epik_input>
W2NIXTFuW2NIXVtjSF1bY0hdYzFbTkhdQyg9TylbTkhdW0NIMl1bQ0BASF0yW0NIMl1bQ0gyXU9bQ0gyXTI=

> <s_epik_cmdline>
J2VwaWtfcHl0aG9uJywgJy1waCcsICc3LjAnLCAnLXRuJywgJzgnLCAnLW1hJywgJzIwMCcsICctbWV0YWxfYmluZGluZycsICctaW1hZScsICc8aW5maWxlLm1hZT4nLCAnLW9tYWUnLCAnPG91dGZpbGUubWFlPic=

> <r_epik_Ionization_Penalty>
0.00478342

> <r_epik_Ionization_Penalty_Charging>
0

> <r_epik_Ionization_Penalty_Neutral>
0.00478342

> <r_epik_State_Penalty>
0.0034384

> <r_epik_Charging_Adjusted_Penalty>
0.0034384

> <i_epik_Tot_Q>
0

> <i_epik_Tot_abs_Q>
0

> <r_epik_Metal_State_Penalty>
-0

> <b_epik_Metal_Only>
0

> <s_lp_Force_Field>
OPLS_2005

> <r_lp_Energy>
20.8722

> <b_lp_Chiralities_Consistent>
1

> <s_lp_Variant>
AV-unprocessed.smi:1450-1

> <Gold.Version>
5.8.1

> <Gold.Id.Protein>
6NUR|6NUR_protein|mol2

> <Gold.PLP.Fitness>
38.7153

> <Gold.PLP.PLP>
-27.2698

> <Gold.PLP.part.hbond>
-3.7778

> <Gold.PLP.part.metal>
0.0000

> <Gold.PLP.part.buried>
0.8146

> <Gold.PLP.part.nonpolar>
-27.1639

> <Gold.PLP.part.repulsive>
2.8082

> <Gold.PLP.ligand.clash>
0.0000

> <Gold.PLP.ligand.torsion>
0.1330

> <Gold.PLP.Chemscore.Hbond>
2.9040

> <Gold.PLP.Chemscore.CHOScore>
0.9980

> <Gold.PLP.Chemscore.Metal>
0.0000

> <Gold.Chemscore.Hbonds>
donor molecule, donor type, donor heavy atom, donor atom, acceptor molecule, acceptor atom, score
      L1  H     3    17       P1  7948  0.99
      L1  H    10    27       P1  7948  1.00
      P1  H  7989  7998       L1    15  0.88
      L1  C    14    30       P1  8028  1.00

> <Gold.PLP.Chemscore.Internal.Correction>
0.0055

> <Gold.Rescore>
     Score         DG    S(hbond)    S(metal)    S(lipo)     H(rot)  DE(clash)    DE(int)     intcor
     14.31     -16.46       2.09        0.00      61.33       1.24       0.89       1.25       ----

> <Gold.Chemscore.Fitness>
14.3141

> <Gold.Chemscore.DG>
-16.4555

> <Gold.Chemscore.ZeroCoef>
-5.4800

> <Gold.Chemscore.Hbond>
2.0872

> <Gold.Chemscore.Metal>
0.0000

> <Gold.Chemscore.Lipo>
61.3344

> <Gold.Chemscore.Internal_Hbond>
0.0000

> <Gold.Chemscore.DEClash>
0.8919

> <Gold.Chemscore.DEInternal>
1.2495

> <Gold.Chemscore.Rot>
1.2390

> <Gold.Chemscore.Internal.Correction>
   9.000000E+99

> <Gold.Chemscore.Hbonds>
donor molecule, donor type, donor heavy atom, donor atom, acceptor molecule, acceptor atom, score
      L1  H     3    17       P1  7948  0.92
      L1  H    10    27       P1  7948  0.94
      P1  H  7989  7998       L1    15  0.19

> <Gold.Chemscore.Hbond.Weighted>
-6.9712

> <Gold.Chemscore.Metal.Weighted>
-0.0000

> <Gold.Chemscore.Lipo.Weighted>
-7.1761

> <Gold.Chemscore.Internal_Hbond.Weighted>
0.0000

> <Gold.Chemscore.DEClash.Weighted>
0.8919

> <Gold.Chemscore.DEInternal.Weighted>
1.2495

> <Gold.Chemscore.Rot.Weighted>
3.1718

> <Gold.Chemscore.Internal.Correction.Weighted>
   9.000000E+99

> <Gold.Protein.RotatedTorsions>
[ 6907 6896 6895 6894 ] final -127.39 input  -60.11 | X-H torsion
[ 7974 7965 7964 7962 ] final   -3.44 input  175.53 | X-H torsion
[ 8008 7997 7996 7995 ] final  115.14 input   59.86 | X-H torsion
[ 10167 10162 10161 10158 ] final -132.79 input  -65.29 | X-H torsion
[ 10718 10713 10712 10709 ] final  -53.66 input   66.30 | X-H torsion
[ 10763 10752 10751 10750 ] final  -30.73 input  -60.55 | X-H torsion
[ 11005 11000 10999 10996 ] final  133.61 input  -57.11 | X-H torsion

> <Gold.Protein.ActiveResidues>
 VAL166  LYS551  ARG553  GLY616  TRP617  ASP618  TYR619  PRO620  LYS621  CYS622 
 ASP623  PHE694  ASN695  SER759  ASP760  ASP761  ALA762  ILE779  LEU786  VAL792 
 PHE793  MET794  SER795  GLU796  ALA797  LYS798  CYS799  TRP800  GLU811  SER814 

> <Gold.Protein.RotatedAtoms>
  150.9068  133.7048  159.2864 H   0  0  0  0  0  0  0  0  0  0  0  0  # atno 6907 bound_to 6896
  151.4548  135.1032  159.9717 H   0  0  0  0  0  0  0  0  0  0  0  0  # atno 6908 bound_to 6896
  152.4908  133.8445  159.7225 H   0  0  0  0  0  0  0  0  0  0  0  0  # atno 6909 bound_to 6896
  146.2389  140.1722  142.8332 H   0  0  0  0  0  0  0  0  0  0  0  0  # atno 7974 bound_to 7965
  156.2363  140.2944  156.0323 H   0  0  0  0  0  0  0  0  0  0  0  0  # atno 8008 bound_to 7997
  155.2081  140.0411  157.2946 H   0  0  0  0  0  0  0  0  0  0  0  0  # atno 8009 bound_to 7997
  154.6086  140.2446  155.7706 H   0  0  0  0  0  0  0  0  0  0  0  0  # atno 8010 bound_to 7997
  139.9049  143.6563  152.2587 H   0  0  0  0  0  0  0  0  0  0  0  0  # atno 10167 bound_to 10162
  156.1517  130.4151  149.9935 H   0  0  0  0  0  0  0  0  0  0  0  0  # atno 10718 bound_to 10713
  153.7857  135.6901  153.4880 H   0  0  0  0  0  0  0  0  0  0  0  0  # atno 10763 bound_to 10752
  153.1782  135.4516  154.9992 H   0  0  0  0  0  0  0  0  0  0  0  0  # atno 10764 bound_to 10752
  154.8064  135.3359  154.7357 H   0  0  0  0  0  0  0  0  0  0  0  0  # atno 10765 bound_to 10752
  139.9863  134.9531  156.9750 H   0  0  0  0  0  0  0  0  0  0  0  0  # atno 11005 bound_to 11000
  145.0002  140.8625  143.5286 LP  0  0  0  0  0  0  0  0  0  0  0  0  # atno 17320 bound_to 7965
  145.1740  139.2388  143.5327 LP  0  0  0  0  0  0  0  0  0  0  0  0  # atno 17321 bound_to 7965
  139.6992  144.7637  151.1302 LP  0  0  0  0  0  0  0  0  0  0  0  0  # atno 17342 bound_to 10162
  140.7698  143.5481  150.9236 LP  0  0  0  0  0  0  0  0  0  0  0  0  # atno 17343 bound_to 10162
  156.7791  130.9214  151.3645 LP  0  0  0  0  0  0  0  0  0  0  0  0  # atno 17370 bound_to 10713
  157.6662  130.9009  149.9937 LP  0  0  0  0  0  0  0  0  0  0  0  0  # atno 17371 bound_to 10713
  140.4996  134.1110  155.7248 LP  0  0  0  0  0  0  0  0  0  0  0  0  # atno 17394 bound_to 11000
  141.1527  133.8939  157.2057 LP  0  0  0  0  0  0  0  0  0  0  0  0  # atno 17395 bound_to 11000

$$$$
