AV-unprocessed.smi:1254|AV-procd|sdf|5275|dock6
  -GOLD-   22720 4393D 1   1.00000     0.00000
 Structure written by MMmdl.
 45 46  0  0  0  0  0  0  0  0  3 V2000
  150.5065  131.5620  155.4695 C   0  0  0  0  0  0  0  0  0  0  0  0
  150.5842  133.0382  155.6595 C   0  0  0  0  0  0  0  0  0  0  0  0
  150.1467  134.0947  154.9123 C   0  0  0  0  0  0  0  0  0  0  0  0
  150.5546  135.2230  155.6749 C   0  0  0  0  0  0  0  0  0  0  0  0
  150.3384  136.5089  155.3574 N   0  5  0  0  0  0  0  0  0  0  0  0
  151.1690  137.4731  155.8147 C   0  0  0  0  0  0  0  0  0  0  0  0
  152.1049  137.3201  156.6033 O   0  0  0  0  0  0  0  0  0  0  0  0
  150.9045  138.6908  155.3207 N   0  0  0  0  0  0  0  0  0  0  0  0
  151.6509  139.9096  155.6129 C   0  0  0  0  0  0  0  0  0  0  0  0
  150.7333  141.0237  156.1463 C   0  0  2  0  0  0  0  0  0  0  0  0
  151.5334  142.1840  156.7675 C   0  0  0  0  0  0  0  0  0  0  0  0
  150.6124  143.2135  157.3099 N   0  3  2  0  0  0  0  0  0  0  0  0
  151.3048  144.3979  157.8799 C   0  0  0  0  0  0  0  0  0  0  0  0
  151.7485  144.2013  159.3462 C   0  0  0  0  0  0  0  0  0  0  0  0
  151.7820  145.5484  160.0832 C   0  0  0  0  0  0  0  0  0  0  0  0
  153.1145  143.5017  159.4461 C   0  0  0  0  0  0  0  0  0  0  0  0
  149.6616  142.6013  158.2682 C   0  0  0  0  0  0  0  0  0  0  0  0
  148.9304  141.4146  157.6192 C   0  0  0  0  0  0  0  0  0  0  0  0
  149.8842  140.4722  157.1478 O   0  0  0  0  0  0  0  0  0  0  0  0
  151.1708  134.8811  156.7942 N   0  0  0  0  0  0  0  0  0  0  0  0
  151.1988  133.4813  156.7891 O   0  0  0  0  0  0  0  0  0  0  0  0
  149.5480  131.1794  155.8202 H   0  0  0  0  0  0  0  0  0  0  0  0
  151.2970  131.0537  156.0220 H   0  0  0  0  0  0  0  0  0  0  0  0
  150.6106  131.3013  154.4160 H   0  0  0  0  0  0  0  0  0  0  0  0
  149.6214  134.0665  153.9696 H   0  0  0  0  0  0  0  0  0  0  0  0
  150.1279  138.7722  154.6807 H   0  0  0  0  0  0  0  0  0  0  0  0
  152.4220  139.6735  156.3466 H   0  0  0  0  0  0  0  0  0  0  0  0
  152.1708  140.2411  154.7126 H   0  0  0  0  0  0  0  0  0  0  0  0
  150.1240  141.4119  155.3278 H   0  0  0  0  0  0  0  0  0  0  0  0
  152.1804  141.8131  157.5641 H   0  0  0  0  0  0  0  0  0  0  0  0
  152.1800  142.6174  156.0057 H   0  0  0  0  0  0  0  0  0  0  0  0
  152.1910  144.6168  157.2819 H   0  0  0  0  0  0  0  0  0  0  0  0
  150.6547  145.2695  157.7892 H   0  0  0  0  0  0  0  0  0  0  0  0
  151.0158  143.5824  159.8630 H   0  0  0  0  0  0  0  0  0  0  0  0
  152.5027  146.2308  159.6314 H   0  0  0  0  0  0  0  0  0  0  0  0
  152.0592  145.4177  161.1297 H   0  0  0  0  0  0  0  0  0  0  0  0
  150.8056  146.0337  160.0619 H   0  0  0  0  0  0  0  0  0  0  0  0
  153.8932  144.0773  158.9448 H   0  0  0  0  0  0  0  0  0  0  0  0
  153.0901  142.5095  158.9947 H   0  0  0  0  0  0  0  0  0  0  0  0
  153.4144  143.3747  160.4869 H   0  0  0  0  0  0  0  0  0  0  0  0
  150.2016  142.2666  159.1554 H   0  0  0  0  0  0  0  0  0  0  0  0
  148.9332  143.3438  158.5960 H   0  0  0  0  0  0  0  0  0  0  0  0
  148.2834  140.9272  158.3487 H   0  0  0  0  0  0  0  0  0  0  0  0
  148.2918  141.7481  156.7997 H   0  0  0  0  0  0  0  0  0  0  0  0
  150.0566  143.5488  156.5358 H   0  0  0  0  0  0  0  0  0  0  0  0
  1  2  1  0  0  0  0
  1 22  1  0  0  0  0
  1 23  1  0  0  0  0
  1 24  1  0  0  0  0
  2 21  1  0  0  0  0
  2  3  2  0  0  0  0
  3  4  1  0  0  0  0
  3 25  1  0  0  0  0
  4  5  1  0  0  0  0
  4 20  2  0  0  0  0
  5  6  1  0  0  0  0
  6  7  2  0  0  0  0
  6  8  1  0  0  0  0
  8  9  1  0  0  0  0
  8 26  1  0  0  0  0
  9 10  1  0  0  0  0
  9 27  1  0  0  0  0
  9 28  1  0  0  0  0
 10 19  1  0  0  0  0
 10 11  1  0  0  0  0
 10 29  1  0  0  0  0
 11 12  1  0  0  0  0
 11 30  1  0  0  0  0
 11 31  1  0  0  0  0
 12 13  1  0  0  0  0
 12 17  1  0  0  0  0
 12 45  1  0  0  0  0
 13 14  1  0  0  0  0
 13 32  1  0  0  0  0
 13 33  1  0  0  0  0
 14 15  1  0  0  0  0
 14 16  1  0  0  0  0
 14 34  1  0  0  0  0
 15 35  1  0  0  0  0
 15 36  1  0  0  0  0
 15 37  1  0  0  0  0
 16 38  1  0  0  0  0
 16 39  1  0  0  0  0
 16 40  1  0  0  0  0
 17 18  1  0  0  0  0
 17 41  1  0  0  0  0
 17 42  1  0  0  0  0
 18 19  1  0  0  0  0
 18 43  1  0  0  0  0
 18 44  1  0  0  0  0
 20 21  1  0  0  0  0
M  CHG  1   5  -1
M  CHG  1  12   1
M  END
> <s_m_source_file>
AV-unprocessed.smi

> <i_m_source_file_index>
1254

> <i_lp_mmshare_version>
43012

> <i_f3d_flags>
0

> <s_epik_input>
W0NIM11jMVtjSF1jKG5vMSlbTkhdQyg9TylbTkhdW0NIMl1bQ0BASF0yW0NIMl1OKFtDSDJdW0NIMl1PMilbQ0gyXVtDSF0oW0NIM10pW0NIM10=

> <s_epik_cmdline>
J2VwaWtfcHl0aG9uJywgJy1waCcsICc3LjAnLCAnLXRuJywgJzgnLCAnLW1hJywgJzIwMCcsICctbWV0YWxfYmluZGluZycsICctaW1hZScsICc8aW5maWxlLm1hZT4nLCAnLW9tYWUnLCAnPG91dGZpbGUubWFlPic=

> <r_epik_Ionization_Penalty>
6.33139

> <r_epik_Ionization_Penalty_Charging>
6.33128

> <r_epik_Ionization_Penalty_Neutral>
0.000104968

> <r_epik_State_Penalty>
6.32522

> <r_epik_Charging_Adjusted_Penalty>
12.6565

> <i_epik_Tot_Q>
0

> <i_epik_Tot_abs_Q>
2

> <r_epik_Metal_State_Penalty>
2.26285

> <b_epik_Metal_Only>
1

> <s_lp_Force_Field>
OPLS_2005

> <r_lp_Energy>
5.65212

> <b_lp_Chiralities_Consistent>
1

> <s_lp_Variant>
AV-unprocessed.smi:1254-7

> <Gold.Version>
5.8.1

> <Gold.Id.Protein>
6NUR|6NUR_protein|mol2

> <Gold.PLP.Fitness>
42.5183

> <Gold.PLP.PLP>
-37.8653

> <Gold.PLP.part.hbond>
-1.9906

> <Gold.PLP.part.metal>
0.0000

> <Gold.PLP.part.buried>
-6.2979

> <Gold.PLP.part.nonpolar>
-29.2735

> <Gold.PLP.part.repulsive>
0.2078

> <Gold.PLP.ligand.clash>
0.0000

> <Gold.PLP.ligand.torsion>
0.7902

> <Gold.PLP.Chemscore.Hbond>
2.0000

> <Gold.PLP.Chemscore.CHOScore>
0.0000

> <Gold.PLP.Chemscore.Metal>
0.0000

> <Gold.Chemscore.Hbonds>
donor molecule, donor type, donor heavy atom, donor atom, acceptor molecule, acceptor atom, score
      L1  H    12    45       P1  8028  2.00

> <Gold.PLP.Chemscore.Internal.Correction>
0.2335

> <Gold.Rescore>
     Score         DG    S(hbond)    S(metal)    S(lipo)     H(rot)  DE(clash)    DE(int)     intcor
     13.21     -15.53       0.98        0.00      94.79       1.69       0.07       2.24       ----

> <Gold.Chemscore.Fitness>
13.2145

> <Gold.Chemscore.DG>
-15.5267

> <Gold.Chemscore.ZeroCoef>
-5.4800

> <Gold.Chemscore.Hbond>
0.9847

> <Gold.Chemscore.Metal>
0.0000

> <Gold.Chemscore.Lipo>
94.7926

> <Gold.Chemscore.Internal_Hbond>
0.0000

> <Gold.Chemscore.DEClash>
0.0703

> <Gold.Chemscore.DEInternal>
2.2419

> <Gold.Chemscore.Rot>
1.6926

> <Gold.Chemscore.Internal.Correction>
   9.000000E+99

> <Gold.Chemscore.Hbonds>
donor molecule, donor type, donor heavy atom, donor atom, acceptor molecule, acceptor atom, score
      L1  H    12    45       P1  8028  0.98

> <Gold.Chemscore.Hbond.Weighted>
-3.2890

> <Gold.Chemscore.Metal.Weighted>
-0.0000

> <Gold.Chemscore.Lipo.Weighted>
-11.0907

> <Gold.Chemscore.Internal_Hbond.Weighted>
0.0000

> <Gold.Chemscore.DEClash.Weighted>
0.0703

> <Gold.Chemscore.DEInternal.Weighted>
2.2419

> <Gold.Chemscore.Rot.Weighted>
4.3330

> <Gold.Chemscore.Internal.Correction.Weighted>
   9.000000E+99

> <Gold.Protein.RotatedTorsions>
[ 6907 6896 6895 6894 ] final -110.92 input  -60.11 | X-H torsion
[ 7974 7965 7964 7962 ] final   96.34 input  175.53 | X-H torsion
[ 8008 7997 7996 7995 ] final   14.58 input   59.86 | X-H torsion
[ 10167 10162 10161 10158 ] final  -89.22 input  -65.29 | X-H torsion
[ 10718 10713 10712 10709 ] final   98.24 input   66.30 | X-H torsion
[ 10763 10752 10751 10750 ] final  140.59 input  -60.55 | X-H torsion
[ 11005 11000 10999 10996 ] final   86.99 input  -57.11 | X-H torsion

> <Gold.Protein.ActiveResidues>
 VAL166  LYS551  ARG553  GLY616  TRP617  ASP618  TYR619  PRO620  LYS621  CYS622 
 ASP623  PHE694  ASN695  SER759  ASP760  ASP761  ALA762  ILE779  LEU786  VAL792 
 PHE793  MET794  SER795  GLU796  ALA797  LYS798  CYS799  TRP800  GLU811  SER814 

> <Gold.Protein.RotatedAtoms>
  150.7656  133.9312  159.3427 H   0  0  0  0  0  0  0  0  0  0  0  0  # atno 6907 bound_to 6896
  151.7210  135.0892  160.0293 H   0  0  0  0  0  0  0  0  0  0  0  0  # atno 6908 bound_to 6896
  152.3650  133.6307  159.6079 H   0  0  0  0  0  0  0  0  0  0  0  0  # atno 6909 bound_to 6896
  145.4401  139.2302  143.3096 H   0  0  0  0  0  0  0  0  0  0  0  0  # atno 7974 bound_to 7965
  154.8505  140.2929  155.5601 H   0  0  0  0  0  0  0  0  0  0  0  0  # atno 8008 bound_to 7997
  156.3016  140.2497  156.3395 H   0  0  0  0  0  0  0  0  0  0  0  0  # atno 8009 bound_to 7997
  154.9026  140.0391  157.1891 H   0  0  0  0  0  0  0  0  0  0  0  0  # atno 8010 bound_to 7997
  140.3670  143.2813  151.9546 H   0  0  0  0  0  0  0  0  0  0  0  0  # atno 10167 bound_to 10162
  157.6899  131.0634  150.4765 H   0  0  0  0  0  0  0  0  0  0  0  0  # atno 10718 bound_to 10713
  153.9252  135.2996  155.3447 H   0  0  0  0  0  0  0  0  0  0  0  0  # atno 10763 bound_to 10752
  154.7555  135.4960  153.9370 H   0  0  0  0  0  0  0  0  0  0  0  0  # atno 10764 bound_to 10752
  153.1120  135.6761  153.9587 H   0  0  0  0  0  0  0  0  0  0  0  0  # atno 10765 bound_to 10752
  139.8930  134.8393  156.2798 H   0  0  0  0  0  0  0  0  0  0  0  0  # atno 11005 bound_to 11000
  146.2561  140.5148  142.8873 LP  0  0  0  0  0  0  0  0  0  0  0  0  # atno 17320 bound_to 7965
  144.8127  140.6413  143.6405 LP  0  0  0  0  0  0  0  0  0  0  0  0  # atno 17321 bound_to 7965
  139.4808  144.5941  151.7720 LP  0  0  0  0  0  0  0  0  0  0  0  0  # atno 17342 bound_to 10162
  140.5071  144.1082  150.5985 LP  0  0  0  0  0  0  0  0  0  0  0  0  # atno 17343 bound_to 10162
  156.5100  130.4137  149.6306 LP  0  0  0  0  0  0  0  0  0  0  0  0  # atno 17370 bound_to 10713
  156.3249  130.7301  151.2219 LP  0  0  0  0  0  0  0  0  0  0  0  0  # atno 17371 bound_to 10713
  141.0046  133.7131  156.1014 LP  0  0  0  0  0  0  0  0  0  0  0  0  # atno 17394 bound_to 11000
  140.7451  134.4107  157.5549 LP  0  0  0  0  0  0  0  0  0  0  0  0  # atno 17395 bound_to 11000

$$$$
