AV-unprocessed.smi:3237|AV-procd|sdf|12366|dock1
  -GOLD-   2272018223D 1   1.00000     0.00000
 Structure written by MMmdl.
 37 39  0  0  0  0  0  0  0  0  2 V2000
  151.4680  140.3014  155.8020 C   0  0  0  0  0  0  0  0  0  0  0  0
  150.3074  139.4194  155.4927 C   0  0  0  0  0  0  0  0  0  0  0  0
  150.0750  138.4979  154.5110 C   0  0  0  0  0  0  0  0  0  0  0  0
  148.7623  138.0331  154.8144 C   0  0  0  0  0  0  0  0  0  0  0  0
  148.0343  137.0487  154.0982 N   0  0  0  0  0  0  0  0  0  0  0  0
  146.8441  136.5063  154.4049 C   0  0  0  0  0  0  0  0  0  0  0  0
  146.1638  136.7864  155.3918 O   0  0  0  0  0  0  0  0  0  0  0  0
  146.4782  135.5903  153.4968 N   0  0  0  0  0  0  0  0  0  0  0  0
  145.2511  134.8028  153.5582 C   0  0  1  0  0  0  0  0  0  0  0  0
  143.9917  135.6087  153.2407 C   0  0  0  0  0  0  0  0  0  0  0  0
  143.0171  134.5807  152.6396 C   0  0  0  0  0  0  0  0  0  0  0  0
  143.7861  133.3327  152.4205 N   0  3  1  0  0  0  0  0  0  0  0  0
  143.4237  132.6020  151.1879 C   0  0  0  0  0  0  0  0  0  0  0  0
  144.5618  131.7999  150.6037 C   0  0  0  0  0  0  0  0  0  0  0  0
  144.1413  133.1018  149.9570 C   0  0  0  0  0  0  0  0  0  0  0  0
  145.2114  133.6935  152.5074 C   0  0  0  0  0  0  0  0  0  0  0  0
  148.2527  138.6103  155.8868 N   0  0  0  0  0  0  0  0  0  0  0  0
  149.2349  139.5061  156.3249 O   0  0  0  0  0  0  0  0  0  0  0  0
  152.2923  140.1176  155.1126 H   0  0  0  0  0  0  0  0  0  0  0  0
  151.8290  140.1239  156.8152 H   0  0  0  0  0  0  0  0  0  0  0  0
  151.1870  141.3515  155.7208 H   0  0  0  0  0  0  0  0  0  0  0  0
  150.7468  138.2137  153.7151 H   0  0  0  0  0  0  0  0  0  0  0  0
  148.4893  136.6967  153.2687 H   0  0  0  0  0  0  0  0  0  0  0  0
  147.0934  135.4220  152.7138 H   0  0  0  0  0  0  0  0  0  0  0  0
  145.1446  134.3631  154.5523 H   0  0  0  0  0  0  0  0  0  0  0  0
  143.5847  136.1043  154.1229 H   0  0  0  0  0  0  0  0  0  0  0  0
  144.2090  136.3789  152.4991 H   0  0  0  0  0  0  0  0  0  0  0  0
  142.1854  134.3753  153.3144 H   0  0  0  0  0  0  0  0  0  0  0  0
  142.5999  134.9600  151.7053 H   0  0  0  0  0  0  0  0  0  0  0  0
  142.3997  132.2381  151.1214 H   0  0  0  0  0  0  0  0  0  0  0  0
  145.5105  131.7872  151.1371 H   0  0  0  0  0  0  0  0  0  0  0  0
  144.3106  130.8795  150.0806 H   0  0  0  0  0  0  0  0  0  0  0  0
  143.6142  133.0377  149.0072 H   0  0  0  0  0  0  0  0  0  0  0  0
  144.8106  133.9539  150.0608 H   0  0  0  0  0  0  0  0  0  0  0  0
  145.5581  134.0682  151.5421 H   0  0  0  0  0  0  0  0  0  0  0  0
  145.8241  132.8331  152.7789 H   0  0  0  0  0  0  0  0  0  0  0  0
  143.5921  132.7307  153.2082 H   0  0  0  0  0  0  0  0  0  0  0  0
  1  2  1  0  0  0  0
  1 19  1  0  0  0  0
  1 20  1  0  0  0  0
  1 21  1  0  0  0  0
  2 18  1  0  0  0  0
  2  3  2  0  0  0  0
  3  4  1  0  0  0  0
  3 22  1  0  0  0  0
  4  5  1  0  0  0  0
  4 17  2  0  0  0  0
  5  6  1  0  0  0  0
  5 23  1  0  0  0  0
  6  7  2  0  0  0  0
  6  8  1  0  0  0  0
  8  9  1  0  0  0  0
  8 24  1  0  0  0  0
  9 16  1  0  0  0  0
  9 10  1  0  0  0  0
  9 25  1  0  0  0  0
 10 11  1  0  0  0  0
 10 26  1  0  0  0  0
 10 27  1  0  0  0  0
 11 12  1  0  0  0  0
 11 28  1  0  0  0  0
 11 29  1  0  0  0  0
 12 13  1  0  0  0  0
 12 16  1  0  0  0  0
 12 37  1  0  0  0  0
 13 15  1  0  0  0  0
 13 14  1  0  0  0  0
 13 30  1  0  0  0  0
 14 15  1  0  0  0  0
 14 31  1  0  0  0  0
 14 32  1  0  0  0  0
 15 33  1  0  0  0  0
 15 34  1  0  0  0  0
 16 35  1  0  0  0  0
 16 36  1  0  0  0  0
 17 18  1  0  0  0  0
M  CHG  1  12   1
M  END
> <s_m_source_file>
AV-unprocessed.smi

> <i_m_source_file_index>
3237

> <i_lp_mmshare_version>
43012

> <i_f3d_flags>
0

> <s_epik_input>
W0NIM11jMVtjSF1jKG5vMSlbTkhdQyg9TylbTkhdW0NAQEhdMltDSDJdW0NIMl1OKFtDSDJdMilbQ0hdM1tDSDJdW0NIMl0z

> <s_epik_cmdline>
J2VwaWtfcHl0aG9uJywgJy1waCcsICc3LjAnLCAnLXRuJywgJzgnLCAnLW1hJywgJzIwMCcsICctbWV0YWxfYmluZGluZycsICctaW1hZScsICc8aW5maWxlLm1hZT4nLCAnLW9tYWUnLCAnPG91dGZpbGUubWFlPic=

> <r_epik_Ionization_Penalty>
0.000720579

> <r_epik_Ionization_Penalty_Charging>
0.000680516

> <r_epik_Ionization_Penalty_Neutral>
4.00628e-05

> <r_epik_State_Penalty>
0.000432256

> <r_epik_Charging_Adjusted_Penalty>
0.00111277

> <i_epik_Tot_Q>
1

> <i_epik_Tot_abs_Q>
1

> <r_epik_Metal_State_Penalty>
0.0255091

> <b_epik_Metal_Only>
0

> <s_lp_Force_Field>
OPLS_2005

> <r_lp_Energy>
35.1178

> <b_lp_Chiralities_Consistent>
1

> <s_lp_Variant>
AV-unprocessed.smi:3237-4

> <Gold.Version>
5.8.1

> <Gold.Id.Protein>
6NUR|6NUR_protein|mol2

> <Gold.PLP.Fitness>
35.1264

> <Gold.PLP.PLP>
-24.9206

> <Gold.PLP.part.hbond>
-3.0000

> <Gold.PLP.part.metal>
0.0000

> <Gold.PLP.part.buried>
-4.1841

> <Gold.PLP.part.nonpolar>
-19.7137

> <Gold.PLP.part.repulsive>
0.0338

> <Gold.PLP.ligand.clash>
0.0000

> <Gold.PLP.ligand.torsion>
0.7451

> <Gold.PLP.Chemscore.Hbond>
3.4765

> <Gold.PLP.Chemscore.CHOScore>
0.0000

> <Gold.PLP.Chemscore.Metal>
0.0000

> <Gold.Chemscore.Hbonds>
donor molecule, donor type, donor heavy atom, donor atom, acceptor molecule, acceptor atom, score
      L1  H     5    23       P1  7948  1.00
      L1  H     8    24       P1  7948  0.49
      L1  H    12    37       P1 10957  1.89

> <Gold.PLP.Chemscore.Internal.Correction>
1.2666

> <Gold.Rescore>
     Score         DG    S(hbond)    S(metal)    S(lipo)     H(rot)  DE(clash)    DE(int)     intcor
     14.23     -16.32       1.95        0.00      64.48       1.26       0.01       2.07       ----

> <Gold.Chemscore.Fitness>
14.2316

> <Gold.Chemscore.DG>
-16.3155

> <Gold.Chemscore.ZeroCoef>
-5.4800

> <Gold.Chemscore.Hbond>
1.9506

> <Gold.Chemscore.Metal>
0.0000

> <Gold.Chemscore.Lipo>
64.4811

> <Gold.Chemscore.Internal_Hbond>
0.0000

> <Gold.Chemscore.DEClash>
0.0090

> <Gold.Chemscore.DEInternal>
2.0749

> <Gold.Chemscore.Rot>
1.2593

> <Gold.Chemscore.Internal.Correction>
   9.000000E+99

> <Gold.Chemscore.Hbonds>
donor molecule, donor type, donor heavy atom, donor atom, acceptor molecule, acceptor atom, score
      L1  H     5    23       P1  7948  0.95
      L1  H     8    24       P1  7948  0.50
      L1  H    12    37       P1 10957  0.36

> <Gold.Chemscore.Hbond.Weighted>
-6.5150

> <Gold.Chemscore.Metal.Weighted>
-0.0000

> <Gold.Chemscore.Lipo.Weighted>
-7.5443

> <Gold.Chemscore.Internal_Hbond.Weighted>
0.0000

> <Gold.Chemscore.DEClash.Weighted>
0.0090

> <Gold.Chemscore.DEInternal.Weighted>
2.0749

> <Gold.Chemscore.Rot.Weighted>
3.2237

> <Gold.Chemscore.Internal.Correction.Weighted>
   9.000000E+99

> <Gold.Protein.RotatedTorsions>
[ 6907 6896 6895 6894 ] final  -54.31 input  -60.11 | X-H torsion
[ 7974 7965 7964 7962 ] final  -52.75 input  175.53 | X-H torsion
[ 8008 7997 7996 7995 ] final  -25.94 input   59.86 | X-H torsion
[ 10167 10162 10161 10158 ] final  -33.42 input  -65.29 | X-H torsion
[ 10718 10713 10712 10709 ] final  -28.78 input   66.30 | X-H torsion
[ 10763 10752 10751 10750 ] final -141.91 input  -60.55 | X-H torsion
[ 11005 11000 10999 10996 ] final -151.76 input  -57.11 | X-H torsion

> <Gold.Protein.ActiveResidues>
 VAL166  LYS551  ARG553  GLY616  TRP617  ASP618  TYR619  PRO620  LYS621  CYS622 
 ASP623  PHE694  ASN695  SER759  ASP760  ASP761  ALA762  ILE779  LEU786  VAL792 
 PHE793  MET794  SER795  GLU796  ALA797  LYS798  CYS799  TRP800  GLU811  SER814 

> <Gold.Protein.RotatedAtoms>
  150.8349  134.7618  159.6884 H   0  0  0  0  0  0  0  0  0  0  0  0  # atno 6907 bound_to 6896
  152.4447  134.5515  159.9878 H   0  0  0  0  0  0  0  0  0  0  0  0  # atno 6908 bound_to 6896
  151.5668  133.3358  159.3017 H   0  0  0  0  0  0  0  0  0  0  0  0  # atno 6909 bound_to 6896
  145.9044  140.7967  142.9727 H   0  0  0  0  0  0  0  0  0  0  0  0  # atno 7974 bound_to 7965
  154.4450  140.1913  156.0697 H   0  0  0  0  0  0  0  0  0  0  0  0  # atno 8008 bound_to 7997
  156.0520  140.3307  155.7335 H   0  0  0  0  0  0  0  0  0  0  0  0  # atno 8009 bound_to 7997
  155.5542  140.0598  157.2834 H   0  0  0  0  0  0  0  0  0  0  0  0  # atno 8010 bound_to 7997
  140.7204  143.3621  151.1942 H   0  0  0  0  0  0  0  0  0  0  0  0  # atno 10167 bound_to 10162
  156.4209  130.4426  149.7185 H   0  0  0  0  0  0  0  0  0  0  0  0  # atno 10718 bound_to 10713
  154.8528  135.3511  154.5943 H   0  0  0  0  0  0  0  0  0  0  0  0  # atno 10763 bound_to 10752
  153.6552  135.6992  153.5200 H   0  0  0  0  0  0  0  0  0  0  0  0  # atno 10764 bound_to 10752
  153.2861  135.4248  155.1082 H   0  0  0  0  0  0  0  0  0  0  0  0  # atno 10765 bound_to 10752
  140.7261  134.3673  157.5175 H   0  0  0  0  0  0  0  0  0  0  0  0  # atno 11005 bound_to 11000
  144.6738  140.1728  143.7413 LP  0  0  0  0  0  0  0  0  0  0  0  0  # atno 17320 bound_to 7965
  145.8750  139.2292  143.1639 LP  0  0  0  0  0  0  0  0  0  0  0  0  # atno 17321 bound_to 7965
  139.7175  143.9276  152.2972 LP  0  0  0  0  0  0  0  0  0  0  0  0  # atno 17342 bound_to 10162
  139.9022  144.6905  150.8653 LP  0  0  0  0  0  0  0  0  0  0  0  0  # atno 17343 bound_to 10162
  156.4126  130.7729  151.2743 LP  0  0  0  0  0  0  0  0  0  0  0  0  # atno 17370 bound_to 10713
  157.7508  131.0207  150.3718 LP  0  0  0  0  0  0  0  0  0  0  0  0  # atno 17371 bound_to 10713
  139.8837  134.8987  156.2751 LP  0  0  0  0  0  0  0  0  0  0  0  0  # atno 17394 bound_to 11000
  140.9962  133.7179  156.0889 LP  0  0  0  0  0  0  0  0  0  0  0  0  # atno 17395 bound_to 11000

$$$$
