AV-unprocessed.smi:3030|AV-procd|sdf|11536|dock5
  -GOLD-   2272016483D 1   1.00000     0.00000
 Structure written by MMmdl.
 52 53  0  0  0  0  0  0  0  0  1 V2000
  146.5317  131.5922  160.6371 C   0  0  0  0  0  0  0  0  0  0  0  0
  146.0878  132.9230  160.0194 C   0  0  0  0  0  0  0  0  0  0  0  0
  146.6874  134.0614  160.7004 N   0  0  0  0  0  0  0  0  0  0  0  0
  146.4811  134.2819  162.0581 C   0  0  0  0  0  0  0  0  0  0  0  0
  146.9568  135.3480  162.7300 C   0  0  0  0  0  0  0  0  0  0  0  0
  147.7461  136.3658  162.0073 C   0  0  0  0  0  0  0  0  0  0  0  0
  148.1971  137.3515  162.5907 O   0  0  0  0  0  0  0  0  0  0  0  0
  147.9618  136.1338  160.5545 C   0  0  0  0  0  0  0  0  0  0  0  0
  148.7223  137.1024  159.8783 N   0  0  0  0  0  0  0  0  0  0  0  0
  149.6360  136.9440  158.9033 C   0  0  0  0  0  0  0  0  0  0  0  0
  149.9657  135.8767  158.3868 O   0  0  0  0  0  0  0  0  0  0  0  0
  150.1581  138.1256  158.5455 N   0  0  0  0  0  0  0  0  0  0  0  0
  151.1867  138.3302  157.5240 C   0  0  1  0  0  0  0  0  0  0  0  0
  150.6607  139.2365  156.3906 C   0  0  0  0  0  0  0  0  0  0  0  0
  150.4720  140.6959  156.8409 C   0  0  2  0  0  0  0  0  0  0  0  0
  149.9579  141.5759  155.6927 C   0  0  0  0  0  0  0  0  0  0  0  0
  151.7885  141.2358  157.4208 C   0  0  0  0  0  0  0  0  0  0  0  0
  152.3056  140.3583  158.5714 C   0  0  0  0  0  0  0  0  0  0  0  0
  152.5004  138.8795  158.1503 C   0  0  1  0  0  0  0  0  0  0  0  0
  153.0595  137.9965  159.3090 C   0  0  0  0  0  0  0  0  0  0  0  0
  154.4528  138.4528  159.7828 C   0  0  0  0  0  0  0  0  0  0  0  0
  153.1283  136.5021  158.9382 C   0  0  0  0  0  0  0  0  0  0  0  0
  147.4277  135.0138  160.0028 C   0  0  0  0  0  0  0  0  0  0  0  0
  146.0758  130.7513  160.1145 H   0  0  0  0  0  0  0  0  0  0  0  0
  146.2429  131.5286  161.6868 H   0  0  0  0  0  0  0  0  0  0  0  0
  147.6140  131.4730  160.5781 H   0  0  0  0  0  0  0  0  0  0  0  0
  146.3577  132.9483  158.9630 H   0  0  0  0  0  0  0  0  0  0  0  0
  145.0011  133.0064  160.0590 H   0  0  0  0  0  0  0  0  0  0  0  0
  145.9030  133.5139  162.5514 H   0  0  0  0  0  0  0  0  0  0  0  0
  146.7745  135.4757  163.7869 H   0  0  0  0  0  0  0  0  0  0  0  0
  148.5434  138.0517  160.1725 H   0  0  0  0  0  0  0  0  0  0  0  0
  149.8266  138.9518  159.0216 H   0  0  0  0  0  0  0  0  0  0  0  0
  151.4109  137.3666  157.0649 H   0  0  0  0  0  0  0  0  0  0  0  0
  151.3655  139.2058  155.5587 H   0  0  0  0  0  0  0  0  0  0  0  0
  149.7218  138.8409  156.0005 H   0  0  0  0  0  0  0  0  0  0  0  0
  149.7193  140.7185  157.6302 H   0  0  0  0  0  0  0  0  0  0  0  0
  150.6657  141.6011  154.8635 H   0  0  0  0  0  0  0  0  0  0  0  0
  149.7983  142.6017  156.0258 H   0  0  0  0  0  0  0  0  0  0  0  0
  149.0079  141.2033  155.3080 H   0  0  0  0  0  0  0  0  0  0  0  0
  152.5447  141.2871  156.6361 H   0  0  0  0  0  0  0  0  0  0  0  0
  151.6465  142.2563  157.7784 H   0  0  0  0  0  0  0  0  0  0  0  0
  153.2455  140.7884  158.9137 H   0  0  0  0  0  0  0  0  0  0  0  0
  151.6160  140.4174  159.4144 H   0  0  0  0  0  0  0  0  0  0  0  0
  153.2500  138.8734  157.3572 H   0  0  0  0  0  0  0  0  0  0  0  0
  152.3900  138.0849  160.1654 H   0  0  0  0  0  0  0  0  0  0  0  0
  155.1621  138.4883  158.9554 H   0  0  0  0  0  0  0  0  0  0  0  0
  154.8556  137.7712  160.5325 H   0  0  0  0  0  0  0  0  0  0  0  0
  154.4251  139.4373  160.2480 H   0  0  0  0  0  0  0  0  0  0  0  0
  153.7232  136.3443  158.0380 H   0  0  0  0  0  0  0  0  0  0  0  0
  152.1396  136.0767  158.7685 H   0  0  0  0  0  0  0  0  0  0  0  0
  153.5810  135.9178  159.7398 H   0  0  0  0  0  0  0  0  0  0  0  0
  147.5471  134.7553  158.9631 H   0  0  0  0  0  0  0  0  0  0  0  0
  1  2  1  0  0  0  0
  1 24  1  0  0  0  0
  1 25  1  0  0  0  0
  1 26  1  0  0  0  0
  2  3  1  0  0  0  0
  2 27  1  0  0  0  0
  2 28  1  0  0  0  0
  3 23  1  0  0  0  0
  3  4  1  0  0  0  0
  4  5  2  0  0  0  0
  4 29  1  0  0  0  0
  5  6  1  0  0  0  0
  5 30  1  0  0  0  0
  6  7  2  0  0  0  0
  6  8  1  0  0  0  0
  8  9  1  0  0  0  0
  8 23  2  0  0  0  0
  9 10  1  0  0  0  0
  9 31  1  0  0  0  0
 10 11  2  0  0  0  0
 10 12  1  0  0  0  0
 12 13  1  0  0  0  0
 12 32  1  0  0  0  0
 13 19  1  0  0  0  0
 13 14  1  0  0  0  0
 13 33  1  0  0  0  0
 14 15  1  0  0  0  0
 14 34  1  0  0  0  0
 14 35  1  0  0  0  0
 15 16  1  0  0  0  0
 15 17  1  0  0  0  0
 15 36  1  0  0  0  0
 16 37  1  0  0  0  0
 16 38  1  0  0  0  0
 16 39  1  0  0  0  0
 17 18  1  0  0  0  0
 17 40  1  0  0  0  0
 17 41  1  0  0  0  0
 18 19  1  0  0  0  0
 18 42  1  0  0  0  0
 18 43  1  0  0  0  0
 19 20  1  0  0  0  0
 19 44  1  0  0  0  0
 20 21  1  0  0  0  0
 20 22  1  0  0  0  0
 20 45  1  0  0  0  0
 21 46  1  0  0  0  0
 21 47  1  0  0  0  0
 21 48  1  0  0  0  0
 22 49  1  0  0  0  0
 22 50  1  0  0  0  0
 22 51  1  0  0  0  0
 23 52  1  0  0  0  0
M  END
> <s_m_source_file>
AV-unprocessed.smi

> <i_m_source_file_index>
3030

> <i_lp_mmshare_version>
43012

> <i_f3d_flags>
0

> <s_epik_input>
W0NIM11bQ0gyXW4xW2NIXVtjSF1jKD1PKWMoW2NIXTEpW05IXUMoPU8pW05IXVtDQEBIXTJbQ0gyXVtDQEBIXShbQ0gzXSlbQ0gyXVtDSDJdW0NASF0yW0NIXShbQ0gzXSlbQ0gzXQ==

> <s_epik_cmdline>
J2VwaWtfcHl0aG9uJywgJy1waCcsICc3LjAnLCAnLXRuJywgJzgnLCAnLW1hJywgJzIwMCcsICctbWV0YWxfYmluZGluZycsICctaW1hZScsICc8aW5maWxlLm1hZT4nLCAnLW9tYWUnLCAnPG91dGZpbGUubWFlPic=

> <r_lp_tautomer_probability>
1

> <r_epik_Ionization_Penalty>
0.00147933

> <r_epik_Ionization_Penalty_Charging>
0.00145753

> <r_epik_Ionization_Penalty_Neutral>
2.17987e-05

> <r_epik_State_Penalty>
0.00097457

> <r_epik_Charging_Adjusted_Penalty>
0.0024321

> <i_epik_Tot_Q>
0

> <i_epik_Tot_abs_Q>
0

> <r_epik_Metal_State_Penalty>
-0

> <b_epik_Metal_Only>
0

> <s_lp_Force_Field>
OPLS_2005

> <r_lp_Energy>
8.95674

> <b_lp_Chiralities_Consistent>
1

> <s_lp_Variant>
AV-unprocessed.smi:3030-4

> <Gold.Version>
5.8.1

> <Gold.Id.Protein>
6NUR|6NUR_protein|mol2

> <Gold.PLP.Fitness>
46.4788

> <Gold.PLP.PLP>
-40.5101

> <Gold.PLP.part.hbond>
-3.0000

> <Gold.PLP.part.metal>
0.0000

> <Gold.PLP.part.buried>
-4.6699

> <Gold.PLP.part.nonpolar>
-33.7787

> <Gold.PLP.part.repulsive>
0.3699

> <Gold.PLP.ligand.clash>
0.0000

> <Gold.PLP.ligand.torsion>
0.3599

> <Gold.PLP.Chemscore.Hbond>
2.2080

> <Gold.PLP.Chemscore.CHOScore>
0.0000

> <Gold.PLP.Chemscore.Metal>
0.0000

> <Gold.Chemscore.Hbonds>
donor molecule, donor type, donor heavy atom, donor atom, acceptor molecule, acceptor atom, score
      P1  H  6896  6909       L1    11  0.99
      P1  H  6931  6943       L1     7  0.53

> <Gold.PLP.Chemscore.Internal.Correction>
0.0645

> <Gold.Rescore>
     Score         DG    S(hbond)    S(metal)    S(lipo)     H(rot)  DE(clash)    DE(int)     intcor
     20.30     -20.74       2.39        0.00      89.98       1.27       0.02       0.42       ----

> <Gold.Chemscore.Fitness>
20.3032

> <Gold.Chemscore.DG>
-20.7361

> <Gold.Chemscore.ZeroCoef>
-5.4800

> <Gold.Chemscore.Hbond>
2.3880

> <Gold.Chemscore.Metal>
0.0000

> <Gold.Chemscore.Lipo>
89.9809

> <Gold.Chemscore.Internal_Hbond>
0.0000

> <Gold.Chemscore.DEClash>
0.0174

> <Gold.Chemscore.DEInternal>
0.4155

> <Gold.Chemscore.Rot>
1.2685

> <Gold.Chemscore.Internal.Correction>
   9.000000E+99

> <Gold.Chemscore.Hbonds>
donor molecule, donor type, donor heavy atom, donor atom, acceptor molecule, acceptor atom, score
      P1  H  6896  6909       L1    11  0.62
      P1  H  6931  6943       L1     7  0.51

> <Gold.Chemscore.Hbond.Weighted>
-7.9758

> <Gold.Chemscore.Metal.Weighted>
-0.0000

> <Gold.Chemscore.Lipo.Weighted>
-10.5278

> <Gold.Chemscore.Internal_Hbond.Weighted>
0.0000

> <Gold.Chemscore.DEClash.Weighted>
0.0174

> <Gold.Chemscore.DEInternal.Weighted>
0.4155

> <Gold.Chemscore.Rot.Weighted>
3.2474

> <Gold.Chemscore.Internal.Correction.Weighted>
   9.000000E+99

> <Gold.Protein.RotatedTorsions>
[ 6907 6896 6895 6894 ] final   70.75 input  -60.11 | X-H torsion
[ 7974 7965 7964 7962 ] final  -98.86 input  175.53 | X-H torsion
[ 8008 7997 7996 7995 ] final    1.55 input   59.86 | X-H torsion
[ 10167 10162 10161 10158 ] final -168.39 input  -65.29 | X-H torsion
[ 10718 10713 10712 10709 ] final   54.90 input   66.30 | X-H torsion
[ 10763 10752 10751 10750 ] final  166.96 input  -60.55 | X-H torsion
[ 11005 11000 10999 10996 ] final    3.69 input  -57.11 | X-H torsion

> <Gold.Protein.ActiveResidues>
 VAL166  LYS551  ARG553  GLY616  TRP617  ASP618  TYR619  PRO620  LYS621  CYS622 
 ASP623  PHE694  ASN695  SER759  ASP760  ASP761  ALA762  ILE779  LEU786  VAL792 
 PHE793  MET794  SER795  GLU796  ALA797  LYS798  CYS799  TRP800  GLU811  SER814 

> <Gold.Protein.RotatedAtoms>
  152.4768  134.4822  159.9668 H   0  0  0  0  0  0  0  0  0  0  0  0  # atno 6907 bound_to 6896
  151.4836  133.3535  159.2850 H   0  0  0  0  0  0  0  0  0  0  0  0  # atno 6908 bound_to 6896
  150.8813  134.8231  159.7288 H   0  0  0  0  0  0  0  0  0  0  0  0  # atno 6909 bound_to 6896
  145.3151  140.9409  143.2747 H   0  0  0  0  0  0  0  0  0  0  0  0  # atno 7974 bound_to 7965
  154.6811  140.2633  155.6907 H   0  0  0  0  0  0  0  0  0  0  0  0  # atno 8008 bound_to 7997
  156.2697  140.2810  156.1278 H   0  0  0  0  0  0  0  0  0  0  0  0  # atno 8009 bound_to 7997
  155.1030  140.0374  157.2692 H   0  0  0  0  0  0  0  0  0  0  0  0  # atno 8010 bound_to 7997
  139.5988  144.1054  152.1720 H   0  0  0  0  0  0  0  0  0  0  0  0  # atno 10167 bound_to 10162
  157.5298  130.8622  149.8671 H   0  0  0  0  0  0  0  0  0  0  0  0  # atno 10718 bound_to 10713
  154.3467  135.2753  155.2394 H   0  0  0  0  0  0  0  0  0  0  0  0  # atno 10763 bound_to 10752
  154.4641  135.5900  153.6279 H   0  0  0  0  0  0  0  0  0  0  0  0  # atno 10764 bound_to 10752
  152.9853  135.6072  154.3673 H   0  0  0  0  0  0  0  0  0  0  0  0  # atno 10765 bound_to 10752
  140.5903  133.9930  155.8086 H   0  0  0  0  0  0  0  0  0  0  0  0  # atno 11005 bound_to 11000
  144.8984  139.4681  143.6644 LP  0  0  0  0  0  0  0  0  0  0  0  0  # atno 17320 bound_to 7965
  146.3103  139.7724  142.9024 LP  0  0  0  0  0  0  0  0  0  0  0  0  # atno 17321 bound_to 7965
  140.0645  144.5829  150.7237 LP  0  0  0  0  0  0  0  0  0  0  0  0  # atno 17342 bound_to 10162
  140.7233  143.2611  151.4204 LP  0  0  0  0  0  0  0  0  0  0  0  0  # atno 17343 bound_to 10162
  156.0414  130.3738  150.1427 LP  0  0  0  0  0  0  0  0  0  0  0  0  # atno 17370 bound_to 10713
  156.9612  130.9805  151.3479 LP  0  0  0  0  0  0  0  0  0  0  0  0  # atno 17371 bound_to 10713
  141.0939  133.9874  157.3192 LP  0  0  0  0  0  0  0  0  0  0  0  0  # atno 17394 bound_to 11000
  139.9277  135.0201  156.8292 LP  0  0  0  0  0  0  0  0  0  0  0  0  # atno 17395 bound_to 11000

$$$$
