#       Name:                AV-unprocessed.smi:2916
#       Creating user name   scv26
#       Creation time:       Fri Mar 27 16:08:17 2020


#       File generated by GOLD software.
#

@<TRIPOS>MOLECULE
AV-unprocessed.smi:2916
    41    42     1
SMALL
NO_CHARGES


@<TRIPOS>ATOM
      1 ****        -1.1515   0.6113   3.1268 N.am           1 S1                 0.0000
      2 ****        -0.5764   1.2264   2.0884 C.2            1 S1                 0.0000
      3 ****         0.0461   2.2765   2.2365 O.2            1 S1                 0.0000
      4 ****        -0.7018   0.5449   0.6969 C.3            1 S1                 0.0000
      5 ****        -0.1403  -0.8136   0.7030 N.3            1 S1                 0.0000
      6 ****         1.1913  -0.9896   1.2830 C.3            1 S1                 0.0000
      7 ****         1.7617  -2.3565   0.8718 C.3            1 S1                 0.0000
      8 ****         2.0592  -2.4171  -0.5487 N.pl3          1 S1                 0.0000
      9 ****         3.1669  -1.9320  -1.2113 C.2            1 S1                 0.0000
     10 ****         2.9990  -2.2056  -2.5384 C.2            1 S1                 0.0000
     11 ****         1.7419  -2.8702  -2.5899 C.2            1 S1                 0.0000
     12 ****         1.1816  -2.9950  -1.3976 N.2            1 S1                 0.0000
     13 ****        -2.1942   0.3690   0.2975 C.3            1 S1                 0.0000
     14 ****        -2.8942   1.6949  -0.0499 C.3            1 S1                 0.0000
     15 ****        -2.1625   2.4152  -1.1896 C.3            1 S1                 0.0000
     16 ****        -0.6899   2.6525  -0.8312 C.3            1 S1                 0.0000
     17 ****         0.0195   1.3409  -0.4354 C.3            1 S1                 0.0000
     18 ****        -1.0884   1.0161   4.0494 H              1 S1                 0.0000
     19 ****        -1.6408  -0.2599   2.9822 H              1 S1                 0.0000
     20 ****        -0.1354  -1.1660  -0.2440 H              1 S1                 0.0000
     21 ****         1.8732  -0.2037   0.9591 H              1 S1                 0.0000
     22 ****         1.1331  -0.9359   2.3702 H              1 S1                 0.0000
     23 ****         2.6869  -2.5477   1.4165 H              1 S1                 0.0000
     24 ****         1.0739  -3.1620   1.1353 H              1 S1                 0.0000
     25 ****         3.9707  -1.4340  -0.6892 H              1 S1                 0.0000
     26 ****         3.6711  -1.9665  -3.3490 H              1 S1                 0.0000
     27 ****         1.2231  -3.2619  -3.4524 H              1 S1                 0.0000
     28 ****        -2.2652  -0.2871  -0.5722 H              1 S1                 0.0000
     29 ****        -2.7524  -0.1386   1.0855 H              1 S1                 0.0000
     30 ****        -3.9270   1.5007  -0.3406 H              1 S1                 0.0000
     31 ****        -2.9395   2.3398   0.8283 H              1 S1                 0.0000
     32 ****        -2.2261   1.8188  -2.1006 H              1 S1                 0.0000
     33 ****        -2.6511   3.3656  -1.4064 H              1 S1                 0.0000
     34 ****        -0.1751   3.1053  -1.6788 H              1 S1                 0.0000
     35 ****        -0.6269   3.3782  -0.0206 H              1 S1                 0.0000
     36 ****         1.0488   1.5713  -0.1588 H              1 S1                 0.0000
     37 ****         0.0913   0.7151  -1.3269 H              1 S1                 0.0000
     38 ****         0.1288   2.6848   3.1456 LP             1 S1                 0.0000
     39 ****         0.4696   2.7222   1.4479 LP             1 S1                 0.0000
     40 ****        -0.7407  -1.3262   1.3168 LP             1 S1                 0.0000
     41 ****         0.3050  -3.4215  -1.1749 LP             1 S1                 0.0000
@<TRIPOS>BOND
    1    1    2 am    
    2    1   18 1     
    3    1   19 1     
    4    2    3 2     
    5    2    4 1     
    6    4   17 1     
    7    4    5 1     
    8    4   13 1     
    9    5    6 1     
   10    5   20 1     
   11    6    7 1     
   12    6   21 1     
   13    6   22 1     
   14    7    8 1     
   15    7   23 1     
   16    7   24 1     
   17    8   12 1     
   18    8    9 1     
   19    9   10 2     
   20    9   25 1     
   21   10   11 1     
   22   10   26 1     
   23   11   12 2     
   24   11   27 1     
   25   13   14 1     
   26   13   28 1     
   27   13   29 1     
   28   14   15 1     
   29   14   30 1     
   30   14   31 1     
   31   15   16 1     
   32   15   32 1     
   33   15   33 1     
   34   16   17 1     
   35   16   34 1     
   36   16   35 1     
   37   17   36 1     
   38   17   37 1     
   39    3   38 1     
   40    3   39 1     
   41    5   40 1     
   42   12   41 1     
@<TRIPOS>SUBSTRUCTURE
      1 S1             1
@<TRIPOS>SET
LONE_PAIRS      STATIC     ATOMS    <user>   **** ""
4 38 39 40 41
DONOR_HYDROGENS      STATIC     ATOMS    <user>   **** ""
3 18 19 20
ATOM$BLUE        STATIC     ATOMS    COLORGROUP SYSTEM
4 38 39 40 41
ATOM$RED        STATIC     ATOMS    COLORGROUP SYSTEM
3 18 19 20
