AV-unprocessed.smi:189|AV-procd|sdf|1479|dock1
  -GOLD-   2262019303D 1   1.00000     0.00000
 Structure written by MMmdl.
 53 57  0  0  0  0  0  0  0  0  1 V2000
  150.9409  140.2539  155.2537 C   0  0  0  0  0  0  0  0  0  0  0  0
  150.6652  140.9126  156.6129 C   0  0  2  0  0  0  0  0  0  0  0  0
  150.4994  142.4500  156.5392 C   0  0  0  0  0  0  0  0  0  0  0  0
  151.5477  142.9731  157.5213 C   0  0  1  0  0  0  0  0  0  0  0  0
  151.2572  144.2581  158.3053 C   0  0  0  0  0  0  0  0  0  0  0  0
  152.4231  144.5256  159.2818 C   0  0  0  0  0  0  0  0  0  0  0  0
  152.7311  143.3085  160.1854 C   0  0  0  0  0  0  0  0  0  0  0  0
  152.9280  142.0072  159.3788 C   0  0  0  0  0  0  0  0  0  0  0  0
  151.7068  141.7978  158.4700 C   0  0  2  0  0  0  0  0  0  0  0  0
  151.7459  140.6594  157.5713 N   0  0  0  0  0  0  0  0  0  0  0  0
  151.7512  139.4501  158.1768 C   0  0  0  0  0  0  0  0  0  0  0  0
  150.6255  138.6890  158.2155 N   0  0  0  0  0  0  0  0  0  0  0  0
  150.6455  137.5006  158.8268 C   0  0  0  0  0  0  0  0  0  0  0  0
  151.6606  136.8997  159.4527 N   0  0  0  0  0  0  0  0  0  0  0  0
  152.7876  137.6680  159.4213 C   0  0  0  0  0  0  0  0  0  0  0  0
  152.9165  138.9453  158.8087 C   0  0  0  0  0  0  0  0  0  0  0  0
  154.2072  139.4291  158.9748 N   0  0  0  0  0  0  0  0  0  0  0  0
  154.8109  138.4874  159.6475 C   0  0  0  0  0  0  0  0  0  0  0  0
  154.0321  137.3958  159.9624 N   0  0  0  0  0  0  0  0  0  0  0  0
  154.4522  136.2142  160.6996 C   0  0  0  0  0  0  0  0  0  0  0  0
  154.7844  136.5013  162.1823 C   0  0  1  0  0  0  0  0  0  0  0  0
  155.9244  137.3414  162.2459 O   0  0  0  0  0  0  0  0  0  0  0  0
  153.6496  137.1618  162.9595 C   0  0  0  0  0  0  0  0  0  0  0  0
  153.8478  136.6243  164.3697 C   0  0  0  0  0  0  0  0  0  0  0  0
  154.2157  135.2753  164.1377 O   0  0  0  0  0  0  0  0  0  0  0  0
  155.0737  135.2277  163.0019 C   0  0  0  0  0  0  0  0  0  0  0  0
  150.1322  140.4559  154.5512 H   0  0  0  0  0  0  0  0  0  0  0  0
  151.0308  139.1716  155.3510 H   0  0  0  0  0  0  0  0  0  0  0  0
  151.8668  140.6273  154.8150 H   0  0  0  0  0  0  0  0  0  0  0  0
  149.7320  140.5013  157.0001 H   0  0  0  0  0  0  0  0  0  0  0  0
  150.6583  142.8497  155.5369 H   0  0  0  0  0  0  0  0  0  0  0  0
  149.4942  142.7319  156.8545 H   0  0  0  0  0  0  0  0  0  0  0  0
  152.4796  143.1069  156.9675 H   0  0  0  0  0  0  0  0  0  0  0  0
  151.1335  145.0998  157.6237 H   0  0  0  0  0  0  0  0  0  0  0  0
  150.3224  144.1579  158.8585 H   0  0  0  0  0  0  0  0  0  0  0  0
  153.3169  144.7789  158.7104 H   0  0  0  0  0  0  0  0  0  0  0  0
  152.1986  145.3973  159.8971 H   0  0  0  0  0  0  0  0  0  0  0  0
  153.6175  143.5087  160.7878 H   0  0  0  0  0  0  0  0  0  0  0  0
  151.9088  143.1705  160.8886 H   0  0  0  0  0  0  0  0  0  0  0  0
  153.8380  142.0699  158.7804 H   0  0  0  0  0  0  0  0  0  0  0  0
  153.0539  141.1629  160.0574 H   0  0  0  0  0  0  0  0  0  0  0  0
  150.8148  141.7141  159.0949 H   0  0  0  0  0  0  0  0  0  0  0  0
  149.7149  136.9527  158.8126 H   0  0  0  0  0  0  0  0  0  0  0  0
  155.8483  138.5650  159.9389 H   0  0  0  0  0  0  0  0  0  0  0  0
  153.6602  135.4676  160.6297 H   0  0  0  0  0  0  0  0  0  0  0  0
  155.3197  135.7870  160.1947 H   0  0  0  0  0  0  0  0  0  0  0  0
  156.4245  137.1093  163.0135 H   0  0  0  0  0  0  0  0  0  0  0  0
  153.6518  138.2514  162.9061 H   0  0  0  0  0  0  0  0  0  0  0  0
  152.6855  136.8130  162.5880 H   0  0  0  0  0  0  0  0  0  0  0  0
  154.6580  137.1468  164.8806 H   0  0  0  0  0  0  0  0  0  0  0  0
  152.9476  136.6967  164.9803 H   0  0  0  0  0  0  0  0  0  0  0  0
  154.8652  134.3172  162.4396 H   0  0  0  0  0  0  0  0  0  0  0  0
  156.1134  135.1762  163.3299 H   0  0  0  0  0  0  0  0  0  0  0  0
  1  2  1  0  0  0  0
  1 27  1  0  0  0  0
  1 28  1  0  0  0  0
  1 29  1  0  0  0  0
  2 10  1  0  0  0  0
  2  3  1  0  0  0  0
  2 30  1  0  0  0  0
  3  4  1  0  0  0  0
  3 31  1  0  0  0  0
  3 32  1  0  0  0  0
  4  9  1  0  0  0  0
  4  5  1  0  0  0  0
  4 33  1  0  0  0  0
  5  6  1  0  0  0  0
  5 34  1  0  0  0  0
  5 35  1  0  0  0  0
  6  7  1  0  0  0  0
  6 36  1  0  0  0  0
  6 37  1  0  0  0  0
  7  8  1  0  0  0  0
  7 38  1  0  0  0  0
  7 39  1  0  0  0  0
  8  9  1  0  0  0  0
  8 40  1  0  0  0  0
  8 41  1  0  0  0  0
  9 10  1  0  0  0  0
  9 42  1  0  0  0  0
 10 11  1  0  0  0  0
 11 16  1  0  0  0  0
 11 12  2  0  0  0  0
 12 13  1  0  0  0  0
 13 14  2  0  0  0  0
 13 43  1  0  0  0  0
 14 15  1  0  0  0  0
 15 19  1  0  0  0  0
 15 16  2  0  0  0  0
 16 17  1  0  0  0  0
 17 18  2  0  0  0  0
 18 19  1  0  0  0  0
 18 44  1  0  0  0  0
 19 20  1  0  0  0  0
 20 21  1  0  0  0  0
 20 45  1  0  0  0  0
 20 46  1  0  0  0  0
 21 26  1  0  0  0  0
 21 22  1  0  0  0  0
 21 23  1  0  0  0  0
 22 47  1  0  0  0  0
 23 24  1  0  0  0  0
 23 48  1  0  0  0  0
 23 49  1  0  0  0  0
 24 25  1  0  0  0  0
 24 50  1  0  0  0  0
 24 51  1  0  0  0  0
 25 26  1  0  0  0  0
 26 52  1  0  0  0  0
 26 53  1  0  0  0  0
M  END
> <s_m_source_file>
AV-unprocessed.smi

> <i_m_source_file_index>
189

> <i_lp_mmshare_version>
43012

> <i_f3d_flags>
0

> <s_epik_input>
W0NIMl0xW0NIMl1bQ0gyXVtDSDJdW0NASF0oW0NASF0xMilOKFtDQEhdKFtDSDNdKVtDSDJdMiljKG5bY0hdbjMpYyhjMzQpbltjSF1uNFtDSDJdW0NAQF01KFtPSF0pW0NIMl1bQ0gyXU9bQ0gyXTU=

> <s_epik_cmdline>
J2VwaWtfcHl0aG9uJywgJy1waCcsICc3LjAnLCAnLXRuJywgJzgnLCAnLW1hJywgJzIwMCcsICctbWV0YWxfYmluZGluZycsICctaW1hZScsICc8aW5maWxlLm1hZT4nLCAnLW9tYWUnLCAnPG91dGZpbGUubWFlPic=

> <r_lp_tautomer_probability>
1

> <r_epik_Ionization_Penalty>
0.00594261

> <r_epik_Ionization_Penalty_Charging>
0

> <r_epik_Ionization_Penalty_Neutral>
0.00594261

> <r_epik_State_Penalty>
0.00429776

> <r_epik_Charging_Adjusted_Penalty>
0.00429776

> <i_epik_Tot_Q>
0

> <i_epik_Tot_abs_Q>
0

> <r_epik_Metal_State_Penalty>
-0

> <b_epik_Metal_Only>
0

> <s_lp_Force_Field>
OPLS_2005

> <r_lp_Energy>
58.3288

> <b_lp_Chiralities_Consistent>
1

> <s_lp_Variant>
AV-unprocessed.smi:189-5

> <Gold.Version>
5.8.1

> <Gold.Id.Protein>
6NUR|6NUR_protein|mol2

> <Gold.PLP.Fitness>
53.5078

> <Gold.PLP.PLP>
-48.4624

> <Gold.PLP.part.hbond>
-2.0000

> <Gold.PLP.part.metal>
0.0000

> <Gold.PLP.part.buried>
-2.9215

> <Gold.PLP.part.nonpolar>
-43.0414

> <Gold.PLP.part.repulsive>
0.0754

> <Gold.PLP.ligand.clash>
0.0000

> <Gold.PLP.ligand.torsion>
0.5343

> <Gold.PLP.Chemscore.Hbond>
2.0000

> <Gold.PLP.Chemscore.CHOScore>
0.0000

> <Gold.PLP.Chemscore.Metal>
0.0000

> <Gold.Chemscore.Hbonds>
donor molecule, donor type, donor heavy atom, donor atom, acceptor molecule, acceptor atom, score
      P1  H  6896  6909       L1    14  1.00
      P1  H  7997  8010       L1    17  1.00

> <Gold.PLP.Chemscore.Internal.Correction>
0.1140

> <Gold.Rescore>
     Score         DG    S(hbond)    S(metal)    S(lipo)     H(rot)  DE(clash)    DE(int)     intcor
     20.01     -21.13       1.89        0.00     124.25       2.03       0.27       0.86       ----

> <Gold.Chemscore.Fitness>
20.0053

> <Gold.Chemscore.DG>
-21.1270

> <Gold.Chemscore.ZeroCoef>
-5.4800

> <Gold.Chemscore.Hbond>
1.8878

> <Gold.Chemscore.Metal>
0.0000

> <Gold.Chemscore.Lipo>
124.2530

> <Gold.Chemscore.Internal_Hbond>
0.0000

> <Gold.Chemscore.DEClash>
0.2652

> <Gold.Chemscore.DEInternal>
0.8565

> <Gold.Chemscore.Rot>
2.0297

> <Gold.Chemscore.Internal.Correction>
   9.000000E+99

> <Gold.Chemscore.Hbonds>
donor molecule, donor type, donor heavy atom, donor atom, acceptor molecule, acceptor atom, score
      P1  H  6896  6909       L1    14  0.98
      P1  H  7997  8010       L1    17  0.76

> <Gold.Chemscore.Hbond.Weighted>
-6.3054

> <Gold.Chemscore.Metal.Weighted>
-0.0000

> <Gold.Chemscore.Lipo.Weighted>
-14.5376

> <Gold.Chemscore.Internal_Hbond.Weighted>
0.0000

> <Gold.Chemscore.DEClash.Weighted>
0.2652

> <Gold.Chemscore.DEInternal.Weighted>
0.8565

> <Gold.Chemscore.Rot.Weighted>
5.1960

> <Gold.Chemscore.Internal.Correction.Weighted>
   9.000000E+99

> <Gold.Protein.RotatedTorsions>
[ 6907 6896 6895 6894 ] final  117.91 input  -60.11 | X-H torsion
[ 7974 7965 7964 7962 ] final   32.52 input  175.53 | X-H torsion
[ 8008 7997 7996 7995 ] final    9.63 input   59.86 | X-H torsion
[ 10167 10162 10161 10158 ] final  -55.64 input  -65.29 | X-H torsion
[ 10718 10713 10712 10709 ] final   27.02 input   66.30 | X-H torsion
[ 10763 10752 10751 10750 ] final -121.89 input  -60.55 | X-H torsion
[ 11005 11000 10999 10996 ] final -156.19 input  -57.11 | X-H torsion

> <Gold.Protein.ActiveResidues>
 VAL166  LYS551  ARG553  GLY616  TRP617  ASP618  TYR619  PRO620  LYS621  CYS622 
 ASP623  PHE694  ASN695  SER759  ASP760  ASP761  ALA762  ILE779  LEU786  VAL792 
 PHE793  MET794  SER795  GLU796  ALA797  LYS798  CYS799  TRP800  GLU811  SER814 

> <Gold.Protein.RotatedAtoms>
  152.4579  133.7762  159.6825 H   0  0  0  0  0  0  0  0  0  0  0  0  # atno 6907 bound_to 6896
  150.8512  133.7774  159.3031 H   0  0  0  0  0  0  0  0  0  0  0  0  # atno 6908 bound_to 6896
  151.5368  135.1071  159.9968 H   0  0  0  0  0  0  0  0  0  0  0  0  # atno 6909 bound_to 6896
  146.1481  139.6515  142.9117 H   0  0  0  0  0  0  0  0  0  0  0  0  # atno 7974 bound_to 7965
  154.7827  140.2821  155.6052 H   0  0  0  0  0  0  0  0  0  0  0  0  # atno 8008 bound_to 7997
  156.2952  140.2620  156.2584 H   0  0  0  0  0  0  0  0  0  0  0  0  # atno 8009 bound_to 7997
  154.9765  140.0375  157.2248 H   0  0  0  0  0  0  0  0  0  0  0  0  # atno 8010 bound_to 7997
  140.6363  143.2484  151.5109 H   0  0  0  0  0  0  0  0  0  0  0  0  # atno 10167 bound_to 10162
  157.2146  130.6950  149.6243 H   0  0  0  0  0  0  0  0  0  0  0  0  # atno 10718 bound_to 10713
  154.8678  135.4152  154.2693 H   0  0  0  0  0  0  0  0  0  0  0  0  # atno 10763 bound_to 10752
  153.3606  135.7003  153.6720 H   0  0  0  0  0  0  0  0  0  0  0  0  # atno 10764 bound_to 10752
  153.5623  135.3607  155.2776 H   0  0  0  0  0  0  0  0  0  0  0  0  # atno 10765 bound_to 10752
  140.6782  134.4173  157.5228 H   0  0  0  0  0  0  0  0  0  0  0  0  # atno 11005 bound_to 11000
  145.4889  141.0438  143.2604 LP  0  0  0  0  0  0  0  0  0  0  0  0  # atno 17320 bound_to 7965
  144.7870  139.6405  143.7129 LP  0  0  0  0  0  0  0  0  0  0  0  0  # atno 17321 bound_to 7965
  139.5573  144.2243  152.1634 LP  0  0  0  0  0  0  0  0  0  0  0  0  # atno 17342 bound_to 10162
  140.1500  144.5123  150.6693 LP  0  0  0  0  0  0  0  0  0  0  0  0  # atno 17343 bound_to 10162
  155.9687  130.4540  150.5832 LP  0  0  0  0  0  0  0  0  0  0  0  0  # atno 17370 bound_to 10713
  157.3637  131.0754  151.1615 LP  0  0  0  0  0  0  0  0  0  0  0  0  # atno 17371 bound_to 10713
  139.8960  134.8670  156.2108 LP  0  0  0  0  0  0  0  0  0  0  0  0  # atno 17394 bound_to 11000
  141.0338  133.6974  156.1477 LP  0  0  0  0  0  0  0  0  0  0  0  0  # atno 17395 bound_to 11000

$$$$
