AV-unprocessed.smi:1200|AV-procd|sdf|5022|dock5
  -GOLD-   22720 4 43D 1   1.00000     0.00000
 Structure written by MMmdl.
 42 43  0  0  0  0  0  0  0  0  1 V2000
  146.2932  134.6500  153.9266 C   0  0  0  0  0  0  0  0  0  0  0  0
  146.5768  135.9143  153.2658 N   0  0  0  0  0  0  0  0  0  0  0  0
  145.6825  136.9007  153.1066 C   0  0  0  0  0  0  0  0  0  0  0  0
  144.5193  136.8302  153.5020 O   0  0  0  0  0  0  0  0  0  0  0  0
  146.1730  138.1614  152.3848 C   0  0  0  0  0  0  0  0  0  0  0  0
  146.7892  139.1821  153.2648 N   0  0  0  0  0  0  0  0  0  0  0  0
  146.9365  140.4856  152.5997 C   0  0  0  0  0  0  0  0  0  0  0  0
  147.5164  141.5273  153.5731 C   0  0  0  0  0  0  0  0  0  0  0  0
  148.8697  141.0716  154.1366 C   0  0  0  0  0  0  0  0  0  0  0  0
  149.3298  142.0089  155.1584 N   0  0  0  0  0  0  0  0  0  0  0  0
  150.2407  141.7505  156.1081 C   0  0  0  0  0  0  0  0  0  0  0  0
  150.7967  140.6610  156.2424 O   0  0  0  0  0  0  0  0  0  0  0  0
  150.4421  142.8261  156.8891 N   0  0  0  0  0  0  0  0  0  0  0  0
  151.3286  142.9677  157.9914 C   0  0  0  0  0  0  0  0  0  0  0  0
  151.6575  144.2734  158.4107 C   0  0  0  0  0  0  0  0  0  0  0  0
  152.5453  144.4453  159.4897 C   0  0  0  0  0  0  0  0  0  0  0  0
  153.0814  143.2976  160.1047 C   0  0  0  0  0  0  0  0  0  0  0  0
  152.7905  142.0413  159.7070 N   0  0  0  0  0  0  0  0  0  0  0  0
  151.9359  141.8835  158.6730 C   0  0  0  0  0  0  0  0  0  0  0  0
  148.7146  139.6684  154.7390 C   0  0  0  0  0  0  0  0  0  0  0  0
  148.0953  138.6950  153.7210 C   0  0  0  0  0  0  0  0  0  0  0  0
  147.1910  134.0325  153.9479 H   0  0  0  0  0  0  0  0  0  0  0  0
  145.5141  134.1012  153.3961 H   0  0  0  0  0  0  0  0  0  0  0  0
  145.9672  134.8130  154.9547 H   0  0  0  0  0  0  0  0  0  0  0  0
  147.5124  136.0543  152.9122 H   0  0  0  0  0  0  0  0  0  0  0  0
  146.8985  137.8425  151.6349 H   0  0  0  0  0  0  0  0  0  0  0  0
  145.3383  138.6038  151.8375 H   0  0  0  0  0  0  0  0  0  0  0  0
  147.5767  140.3898  151.7209 H   0  0  0  0  0  0  0  0  0  0  0  0
  145.9734  140.8551  152.2474 H   0  0  0  0  0  0  0  0  0  0  0  0
  147.6284  142.4851  153.0637 H   0  0  0  0  0  0  0  0  0  0  0  0
  146.8089  141.6915  154.3875 H   0  0  0  0  0  0  0  0  0  0  0  0
  149.5840  141.0145  153.3132 H   0  0  0  0  0  0  0  0  0  0  0  0
  148.9235  142.9327  155.1357 H   0  0  0  0  0  0  0  0  0  0  0  0
  149.8533  143.6249  156.7035 H   0  0  0  0  0  0  0  0  0  0  0  0
  151.2326  145.1348  157.9161 H   0  0  0  0  0  0  0  0  0  0  0  0
  152.8102  145.4329  159.8371 H   0  0  0  0  0  0  0  0  0  0  0  0
  153.7664  143.3912  160.9346 H   0  0  0  0  0  0  0  0  0  0  0  0
  151.7639  140.8579  158.3868 H   0  0  0  0  0  0  0  0  0  0  0  0
  149.6857  139.2930  155.0638 H   0  0  0  0  0  0  0  0  0  0  0  0
  148.0850  139.7094  155.6294 H   0  0  0  0  0  0  0  0  0  0  0  0
  147.9801  137.7193  154.1950 H   0  0  0  0  0  0  0  0  0  0  0  0
  148.7680  138.5579  152.8723 H   0  0  0  0  0  0  0  0  0  0  0  0
  1  2  1  0  0  0  0
  1 22  1  0  0  0  0
  1 23  1  0  0  0  0
  1 24  1  0  0  0  0
  2  3  1  0  0  0  0
  2 25  1  0  0  0  0
  3  4  2  0  0  0  0
  3  5  1  0  0  0  0
  5  6  1  0  0  0  0
  5 26  1  0  0  0  0
  5 27  1  0  0  0  0
  6 21  1  0  0  0  0
  6  7  1  0  0  0  0
  7  8  1  0  0  0  0
  7 28  1  0  0  0  0
  7 29  1  0  0  0  0
  8  9  1  0  0  0  0
  8 30  1  0  0  0  0
  8 31  1  0  0  0  0
  9 10  1  0  0  0  0
  9 20  1  0  0  0  0
  9 32  1  0  0  0  0
 10 11  1  0  0  0  0
 10 33  1  0  0  0  0
 11 12  2  0  0  0  0
 11 13  1  0  0  0  0
 13 14  1  0  0  0  0
 13 34  1  0  0  0  0
 14 19  1  0  0  0  0
 14 15  2  0  0  0  0
 15 16  1  0  0  0  0
 15 35  1  0  0  0  0
 16 17  2  0  0  0  0
 16 36  1  0  0  0  0
 17 18  1  0  0  0  0
 17 37  1  0  0  0  0
 18 19  2  0  0  0  0
 19 38  1  0  0  0  0
 20 21  1  0  0  0  0
 20 39  1  0  0  0  0
 20 40  1  0  0  0  0
 21 41  1  0  0  0  0
 21 42  1  0  0  0  0
M  END
> <s_m_source_file>
AV-unprocessed.smi

> <i_m_source_file_index>
1200

> <i_lp_mmshare_version>
43012

> <i_f3d_flags>
0

> <s_epik_input>
W0NIM11bTkhdQyg9TylbQ0gyXU4xW0NIMl1bQ0gyXVtDSF0oW0NIMl1bQ0gyXTEpW05IXUMoPU8pW05IXWMyW2NIXVtjSF1bY0hdbltjSF0y

> <s_epik_cmdline>
J2VwaWtfcHl0aG9uJywgJy1waCcsICc3LjAnLCAnLXRuJywgJzgnLCAnLW1hJywgJzIwMCcsICctbWV0YWxfYmluZGluZycsICctaW1hZScsICc8aW5maWxlLm1hZT4nLCAnLW9tYWUnLCAnPG91dGZpbGUubWFlPic=

> <r_epik_Ionization_Penalty>
0.169655

> <r_epik_Ionization_Penalty_Charging>
0

> <r_epik_Ionization_Penalty_Neutral>
0.169655

> <r_epik_State_Penalty>
0.162809

> <r_epik_Charging_Adjusted_Penalty>
0.162809

> <i_epik_Tot_Q>
0

> <i_epik_Tot_abs_Q>
0

> <r_epik_Metal_State_Penalty>
0.163912

> <b_epik_Metal_Only>
0

> <s_lp_Force_Field>
OPLS_2005

> <r_lp_Energy>
16.8115

> <b_lp_Chiralities_Consistent>
1

> <s_lp_Variant>
AV-unprocessed.smi:1200-1

> <Gold.Version>
5.8.1

> <Gold.Id.Protein>
6NUR|6NUR_protein|mol2

> <Gold.PLP.Fitness>
45.0971

> <Gold.PLP.PLP>
-37.7050

> <Gold.PLP.part.hbond>
-3.0000

> <Gold.PLP.part.metal>
0.0000

> <Gold.PLP.part.buried>
-2.7390

> <Gold.PLP.part.nonpolar>
-32.4016

> <Gold.PLP.part.repulsive>
0.6058

> <Gold.PLP.ligand.clash>
0.0000

> <Gold.PLP.ligand.torsion>
0.8062

> <Gold.PLP.Chemscore.Hbond>
3.0000

> <Gold.PLP.Chemscore.CHOScore>
0.0000

> <Gold.PLP.Chemscore.Metal>
0.0000

> <Gold.Chemscore.Hbonds>
donor molecule, donor type, donor heavy atom, donor atom, acceptor molecule, acceptor atom, score
      L1  H     2    25       P1  7948  1.00
      L1  H    10    33       P1  8028  1.00
      L1  H    13    34       P1  8028  1.00

> <Gold.PLP.Chemscore.Internal.Correction>
0.0045

> <Gold.Rescore>
     Score         DG    S(hbond)    S(metal)    S(lipo)     H(rot)  DE(clash)    DE(int)     intcor
     19.59     -23.36       2.92        0.00     105.71       1.66       0.47       3.30       ----

> <Gold.Chemscore.Fitness>
19.5874

> <Gold.Chemscore.DG>
-23.3553

> <Gold.Chemscore.ZeroCoef>
-5.4800

> <Gold.Chemscore.Hbond>
2.9229

> <Gold.Chemscore.Metal>
0.0000

> <Gold.Chemscore.Lipo>
105.7114

> <Gold.Chemscore.Internal_Hbond>
0.0000

> <Gold.Chemscore.DEClash>
0.4713

> <Gold.Chemscore.DEInternal>
3.2966

> <Gold.Chemscore.Rot>
1.6623

> <Gold.Chemscore.Internal.Correction>
   9.000000E+99

> <Gold.Chemscore.Hbonds>
donor molecule, donor type, donor heavy atom, donor atom, acceptor molecule, acceptor atom, score
      L1  H     2    25       P1  7948  1.00
      L1  H    10    33       P1  8028  0.97
      L1  H    13    34       P1  8028  0.98

> <Gold.Chemscore.Hbond.Weighted>
-9.7625

> <Gold.Chemscore.Metal.Weighted>
-0.0000

> <Gold.Chemscore.Lipo.Weighted>
-12.3682

> <Gold.Chemscore.Internal_Hbond.Weighted>
0.0000

> <Gold.Chemscore.DEClash.Weighted>
0.4713

> <Gold.Chemscore.DEInternal.Weighted>
3.2966

> <Gold.Chemscore.Rot.Weighted>
4.2554

> <Gold.Chemscore.Internal.Correction.Weighted>
   9.000000E+99

> <Gold.Protein.RotatedTorsions>
[ 6907 6896 6895 6894 ] final   21.87 input  -60.11 | X-H torsion
[ 7974 7965 7964 7962 ] final  100.71 input  175.53 | X-H torsion
[ 8008 7997 7996 7995 ] final  -91.35 input   59.86 | X-H torsion
[ 10167 10162 10161 10158 ] final   42.50 input  -65.29 | X-H torsion
[ 10718 10713 10712 10709 ] final   80.49 input   66.30 | X-H torsion
[ 10763 10752 10751 10750 ] final -170.89 input  -60.55 | X-H torsion
[ 11005 11000 10999 10996 ] final   18.45 input  -57.11 | X-H torsion

> <Gold.Protein.ActiveResidues>
 VAL166  LYS551  ARG553  GLY616  TRP617  ASP618  TYR619  PRO620  LYS621  CYS622 
 ASP623  PHE694  ASN695  SER759  ASP760  ASP761  ALA762  ILE779  LEU786  VAL792 
 PHE793  MET794  SER795  GLU796  ALA797  LYS798  CYS799  TRP800  GLU811  SER814 

> <Gold.Protein.RotatedAtoms>
  151.9184  135.0309  160.0519 H   0  0  0  0  0  0  0  0  0  0  0  0  # atno 6907 bound_to 6896
  152.2220  133.4986  159.5176 H   0  0  0  0  0  0  0  0  0  0  0  0  # atno 6908 bound_to 6896
  150.7002  134.1246  159.4090 H   0  0  0  0  0  0  0  0  0  0  0  0  # atno 6909 bound_to 6896
  145.3820  139.2378  143.3398 H   0  0  0  0  0  0  0  0  0  0  0  0  # atno 7974 bound_to 7965
  154.7097  140.0520  157.0538 H   0  0  0  0  0  0  0  0  0  0  0  0  # atno 8008 bound_to 7997
  155.0572  140.3185  155.4653 H   0  0  0  0  0  0  0  0  0  0  0  0  # atno 8009 bound_to 7997
  156.2785  140.2105  156.5698 H   0  0  0  0  0  0  0  0  0  0  0  0  # atno 8010 bound_to 7997
  140.3537  144.2317  150.6143 H   0  0  0  0  0  0  0  0  0  0  0  0  # atno 10167 bound_to 10162
  157.6807  130.9962  150.2087 H   0  0  0  0  0  0  0  0  0  0  0  0  # atno 10718 bound_to 10713
  154.6366  135.2893  155.0154 H   0  0  0  0  0  0  0  0  0  0  0  0  # atno 10763 bound_to 10752
  154.1296  135.6535  153.4923 H   0  0  0  0  0  0  0  0  0  0  0  0  # atno 10764 bound_to 10752
  153.0305  135.5307  154.7215 H   0  0  0  0  0  0  0  0  0  0  0  0  # atno 10765 bound_to 10752
  140.4247  134.1482  155.7675 H   0  0  0  0  0  0  0  0  0  0  0  0  # atno 11005 bound_to 11000
  146.2838  140.4489  142.8766 LP  0  0  0  0  0  0  0  0  0  0  0  0  # atno 17320 bound_to 7965
  144.8501  140.6988  143.6174 LP  0  0  0  0  0  0  0  0  0  0  0  0  # atno 17321 bound_to 7965
  140.5194  143.2269  151.8412 LP  0  0  0  0  0  0  0  0  0  0  0  0  # atno 17342 bound_to 10162
  139.4823  144.4855  151.9252 LP  0  0  0  0  0  0  0  0  0  0  0  0  # atno 17343 bound_to 10162
  156.2762  130.3728  149.7981 LP  0  0  0  0  0  0  0  0  0  0  0  0  # atno 17370 bound_to 10713
  156.5683  130.8413  151.3349 LP  0  0  0  0  0  0  0  0  0  0  0  0  # atno 17371 bound_to 10713
  141.1770  133.8493  157.1388 LP  0  0  0  0  0  0  0  0  0  0  0  0  # atno 17394 bound_to 11000
  140.0176  134.9960  157.0525 LP  0  0  0  0  0  0  0  0  0  0  0  0  # atno 17395 bound_to 11000

$$$$
