AV-unprocessed.smi:2018|AV-procd|sdf|8170|dock5
  -GOLD-   2272010413D 1   1.00000     0.00000
 Structure written by MMmdl.
 34 35  0  0  0  0  0  0  0  0  2 V2000
  145.0948  144.5956  153.1130 C   0  0  0  0  0  0  0  0  0  0  0  0
  145.8335  143.5015  153.8041 C   0  0  0  0  0  0  0  0  0  0  0  0
  147.1329  143.2607  153.6207 N   0  0  0  0  0  0  0  0  0  0  0  0
  147.6069  142.1979  154.4027 C   0  0  0  0  0  0  0  0  0  0  0  0
  149.0621  141.7991  154.3457 C   0  0  0  0  0  0  0  0  0  0  0  0
  149.5274  140.8694  155.4904 C   0  0  0  0  0  0  0  0  0  0  0  0
  150.9599  140.5969  155.3717 N   0  5  0  0  0  0  0  0  0  0  0  0
  151.8014  140.3118  156.4087 C   0  0  0  0  0  0  0  0  0  0  0  0
  152.4908  139.2921  156.5319 O   0  0  0  0  0  0  0  0  0  0  0  0
  151.9123  141.2972  157.5244 C   0  0  0  0  0  0  0  0  0  0  0  0
  152.6825  141.0352  158.5342 N   0  0  0  0  0  0  0  0  0  0  0  0
  152.8613  141.9178  159.5782 N   0  0  0  0  0  0  0  0  0  0  0  0
  153.9809  141.5670  160.4515 C   0  0  0  0  0  0  0  0  0  0  0  0
  152.0796  143.0040  159.8061 C   0  0  0  0  0  0  0  0  0  0  0  0
  152.2556  143.8014  160.7275 O   0  0  0  0  0  0  0  0  0  0  0  0
  150.8966  143.2035  158.8543 C   0  0  0  0  0  0  0  0  0  0  0  0
  151.1662  142.6166  157.4548 C   0  0  0  0  0  0  0  0  0  0  0  0
  146.6197  141.6127  155.1598 C   0  0  0  0  0  0  0  0  0  0  0  0
  145.0784  142.3971  154.9454 S   0  0  0  0  0  0  0  0  0  0  0  0
  145.7698  145.1774  152.4841 H   0  0  0  0  0  0  0  0  0  0  0  0
  144.6437  145.2616  153.8485 H   0  0  0  0  0  0  0  0  0  0  0  0
  144.3072  144.1757  152.4873 H   0  0  0  0  0  0  0  0  0  0  0  0
  149.2582  141.2982  153.3973 H   0  0  0  0  0  0  0  0  0  0  0  0
  149.6898  142.6913  154.3319 H   0  0  0  0  0  0  0  0  0  0  0  0
  149.2723  141.3330  156.4446 H   0  0  0  0  0  0  0  0  0  0  0  0
  148.9487  139.9461  155.4470 H   0  0  0  0  0  0  0  0  0  0  0  0
  154.1004  142.2338  161.3062 H   0  0  0  0  0  0  0  0  0  0  0  0
  154.9139  141.5868  159.8867 H   0  0  0  0  0  0  0  0  0  0  0  0
  153.8491  140.5573  160.8420 H   0  0  0  0  0  0  0  0  0  0  0  0
  150.0325  142.7084  159.2989 H   0  0  0  0  0  0  0  0  0  0  0  0
  150.6482  144.2628  158.7799 H   0  0  0  0  0  0  0  0  0  0  0  0
  151.7427  143.3238  156.8578 H   0  0  0  0  0  0  0  0  0  0  0  0
  150.2087  142.4925  156.9478 H   0  0  0  0  0  0  0  0  0  0  0  0
  146.7112  140.7785  155.8392 H   0  0  0  0  0  0  0  0  0  0  0  0
  1  2  1  0  0  0  0
  1 20  1  0  0  0  0
  1 21  1  0  0  0  0
  1 22  1  0  0  0  0
  2 19  1  0  0  0  0
  2  3  2  0  0  0  0
  3  4  1  0  0  0  0
  4  5  1  0  0  0  0
  4 18  2  0  0  0  0
  5  6  1  0  0  0  0
  5 23  1  0  0  0  0
  5 24  1  0  0  0  0
  6  7  1  0  0  0  0
  6 25  1  0  0  0  0
  6 26  1  0  0  0  0
  7  8  1  0  0  0  0
  8  9  2  0  0  0  0
  8 10  1  0  0  0  0
 10 17  1  0  0  0  0
 10 11  2  0  0  0  0
 11 12  1  0  0  0  0
 12 13  1  0  0  0  0
 12 14  1  0  0  0  0
 13 27  1  0  0  0  0
 13 28  1  0  0  0  0
 13 29  1  0  0  0  0
 14 15  2  0  0  0  0
 14 16  1  0  0  0  0
 16 17  1  0  0  0  0
 16 30  1  0  0  0  0
 16 31  1  0  0  0  0
 17 32  1  0  0  0  0
 17 33  1  0  0  0  0
 18 19  1  0  0  0  0
 18 34  1  0  0  0  0
M  CHG  1   7  -1
M  END
> <s_m_source_file>
AV-unprocessed.smi

> <i_m_source_file_index>
2018

> <i_lp_mmshare_version>
43012

> <i_f3d_flags>
0

> <s_epik_input>
W0NIM11jMW5jKFtjSF1zMSlbQ0gyXVtDSDJdW05IXUMoPU8pQzI9Tk4oW0NIM10pQyg9TylbQ0gyXVtDSDJdMg==

> <s_epik_cmdline>
J2VwaWtfcHl0aG9uJywgJy1waCcsICc3LjAnLCAnLXRuJywgJzgnLCAnLW1hJywgJzIwMCcsICctbWV0YWxfYmluZGluZycsICctaW1hZScsICc8aW5maWxlLm1hZT4nLCAnLW9tYWUnLCAnPG91dGZpbGUubWFlPic=

> <r_epik_Ionization_Penalty>
5.30398

> <r_epik_Ionization_Penalty_Charging>
5.30014

> <r_epik_Ionization_Penalty_Neutral>
0.0038335

> <r_epik_State_Penalty>
5.30046

> <r_epik_Charging_Adjusted_Penalty>
10.6006

> <i_epik_Tot_Q>
-1

> <i_epik_Tot_abs_Q>
1

> <r_epik_Metal_State_Penalty>
1.34504

> <b_epik_Metal_Only>
1

> <s_epik_Chemistry_Notes>
This compound has an imine and may undergo hydrolysis.

> <s_lp_Force_Field>
OPLS_2005

> <r_lp_Energy>
22.7314

> <b_lp_Chiralities_Consistent>
1

> <s_lp_Variant>
AV-unprocessed.smi:2018-2

> <Gold.Version>
5.8.1

> <Gold.Id.Protein>
6NUR|6NUR_protein|mol2

> <Gold.PLP.Fitness>
41.7152

> <Gold.PLP.PLP>
-37.0337

> <Gold.PLP.part.hbond>
-2.9909

> <Gold.PLP.part.metal>
0.0000

> <Gold.PLP.part.buried>
0.1958

> <Gold.PLP.part.nonpolar>
-34.3627

> <Gold.PLP.part.repulsive>
0.9018

> <Gold.PLP.ligand.clash>
0.0000

> <Gold.PLP.ligand.torsion>
0.9092

> <Gold.PLP.Chemscore.Hbond>
2.1591

> <Gold.PLP.Chemscore.CHOScore>
0.0000

> <Gold.PLP.Chemscore.Metal>
0.0000

> <Gold.Chemscore.Hbonds>
donor molecule, donor type, donor heavy atom, donor atom, acceptor molecule, acceptor atom, score
      P1  H  7989  7998       L1     7  0.91
      P1  H  7997  8009       L1     9  1.00
      P1  H  8022  8030       L1     3  0.32

> <Gold.PLP.Chemscore.Internal.Correction>
0.0227

> <Gold.Rescore>
     Score         DG    S(hbond)    S(metal)    S(lipo)     H(rot)  DE(clash)    DE(int)     intcor
     13.04     -15.08       1.36        0.00      74.27       1.42       1.09       0.94       ----

> <Gold.Chemscore.Fitness>
13.0424

> <Gold.Chemscore.DG>
-15.0754

> <Gold.Chemscore.ZeroCoef>
-5.4800

> <Gold.Chemscore.Hbond>
1.3579

> <Gold.Chemscore.Metal>
0.0000

> <Gold.Chemscore.Lipo>
74.2686

> <Gold.Chemscore.Internal_Hbond>
0.0000

> <Gold.Chemscore.DEClash>
1.0921

> <Gold.Chemscore.DEInternal>
0.9410

> <Gold.Chemscore.Rot>
1.4178

> <Gold.Chemscore.Internal.Correction>
   9.000000E+99

> <Gold.Chemscore.Hbonds>
donor molecule, donor type, donor heavy atom, donor atom, acceptor molecule, acceptor atom, score
      P1  H  7989  7998       L1     7  0.69
      P1  H  7997  8009       L1     9  0.24
      P1  H  8022  8030       L1     3  0.21

> <Gold.Chemscore.Hbond.Weighted>
-4.5355

> <Gold.Chemscore.Metal.Weighted>
-0.0000

> <Gold.Chemscore.Lipo.Weighted>
-8.6894

> <Gold.Chemscore.Internal_Hbond.Weighted>
0.0000

> <Gold.Chemscore.DEClash.Weighted>
1.0921

> <Gold.Chemscore.DEInternal.Weighted>
0.9410

> <Gold.Chemscore.Rot.Weighted>
3.6295

> <Gold.Chemscore.Internal.Correction.Weighted>
   9.000000E+99

> <Gold.Protein.RotatedTorsions>
[ 6907 6896 6895 6894 ] final   90.27 input  -60.11 | X-H torsion
[ 7974 7965 7964 7962 ] final  -69.78 input  175.53 | X-H torsion
[ 8008 7997 7996 7995 ] final -164.76 input   59.86 | X-H torsion
[ 10167 10162 10161 10158 ] final    0.84 input  -65.29 | X-H torsion
[ 10718 10713 10712 10709 ] final   45.32 input   66.30 | X-H torsion
[ 10763 10752 10751 10750 ] final -105.79 input  -60.55 | X-H torsion
[ 11005 11000 10999 10996 ] final  172.92 input  -57.11 | X-H torsion

> <Gold.Protein.ActiveResidues>
 VAL166  LYS551  ARG553  GLY616  TRP617  ASP618  TYR619  PRO620  LYS621  CYS622 
 ASP623  PHE694  ASN695  SER759  ASP760  ASP761  ALA762  ILE779  LEU786  VAL792 
 PHE793  MET794  SER795  GLU796  ALA797  LYS798  CYS799  TRP800  GLU811  SER814 

> <Gold.Protein.RotatedAtoms>
  152.5443  134.1837  159.8645 H   0  0  0  0  0  0  0  0  0  0  0  0  # atno 6907 bound_to 6896
  151.1838  133.4702  159.2602 H   0  0  0  0  0  0  0  0  0  0  0  0  # atno 6908 bound_to 6896
  151.1152  135.0060  159.8568 H   0  0  0  0  0  0  0  0  0  0  0  0  # atno 6909 bound_to 6896
  145.6994  140.9122  143.0739 H   0  0  0  0  0  0  0  0  0  0  0  0  # atno 7974 bound_to 7965
  155.8401  140.0947  157.1739 H   0  0  0  0  0  0  0  0  0  0  0  0  # atno 8008 bound_to 7997
  154.3981  140.1402  156.3780 H   0  0  0  0  0  0  0  0  0  0  0  0  # atno 8009 bound_to 7997
  155.8073  140.3451  155.5440 H   0  0  0  0  0  0  0  0  0  0  0  0  # atno 8010 bound_to 7997
  140.6710  143.7048  150.7923 H   0  0  0  0  0  0  0  0  0  0  0  0  # atno 10167 bound_to 10162
  157.4363  130.8055  149.7651 H   0  0  0  0  0  0  0  0  0  0  0  0  # atno 10718 bound_to 10713
  154.7970  135.4736  154.0183 H   0  0  0  0  0  0  0  0  0  0  0  0  # atno 10763 bound_to 10752
  153.1719  135.6826  153.8603 H   0  0  0  0  0  0  0  0  0  0  0  0  # atno 10764 bound_to 10752
  153.8183  135.3207  155.3385 H   0  0  0  0  0  0  0  0  0  0  0  0  # atno 10765 bound_to 10752
  140.3350  134.7325  157.4161 H   0  0  0  0  0  0  0  0  0  0  0  0  # atno 11005 bound_to 11000
  144.6973  139.8927  143.7454 LP  0  0  0  0  0  0  0  0  0  0  0  0  # atno 17320 bound_to 7965
  146.0811  139.3799  143.0463 LP  0  0  0  0  0  0  0  0  0  0  0  0  # atno 17321 bound_to 7965
  140.0734  143.5039  152.2568 LP  0  0  0  0  0  0  0  0  0  0  0  0  # atno 17342 bound_to 10162
  139.5979  144.7573  151.3243 LP  0  0  0  0  0  0  0  0  0  0  0  0  # atno 17343 bound_to 10162
  155.9932  130.3926  150.2911 LP  0  0  0  0  0  0  0  0  0  0  0  0  # atno 17370 bound_to 10713
  157.1072  131.0211  151.3062 LP  0  0  0  0  0  0  0  0  0  0  0  0  # atno 17371 bound_to 10713
  140.0829  134.5706  155.8522 LP  0  0  0  0  0  0  0  0  0  0  0  0  # atno 17394 bound_to 11000
  141.2053  133.6646  156.6176 LP  0  0  0  0  0  0  0  0  0  0  0  0  # atno 17395 bound_to 11000

$$$$
