AV-unprocessed.smi:55|AV-procd|sdf|569|dock3
  -GOLD-   2262016473D 1   1.00000     0.00000
 Structure written by MMmdl.
 30 31  0  0  0  0  0  0  0  0  2 V2000
  149.2631  136.1013  158.1529 C   0  0  0  0  0  0  0  0  0  0  0  0
  150.3505  136.8433  157.3952 C   0  0  0  0  0  0  0  0  0  0  0  0
  150.5037  138.1835  157.4811 C   0  0  0  0  0  0  0  0  0  0  0  0
  151.4975  138.8623  156.7920 N   0  0  0  0  0  0  0  0  0  0  0  0
  151.6211  140.3784  156.8180 C   0  0  2  0  0  0  0  0  0  0  0  0
  150.7009  141.0843  157.8209 C   0  0  0  0  0  0  0  0  0  0  0  0
  149.5112  141.4577  156.9556 C   0  0  1  0  0  0  0  0  0  0  0  0
  148.8510  142.5949  157.4730 O   0  0  0  0  0  0  0  0  0  0  0  0
  150.1647  141.7319  155.5973 C   0  0  2  0  0  0  0  0  0  0  0  0
  149.2363  141.4474  154.4065 C   0  0  0  0  0  0  0  0  0  0  0  0
  148.3937  142.5550  154.1692 O   0  0  0  0  0  0  0  0  0  0  0  0
  151.2890  140.8541  155.5472 O   0  0  0  0  0  0  0  0  0  0  0  0
  152.3454  138.1342  155.9128 C   0  0  0  0  0  0  0  0  0  0  0  0
  153.1782  138.7603  155.2565 O   0  0  0  0  0  0  0  0  0  0  0  0
  152.2078  136.7803  155.8306 N   0  5  0  0  0  0  0  0  0  0  0  0
  151.2638  136.0899  156.5302 C   0  0  0  0  0  0  0  0  0  0  0  0
  151.1569  134.8663  156.4542 O   0  0  0  0  0  0  0  0  0  0  0  0
  152.6680  140.5764  157.0529 H   0  0  0  0  0  0  0  0  0  0  0  0
  148.8068  140.6298  156.8812 H   0  0  0  0  0  0  0  0  0  0  0  0
  150.5333  142.7594  155.5746 H   0  0  0  0  0  0  0  0  0  0  0  0
  148.6617  136.7833  158.7545 H   0  0  0  0  0  0  0  0  0  0  0  0
  149.7019  135.3598  158.8212 H   0  0  0  0  0  0  0  0  0  0  0  0
  148.5976  135.5883  157.4581 H   0  0  0  0  0  0  0  0  0  0  0  0
  149.8171  138.7193  158.1143 H   0  0  0  0  0  0  0  0  0  0  0  0
  150.4735  140.4826  158.7007 H   0  0  0  0  0  0  0  0  0  0  0  0
  151.2167  141.9846  158.1589 H   0  0  0  0  0  0  0  0  0  0  0  0
  148.7806  143.2388  156.7847 H   0  0  0  0  0  0  0  0  0  0  0  0
  149.8079  141.2032  153.5105 H   0  0  0  0  0  0  0  0  0  0  0  0
  148.5956  140.5928  154.6250 H   0  0  0  0  0  0  0  0  0  0  0  0
  148.7883  143.3209  154.5569 H   0  0  0  0  0  0  0  0  0  0  0  0
  1  2  1  0  0  0  0
  1 21  1  0  0  0  0
  1 22  1  0  0  0  0
  1 23  1  0  0  0  0
  2 16  1  0  0  0  0
  2  3  2  0  0  0  0
  3  4  1  0  0  0  0
  3 24  1  0  0  0  0
  4  5  1  0  0  0  0
  4 13  1  0  0  0  0
  5 18  1  0  0  0  0
  5 12  1  0  0  0  0
  5  6  1  0  0  0  0
  6  7  1  0  0  0  0
  6 25  1  0  0  0  0
  6 26  1  0  0  0  0
  7 19  1  0  0  0  0
  7  8  1  0  0  0  0
  7  9  1  0  0  0  0
  8 27  1  0  0  0  0
  9 20  1  0  0  0  0
  9 10  1  0  0  0  0
  9 12  1  0  0  0  0
 10 11  1  0  0  0  0
 10 28  1  0  0  0  0
 10 29  1  0  0  0  0
 11 30  1  0  0  0  0
 13 14  2  0  0  0  0
 13 15  1  0  0  0  0
 15 16  1  0  0  0  0
 16 17  2  0  0  0  0
M  CHG  1  15  -1
M  END
> <s_m_source_file>
AV-unprocessed.smi

> <i_m_source_file_index>
55

> <i_lp_mmshare_version>
43012

> <i_f3d_flags>
0

> <s_epik_input>
Tz1jMVtuSF1jKD1PKW4oW2NIXWMxW0NIM10pW0NAQEhdMltDSDJdW0NAQEhdKFtPSF0pW0NAQEhdKE8yKVtDSDJdW09IXQ==

> <s_epik_cmdline>
J2VwaWtfcHl0aG9uJywgJy1waCcsICc3LjAnLCAnLXRuJywgJzgnLCAnLW1hJywgJzIwMCcsICctbWV0YWxfYmluZGluZycsICctaW1hZScsICc8aW5maWxlLm1hZT4nLCAnLW9tYWUnLCAnPG91dGZpbGUubWFlPic=

> <r_lp_tautomer_probability>
0.999537

> <r_epik_Ionization_Penalty>
3.66603

> <r_epik_Ionization_Penalty_Charging>
1.09773e-07

> <r_epik_Ionization_Penalty_Neutral>
3.66603

> <r_epik_State_Penalty>
3.66562

> <r_epik_Charging_Adjusted_Penalty>
3.66562

> <i_epik_Tot_Q>
-1

> <i_epik_Tot_abs_Q>
1

> <r_epik_Metal_State_Penalty>
0.234536

> <b_epik_Metal_Only>
1

> <s_epik_Chemistry_Notes>
This compound contains an acetal/aminal-like group ( X-CH(R)-Y where X, Y are N, S, or O) that may be acid/base labile, releasing an aldehyde.

> <s_lp_Force_Field>
OPLS_2005

> <r_lp_Energy>
34.2807

> <b_lp_Chiralities_Consistent>
1

> <s_lp_Variant>
AV-unprocessed.smi:55-9

> <Gold.Version>
5.8.1

> <Gold.Id.Protein>
6NUR|6NUR_protein|mol2

> <Gold.PLP.Fitness>
40.2311

> <Gold.PLP.PLP>
-23.6309

> <Gold.PLP.part.hbond>
-6.4111

> <Gold.PLP.part.metal>
0.0000

> <Gold.PLP.part.buried>
-1.6952

> <Gold.PLP.part.nonpolar>
-13.9743

> <Gold.PLP.part.repulsive>
0.0590

> <Gold.PLP.ligand.clash>
0.0000

> <Gold.PLP.ligand.torsion>
0.2965

> <Gold.PLP.Chemscore.Hbond>
5.7137

> <Gold.PLP.Chemscore.CHOScore>
0.0000

> <Gold.PLP.Chemscore.Metal>
0.0000

> <Gold.Chemscore.Hbonds>
donor molecule, donor type, donor heavy atom, donor atom, acceptor molecule, acceptor atom, score
      L1  H     8    27       P1  8028  1.00
      L1  H    11    30       P1  8028  1.00
      P1  H  7989  7998       L1    12  0.61
      P1  H  7997  8008       L1    14  1.00
      P1  H 10752 10765       L1    15  2.00

> <Gold.PLP.Chemscore.Internal.Correction>
0.0520

> <Gold.Rescore>
     Score         DG    S(hbond)    S(metal)    S(lipo)     H(rot)  DE(clash)    DE(int)     intcor
     12.80     -14.50       3.58        0.00      33.57       2.69       0.08       1.61       ----

> <Gold.Chemscore.Fitness>
12.8031

> <Gold.Chemscore.DG>
-14.4966

> <Gold.Chemscore.ZeroCoef>
-5.4800

> <Gold.Chemscore.Hbond>
3.5832

> <Gold.Chemscore.Metal>
0.0000

> <Gold.Chemscore.Lipo>
33.5700

> <Gold.Chemscore.Internal_Hbond>
0.0000

> <Gold.Chemscore.DEClash>
0.0811

> <Gold.Chemscore.DEInternal>
1.6124

> <Gold.Chemscore.Rot>
2.6871

> <Gold.Chemscore.Internal.Correction>
   9.000000E+99

> <Gold.Chemscore.Hbonds>
donor molecule, donor type, donor heavy atom, donor atom, acceptor molecule, acceptor atom, score
      L1  H     8    27       P1  8028  0.78
      L1  H    11    30       P1  8028  0.99
      P1  H  7989  7998       L1    12  0.13
      P1  H  7997  8008       L1    14  0.93
      P1  H 10752 10765       L1    15  0.43

> <Gold.Chemscore.Hbond.Weighted>
-11.9680

> <Gold.Chemscore.Metal.Weighted>
-0.0000

> <Gold.Chemscore.Lipo.Weighted>
-3.9277

> <Gold.Chemscore.Internal_Hbond.Weighted>
0.0000

> <Gold.Chemscore.DEClash.Weighted>
0.0811

> <Gold.Chemscore.DEInternal.Weighted>
1.6124

> <Gold.Chemscore.Rot.Weighted>
6.8791

> <Gold.Chemscore.Internal.Correction.Weighted>
   9.000000E+99

> <Gold.Protein.RotatedTorsions>
[ 6907 6896 6895 6894 ] final -141.42 input  -60.11 | X-H torsion
[ 7974 7965 7964 7962 ] final -131.92 input  175.53 | X-H torsion
[ 8008 7997 7996 7995 ] final  -24.01 input   59.86 | X-H torsion
[ 10167 10162 10161 10158 ] final  106.19 input  -65.29 | X-H torsion
[ 10718 10713 10712 10709 ] final -103.50 input   66.30 | X-H torsion
[ 10763 10752 10751 10750 ] final -160.34 input  -60.55 | X-H torsion
[ 11005 11000 10999 10996 ] final   45.88 input  -57.11 | X-H torsion

> <Gold.Protein.ActiveResidues>
 VAL166  LYS551  ARG553  GLY616  TRP617  ASP618  TYR619  PRO620  LYS621  CYS622 
 ASP623  PHE694  ASN695  SER759  ASP760  ASP761  ALA762  ILE779  LEU786  VAL792 
 PHE793  MET794  SER795  GLU796  ALA797  LYS798  CYS799  TRP800  GLU811  SER814 

> <Gold.Protein.RotatedAtoms>
  151.0736  133.5446  159.2625 H   0  0  0  0  0  0  0  0  0  0  0  0  # atno 6907 bound_to 6896
  151.2377  135.0577  159.9022 H   0  0  0  0  0  0  0  0  0  0  0  0  # atno 6908 bound_to 6896
  152.5415  134.0515  159.8166 H   0  0  0  0  0  0  0  0  0  0  0  0  # atno 6909 bound_to 6896
  144.9334  140.7155  143.4892 H   0  0  0  0  0  0  0  0  0  0  0  0  # atno 7974 bound_to 7965
  154.4553  140.1965  156.0398 H   0  0  0  0  0  0  0  0  0  0  0  0  # atno 8008 bound_to 7997
  156.0733  140.3281  155.7575 H   0  0  0  0  0  0  0  0  0  0  0  0  # atno 8009 bound_to 7997
  155.5229  140.0571  157.2894 H   0  0  0  0  0  0  0  0  0  0  0  0  # atno 8010 bound_to 7997
  139.7029  144.7091  151.1154 H   0  0  0  0  0  0  0  0  0  0  0  0  # atno 10167 bound_to 10162
  156.0268  130.5470  150.7261 H   0  0  0  0  0  0  0  0  0  0  0  0  # atno 10718 bound_to 10713
  154.7399  135.3066  154.8747 H   0  0  0  0  0  0  0  0  0  0  0  0  # atno 10763 bound_to 10752
  153.9564  135.6758  153.4749 H   0  0  0  0  0  0  0  0  0  0  0  0  # atno 10764 bound_to 10752
  153.0998  135.4917  154.8771 H   0  0  0  0  0  0  0  0  0  0  0  0  # atno 10765 bound_to 10752
  140.1419  134.4572  155.8443 H   0  0  0  0  0  0  0  0  0  0  0  0  # atno 11005 bound_to 11000
  145.3106  139.1820  143.4641 LP  0  0  0  0  0  0  0  0  0  0  0  0  # atno 17320 bound_to 7965
  146.3256  140.3110  142.8627 LP  0  0  0  0  0  0  0  0  0  0  0  0  # atno 17321 bound_to 7965
  140.7714  143.5398  150.9326 LP  0  0  0  0  0  0  0  0  0  0  0  0  # atno 17342 bound_to 10162
  139.9080  143.6754  152.3120 LP  0  0  0  0  0  0  0  0  0  0  0  0  # atno 17343 bound_to 10162
  157.4865  131.0907  151.0476 LP  0  0  0  0  0  0  0  0  0  0  0  0  # atno 17370 bound_to 10713
  157.0895  130.5936  149.5437 LP  0  0  0  0  0  0  0  0  0  0  0  0  # atno 17371 bound_to 10713
  141.2187  133.6837  156.7263 LP  0  0  0  0  0  0  0  0  0  0  0  0  # atno 17394 bound_to 11000
  140.2711  134.8391  157.3848 LP  0  0  0  0  0  0  0  0  0  0  0  0  # atno 17395 bound_to 11000

$$$$
