AV-unprocessed.smi:1976|AV-procd|sdf|7987|dock6
  -GOLD-   2272010163D 1   1.00000     0.00000
 Structure written by MMmdl.
 45 47  0  0  0  0  0  0  0  0  2 V2000
  150.3948  141.5206  158.0294 O   0  0  0  0  0  0  0  0  0  0  0  0
  150.7384  142.4724  157.3272 C   0  0  0  0  0  0  0  0  0  0  0  0
  151.6190  143.5956  157.8926 C   0  0  0  0  0  0  0  0  0  0  0  0
  152.0941  143.3330  159.2614 N   0  0  0  0  0  0  0  0  0  0  0  0
  152.8892  142.1865  159.4564 C   0  0  0  0  0  0  0  0  0  0  0  0
  153.3751  141.8276  160.6600 C   0  0  0  0  0  0  0  0  0  0  0  0
  154.2726  140.6117  160.8297 C   0  0  0  0  0  0  0  0  0  0  0  0
  153.6479  139.4968  160.4504 F   0  0  0  0  0  0  0  0  0  0  0  0
  155.3673  140.7491  160.0831 F   0  0  0  0  0  0  0  0  0  0  0  0
  154.6523  140.4673  162.1000 F   0  0  0  0  0  0  0  0  0  0  0  0
  153.0681  142.7096  161.7687 C   0  0  0  0  0  0  0  0  0  0  0  0
  152.3126  143.8124  161.5989 C   0  0  0  0  0  0  0  0  0  0  0  0
  151.7689  144.1747  160.2880 C   0  0  0  0  0  0  0  0  0  0  0  0
  151.0664  145.1721  160.1218 O   0  0  0  0  0  0  0  0  0  0  0  0
  150.3945  142.5912  156.0365 N   0  0  0  0  0  0  0  0  0  0  0  0
  149.5701  141.6378  155.2988 C   0  0  2  0  0  0  0  0  0  0  0  0
  148.4711  140.9847  156.1323 C   0  0  0  0  0  0  0  0  0  0  0  0
  148.1198  139.7331  155.3235 C   0  0  0  0  0  0  0  0  0  0  0  0
  149.3323  139.3660  154.5521 N   0  3  2  0  0  0  0  0  0  0  0  0
  149.8037  137.9763  154.7947 C   0  0  0  0  0  0  0  0  0  0  0  0
  151.2390  137.7871  154.2827 C   0  0  0  0  0  0  0  0  0  0  0  0
  152.2274  138.7096  155.0211 C   0  0  0  0  0  0  0  0  0  0  0  0
  151.5399  139.9505  155.6231 C   0  0  0  0  0  0  0  0  0  0  0  0
  150.3552  140.4331  154.7504 C   0  0  2  0  0  0  0  0  0  0  0  0
  152.4615  143.7397  157.2147 H   0  0  0  0  0  0  0  0  0  0  0  0
  151.0667  144.5369  157.8629 H   0  0  0  0  0  0  0  0  0  0  0  0
  153.0767  141.6114  158.5612 H   0  0  0  0  0  0  0  0  0  0  0  0
  153.4455  142.4807  162.7544 H   0  0  0  0  0  0  0  0  0  0  0  0
  152.1016  144.4447  162.4486 H   0  0  0  0  0  0  0  0  0  0  0  0
  150.7233  143.4016  155.5313 H   0  0  0  0  0  0  0  0  0  0  0  0
  149.1050  142.1527  154.4553 H   0  0  0  0  0  0  0  0  0  0  0  0
  148.8590  140.6969  157.1105 H   0  0  0  0  0  0  0  0  0  0  0  0
  147.6112  141.6366  156.2905 H   0  0  0  0  0  0  0  0  0  0  0  0
  147.7576  138.9291  155.9656 H   0  0  0  0  0  0  0  0  0  0  0  0
  147.3267  139.9605  154.6105 H   0  0  0  0  0  0  0  0  0  0  0  0
  149.7705  137.7479  155.8615 H   0  0  0  0  0  0  0  0  0  0  0  0
  149.1246  137.2798  154.3018 H   0  0  0  0  0  0  0  0  0  0  0  0
  151.5495  136.7471  154.3881 H   0  0  0  0  0  0  0  0  0  0  0  0
  151.2647  138.0052  153.2140 H   0  0  0  0  0  0  0  0  0  0  0  0
  152.7272  138.1603  155.8199 H   0  0  0  0  0  0  0  0  0  0  0  0
  153.0118  139.0158  154.3280 H   0  0  0  0  0  0  0  0  0  0  0  0
  151.1755  139.7114  156.6233 H   0  0  0  0  0  0  0  0  0  0  0  0
  152.2823  140.7387  155.7516 H   0  0  0  0  0  0  0  0  0  0  0  0
  150.7582  140.6957  153.7712 H   0  0  0  0  0  0  0  0  0  0  0  0
  149.0711  139.4142  153.5776 H   0  0  0  0  0  0  0  0  0  0  0  0
  1  2  2  0  0  0  0
  2  3  1  0  0  0  0
  2 15  1  0  0  0  0
  3  4  1  0  0  0  0
  3 25  1  0  0  0  0
  3 26  1  0  0  0  0
  4 13  1  0  0  0  0
  4  5  1  0  0  0  0
  5  6  2  0  0  0  0
  5 27  1  0  0  0  0
  6  7  1  0  0  0  0
  6 11  1  0  0  0  0
  7  8  1  0  0  0  0
  7  9  1  0  0  0  0
  7 10  1  0  0  0  0
 11 12  2  0  0  0  0
 11 28  1  0  0  0  0
 12 13  1  0  0  0  0
 12 29  1  0  0  0  0
 13 14  2  0  0  0  0
 15 16  1  0  0  0  0
 15 30  1  0  0  0  0
 16 24  1  0  0  0  0
 16 17  1  0  0  0  0
 16 31  1  0  0  0  0
 17 18  1  0  0  0  0
 17 32  1  0  0  0  0
 17 33  1  0  0  0  0
 18 19  1  0  0  0  0
 18 34  1  0  0  0  0
 18 35  1  0  0  0  0
 19 24  1  0  0  0  0
 19 20  1  0  0  0  0
 19 45  1  0  0  0  0
 20 21  1  0  0  0  0
 20 36  1  0  0  0  0
 20 37  1  0  0  0  0
 21 22  1  0  0  0  0
 21 38  1  0  0  0  0
 21 39  1  0  0  0  0
 22 23  1  0  0  0  0
 22 40  1  0  0  0  0
 22 41  1  0  0  0  0
 23 24  1  0  0  0  0
 23 42  1  0  0  0  0
 23 43  1  0  0  0  0
 24 44  1  0  0  0  0
M  CHG  1  19   1
M  END
> <s_m_source_file>
AV-unprocessed.smi

> <i_m_source_file_index>
1976

> <i_lp_mmshare_version>
43012

> <i_f3d_flags>
0

> <s_epik_input>
W0NIMl0xW0NIMl1bQ0gyXVtDSDJdW0NASF0oTjEyKVtDQEBIXShbQ0gyXVtDSDJdMilbTkhdQyg9TylbQ0gyXW4zW2NIXWMoQyhGKShGKUYpW2NIXVtjSF1jMz1P

> <s_epik_cmdline>
J2VwaWtfcHl0aG9uJywgJy1waCcsICc3LjAnLCAnLXRuJywgJzgnLCAnLW1hJywgJzIwMCcsICctbWV0YWxfYmluZGluZycsICctaW1hZScsICc8aW5maWxlLm1hZT4nLCAnLW9tYWUnLCAnPG91dGZpbGUubWFlPic=

> <r_lp_tautomer_probability>
1

> <r_epik_Ionization_Penalty>
0.00171506

> <r_epik_Ionization_Penalty_Charging>
0.00171498

> <r_epik_Ionization_Penalty_Neutral>
7.81737e-08

> <r_epik_State_Penalty>
0.00115937

> <r_epik_Charging_Adjusted_Penalty>
0.00287436

> <i_epik_Tot_Q>
1

> <i_epik_Tot_abs_Q>
1

> <r_epik_Metal_State_Penalty>
-0

> <b_epik_Metal_Only>
0

> <s_lp_Force_Field>
OPLS_2005

> <r_lp_Energy>
52.9045

> <b_lp_Chiralities_Consistent>
1

> <s_lp_Variant>
AV-unprocessed.smi:1976-5

> <Gold.Version>
5.8.1

> <Gold.Id.Protein>
6NUR|6NUR_protein|mol2

> <Gold.PLP.Fitness>
54.6814

> <Gold.PLP.PLP>
-55.3476

> <Gold.PLP.part.hbond>
-1.0000

> <Gold.PLP.part.metal>
0.0000

> <Gold.PLP.part.buried>
-2.5318

> <Gold.PLP.part.nonpolar>
-52.6579

> <Gold.PLP.part.repulsive>
0.4163

> <Gold.PLP.ligand.clash>
0.0000

> <Gold.PLP.ligand.torsion>
0.3985

> <Gold.PLP.Chemscore.Hbond>
0.0281

> <Gold.PLP.Chemscore.CHOScore>
0.0000

> <Gold.PLP.Chemscore.Metal>
0.0000

> <Gold.Chemscore.Hbonds>
donor molecule, donor type, donor heavy atom, donor atom, acceptor molecule, acceptor atom, score
      L1  H    15    30       P1  8028  0.01

> <Gold.PLP.Chemscore.Internal.Correction>
0.0465

> <Gold.Rescore>
     Score         DG    S(hbond)    S(metal)    S(lipo)     H(rot)  DE(clash)    DE(int)     intcor
     12.61     -18.36       0.88        0.00     119.61       1.58       1.81       3.94       ----

> <Gold.Chemscore.Fitness>
12.6069

> <Gold.Chemscore.DG>
-18.3622

> <Gold.Chemscore.ZeroCoef>
-5.4800

> <Gold.Chemscore.Hbond>
0.8803

> <Gold.Chemscore.Metal>
0.0000

> <Gold.Chemscore.Lipo>
119.6099

> <Gold.Chemscore.Internal_Hbond>
0.0000

> <Gold.Chemscore.DEClash>
1.8127

> <Gold.Chemscore.DEInternal>
3.9426

> <Gold.Chemscore.Rot>
1.5830

> <Gold.Chemscore.Internal.Correction>
   9.000000E+99

> <Gold.Chemscore.Hbonds>
donor molecule, donor type, donor heavy atom, donor atom, acceptor molecule, acceptor atom, score
      L1  H    15    30       P1  8028  0.03

> <Gold.Chemscore.Hbond.Weighted>
-2.9402

> <Gold.Chemscore.Metal.Weighted>
-0.0000

> <Gold.Chemscore.Lipo.Weighted>
-13.9944

> <Gold.Chemscore.Internal_Hbond.Weighted>
0.0000

> <Gold.Chemscore.DEClash.Weighted>
1.8127

> <Gold.Chemscore.DEInternal.Weighted>
3.9426

> <Gold.Chemscore.Rot.Weighted>
4.0524

> <Gold.Chemscore.Internal.Correction.Weighted>
   9.000000E+99

> <Gold.Protein.RotatedTorsions>
[ 6907 6896 6895 6894 ] final  -92.43 input  -60.11 | X-H torsion
[ 7974 7965 7964 7962 ] final  -45.69 input  175.53 | X-H torsion
[ 8008 7997 7996 7995 ] final  109.51 input   59.86 | X-H torsion
[ 10167 10162 10161 10158 ] final  123.25 input  -65.29 | X-H torsion
[ 10718 10713 10712 10709 ] final -127.98 input   66.30 | X-H torsion
[ 10763 10752 10751 10750 ] final -122.10 input  -60.55 | X-H torsion
[ 11005 11000 10999 10996 ] final  -46.89 input  -57.11 | X-H torsion

> <Gold.Protein.ActiveResidues>
 VAL166  LYS551  ARG553  GLY616  TRP617  ASP618  TYR619  PRO620  LYS621  CYS622 
 ASP623  PHE694  ASN695  SER759  ASP760  ASP761  ALA762  ILE779  LEU786  VAL792 
 PHE793  MET794  SER795  GLU796  ALA797  LYS798  CYS799  TRP800  GLU811  SER814 

> <Gold.Protein.RotatedAtoms>
  150.6906  134.2123  159.4363 H   0  0  0  0  0  0  0  0  0  0  0  0  # atno 6907 bound_to 6896
  152.0084  134.9887  160.0576 H   0  0  0  0  0  0  0  0  0  0  0  0  # atno 6908 bound_to 6896
  152.1512  133.4488  159.4851 H   0  0  0  0  0  0  0  0  0  0  0  0  # atno 6909 bound_to 6896
  145.9795  140.7299  142.9370 H   0  0  0  0  0  0  0  0  0  0  0  0  # atno 7974 bound_to 7965
  156.1984  140.3056  155.9476 H   0  0  0  0  0  0  0  0  0  0  0  0  # atno 8008 bound_to 7997
  155.3011  140.0446  157.3046 H   0  0  0  0  0  0  0  0  0  0  0  0  # atno 8009 bound_to 7997
  154.5539  140.2300  155.8449 H   0  0  0  0  0  0  0  0  0  0  0  0  # atno 8010 bound_to 7997
  139.5810  144.6986  151.3528 H   0  0  0  0  0  0  0  0  0  0  0  0  # atno 10167 bound_to 10162
  156.1908  130.6794  151.0422 H   0  0  0  0  0  0  0  0  0  0  0  0  # atno 10718 bound_to 10713
  154.8682  135.4145  154.2727 H   0  0  0  0  0  0  0  0  0  0  0  0  # atno 10763 bound_to 10752
  153.3634  135.7004  153.6700 H   0  0  0  0  0  0  0  0  0  0  0  0  # atno 10764 bound_to 10752
  153.5591  135.3613  155.2764 H   0  0  0  0  0  0  0  0  0  0  0  0  # atno 10765 bound_to 10752
  141.0607  133.6710  156.3219 H   0  0  0  0  0  0  0  0  0  0  0  0  # atno 11005 bound_to 11000
  144.6857  140.2884  143.7281 LP  0  0  0  0  0  0  0  0  0  0  0  0  # atno 17320 bound_to 7965
  145.7790  139.1884  143.2169 LP  0  0  0  0  0  0  0  0  0  0  0  0  # atno 17321 bound_to 7965
  140.7088  143.7444  150.7530 LP  0  0  0  0  0  0  0  0  0  0  0  0  # atno 17342 bound_to 10162
  140.0976  143.4818  152.2443 LP  0  0  0  0  0  0  0  0  0  0  0  0  # atno 17343 bound_to 10162
  157.6928  131.0804  150.7058 LP  0  0  0  0  0  0  0  0  0  0  0  0  # atno 17370 bound_to 10713
  156.7115  130.4653  149.5546 LP  0  0  0  0  0  0  0  0  0  0  0  0  # atno 17371 bound_to 10713
  140.5874  134.5684  157.5492 LP  0  0  0  0  0  0  0  0  0  0  0  0  # atno 17394 bound_to 11000
  139.9430  134.7753  156.0631 LP  0  0  0  0  0  0  0  0  0  0  0  0  # atno 17395 bound_to 11000

$$$$
