AV-unprocessed.smi:136|AV-procd|sdf|1171|dock1
  -GOLD-   2262018313D 1   1.00000     0.00000
 Structure written by MMmdl.
 54 58  0  0  0  0  0  0  0  0  1 V2000
  153.8893  138.1084  161.3743 O   0  0  0  0  0  0  0  0  0  0  0  0
  154.7083  138.2961  160.4725 C   0  0  0  0  0  0  0  0  0  0  0  0
  155.3199  139.6991  160.2719 C   0  0  0  0  0  0  0  0  0  0  0  0
  154.4395  140.7942  160.7361 N   0  0  0  0  0  0  0  0  0  0  0  0
  154.6032  141.2811  162.0570 C   0  0  0  0  0  0  0  0  0  0  0  0
  155.4683  140.8220  162.8042 O   0  0  0  0  0  0  0  0  0  0  0  0
  153.6811  142.3378  162.4576 C   0  0  0  0  0  0  0  0  0  0  0  0
  153.7649  142.8606  163.6928 F   0  0  0  0  0  0  0  0  0  0  0  0
  152.7408  142.7994  161.6077 C   0  0  0  0  0  0  0  0  0  0  0  0
  152.5899  142.3117  160.3218 N   0  0  0  0  0  0  0  0  0  0  0  0
  151.5243  142.8355  159.3829 C   0  0  2  0  0  0  0  0  0  0  0  0
  152.1637  143.6347  158.2327 C   0  0  0  0  0  0  0  0  0  0  0  0
  151.3614  144.9202  158.2356 C   0  0  0  0  0  0  0  0  0  0  0  0
  150.9794  145.0481  159.7026 C   0  0  0  0  0  0  0  0  0  0  0  0
  150.6726  143.7092  160.0688 O   0  0  0  0  0  0  0  0  0  0  0  0
  153.4422  141.2850  159.8606 C   0  0  0  0  0  0  0  0  0  0  0  0
  153.3142  140.8278  158.7225 O   0  0  0  0  0  0  0  0  0  0  0  0
  155.0885  137.3041  159.6366 N   0  0  0  0  0  0  0  0  0  0  0  0
  155.8938  137.5011  158.5622 N   0  0  0  0  0  0  0  0  0  0  0  0
  155.9980  136.4119  157.8947 C   0  0  0  0  0  0  0  0  0  0  0  0
  156.8087  136.2535  156.6669 C   0  0  0  0  0  0  0  0  0  0  0  0
  157.0933  134.9558  156.1844 C   0  0  0  0  0  0  0  0  0  0  0  0
  157.8590  134.8053  155.0115 C   0  0  0  0  0  0  0  0  0  0  0  0
  158.3377  135.9408  154.3274 C   0  0  0  0  0  0  0  0  0  0  0  0
  159.2731  135.7497  152.8903 Cl  0  0  0  0  0  0  0  0  0  0  0  0
  158.0530  137.2324  154.8146 C   0  0  0  0  0  0  0  0  0  0  0  0
  157.2877  137.3956  155.9858 C   0  0  0  0  0  0  0  0  0  0  0  0
  155.2258  135.2746  158.4735 C   0  0  0  0  0  0  0  0  0  0  0  0
  154.6201  135.9154  159.7243 C   0  0  1  0  0  0  0  0  0  0  0  0
  155.0367  135.2318  160.9937 C   0  0  0  0  0  0  0  0  0  0  0  0
  155.7575  134.1001  161.2568 C   0  0  0  0  0  0  0  0  0  0  0  0
  155.8184  133.9828  162.6729 C   0  0  0  0  0  0  0  0  0  0  0  0
  155.1355  135.0562  163.1697 C   0  0  0  0  0  0  0  0  0  0  0  0
  154.6569  135.8308  162.1593 O   0  0  0  0  0  0  0  0  0  0  0  0
  156.2813  139.7439  160.7865 H   0  0  0  0  0  0  0  0  0  0  0  0
  155.5747  139.8201  159.2180 H   0  0  0  0  0  0  0  0  0  0  0  0
  152.0878  143.5795  161.9674 H   0  0  0  0  0  0  0  0  0  0  0  0
  150.9550  141.9624  159.0591 H   0  0  0  0  0  0  0  0  0  0  0  0
  153.2122  143.8413  158.4541 H   0  0  0  0  0  0  0  0  0  0  0  0
  152.1008  143.0875  157.2917 H   0  0  0  0  0  0  0  0  0  0  0  0
  151.9243  145.7769  157.8644 H   0  0  0  0  0  0  0  0  0  0  0  0
  150.4653  144.8059  157.6243 H   0  0  0  0  0  0  0  0  0  0  0  0
  151.8208  145.4167  160.2908 H   0  0  0  0  0  0  0  0  0  0  0  0
  150.1299  145.7123  159.8620 H   0  0  0  0  0  0  0  0  0  0  0  0
  156.7341  134.0730  156.6934 H   0  0  0  0  0  0  0  0  0  0  0  0
  158.0772  133.8164  154.6362 H   0  0  0  0  0  0  0  0  0  0  0  0
  158.4210  138.1014  154.2889 H   0  0  0  0  0  0  0  0  0  0  0  0
  157.0836  138.3958  156.3377 H   0  0  0  0  0  0  0  0  0  0  0  0
  154.4525  134.9300  157.7860 H   0  0  0  0  0  0  0  0  0  0  0  0
  155.8814  134.4361  158.7134 H   0  0  0  0  0  0  0  0  0  0  0  0
  153.5314  135.9074  159.6464 H   0  0  0  0  0  0  0  0  0  0  0  0
  156.1842  133.4362  160.5197 H   0  0  0  0  0  0  0  0  0  0  0  0
  156.3008  133.2113  163.2547 H   0  0  0  0  0  0  0  0  0  0  0  0
  154.9062  135.4047  164.1658 H   0  0  0  0  0  0  0  0  0  0  0  0
  1  2  2  0  0  0  0
  2  3  1  0  0  0  0
  2 18  1  0  0  0  0
  3  4  1  0  0  0  0
  3 35  1  0  0  0  0
  3 36  1  0  0  0  0
  4 16  1  0  0  0  0
  4  5  1  0  0  0  0
  5  6  2  0  0  0  0
  5  7  1  0  0  0  0
  7  8  1  0  0  0  0
  7  9  2  0  0  0  0
  9 10  1  0  0  0  0
  9 37  1  0  0  0  0
 10 11  1  0  0  0  0
 10 16  1  0  0  0  0
 11 15  1  0  0  0  0
 11 12  1  0  0  0  0
 11 38  1  0  0  0  0
 12 13  1  0  0  0  0
 12 39  1  0  0  0  0
 12 40  1  0  0  0  0
 13 14  1  0  0  0  0
 13 41  1  0  0  0  0
 13 42  1  0  0  0  0
 14 15  1  0  0  0  0
 14 43  1  0  0  0  0
 14 44  1  0  0  0  0
 16 17  2  0  0  0  0
 18 29  1  0  0  0  0
 18 19  1  0  0  0  0
 19 20  2  0  0  0  0
 20 21  1  0  0  0  0
 20 28  1  0  0  0  0
 21 27  1  0  0  0  0
 21 22  2  0  0  0  0
 22 23  1  0  0  0  0
 22 45  1  0  0  0  0
 23 24  2  0  0  0  0
 23 46  1  0  0  0  0
 24 25  1  0  0  0  0
 24 26  1  0  0  0  0
 26 27  2  0  0  0  0
 26 47  1  0  0  0  0
 27 48  1  0  0  0  0
 28 29  1  0  0  0  0
 28 49  1  0  0  0  0
 28 50  1  0  0  0  0
 29 30  1  0  0  0  0
 29 51  1  0  0  0  0
 30 34  1  0  0  0  0
 30 31  2  0  0  0  0
 31 32  1  0  0  0  0
 31 52  1  0  0  0  0
 32 33  2  0  0  0  0
 32 53  1  0  0  0  0
 33 34  1  0  0  0  0
 33 54  1  0  0  0  0
M  END
> <s_m_source_file>
AV-unprocessed.smi

> <i_m_source_file_index>
136

> <i_lp_mmshare_version>
43012

> <i_f3d_flags>
0

> <s_epik_input>
bzFbY0hdW2NIXVtjSF1jMVtDQEBIXTJbQ0gyXUMoYzNbY0hdW2NIXWMoQ2wpW2NIXVtjSF0zKT1OTjJDKD1PKVtDSDJdbjRjKD1PKWMoRilbY0hdbihjND1PKVtDQEBIXTVbQ0gyXVtDSDJdW0NIMl1PNQ==

> <s_epik_cmdline>
J2VwaWtfcHl0aG9uJywgJy1waCcsICc3LjAnLCAnLXRuJywgJzgnLCAnLW1hJywgJzIwMCcsICctbWV0YWxfYmluZGluZycsICctaW1hZScsICc8aW5maWxlLm1hZT4nLCAnLW9tYWUnLCAnPG91dGZpbGUubWFlPic=

> <r_lp_tautomer_probability>
1

> <r_epik_Ionization_Penalty>
2.55467e-08

> <r_epik_Ionization_Penalty_Charging>
4.85705e-09

> <r_epik_Ionization_Penalty_Neutral>
2.06897e-08

> <r_epik_State_Penalty>
-0

> <r_epik_Charging_Adjusted_Penalty>
4.85705e-09

> <i_epik_Tot_Q>
0

> <i_epik_Tot_abs_Q>
0

> <r_epik_Metal_State_Penalty>
-0

> <b_epik_Metal_Only>
0

> <s_epik_Chemistry_Notes>
This compound has an imine and may undergo hydrolysis. This compound contains an acetal/aminal-like group ( X-CH(R)-Y where X, Y are N, S, or O) that may be acid/base labile, releasing an aldehyde.

> <s_lp_Force_Field>
OPLS_2005

> <r_lp_Energy>
40.8333

> <b_lp_Chiralities_Consistent>
1

> <s_lp_Variant>
AV-unprocessed.smi:136-1

> <Gold.Version>
5.8.1

> <Gold.Id.Protein>
6NUR|6NUR_protein|mol2

> <Gold.PLP.Fitness>
56.2889

> <Gold.PLP.PLP>
-57.2440

> <Gold.PLP.part.hbond>
-2.4626

> <Gold.PLP.part.metal>
0.0000

> <Gold.PLP.part.buried>
-2.8205

> <Gold.PLP.part.nonpolar>
-49.4101

> <Gold.PLP.part.repulsive>
0.1159

> <Gold.PLP.ligand.clash>
0.0000

> <Gold.PLP.ligand.torsion>
1.0146

> <Gold.PLP.Chemscore.Hbond>
0.3143

> <Gold.PLP.Chemscore.CHOScore>
0.0000

> <Gold.PLP.Chemscore.Metal>
0.0000

> <Gold.Chemscore.Hbonds>
donor molecule, donor type, donor heavy atom, donor atom, acceptor molecule, acceptor atom, score
      P1  H  7997  8008       L1    17  0.30

> <Gold.PLP.Chemscore.Internal.Correction>
0.1310

> <Gold.Rescore>
     Score         DG    S(hbond)    S(metal)    S(lipo)     H(rot)  DE(clash)    DE(int)     intcor
     15.35     -18.29       0.80        0.00     126.23       1.81       0.15       2.80       ----

> <Gold.Chemscore.Fitness>
15.3462

> <Gold.Chemscore.DG>
-18.2948

> <Gold.Chemscore.ZeroCoef>
-5.4800

> <Gold.Chemscore.Hbond>
0.7988

> <Gold.Chemscore.Metal>
0.0000

> <Gold.Chemscore.Lipo>
126.2335

> <Gold.Chemscore.Internal_Hbond>
0.0000

> <Gold.Chemscore.DEClash>
0.1474

> <Gold.Chemscore.DEInternal>
2.8013

> <Gold.Chemscore.Rot>
1.8056

> <Gold.Chemscore.Internal.Correction>
   9.000000E+99

> <Gold.Chemscore.Hbonds>
donor molecule, donor type, donor heavy atom, donor atom, acceptor molecule, acceptor atom, score
      P1  H  7997  8008       L1    17  0.31

> <Gold.Chemscore.Hbond.Weighted>
-2.6679

> <Gold.Chemscore.Metal.Weighted>
-0.0000

> <Gold.Chemscore.Lipo.Weighted>
-14.7693

> <Gold.Chemscore.Internal_Hbond.Weighted>
0.0000

> <Gold.Chemscore.DEClash.Weighted>
0.1474

> <Gold.Chemscore.DEInternal.Weighted>
2.8013

> <Gold.Chemscore.Rot.Weighted>
4.6223

> <Gold.Chemscore.Internal.Correction.Weighted>
   9.000000E+99

> <Gold.Protein.RotatedTorsions>
[ 6907 6896 6895 6894 ] final  127.66 input  -60.11 | X-H torsion
[ 7974 7965 7964 7962 ] final -135.97 input  175.53 | X-H torsion
[ 8008 7997 7996 7995 ] final  -93.04 input   59.86 | X-H torsion
[ 10167 10162 10161 10158 ] final  133.65 input  -65.29 | X-H torsion
[ 10718 10713 10712 10709 ] final  136.72 input   66.30 | X-H torsion
[ 10763 10752 10751 10750 ] final   -3.52 input  -60.55 | X-H torsion
[ 11005 11000 10999 10996 ] final -119.52 input  -57.11 | X-H torsion

> <Gold.Protein.ActiveResidues>
 VAL166  LYS551  ARG553  GLY616  TRP617  ASP618  TYR619  PRO620  LYS621  CYS622 
 ASP623  PHE694  ASN695  SER759  ASP760  ASP761  ALA762  ILE779  LEU786  VAL792 
 PHE793  MET794  SER795  GLU796  ALA797  LYS798  CYS799  TRP800  GLU811  SER814 

> <Gold.Protein.RotatedAtoms>
  152.3792  133.6522  159.6147 H   0  0  0  0  0  0  0  0  0  0  0  0  # atno 6907 bound_to 6896
  150.7727  133.9142  159.3387 H   0  0  0  0  0  0  0  0  0  0  0  0  # atno 6908 bound_to 6896
  151.6951  135.0941  160.0292 H   0  0  0  0  0  0  0  0  0  0  0  0  # atno 6909 bound_to 6896
  144.8967  140.6716  143.5111 H   0  0  0  0  0  0  0  0  0  0  0  0  # atno 7974 bound_to 7965
  154.7307  140.0503  157.0724 H   0  0  0  0  0  0  0  0  0  0  0  0  # atno 8008 bound_to 7997
  155.0305  140.3157  155.4741 H   0  0  0  0  0  0  0  0  0  0  0  0  # atno 8009 bound_to 7997
  156.2840  140.2150  156.5427 H   0  0  0  0  0  0  0  0  0  0  0  0  # atno 8010 bound_to 7997
  139.5288  144.6605  151.5026 H   0  0  0  0  0  0  0  0  0  0  0  0  # atno 10167 bound_to 10162
  157.4436  131.1060  151.0114 H   0  0  0  0  0  0  0  0  0  0  0  0  # atno 10718 bound_to 10713
  153.3724  135.6995  153.6627 H   0  0  0  0  0  0  0  0  0  0  0  0  # atno 10763 bound_to 10752
  153.5272  135.3600  155.2659 H   0  0  0  0  0  0  0  0  0  0  0  0  # atno 10764 bound_to 10752
  154.8683  135.4172  154.3005 H   0  0  0  0  0  0  0  0  0  0  0  0  # atno 10765 bound_to 10752
  141.0209  134.0125  157.3283 H   0  0  0  0  0  0  0  0  0  0  0  0  # atno 11005 bound_to 11000
  145.3688  139.1664  143.4343 LP  0  0  0  0  0  0  0  0  0  0  0  0  # atno 17320 bound_to 7965
  146.3085  140.3757  142.8679 LP  0  0  0  0  0  0  0  0  0  0  0  0  # atno 17321 bound_to 7965
  140.6452  143.8809  150.6730 LP  0  0  0  0  0  0  0  0  0  0  0  0  # atno 17342 bound_to 10162
  140.2157  143.3849  152.1683 LP  0  0  0  0  0  0  0  0  0  0  0  0  # atno 17343 bound_to 10162
  157.0969  130.5965  149.5451 LP  0  0  0  0  0  0  0  0  0  0  0  0  # atno 17370 bound_to 10713
  155.9958  130.5026  150.7474 LP  0  0  0  0  0  0  0  0  0  0  0  0  # atno 17371 bound_to 10713
  139.9145  135.0195  156.7828 LP  0  0  0  0  0  0  0  0  0  0  0  0  # atno 17394 bound_to 11000
  140.6574  133.9676  155.7787 LP  0  0  0  0  0  0  0  0  0  0  0  0  # atno 17395 bound_to 11000

$$$$
