AV-unprocessed.smi:460|AV-procd|sdf|2628|dock3
  -GOLD-   2262023 33D 1   1.00000     0.00000
 Structure written by MMmdl.
 47 49  0  0  0  0  0  0  0  0  2 V2000
  144.9295  137.0798  152.1443 C   0  0  0  0  0  0  0  0  0  0  0  0
  145.8770  137.7996  153.1171 C   0  0  0  0  0  0  0  0  0  0  0  0
  146.7152  138.9252  152.4744 C   0  0  2  0  0  0  0  0  0  0  0  0
  147.1280  138.4992  151.1939 O   0  0  0  0  0  0  0  0  0  0  0  0
  147.8863  139.3336  153.3182 C   0  0  0  0  0  0  0  0  0  0  0  0
  148.9655  138.5532  153.6146 N   0  3  0  0  0  0  0  0  0  0  0  0
  149.8589  139.2609  154.4174 C   0  0  0  0  0  0  0  0  0  0  0  0
  151.0744  138.8828  154.9788 C   0  0  0  0  0  0  0  0  0  0  0  0
  151.7409  139.8525  155.7562 C   0  0  0  0  0  0  0  0  0  0  0  0
  151.1959  141.1383  155.9505 C   0  0  0  0  0  0  0  0  0  0  0  0
  149.9633  141.5101  155.3741 C   0  0  0  0  0  0  0  0  0  0  0  0
  149.3115  140.5461  154.6044 C   0  0  0  0  0  0  0  0  0  0  0  0
  148.1076  140.5550  153.8891 N   0  0  0  0  0  0  0  0  0  0  0  0
  147.3099  141.7911  153.8554 C   0  0  0  0  0  0  0  0  0  0  0  0
  145.9255  141.6179  154.4949 C   0  0  0  0  0  0  0  0  0  0  0  0
  145.8052  142.5348  155.5725 O   0  0  0  0  0  0  0  0  0  0  0  0
  145.1350  143.7194  155.3575 C   0  0  0  0  0  0  0  0  0  0  0  0
  144.7831  144.1958  154.0701 C   0  0  0  0  0  0  0  0  0  0  0  0
  144.1084  145.4213  153.9235 C   0  0  0  0  0  0  0  0  0  0  0  0
  143.7806  146.1826  155.0582 C   0  0  0  0  0  0  0  0  0  0  0  0
  144.1247  145.7179  156.3408 C   0  0  0  0  0  0  0  0  0  0  0  0
  144.8026  144.4828  156.5005 C   0  0  0  0  0  0  0  0  0  0  0  0
  145.1569  143.9577  157.7261 O   0  0  0  0  0  0  0  0  0  0  0  0
  144.8567  144.7066  158.8940 C   0  0  0  0  0  0  0  0  0  0  0  0
  144.4411  136.2378  152.6352 H   0  0  0  0  0  0  0  0  0  0  0  0
  145.4646  136.6910  151.2798 H   0  0  0  0  0  0  0  0  0  0  0  0
  144.1459  137.7417  151.7767 H   0  0  0  0  0  0  0  0  0  0  0  0
  145.2907  138.1997  153.9455 H   0  0  0  0  0  0  0  0  0  0  0  0
  146.5516  137.0626  153.5549 H   0  0  0  0  0  0  0  0  0  0  0  0
  146.0690  139.7894  152.3275 H   0  0  0  0  0  0  0  0  0  0  0  0
  147.5161  137.6413  151.2749 H   0  0  0  0  0  0  0  0  0  0  0  0
  151.4923  137.8977  154.8319 H   0  0  0  0  0  0  0  0  0  0  0  0
  152.6879  139.6050  156.2133 H   0  0  0  0  0  0  0  0  0  0  0  0
  151.7342  141.8548  156.5539 H   0  0  0  0  0  0  0  0  0  0  0  0
  149.5558  142.4973  155.5326 H   0  0  0  0  0  0  0  0  0  0  0  0
  147.8673  142.5855  154.3515 H   0  0  0  0  0  0  0  0  0  0  0  0
  147.2105  142.0998  152.8143 H   0  0  0  0  0  0  0  0  0  0  0  0
  145.1445  141.7878  153.7524 H   0  0  0  0  0  0  0  0  0  0  0  0
  145.8253  140.5960  154.8638 H   0  0  0  0  0  0  0  0  0  0  0  0
  145.0264  143.6404  153.1774 H   0  0  0  0  0  0  0  0  0  0  0  0
  143.8445  145.7783  152.9389 H   0  0  0  0  0  0  0  0  0  0  0  0
  143.2633  147.1240  154.9453 H   0  0  0  0  0  0  0  0  0  0  0  0
  143.8528  146.3273  157.1891 H   0  0  0  0  0  0  0  0  0  0  0  0
  145.2308  144.1722  159.7669 H   0  0  0  0  0  0  0  0  0  0  0  0
  143.7808  144.8339  159.0209 H   0  0  0  0  0  0  0  0  0  0  0  0
  145.3385  145.6851  158.8757 H   0  0  0  0  0  0  0  0  0  0  0  0
  149.0720  137.5993  153.2947 H   0  0  0  0  0  0  0  0  0  0  0  0
  1  2  1  0  0  0  0
  1 25  1  0  0  0  0
  1 26  1  0  0  0  0
  1 27  1  0  0  0  0
  2  3  1  0  0  0  0
  2 28  1  0  0  0  0
  2 29  1  0  0  0  0
  3  4  1  0  0  0  0
  3  5  1  0  0  0  0
  3 30  1  0  0  0  0
  4 31  1  0  0  0  0
  5 13  1  0  0  0  0
  5  6  2  0  0  0  0
  6  7  1  0  0  0  0
  6 47  1  0  0  0  0
  7 12  2  0  0  0  0
  7  8  1  0  0  0  0
  8  9  2  0  0  0  0
  8 32  1  0  0  0  0
  9 10  1  0  0  0  0
  9 33  1  0  0  0  0
 10 11  2  0  0  0  0
 10 34  1  0  0  0  0
 11 12  1  0  0  0  0
 11 35  1  0  0  0  0
 12 13  1  0  0  0  0
 13 14  1  0  0  0  0
 14 15  1  0  0  0  0
 14 36  1  0  0  0  0
 14 37  1  0  0  0  0
 15 16  1  0  0  0  0
 15 38  1  0  0  0  0
 15 39  1  0  0  0  0
 16 17  1  0  0  0  0
 17 22  1  0  0  0  0
 17 18  2  0  0  0  0
 18 19  1  0  0  0  0
 18 40  1  0  0  0  0
 19 20  2  0  0  0  0
 19 41  1  0  0  0  0
 20 21  1  0  0  0  0
 20 42  1  0  0  0  0
 21 22  2  0  0  0  0
 21 43  1  0  0  0  0
 22 23  1  0  0  0  0
 23 24  1  0  0  0  0
 24 44  1  0  0  0  0
 24 45  1  0  0  0  0
 24 46  1  0  0  0  0
M  CHG  1   6   1
M  END
> <s_m_source_file>
AV-unprocessed.smi

> <i_m_source_file_index>
460

> <i_lp_mmshare_version>
43012

> <i_f3d_flags>
0

> <s_epik_input>
W2NIXTFbY0hdW2NIXVtjSF1jKGMxMiluKGMobjIpW0NAQEhdKFtPSF0pW0NIMl1bQ0gzXSlbQ0gyXVtDSDJdT2MzW2NIXVtjSF1bY0hdW2NIXWMzT1tDSDNd

> <s_epik_cmdline>
J2VwaWtfcHl0aG9uJywgJy1waCcsICc3LjAnLCAnLXRuJywgJzgnLCAnLW1hJywgJzIwMCcsICctbWV0YWxfYmluZGluZycsICctaW1hZScsICc8aW5maWxlLm1hZT4nLCAnLW9tYWUnLCAnPG91dGZpbGUubWFlPic=

> <r_lp_tautomer_probability>
1

> <r_epik_Ionization_Penalty>
1.48085

> <r_epik_Ionization_Penalty_Charging>
1.48083

> <r_epik_Ionization_Penalty_Neutral>
1.80167e-05

> <r_epik_State_Penalty>
1.56944

> <r_epik_Charging_Adjusted_Penalty>
3.05027

> <i_epik_Tot_Q>
1

> <i_epik_Tot_abs_Q>
1

> <r_epik_Metal_State_Penalty>
5.61877

> <b_epik_Metal_Only>
0

> <s_lp_Force_Field>
OPLS_2005

> <r_lp_Energy>
23.3046

> <b_lp_Chiralities_Consistent>
1

> <s_lp_Variant>
AV-unprocessed.smi:460-3

> <Gold.Version>
5.8.1

> <Gold.Id.Protein>
6NUR|6NUR_protein|mol2

> <Gold.PLP.Fitness>
54.9842

> <Gold.PLP.PLP>
-47.9213

> <Gold.PLP.part.hbond>
-5.0000

> <Gold.PLP.part.metal>
0.0000

> <Gold.PLP.part.buried>
-1.1406

> <Gold.PLP.part.nonpolar>
-41.9054

> <Gold.PLP.part.repulsive>
0.3369

> <Gold.PLP.ligand.clash>
0.0000

> <Gold.PLP.ligand.torsion>
0.9829

> <Gold.PLP.Chemscore.Hbond>
2.9840

> <Gold.PLP.Chemscore.CHOScore>
0.0000

> <Gold.PLP.Chemscore.Metal>
0.0000

> <Gold.Chemscore.Hbonds>
donor molecule, donor type, donor heavy atom, donor atom, acceptor molecule, acceptor atom, score
      L1  H     4    31       P1  7948  0.94
      L1  H     6    47       P1  7948  2.00

> <Gold.PLP.Chemscore.Internal.Correction>
0.0767

> <Gold.Rescore>
     Score         DG    S(hbond)    S(metal)    S(lipo)     H(rot)  DE(clash)    DE(int)     intcor
     16.04     -18.15       1.85        0.00     108.94       2.45       0.92       1.18       ----

> <Gold.Chemscore.Fitness>
16.0436

> <Gold.Chemscore.DG>
-18.1450

> <Gold.Chemscore.ZeroCoef>
-5.4800

> <Gold.Chemscore.Hbond>
1.8497

> <Gold.Chemscore.Metal>
0.0000

> <Gold.Chemscore.Lipo>
108.9412

> <Gold.Chemscore.Internal_Hbond>
0.0000

> <Gold.Chemscore.DEClash>
0.9212

> <Gold.Chemscore.DEInternal>
1.1802

> <Gold.Chemscore.Rot>
2.4450

> <Gold.Chemscore.Internal.Correction>
   9.000000E+99

> <Gold.Chemscore.Hbonds>
donor molecule, donor type, donor heavy atom, donor atom, acceptor molecule, acceptor atom, score
      L1  H     4    31       P1  7948  0.89
      L1  H     6    47       P1  7948  0.93

> <Gold.Chemscore.Hbond.Weighted>
-6.1782

> <Gold.Chemscore.Metal.Weighted>
-0.0000

> <Gold.Chemscore.Lipo.Weighted>
-12.7461

> <Gold.Chemscore.Internal_Hbond.Weighted>
0.0000

> <Gold.Chemscore.DEClash.Weighted>
0.9212

> <Gold.Chemscore.DEInternal.Weighted>
1.1802

> <Gold.Chemscore.Rot.Weighted>
6.2593

> <Gold.Chemscore.Internal.Correction.Weighted>
   9.000000E+99

> <Gold.Protein.RotatedTorsions>
[ 6907 6896 6895 6894 ] final   47.50 input  -60.11 | X-H torsion
[ 7974 7965 7964 7962 ] final   12.47 input  175.53 | X-H torsion
[ 8008 7997 7996 7995 ] final  149.92 input   59.86 | X-H torsion
[ 10167 10162 10161 10158 ] final   15.80 input  -65.29 | X-H torsion
[ 10718 10713 10712 10709 ] final  -44.84 input   66.30 | X-H torsion
[ 10763 10752 10751 10750 ] final   24.74 input  -60.55 | X-H torsion
[ 11005 11000 10999 10996 ] final  166.52 input  -57.11 | X-H torsion

> <Gold.Protein.ActiveResidues>
 VAL166  LYS551  ARG553  GLY616  TRP617  ASP618  TYR619  PRO620  LYS621  CYS622 
 ASP623  PHE694  ASN695  SER759  ASP760  ASP761  ALA762  ILE779  LEU786  VAL792 
 PHE793  MET794  SER795  GLU796  ALA797  LYS798  CYS799  TRP800  GLU811  SER814 

> <Gold.Protein.RotatedAtoms>
  152.2688  134.7955  160.0417 H   0  0  0  0  0  0  0  0  0  0  0  0  # atno 6907 bound_to 6896
  151.8575  133.3446  159.3701 H   0  0  0  0  0  0  0  0  0  0  0  0  # atno 6908 bound_to 6896
  150.7144  134.5166  159.5677 H   0  0  0  0  0  0  0  0  0  0  0  0  # atno 6909 bound_to 6896
  146.2350  139.9332  142.8493 H   0  0  0  0  0  0  0  0  0  0  0  0  # atno 7974 bound_to 7965
  156.2736  140.2089  156.5934 H   0  0  0  0  0  0  0  0  0  0  0  0  # atno 8008 bound_to 7997
  154.6964  140.0525  157.0438 H   0  0  0  0  0  0  0  0  0  0  0  0  # atno 8009 bound_to 7997
  155.0795  140.3185  155.4608 H   0  0  0  0  0  0  0  0  0  0  0  0  # atno 8010 bound_to 7997
  140.5842  143.8922  150.6816 H   0  0  0  0  0  0  0  0  0  0  0  0  # atno 10167 bound_to 10162
  156.2344  130.4175  149.8835 H   0  0  0  0  0  0  0  0  0  0  0  0  # atno 10718 bound_to 10713
  153.0742  135.6598  154.0181 H   0  0  0  0  0  0  0  0  0  0  0  0  # atno 10763 bound_to 10752
  153.9819  135.2954  155.3421 H   0  0  0  0  0  0  0  0  0  0  0  0  # atno 10764 bound_to 10752
  154.7126  135.5199  153.8759 H   0  0  0  0  0  0  0  0  0  0  0  0  # atno 10765 bound_to 10752
  140.2673  134.7855  157.3643 H   0  0  0  0  0  0  0  0  0  0  0  0  # atno 11005 bound_to 11000
  145.2024  140.9860  143.4148 LP  0  0  0  0  0  0  0  0  0  0  0  0  # atno 17320 bound_to 7965
  144.9762  139.3830  143.6284 LP  0  0  0  0  0  0  0  0  0  0  0  0  # atno 17321 bound_to 7965
  140.2429  143.3650  152.1471 LP  0  0  0  0  0  0  0  0  0  0  0  0  # atno 17342 bound_to 10162
  139.5187  144.7010  151.5493 LP  0  0  0  0  0  0  0  0  0  0  0  0  # atno 17343 bound_to 10162
  156.6438  130.8715  151.3519 LP  0  0  0  0  0  0  0  0  0  0  0  0  # atno 17370 bound_to 10713
  157.7148  130.9483  150.1215 LP  0  0  0  0  0  0  0  0  0  0  0  0  # atno 17371 bound_to 10713
  140.1407  134.4975  155.8033 LP  0  0  0  0  0  0  0  0  0  0  0  0  # atno 17394 bound_to 11000
  141.2182  133.6824  156.7205 LP  0  0  0  0  0  0  0  0  0  0  0  0  # atno 17395 bound_to 11000

$$$$
