#       Name:                AV-unprocessed.smi:1406
#       Creating user name   scv26
#       Creation time:       Fri Mar 27 05:34:27 2020


#       File generated by GOLD software.
#

@<TRIPOS>MOLECULE
AV-unprocessed.smi:1406
    45    47     1
SMALL
NO_CHARGES


@<TRIPOS>ATOM
      1 ****        -3.4702  -2.2530   2.1533 C.3            1 S1                 0.0000
      2 ****        -2.8844  -1.2117   1.1781 C.3            1 S1                 0.0000
      3 ****        -1.3977  -0.9109   1.4378 C.2            1 S1                 0.0000
      4 ****        -0.7564  -1.5541   2.2695 O.2            1 S1                 0.0000
      5 ****        -0.8562   0.0789   0.7108 N.am           1 S1                 0.0000
      6 ****         0.5472   0.4717   0.7545 C.3            1 S1                 0.0000
      7 ****         0.9103   1.3738   1.9435 C.3            1 S1                 0.0000
      8 ****         1.9316   2.3868   1.3876 C.3            1 S1                 0.0000
      9 ****         2.1733   2.0188  -0.0272 N.4            1 S1                 1.0000
     10 ****         3.4185   1.2191  -0.1929 C.3            1 S1                 0.0000
     11 ****         3.5470   0.6357  -1.6060 C.3            1 S1                 0.0000
     12 ****         2.3326  -0.2383  -1.9293 C.3            1 S1                 0.0000
     13 ****         1.0546   0.5987  -1.8097 C.3            1 S1                 0.0000
     14 ****         0.9317   1.3291  -0.4536 C.3            1 S1                 0.0000
     15 ****        -3.0916  -1.5989  -0.2129 N.pl3          1 S1                 0.0000
     16 ****        -3.5868  -0.8978  -1.2352 C.2            1 S1                 0.0000
     17 ****        -3.5853  -1.5521  -2.3878 N.2            1 S1                 0.0000
     18 ****        -3.0366  -2.7343  -1.9786 C.2            1 S1                 0.0000
     19 ****        -2.7126  -2.8116  -0.6881 N.2            1 S1                 0.0000
     20 ****        -3.3810  -1.9192   3.1878 H              1 S1                 0.0000
     21 ****        -2.9665  -3.2172   2.0714 H              1 S1                 0.0000
     22 ****        -4.5299  -2.4172   1.9556 H              1 S1                 0.0000
     23 ****        -3.4263  -0.2778   1.3354 H              1 S1                 0.0000
     24 ****        -1.4493   0.5633   0.0526 H              1 S1                 0.0000
     25 ****         1.1751  -0.4210   0.7768 H              1 S1                 0.0000
     26 ****         0.0356   1.9021   2.3257 H              1 S1                 0.0000
     27 ****         1.3246   0.7887   2.7652 H              1 S1                 0.0000
     28 ****         1.5026   3.3892   1.4128 H              1 S1                 0.0000
     29 ****         2.8506   2.4156   1.9750 H              1 S1                 0.0000
     30 ****         4.2785   1.8534   0.0250 H              1 S1                 0.0000
     31 ****         3.4395   0.4069   0.5357 H              1 S1                 0.0000
     32 ****         3.6345   1.4409  -2.3366 H              1 S1                 0.0000
     33 ****         4.4605   0.0452  -1.6826 H              1 S1                 0.0000
     34 ****         2.4198  -0.6467  -2.9365 H              1 S1                 0.0000
     35 ****         2.2917  -1.0908  -1.2503 H              1 S1                 0.0000
     36 ****         1.0541   1.3435  -2.6068 H              1 S1                 0.0000
     37 ****         0.1777  -0.0261  -1.9843 H              1 S1                 0.0000
     38 ****         0.1702   2.1037  -0.5676 H              1 S1                 0.0000
     39 ****        -3.9485   0.1152  -1.1365 H              1 S1                 0.0000
     40 ****        -2.8636  -3.5599  -2.6535 H              1 S1                 0.0000
     41 ****         2.2827   2.8584  -0.5781 H              1 S1                 0.0000
     42 ****        -1.2012  -2.2844   2.7880 LP             1 S1                 0.0000
     43 ****         0.2090  -1.3461   2.4263 LP             1 S1                 0.0000
     44 ****        -3.8957  -1.2641  -3.2937 LP             1 S1                 0.0000
     45 ****        -2.2945  -3.5735  -0.1935 LP             1 S1                 0.0000
@<TRIPOS>BOND
    1    1    2 1     
    2    1   20 1     
    3    1   21 1     
    4    1   22 1     
    5    2    3 1     
    6    2   15 1     
    7    2   23 1     
    8    3    4 2     
    9    3    5 am    
   10    5    6 1     
   11    5   24 1     
   12    6   14 1     
   13    6    7 1     
   14    6   25 1     
   15    7    8 1     
   16    7   26 1     
   17    7   27 1     
   18    8    9 1     
   19    8   28 1     
   20    8   29 1     
   21    9   14 1     
   22    9   10 1     
   23    9   41 1     
   24   10   11 1     
   25   10   30 1     
   26   10   31 1     
   27   11   12 1     
   28   11   32 1     
   29   11   33 1     
   30   12   13 1     
   31   12   34 1     
   32   12   35 1     
   33   13   14 1     
   34   13   36 1     
   35   13   37 1     
   36   14   38 1     
   37   15   19 1     
   38   15   16 1     
   39   16   17 2     
   40   16   39 1     
   41   17   18 1     
   42   18   19 2     
   43   18   40 1     
   44    4   42 1     
   45    4   43 1     
   46   17   44 1     
   47   19   45 1     
@<TRIPOS>SUBSTRUCTURE
      1 S1             1
@<TRIPOS>SET
LONE_PAIRS      STATIC     ATOMS    <user>   **** ""
4 42 43 44 45
DONOR_HYDROGENS      STATIC     ATOMS    <user>   **** ""
2 24 41
ATOM$BLUE        STATIC     ATOMS    COLORGROUP SYSTEM
4 42 43 44 45
ATOM$RED        STATIC     ATOMS    COLORGROUP SYSTEM
2 24 41
