AV-unprocessed.smi:2317|AV-procd|sdf|9273|dock4
  -GOLD-   2272012493D 1   1.00000     0.00000
 Structure written by MMmdl.
 37 38  0  0  0  0  0  0  0  0  1 V2000
  144.7120  136.9839  152.3989 O   0  0  0  0  0  0  0  0  0  0  0  0
  145.9165  136.7365  152.4507 C   0  0  0  0  0  0  0  0  0  0  0  0
  146.8209  137.5864  152.9556 N   0  0  0  0  0  0  0  0  0  0  0  0
  146.5048  138.8980  153.5093 C   0  0  0  0  0  0  0  0  0  0  0  0
  147.5871  139.3790  154.4987 C   0  0  2  0  0  0  0  0  0  0  0  0
  147.8120  140.9017  154.3850 C   0  0  0  0  0  0  0  0  0  0  0  0
  148.8438  141.4032  155.4077 C   0  0  0  0  0  0  0  0  0  0  0  0
  150.1771  140.6549  155.2667 C   0  0  0  0  0  0  0  0  0  0  0  0
  149.9760  139.1342  155.3815 C   0  0  0  0  0  0  0  0  0  0  0  0
  148.9282  138.6073  154.3814 C   0  0  2  0  0  0  0  0  0  0  0  0
  149.4525  138.6938  153.0696 O   0  0  0  0  0  0  0  0  0  0  0  0
  146.5036  135.6117  152.0069 N   0  0  0  0  0  0  0  0  0  0  0  0
  145.9118  134.4745  151.3907 C   0  0  0  0  0  0  0  0  0  0  0  0
  144.6621  134.4862  150.7243 C   0  0  0  0  0  0  0  0  0  0  0  0
  144.1822  133.2832  150.1684 C   0  0  0  0  0  0  0  0  0  0  0  0
  144.8479  132.1112  150.2419 N   0  0  0  0  0  0  0  0  0  0  0  0
  146.0324  132.1007  150.8891 C   0  0  0  0  0  0  0  0  0  0  0  0
  146.6013  133.2465  151.4804 C   0  0  0  0  0  0  0  0  0  0  0  0
  147.7932  133.1648  152.1202 F   0  0  0  0  0  0  0  0  0  0  0  0
  147.7916  137.3089  152.9586 H   0  0  0  0  0  0  0  0  0  0  0  0
  146.3840  139.6253  152.7047 H   0  0  0  0  0  0  0  0  0  0  0  0
  145.5413  138.8313  154.0164 H   0  0  0  0  0  0  0  0  0  0  0  0
  147.2009  139.1930  155.5025 H   0  0  0  0  0  0  0  0  0  0  0  0
  148.1450  141.1540  153.3774 H   0  0  0  0  0  0  0  0  0  0  0  0
  146.8695  141.4290  154.5359 H   0  0  0  0  0  0  0  0  0  0  0  0
  149.0037  142.4742  155.2797 H   0  0  0  0  0  0  0  0  0  0  0  0
  148.4541  141.2675  156.4173 H   0  0  0  0  0  0  0  0  0  0  0  0
  150.6315  140.8961  154.3048 H   0  0  0  0  0  0  0  0  0  0  0  0
  150.8767  140.9953  156.0305 H   0  0  0  0  0  0  0  0  0  0  0  0
  150.9268  138.6192  155.2396 H   0  0  0  0  0  0  0  0  0  0  0  0
  149.6515  138.8964  156.3954 H   0  0  0  0  0  0  0  0  0  0  0  0
  148.7619  137.5497  154.5883 H   0  0  0  0  0  0  0  0  0  0  0  0
  149.1220  137.9664  152.5650 H   0  0  0  0  0  0  0  0  0  0  0  0
  147.5113  135.5881  152.0643 H   0  0  0  0  0  0  0  0  0  0  0  0
  144.0608  135.3776  150.6372 H   0  0  0  0  0  0  0  0  0  0  0  0
  143.2326  133.2612  149.6545 H   0  0  0  0  0  0  0  0  0  0  0  0
  146.5422  131.1501  150.9391 H   0  0  0  0  0  0  0  0  0  0  0  0
  1  2  2  0  0  0  0
  2  3  1  0  0  0  0
  2 12  1  0  0  0  0
  3  4  1  0  0  0  0
  3 20  1  0  0  0  0
  4  5  1  0  0  0  0
  4 21  1  0  0  0  0
  4 22  1  0  0  0  0
  5 10  1  0  0  0  0
  5  6  1  0  0  0  0
  5 23  1  0  0  0  0
  6  7  1  0  0  0  0
  6 24  1  0  0  0  0
  6 25  1  0  0  0  0
  7  8  1  0  0  0  0
  7 26  1  0  0  0  0
  7 27  1  0  0  0  0
  8  9  1  0  0  0  0
  8 28  1  0  0  0  0
  8 29  1  0  0  0  0
  9 10  1  0  0  0  0
  9 30  1  0  0  0  0
  9 31  1  0  0  0  0
 10 11  1  0  0  0  0
 10 32  1  0  0  0  0
 11 33  1  0  0  0  0
 12 13  1  0  0  0  0
 12 34  1  0  0  0  0
 13 18  1  0  0  0  0
 13 14  2  0  0  0  0
 14 15  1  0  0  0  0
 14 35  1  0  0  0  0
 15 16  2  0  0  0  0
 15 36  1  0  0  0  0
 16 17  1  0  0  0  0
 17 18  2  0  0  0  0
 17 37  1  0  0  0  0
 18 19  1  0  0  0  0
M  END
> <s_m_source_file>
AV-unprocessed.smi

> <i_m_source_file_index>
2317

> <i_lp_mmshare_version>
43012

> <i_f3d_flags>
0

> <s_epik_input>
RmMxW2NIXW5bY0hdW2NIXWMxW05IXUMoPU8pW05IXVtDSDJdW0NAQEhdMltDSDJdW0NIMl1bQ0gyXVtDSDJdW0NASF0yW09IXQ==

> <s_epik_cmdline>
J2VwaWtfcHl0aG9uJywgJy1waCcsICc3LjAnLCAnLXRuJywgJzgnLCAnLW1hJywgJzIwMCcsICctbWV0YWxfYmluZGluZycsICctaW1hZScsICc8aW5maWxlLm1hZT4nLCAnLW9tYWUnLCAnPG91dGZpbGUubWFlPic=

> <r_epik_Ionization_Penalty>
0.00317647

> <r_epik_Ionization_Penalty_Charging>
0

> <r_epik_Ionization_Penalty_Neutral>
0.00317647

> <r_epik_State_Penalty>
0.0022093

> <r_epik_Charging_Adjusted_Penalty>
0.0022093

> <i_epik_Tot_Q>
0

> <i_epik_Tot_abs_Q>
0

> <r_epik_Metal_State_Penalty>
-0

> <b_epik_Metal_Only>
0

> <s_lp_Force_Field>
OPLS_2005

> <r_lp_Energy>
20.2731

> <b_lp_Chiralities_Consistent>
1

> <s_lp_Variant>
AV-unprocessed.smi:2317-3

> <Gold.Version>
5.8.1

> <Gold.Id.Protein>
6NUR|6NUR_protein|mol2

> <Gold.PLP.Fitness>
42.4481

> <Gold.PLP.PLP>
-30.6486

> <Gold.PLP.part.hbond>
-3.2955

> <Gold.PLP.part.metal>
0.0000

> <Gold.PLP.part.buried>
-2.9347

> <Gold.PLP.part.nonpolar>
-23.9800

> <Gold.PLP.part.repulsive>
0.4286

> <Gold.PLP.ligand.clash>
0.3078

> <Gold.PLP.ligand.torsion>
0.8412

> <Gold.PLP.Chemscore.Hbond>
2.7360

> <Gold.PLP.Chemscore.CHOScore>
1.8562

> <Gold.PLP.Chemscore.Metal>
0.0000

> <Gold.Chemscore.Hbonds>
donor molecule, donor type, donor heavy atom, donor atom, acceptor molecule, acceptor atom, score
      L1  H     3    20       P1  7948  0.74
      L1  H    11    33       P1  7948  1.00
      L1  H    12    34       P1  7948  1.00
      L1  C    15    36       P1 10186  1.00
      L1  C    17    37       P1 10747  0.85

> <Gold.PLP.Chemscore.Internal.Correction>
0.0131

> <Gold.Rescore>
     Score         DG    S(hbond)    S(metal)    S(lipo)     H(rot)  DE(clash)    DE(int)     intcor
     15.28     -18.58       2.77        0.00      72.01       1.79       0.12       3.17       ----

> <Gold.Chemscore.Fitness>
15.2849

> <Gold.Chemscore.DG>
-18.5752

> <Gold.Chemscore.ZeroCoef>
-5.4800

> <Gold.Chemscore.Hbond>
2.7668

> <Gold.Chemscore.Metal>
0.0000

> <Gold.Chemscore.Lipo>
72.0058

> <Gold.Chemscore.Internal_Hbond>
0.0000

> <Gold.Chemscore.DEClash>
0.1177

> <Gold.Chemscore.DEInternal>
3.1727

> <Gold.Chemscore.Rot>
1.7853

> <Gold.Chemscore.Internal.Correction>
   9.000000E+99

> <Gold.Chemscore.Hbonds>
donor molecule, donor type, donor heavy atom, donor atom, acceptor molecule, acceptor atom, score
      L1  H     3    20       P1  7948  0.74
      L1  H    11    33       P1  7948  0.96
      L1  H    12    34       P1  7948  0.93

> <Gold.Chemscore.Hbond.Weighted>
-9.2410

> <Gold.Chemscore.Metal.Weighted>
-0.0000

> <Gold.Chemscore.Lipo.Weighted>
-8.4247

> <Gold.Chemscore.Internal_Hbond.Weighted>
0.0000

> <Gold.Chemscore.DEClash.Weighted>
0.1177

> <Gold.Chemscore.DEInternal.Weighted>
3.1727

> <Gold.Chemscore.Rot.Weighted>
4.5704

> <Gold.Chemscore.Internal.Correction.Weighted>
   9.000000E+99

> <Gold.Protein.RotatedTorsions>
[ 6907 6896 6895 6894 ] final   56.96 input  -60.11 | X-H torsion
[ 7974 7965 7964 7962 ] final   60.44 input  175.53 | X-H torsion
[ 8008 7997 7996 7995 ] final -122.92 input   59.86 | X-H torsion
[ 10167 10162 10161 10158 ] final   93.12 input  -65.29 | X-H torsion
[ 10718 10713 10712 10709 ] final  -31.16 input   66.30 | X-H torsion
[ 10763 10752 10751 10750 ] final  176.97 input  -60.55 | X-H torsion
[ 11005 11000 10999 10996 ] final   88.13 input  -57.11 | X-H torsion

> <Gold.Protein.ActiveResidues>
 VAL166  LYS551  ARG553  GLY616  TRP617  ASP618  TYR619  PRO620  LYS621  CYS622 
 ASP623  PHE694  ASN695  SER759  ASP760  ASP761  ALA762  ILE779  LEU786  VAL792 
 PHE793  MET794  SER795  GLU796  ALA797  LYS798  CYS799  TRP800  GLU811  SER814 

> <Gold.Protein.RotatedAtoms>
  152.3686  134.6767  160.0183 H   0  0  0  0  0  0  0  0  0  0  0  0  # atno 6907 bound_to 6896
  151.7067  133.3306  159.3288 H   0  0  0  0  0  0  0  0  0  0  0  0  # atno 6908 bound_to 6896
  150.7657  134.6503  159.6329 H   0  0  0  0  0  0  0  0  0  0  0  0  # atno 6909 bound_to 6896
  145.8960  139.3546  143.0621 H   0  0  0  0  0  0  0  0  0  0  0  0  # atno 7974 bound_to 7965
  155.1721  140.0408  157.2865 H   0  0  0  0  0  0  0  0  0  0  0  0  # atno 8008 bound_to 7997
  154.6262  140.2513  155.7462 H   0  0  0  0  0  0  0  0  0  0  0  0  # atno 8009 bound_to 7997
  156.2460  140.2884  156.0593 H   0  0  0  0  0  0  0  0  0  0  0  0  # atno 8010 bound_to 7997
  139.8210  144.6731  150.9518 H   0  0  0  0  0  0  0  0  0  0  0  0  # atno 10167 bound_to 10162
  156.3907  130.4372  149.7397 H   0  0  0  0  0  0  0  0  0  0  0  0  # atno 10718 bound_to 10713
  154.4882  135.2778  155.1517 H   0  0  0  0  0  0  0  0  0  0  0  0  # atno 10763 bound_to 10752
  154.3200  135.6211  153.5507 H   0  0  0  0  0  0  0  0  0  0  0  0  # atno 10764 bound_to 10752
  152.9884  135.5740  154.5298 H   0  0  0  0  0  0  0  0  0  0  0  0  # atno 10765 bound_to 10752
  139.8903  134.8467  156.2956 H   0  0  0  0  0  0  0  0  0  0  0  0  # atno 11005 bound_to 11000
  145.8850  140.9339  143.0582 LP  0  0  0  0  0  0  0  0  0  0  0  0  # atno 17320 bound_to 7965
  144.6733  140.0829  143.7468 LP  0  0  0  0  0  0  0  0  0  0  0  0  # atno 17321 bound_to 7965
  140.7813  143.4091  151.1022 LP  0  0  0  0  0  0  0  0  0  0  0  0  # atno 17342 bound_to 10162
  139.7752  143.8436  152.3128 LP  0  0  0  0  0  0  0  0  0  0  0  0  # atno 17343 bound_to 10162
  156.4451  130.7880  151.2901 LP  0  0  0  0  0  0  0  0  0  0  0  0  # atno 17370 bound_to 10713
  157.7499  131.0113  150.3338 LP  0  0  0  0  0  0  0  0  0  0  0  0  # atno 17371 bound_to 10713
  140.9947  133.7187  156.0867 LP  0  0  0  0  0  0  0  0  0  0  0  0  # atno 17394 bound_to 11000
  140.7578  134.3973  157.5531 LP  0  0  0  0  0  0  0  0  0  0  0  0  # atno 17395 bound_to 11000

$$$$
