AV-unprocessed.smi:276|AV-procd|sdf|2079|dock7
  -GOLD-   2262021343D 1   1.00000     0.00000
 Structure written by MMmdl.
 57 61  0  0  0  0  0  0  0  0  1 V2000
  151.7321  145.3267  159.7879 C   0  0  0  0  0  0  0  0  0  0  0  0
  151.0747  144.2544  159.1347 O   0  0  0  0  0  0  0  0  0  0  0  0
  151.9738  143.3632  158.4930 C   0  0  1  0  0  0  0  0  0  0  0  0
  152.7520  142.5118  159.5000 C   0  0  0  0  0  0  0  0  0  0  0  0
  152.6514  141.3633  158.4885 C   0  0  1  0  0  0  0  0  0  0  0  0
  152.4902  140.0526  159.1227 N   0  0  0  0  0  0  0  0  0  0  0  0
  153.4545  139.7239  160.1648 C   0  0  0  0  0  0  0  0  0  0  0  0
  152.3325  139.0006  158.2876 C   0  0  0  0  0  0  0  0  0  0  0  0
  153.3095  138.7951  157.3691 N   0  0  0  0  0  0  0  0  0  0  0  0
  153.2229  137.7705  156.5160 C   0  0  0  0  0  0  0  0  0  0  0  0
  152.2588  136.8544  156.4065 N   0  0  0  0  0  0  0  0  0  0  0  0
  151.2640  137.0724  157.3134 C   0  0  0  0  0  0  0  0  0  0  0  0
  151.2157  138.1158  158.2803 C   0  0  0  0  0  0  0  0  0  0  0  0
  150.0380  138.0231  159.0138 N   0  0  0  0  0  0  0  0  0  0  0  0
  149.4334  136.9781  158.5187 C   0  0  0  0  0  0  0  0  0  0  0  0
  150.0998  136.3482  157.4930 N   0  0  0  0  0  0  0  0  0  0  0  0
  149.6632  135.1757  156.7566 C   0  0  0  0  0  0  0  0  0  0  0  0
  150.0818  135.2254  155.2741 C   0  0  2  0  0  0  0  0  0  0  0  0
  149.4819  136.3500  154.6589 O   0  0  0  0  0  0  0  0  0  0  0  0
  149.6665  133.9562  154.5075 C   0  0  1  0  0  0  0  0  0  0  0  0
  149.9926  132.6463  155.2249 C   0  0  0  0  0  0  0  0  0  0  0  0
  149.0064  131.6601  154.6213 C   0  0  0  0  0  0  0  0  0  0  0  0
  147.9171  132.5496  154.0149 C   0  0  0  0  0  0  0  0  0  0  0  0
  148.2534  133.8765  154.3987 O   0  0  0  0  0  0  0  0  0  0  0  0
  151.3614  142.0482  157.9629 C   0  0  0  0  0  0  0  0  0  0  0  0
  150.9261  141.9201  156.4966 C   0  0  0  0  0  0  0  0  0  0  0  0
  149.6989  141.1238  156.9525 C   0  0  0  0  0  0  0  0  0  0  0  0
  149.9442  141.6096  158.3851 C   0  0  0  0  0  0  0  0  0  0  0  0
  150.9946  145.9647  160.2745 H   0  0  0  0  0  0  0  0  0  0  0  0
  152.2918  145.9419  159.0834 H   0  0  0  0  0  0  0  0  0  0  0  0
  152.4173  144.9607  160.5535 H   0  0  0  0  0  0  0  0  0  0  0  0
  152.6417  143.8476  157.7769 H   0  0  0  0  0  0  0  0  0  0  0  0
  153.7666  142.8556  159.7019 H   0  0  0  0  0  0  0  0  0  0  0  0
  152.1952  142.3301  160.4215 H   0  0  0  0  0  0  0  0  0  0  0  0
  153.4687  141.4153  157.7678 H   0  0  0  0  0  0  0  0  0  0  0  0
  154.4640  139.6748  159.7546 H   0  0  0  0  0  0  0  0  0  0  0  0
  153.2240  138.7633  160.6282 H   0  0  0  0  0  0  0  0  0  0  0  0
  153.4438  140.4784  160.9514 H   0  0  0  0  0  0  0  0  0  0  0  0
  154.0445  137.6694  155.8222 H   0  0  0  0  0  0  0  0  0  0  0  0
  148.4754  136.6400  158.8861 H   0  0  0  0  0  0  0  0  0  0  0  0
  150.0892  134.2964  157.2411 H   0  0  0  0  0  0  0  0  0  0  0  0
  148.5797  135.0872  156.8473 H   0  0  0  0  0  0  0  0  0  0  0  0
  151.1641  135.3453  155.2097 H   0  0  0  0  0  0  0  0  0  0  0  0
  149.2090  136.1056  153.7878 H   0  0  0  0  0  0  0  0  0  0  0  0
  150.0995  133.9518  153.5051 H   0  0  0  0  0  0  0  0  0  0  0  0
  151.0311  132.3398  155.0961 H   0  0  0  0  0  0  0  0  0  0  0  0
  149.8008  132.7449  156.2944 H   0  0  0  0  0  0  0  0  0  0  0  0
  149.4793  131.0564  153.8458 H   0  0  0  0  0  0  0  0  0  0  0  0
  148.6088  130.9840  155.3789 H   0  0  0  0  0  0  0  0  0  0  0  0
  147.9229  132.4758  152.9266 H   0  0  0  0  0  0  0  0  0  0  0  0
  146.9198  132.2866  154.3680 H   0  0  0  0  0  0  0  0  0  0  0  0
  150.6622  142.8777  156.0468 H   0  0  0  0  0  0  0  0  0  0  0  0
  151.6145  141.3607  155.8638 H   0  0  0  0  0  0  0  0  0  0  0  0
  148.7575  141.4630  156.5195 H   0  0  0  0  0  0  0  0  0  0  0  0
  149.8258  140.0472  156.8379 H   0  0  0  0  0  0  0  0  0  0  0  0
  149.8979  140.8280  159.1426 H   0  0  0  0  0  0  0  0  0  0  0  0
  149.2928  142.4429  158.6490 H   0  0  0  0  0  0  0  0  0  0  0  0
  1  2  1  0  0  0  0
  1 29  1  0  0  0  0
  1 30  1  0  0  0  0
  1 31  1  0  0  0  0
  2  3  1  0  0  0  0
  3 25  1  0  0  0  0
  3  4  1  0  0  0  0
  3 32  1  0  0  0  0
  4  5  1  0  0  0  0
  4 33  1  0  0  0  0
  4 34  1  0  0  0  0
  5  6  1  0  0  0  0
  5 25  1  0  0  0  0
  5 35  1  0  0  0  0
  6  7  1  0  0  0  0
  6  8  1  0  0  0  0
  7 36  1  0  0  0  0
  7 37  1  0  0  0  0
  7 38  1  0  0  0  0
  8 13  1  0  0  0  0
  8  9  2  0  0  0  0
  9 10  1  0  0  0  0
 10 11  2  0  0  0  0
 10 39  1  0  0  0  0
 11 12  1  0  0  0  0
 12 16  1  0  0  0  0
 12 13  2  0  0  0  0
 13 14  1  0  0  0  0
 14 15  2  0  0  0  0
 15 16  1  0  0  0  0
 15 40  1  0  0  0  0
 16 17  1  0  0  0  0
 17 18  1  0  0  0  0
 17 41  1  0  0  0  0
 17 42  1  0  0  0  0
 18 19  1  0  0  0  0
 18 20  1  0  0  0  0
 18 43  1  0  0  0  0
 19 44  1  0  0  0  0
 20 24  1  0  0  0  0
 20 21  1  0  0  0  0
 20 45  1  0  0  0  0
 21 22  1  0  0  0  0
 21 46  1  0  0  0  0
 21 47  1  0  0  0  0
 22 23  1  0  0  0  0
 22 48  1  0  0  0  0
 22 49  1  0  0  0  0
 23 24  1  0  0  0  0
 23 50  1  0  0  0  0
 23 51  1  0  0  0  0
 25 28  1  0  0  0  0
 25 26  1  0  0  0  0
 26 27  1  0  0  0  0
 26 52  1  0  0  0  0
 26 53  1  0  0  0  0
 27 28  1  0  0  0  0
 27 54  1  0  0  0  0
 27 55  1  0  0  0  0
 28 56  1  0  0  0  0
 28 57  1  0  0  0  0
M  END
> <s_m_source_file>
AV-unprocessed.smi

> <i_m_source_file_index>
276

> <i_lp_mmshare_version>
43012

> <i_f3d_flags>
0

> <s_epik_input>
W0NIMl0xW0NIMl1bQ0gyXUMxMltDQEhdKE9bQ0gzXSlbQ0gyXVtDQEhdMk4oW0NIM10pYyhuW2NIXW4zKWMoYzM0KW5bY0hdbjRbQ0gyXVtDQEhdKFtPSF0pW0NAQEhdNVtDSDJdW0NIMl1bQ0gyXU81

> <s_epik_cmdline>
J2VwaWtfcHl0aG9uJywgJy1waCcsICc3LjAnLCAnLXRuJywgJzgnLCAnLW1hJywgJzIwMCcsICctbWV0YWxfYmluZGluZycsICctaW1hZScsICc8aW5maWxlLm1hZT4nLCAnLW9tYWUnLCAnPG91dGZpbGUubWFlPic=

> <r_lp_tautomer_probability>
1

> <r_epik_Ionization_Penalty>
0.00204117

> <r_epik_Ionization_Penalty_Charging>
0

> <r_epik_Ionization_Penalty_Neutral>
0.00204117

> <r_epik_State_Penalty>
0.00127401

> <r_epik_Charging_Adjusted_Penalty>
0.00127401

> <i_epik_Tot_Q>
0

> <i_epik_Tot_abs_Q>
0

> <r_epik_Metal_State_Penalty>
-0

> <b_epik_Metal_Only>
0

> <s_lp_Force_Field>
OPLS_2005

> <r_lp_Energy>
54.7762

> <b_lp_Chiralities_Consistent>
1

> <s_lp_Variant>
AV-unprocessed.smi:276-10

> <Gold.Version>
5.8.1

> <Gold.Id.Protein>
6NUR|6NUR_protein|mol2

> <Gold.PLP.Fitness>
51.5484

> <Gold.PLP.PLP>
-43.9389

> <Gold.PLP.part.hbond>
-3.0000

> <Gold.PLP.part.metal>
0.0000

> <Gold.PLP.part.buried>
-8.3645

> <Gold.PLP.part.nonpolar>
-32.5364

> <Gold.PLP.part.repulsive>
0.2329

> <Gold.PLP.ligand.clash>
0.0000

> <Gold.PLP.ligand.torsion>
1.0392

> <Gold.PLP.Chemscore.Hbond>
2.9913

> <Gold.PLP.Chemscore.CHOScore>
0.0000

> <Gold.PLP.Chemscore.Metal>
0.0000

> <Gold.Chemscore.Hbonds>
donor molecule, donor type, donor heavy atom, donor atom, acceptor molecule, acceptor atom, score
      L1  H    19    44       P1  7948  1.00
      P1  H  7997  8008       L1     9  1.00
      P1  H 10752 10764       L1    11  0.78

> <Gold.PLP.Chemscore.Internal.Correction>
0.7142

> <Gold.Rescore>
     Score         DG    S(hbond)    S(metal)    S(lipo)     H(rot)  DE(clash)    DE(int)     intcor
     17.14     -19.43       2.39        0.00     110.50       2.72       0.12       2.17       ----

> <Gold.Chemscore.Fitness>
17.1421

> <Gold.Chemscore.DG>
-19.4321

> <Gold.Chemscore.ZeroCoef>
-5.4800

> <Gold.Chemscore.Hbond>
2.3892

> <Gold.Chemscore.Metal>
0.0000

> <Gold.Chemscore.Lipo>
110.4964

> <Gold.Chemscore.Internal_Hbond>
0.0000

> <Gold.Chemscore.DEClash>
0.1220

> <Gold.Chemscore.DEInternal>
2.1681

> <Gold.Chemscore.Rot>
2.7172

> <Gold.Chemscore.Internal.Correction>
   9.000000E+99

> <Gold.Chemscore.Hbonds>
donor molecule, donor type, donor heavy atom, donor atom, acceptor molecule, acceptor atom, score
      L1  H    19    44       P1  7948  0.87
      P1  H  7997  8008       L1     9  0.82
      P1  H 10752 10764       L1    11  0.22

> <Gold.Chemscore.Hbond.Weighted>
-7.9800

> <Gold.Chemscore.Metal.Weighted>
-0.0000

> <Gold.Chemscore.Lipo.Weighted>
-12.9281

> <Gold.Chemscore.Internal_Hbond.Weighted>
0.0000

> <Gold.Chemscore.DEClash.Weighted>
0.1220

> <Gold.Chemscore.DEInternal.Weighted>
2.1681

> <Gold.Chemscore.Rot.Weighted>
6.9560

> <Gold.Chemscore.Internal.Correction.Weighted>
   9.000000E+99

> <Gold.Protein.RotatedTorsions>
[ 6907 6896 6895 6894 ] final -120.41 input  -60.11 | X-H torsion
[ 7974 7965 7964 7962 ] final -167.19 input  175.53 | X-H torsion
[ 8008 7997 7996 7995 ] final  -69.88 input   59.86 | X-H torsion
[ 10167 10162 10161 10158 ] final  -84.99 input  -65.29 | X-H torsion
[ 10718 10713 10712 10709 ] final -161.19 input   66.30 | X-H torsion
[ 10763 10752 10751 10750 ] final  -31.63 input  -60.55 | X-H torsion
[ 11005 11000 10999 10996 ] final  -50.96 input  -57.11 | X-H torsion

> <Gold.Protein.ActiveResidues>
 VAL166  LYS551  ARG553  GLY616  TRP617  ASP618  TYR619  PRO620  LYS621  CYS622 
 ASP623  PHE694  ASN695  SER759  ASP760  ASP761  ALA762  ILE779  LEU786  VAL792 
 PHE793  MET794  SER795  GLU796  ALA797  LYS798  CYS799  TRP800  GLU811  SER814 

> <Gold.Protein.RotatedAtoms>
  150.8391  133.7966  159.3067 H   0  0  0  0  0  0  0  0  0  0  0  0  # atno 6907 bound_to 6896
  151.5673  135.1062  159.9996 H   0  0  0  0  0  0  0  0  0  0  0  0  # atno 6908 bound_to 6896
  152.4458  133.7491  159.6740 H   0  0  0  0  0  0  0  0  0  0  0  0  # atno 6909 bound_to 6896
  144.7228  140.2555  143.6272 H   0  0  0  0  0  0  0  0  0  0  0  0  # atno 7974 bound_to 7965
  154.4971  140.0845  156.7719 H   0  0  0  0  0  0  0  0  0  0  0  0  # atno 8008 bound_to 7997
  155.4091  140.3440  155.4244 H   0  0  0  0  0  0  0  0  0  0  0  0  # atno 8009 bound_to 7997
  156.1408  140.1528  156.8912 H   0  0  0  0  0  0  0  0  0  0  0  0  # atno 8010 bound_to 7997
  140.4080  143.2634  151.9055 H   0  0  0  0  0  0  0  0  0  0  0  0  # atno 10167 bound_to 10162
  156.5928  130.8777  151.2894 H   0  0  0  0  0  0  0  0  0  0  0  0  # atno 10718 bound_to 10713
  153.8005  135.6890  153.4856 H   0  0  0  0  0  0  0  0  0  0  0  0  # atno 10763 bound_to 10752
  153.1692  135.4549  154.9877 H   0  0  0  0  0  0  0  0  0  0  0  0  # atno 10764 bound_to 10752
  154.8008  135.3337  154.7494 H   0  0  0  0  0  0  0  0  0  0  0  0  # atno 10765 bound_to 10752
  141.0845  133.6645  156.3807 H   0  0  0  0  0  0  0  0  0  0  0  0  # atno 11005 bound_to 11000
  145.8186  139.2034  143.1951 LP  0  0  0  0  0  0  0  0  0  0  0  0  # atno 17320 bound_to 7965
  146.0533  140.8046  142.9770 LP  0  0  0  0  0  0  0  0  0  0  0  0  # atno 17321 bound_to 7965
  139.4783  144.5566  151.8304 LP  0  0  0  0  0  0  0  0  0  0  0  0  # atno 17342 bound_to 10162
  140.4669  144.1643  150.5913 LP  0  0  0  0  0  0  0  0  0  0  0  0  # atno 17343 bound_to 10162
  157.7299  130.9678  150.1810 LP  0  0  0  0  0  0  0  0  0  0  0  0  # atno 17370 bound_to 10713
  156.2535  130.3703  149.8206 LP  0  0  0  0  0  0  0  0  0  0  0  0  # atno 17371 bound_to 10713
  140.5394  134.6135  157.5375 LP  0  0  0  0  0  0  0  0  0  0  0  0  # atno 17394 bound_to 11000
  139.9662  134.7370  156.0134 LP  0  0  0  0  0  0  0  0  0  0  0  0  # atno 17395 bound_to 11000

$$$$
