AV-unprocessed.smi:1060|AV-procd|sdf|4659|dock3
  -GOLD-   22720 3173D 1   1.00000     0.00000
 Structure written by MMmdl.
 36 37  0  0  0  0  0  0  0  0  2 V2000
  152.6168  139.7001  156.4345 O   0  0  0  0  0  0  0  0  0  0  0  0
  152.4741  138.8714  157.3327 C   0  0  0  0  0  0  0  0  0  0  0  0
  152.2501  137.4065  156.9648 C   0  0  0  0  0  0  0  0  0  0  0  0
  152.2985  137.2751  155.5532 O   0  0  0  0  0  0  0  0  0  0  0  0
  151.0096  137.1601  154.9739 C   0  0  0  0  0  0  0  0  0  0  0  0
  150.2973  138.5160  155.0570 C   0  0  1  0  0  0  0  0  0  0  0  0
  150.9679  139.6120  154.2349 C   0  0  0  0  0  0  0  0  0  0  0  0
  149.8476  140.6185  154.0559 C   0  0  0  0  0  0  0  0  0  0  0  0
  148.5782  139.7657  154.1464 C   0  0  0  0  0  0  0  0  0  0  0  0
  149.0114  138.4457  154.4593 O   0  0  0  0  0  0  0  0  0  0  0  0
  152.4635  139.1412  158.6530 N   0  0  0  0  0  0  0  0  0  0  0  0
  152.6235  140.3702  159.3162 C   0  0  0  0  0  0  0  0  0  0  0  0
  152.2844  141.5835  158.7986 C   0  0  0  0  0  0  0  0  0  0  0  0
  152.4776  142.8273  159.5335 C   0  0  0  0  0  0  0  0  0  0  0  0
  152.1794  144.2002  158.9570 C   0  0  0  0  0  0  0  0  0  0  0  0
  152.9275  144.4429  157.8805 F   0  0  0  0  0  0  0  0  0  0  0  0
  150.8966  144.3032  158.6091 F   0  0  0  0  0  0  0  0  0  0  0  0
  152.4399  145.1397  159.8647 F   0  0  0  0  0  0  0  0  0  0  0  0
  153.0607  142.6211  160.7689 C   0  0  0  0  0  0  0  0  0  0  0  0
  153.4211  141.4591  161.3561 N   0  5  0  0  0  0  0  0  0  0  0  0
  153.2286  140.3014  160.6628 C   0  0  0  0  0  0  0  0  0  0  0  0
  153.5454  139.2086  161.1341 O   0  0  0  0  0  0  0  0  0  0  0  0
  153.0220  136.7954  157.4356 H   0  0  0  0  0  0  0  0  0  0  0  0
  151.2829  137.0719  157.3442 H   0  0  0  0  0  0  0  0  0  0  0  0
  151.1181  136.8665  153.9286 H   0  0  0  0  0  0  0  0  0  0  0  0
  150.4219  136.3878  155.4732 H   0  0  0  0  0  0  0  0  0  0  0  0
  150.2029  138.8405  156.0949 H   0  0  0  0  0  0  0  0  0  0  0  0
  151.8464  140.0345  154.7237 H   0  0  0  0  0  0  0  0  0  0  0  0
  151.2734  139.2221  153.2626 H   0  0  0  0  0  0  0  0  0  0  0  0
  149.8635  141.3503  154.8646 H   0  0  0  0  0  0  0  0  0  0  0  0
  149.9249  141.1575  153.1111 H   0  0  0  0  0  0  0  0  0  0  0  0
  147.9178  140.1355  154.9316 H   0  0  0  0  0  0  0  0  0  0  0  0
  148.0212  139.7604  153.2092 H   0  0  0  0  0  0  0  0  0  0  0  0
  152.2687  138.3618  159.2648 H   0  0  0  0  0  0  0  0  0  0  0  0
  151.8676  141.6656  157.8085 H   0  0  0  0  0  0  0  0  0  0  0  0
  153.2738  143.5272  161.3753 H   0  0  0  0  0  0  0  0  0  0  0  0
  1  2  2  0  0  0  0
  2  3  1  0  0  0  0
  2 11  1  0  0  0  0
  3  4  1  0  0  0  0
  3 23  1  0  0  0  0
  3 24  1  0  0  0  0
  4  5  1  0  0  0  0
  5  6  1  0  0  0  0
  5 25  1  0  0  0  0
  5 26  1  0  0  0  0
  6 10  1  0  0  0  0
  6  7  1  0  0  0  0
  6 27  1  0  0  0  0
  7  8  1  0  0  0  0
  7 28  1  0  0  0  0
  7 29  1  0  0  0  0
  8  9  1  0  0  0  0
  8 30  1  0  0  0  0
  8 31  1  0  0  0  0
  9 10  1  0  0  0  0
  9 32  1  0  0  0  0
  9 33  1  0  0  0  0
 11 12  1  0  0  0  0
 11 34  1  0  0  0  0
 12 21  1  0  0  0  0
 12 13  2  0  0  0  0
 13 14  1  0  0  0  0
 13 35  1  0  0  0  0
 14 15  1  0  0  0  0
 14 19  2  0  0  0  0
 15 16  1  0  0  0  0
 15 17  1  0  0  0  0
 15 18  1  0  0  0  0
 19 20  1  0  0  0  0
 19 36  1  0  0  0  0
 20 21  1  0  0  0  0
 21 22  2  0  0  0  0
M  CHG  1  20  -1
M  END
> <s_m_source_file>
AV-unprocessed.smi

> <i_m_source_file_index>
1060

> <i_lp_mmshare_version>
43012

> <i_f3d_flags>
0

> <s_epik_input>
Tz1jMVtuSF1bY0hdYyhDKEYpKEYpRilbY0hdYzFbTkhdQyg9TylbQ0gyXU9bQ0gyXVtDQEBIXTJbQ0gyXVtDSDJdW0NIMl1PMg==

> <s_epik_cmdline>
J2VwaWtfcHl0aG9uJywgJy1waCcsICc3LjAnLCAnLXRuJywgJzgnLCAnLW1hJywgJzIwMCcsICctbWV0YWxfYmluZGluZycsICctaW1hZScsICc8aW5maWxlLm1hZT4nLCAnLW9tYWUnLCAnPG91dGZpbGUubWFlPic=

> <r_epik_Ionization_Penalty>
2.50578

> <r_epik_Ionization_Penalty_Charging>
0.0523173

> <r_epik_Ionization_Penalty_Neutral>
2.45346

> <r_epik_State_Penalty>
2.61512

> <r_epik_Charging_Adjusted_Penalty>
2.66744

> <i_epik_Tot_Q>
-1

> <i_epik_Tot_abs_Q>
1

> <r_epik_Metal_State_Penalty>
0.513209

> <b_epik_Metal_Only>
0

> <s_lp_Force_Field>
OPLS_2005

> <r_lp_Energy>
36.6163

> <b_lp_Chiralities_Consistent>
1

> <s_lp_Variant>
AV-unprocessed.smi:1060-4

> <Gold.Version>
5.8.1

> <Gold.Id.Protein>
6NUR|6NUR_protein|mol2

> <Gold.PLP.Fitness>
45.4082

> <Gold.PLP.PLP>
-43.2187

> <Gold.PLP.part.hbond>
-2.0000

> <Gold.PLP.part.metal>
0.0000

> <Gold.PLP.part.buried>
-4.5355

> <Gold.PLP.part.nonpolar>
-36.9947

> <Gold.PLP.part.repulsive>
0.2588

> <Gold.PLP.ligand.clash>
0.1072

> <Gold.PLP.ligand.torsion>
0.5747

> <Gold.PLP.Chemscore.Hbond>
1.1039

> <Gold.PLP.Chemscore.CHOScore>
0.0000

> <Gold.PLP.Chemscore.Metal>
0.0000

> <Gold.Chemscore.Hbonds>
donor molecule, donor type, donor heavy atom, donor atom, acceptor molecule, acceptor atom, score
      P1  H  7997  8010       L1     1  1.00
      P1  H 10752 10765       L1     4  0.09

> <Gold.PLP.Chemscore.Internal.Correction>
0.1344

> <Gold.Rescore>
     Score         DG    S(hbond)    S(metal)    S(lipo)     H(rot)  DE(clash)    DE(int)     intcor
      8.25     -10.84       0.01        0.00      87.44       1.92       0.34       2.24       ----

> <Gold.Chemscore.Fitness>
8.2500

> <Gold.Chemscore.DG>
-10.8366

> <Gold.Chemscore.ZeroCoef>
-5.4800

> <Gold.Chemscore.Hbond>
0.0115

> <Gold.Chemscore.Metal>
0.0000

> <Gold.Chemscore.Lipo>
87.4436

> <Gold.Chemscore.Internal_Hbond>
0.0000

> <Gold.Chemscore.DEClash>
0.3442

> <Gold.Chemscore.DEInternal>
2.2424

> <Gold.Chemscore.Rot>
1.9190

> <Gold.Chemscore.Internal.Correction>
   9.000000E+99

> <Gold.Chemscore.Hbonds>
donor molecule, donor type, donor heavy atom, donor atom, acceptor molecule, acceptor atom, score
      P1  H  7997  8010       L1     1  0.84

> <Gold.Chemscore.Hbond.Weighted>
-0.0383

> <Gold.Chemscore.Metal.Weighted>
-0.0000

> <Gold.Chemscore.Lipo.Weighted>
-10.2309

> <Gold.Chemscore.Internal_Hbond.Weighted>
0.0000

> <Gold.Chemscore.DEClash.Weighted>
0.3442

> <Gold.Chemscore.DEInternal.Weighted>
2.2424

> <Gold.Chemscore.Rot.Weighted>
4.9126

> <Gold.Chemscore.Internal.Correction.Weighted>
   9.000000E+99

> <Gold.Protein.RotatedTorsions>
[ 6907 6896 6895 6894 ] final   -7.87 input  -60.11 | X-H torsion
[ 7974 7965 7964 7962 ] final  156.04 input  175.53 | X-H torsion
[ 8008 7997 7996 7995 ] final   88.89 input   59.86 | X-H torsion
[ 10167 10162 10161 10158 ] final   79.04 input  -65.29 | X-H torsion
[ 10718 10713 10712 10709 ] final   75.45 input   66.30 | X-H torsion
[ 10763 10752 10751 10750 ] final  151.11 input  -60.55 | X-H torsion
[ 11005 11000 10999 10996 ] final  144.63 input  -57.11 | X-H torsion

> <Gold.Protein.ActiveResidues>
 VAL166  LYS551  ARG553  GLY616  TRP617  ASP618  TYR619  PRO620  LYS621  CYS622 
 ASP623  PHE694  ASN695  SER759  ASP760  ASP761  ALA762  ILE779  LEU786  VAL792 
 PHE793  MET794  SER795  GLU796  ALA797  LYS798  CYS799  TRP800  GLU811  SER814 

> <Gold.Protein.RotatedAtoms>
  151.4426  135.1022  159.9674 H   0  0  0  0  0  0  0  0  0  0  0  0  # atno 6907 bound_to 6896
  152.4917  133.8514  159.7214 H   0  0  0  0  0  0  0  0  0  0  0  0  # atno 6908 bound_to 6896
  150.9077  133.6978  159.2890 H   0  0  0  0  0  0  0  0  0  0  0  0  # atno 6909 bound_to 6896
  144.7987  139.7149  143.6191 H   0  0  0  0  0  0  0  0  0  0  0  0  # atno 7974 bound_to 7965
  155.9933  140.3366  155.6774 H   0  0  0  0  0  0  0  0  0  0  0  0  # atno 8008 bound_to 7997
  155.6391  140.0693  157.2642 H   0  0  0  0  0  0  0  0  0  0  0  0  # atno 8009 bound_to 7997
  154.4226  140.1746  156.1541 H   0  0  0  0  0  0  0  0  0  0  0  0  # atno 8010 bound_to 7997
  139.9645  144.5938  150.8041 H   0  0  0  0  0  0  0  0  0  0  0  0  # atno 10167 bound_to 10162
  157.6634  130.9727  150.1355 H   0  0  0  0  0  0  0  0  0  0  0  0  # atno 10718 bound_to 10713
  154.0984  135.2847  155.3257 H   0  0  0  0  0  0  0  0  0  0  0  0  # atno 10763 bound_to 10752
  154.6572  135.5347  153.7977 H   0  0  0  0  0  0  0  0  0  0  0  0  # atno 10764 bound_to 10752
  153.0388  135.6525  154.1149 H   0  0  0  0  0  0  0  0  0  0  0  0  # atno 10765 bound_to 10752
  140.0648  134.9185  157.1245 H   0  0  0  0  0  0  0  0  0  0  0  0  # atno 11005 bound_to 11000
  146.2263  139.5729  142.9585 LP  0  0  0  0  0  0  0  0  0  0  0  0  # atno 17320 bound_to 7965
  145.5607  141.0404  143.2228 LP  0  0  0  0  0  0  0  0  0  0  0  0  # atno 17321 bound_to 7965
  140.7542  143.3023  151.3049 LP  0  0  0  0  0  0  0  0  0  0  0  0  # atno 17342 bound_to 10162
  139.6528  144.0330  152.2638 LP  0  0  0  0  0  0  0  0  0  0  0  0  # atno 17343 bound_to 10162
  156.2191  130.3672  149.8578 LP  0  0  0  0  0  0  0  0  0  0  0  0  # atno 17370 bound_to 10713
  156.6436  130.8715  151.3518 LP  0  0  0  0  0  0  0  0  0  0  0  0  # atno 17371 bound_to 10713
  140.3716  134.2384  155.7177 LP  0  0  0  0  0  0  0  0  0  0  0  0  # atno 17394 bound_to 11000
  141.1988  133.8027  157.0566 LP  0  0  0  0  0  0  0  0  0  0  0  0  # atno 17395 bound_to 11000

$$$$
