AV-unprocessed.smi:922|AV-procd|sdf|4173|dock6
  -GOLD-   22720 2 83D 1   1.00000     0.00000
 Structure written by MMmdl.
 32 33  0  0  0  0  0  0  0  0  2 V2000
  153.4814  142.0689  161.1545 C   0  0  0  0  0  0  0  0  0  0  0  0
  152.5189  141.5592  160.0774 C   0  0  2  0  0  0  0  0  0  0  0  0
  153.1445  140.4310  159.2362 C   0  0  0  0  0  0  0  0  0  0  0  0
  152.2498  140.0514  158.1510 N   0  0  0  0  0  0  0  0  0  0  0  0
  151.8245  138.7507  157.8762 C   0  0  0  0  0  0  0  0  0  0  0  0
  151.3609  137.8868  158.9903 C   0  0  0  0  0  0  0  0  0  0  0  0
  150.9577  136.6915  158.8158 N   0  0  0  0  0  0  0  0  0  0  0  0
  150.9246  136.1047  157.4961 N   0  5  0  0  0  0  0  0  0  0  0  0
  151.3445  136.8266  156.4140 C   0  0  0  0  0  0  0  0  0  0  0  0
  151.3400  136.3563  155.2773 O   0  0  0  0  0  0  0  0  0  0  0  0
  151.8115  138.2031  156.6278 C   0  0  0  0  0  0  0  0  0  0  0  0
  152.3921  139.0644  155.2391 Cl  0  0  0  0  0  0  0  0  0  0  0  0
  151.9457  141.1968  157.3016 C   0  0  0  0  0  0  0  0  0  0  0  0
  151.3239  142.3486  158.1239 C   0  0  0  0  0  0  0  0  0  0  0  0
  151.2762  143.6259  157.2713 C   0  0  0  0  0  0  0  0  0  0  0  0
  149.8987  142.0087  158.6106 C   0  0  0  0  0  0  0  0  0  0  0  0
  152.1864  142.6568  159.2259 O   0  0  0  0  0  0  0  0  0  0  0  0
  153.7554  141.2703  161.8443 H   0  0  0  0  0  0  0  0  0  0  0  0
  153.0246  142.8693  161.7371 H   0  0  0  0  0  0  0  0  0  0  0  0
  154.3983  142.4597  160.7122 H   0  0  0  0  0  0  0  0  0  0  0  0
  151.6196  141.2008  160.5765 H   0  0  0  0  0  0  0  0  0  0  0  0
  154.0880  140.7672  158.8044 H   0  0  0  0  0  0  0  0  0  0  0  0
  153.3847  139.5696  159.8594 H   0  0  0  0  0  0  0  0  0  0  0  0
  151.3806  138.3401  159.9847 H   0  0  0  0  0  0  0  0  0  0  0  0
  152.8703  141.5255  156.8253 H   0  0  0  0  0  0  0  0  0  0  0  0
  151.2647  140.9110  156.4990 H   0  0  0  0  0  0  0  0  0  0  0  0
  150.6527  143.4892  156.3871 H   0  0  0  0  0  0  0  0  0  0  0  0
  152.2725  143.9119  156.9326 H   0  0  0  0  0  0  0  0  0  0  0  0
  150.8697  144.4641  157.8380 H   0  0  0  0  0  0  0  0  0  0  0  0
  149.2191  141.8835  157.7671 H   0  0  0  0  0  0  0  0  0  0  0  0
  149.4989  142.8032  159.2411 H   0  0  0  0  0  0  0  0  0  0  0  0
  149.8623  141.0828  159.1835 H   0  0  0  0  0  0  0  0  0  0  0  0
  1  2  1  0  0  0  0
  1 18  1  0  0  0  0
  1 19  1  0  0  0  0
  1 20  1  0  0  0  0
  2 17  1  0  0  0  0
  2  3  1  0  0  0  0
  2 21  1  0  0  0  0
  3  4  1  0  0  0  0
  3 22  1  0  0  0  0
  3 23  1  0  0  0  0
  4  5  1  0  0  0  0
  4 13  1  0  0  0  0
  5 11  2  0  0  0  0
  5  6  1  0  0  0  0
  6  7  2  0  0  0  0
  6 24  1  0  0  0  0
  7  8  1  0  0  0  0
  8  9  1  0  0  0  0
  9 10  2  0  0  0  0
  9 11  1  0  0  0  0
 11 12  1  0  0  0  0
 13 14  1  0  0  0  0
 13 25  1  0  0  0  0
 13 26  1  0  0  0  0
 14 15  1  0  0  0  0
 14 16  1  0  0  0  0
 14 17  1  0  0  0  0
 15 27  1  0  0  0  0
 15 28  1  0  0  0  0
 15 29  1  0  0  0  0
 16 30  1  0  0  0  0
 16 31  1  0  0  0  0
 16 32  1  0  0  0  0
M  CHG  1   8  -1
M  END
> <s_m_source_file>
AV-unprocessed.smi

> <i_m_source_file_index>
922

> <i_lp_mmshare_version>
43012

> <i_f3d_flags>
0

> <s_epik_input>
W0NIM11bQ0BASF0oTzEpW0NIMl1OKFtDSDJdQzEoW0NIM10pW0NIM10pYzJbY0hdbltuSF1jKD1PKWMyQ2w=

> <s_epik_cmdline>
J2VwaWtfcHl0aG9uJywgJy1waCcsICc3LjAnLCAnLXRuJywgJzgnLCAnLW1hJywgJzIwMCcsICctbWV0YWxfYmluZGluZycsICctaW1hZScsICc8aW5maWxlLm1hZT4nLCAnLW9tYWUnLCAnPG91dGZpbGUubWFlPic=

> <r_lp_tautomer_probability>
1

> <r_epik_Ionization_Penalty>
2.48086

> <r_epik_Ionization_Penalty_Charging>
0.00187014

> <r_epik_Ionization_Penalty_Neutral>
2.47899

> <r_epik_State_Penalty>
0.0455822

> <r_epik_Charging_Adjusted_Penalty>
0.0474524

> <i_epik_Tot_Q>
-1

> <i_epik_Tot_abs_Q>
1

> <r_epik_Metal_State_Penalty>
0.000768086

> <b_epik_Metal_Only>
0

> <s_lp_Force_Field>
OPLS_2005

> <r_lp_Energy>
41.3096

> <b_lp_Chiralities_Consistent>
1

> <s_lp_Variant>
AV-unprocessed.smi:922-1

> <Gold.Version>
5.8.1

> <Gold.Id.Protein>
6NUR|6NUR_protein|mol2

> <Gold.PLP.Fitness>
32.5437

> <Gold.PLP.PLP>
-26.9737

> <Gold.PLP.part.hbond>
-2.5078

> <Gold.PLP.part.metal>
0.0000

> <Gold.PLP.part.buried>
-3.7990

> <Gold.PLP.part.nonpolar>
-20.9079

> <Gold.PLP.part.repulsive>
0.1093

> <Gold.PLP.ligand.clash>
0.0000

> <Gold.PLP.ligand.torsion>
0.6929

> <Gold.PLP.Chemscore.Hbond>
2.0000

> <Gold.PLP.Chemscore.CHOScore>
0.0000

> <Gold.PLP.Chemscore.Metal>
0.0000

> <Gold.Chemscore.Hbonds>
donor molecule, donor type, donor heavy atom, donor atom, acceptor molecule, acceptor atom, score
      P1  H  6896  6909       L1     7  0.94
      P1  H 10752 10764       L1    10  1.00

> <Gold.PLP.Chemscore.Internal.Correction>
0.9558

> <Gold.Rescore>
     Score         DG    S(hbond)    S(metal)    S(lipo)     H(rot)  DE(clash)    DE(int)     intcor
     17.75     -19.47       1.43        0.00      78.92       0.00       0.15       1.57       ----

> <Gold.Chemscore.Fitness>
17.7519

> <Gold.Chemscore.DG>
-19.4748

> <Gold.Chemscore.ZeroCoef>
-5.4800

> <Gold.Chemscore.Hbond>
1.4254

> <Gold.Chemscore.Metal>
0.0000

> <Gold.Chemscore.Lipo>
78.9220

> <Gold.Chemscore.Internal_Hbond>
0.0000

> <Gold.Chemscore.DEClash>
0.1538

> <Gold.Chemscore.DEInternal>
1.5692

> <Gold.Chemscore.Rot>
0.0000

> <Gold.Chemscore.Internal.Correction>
   9.000000E+99

> <Gold.Chemscore.Hbonds>
donor molecule, donor type, donor heavy atom, donor atom, acceptor molecule, acceptor atom, score
      P1  H  6896  6909       L1     7  0.20
      P1  H 10752 10764       L1    10  0.74

> <Gold.Chemscore.Hbond.Weighted>
-4.7610

> <Gold.Chemscore.Metal.Weighted>
-0.0000

> <Gold.Chemscore.Lipo.Weighted>
-9.2339

> <Gold.Chemscore.Internal_Hbond.Weighted>
0.0000

> <Gold.Chemscore.DEClash.Weighted>
0.1538

> <Gold.Chemscore.DEInternal.Weighted>
1.5692

> <Gold.Chemscore.Rot.Weighted>
0.0000

> <Gold.Chemscore.Internal.Correction.Weighted>
   9.000000E+99

> <Gold.Protein.RotatedTorsions>
[ 6907 6896 6895 6894 ] final   93.73 input  -60.11 | X-H torsion
[ 7974 7965 7964 7962 ] final  111.43 input  175.53 | X-H torsion
[ 8008 7997 7996 7995 ] final  -41.77 input   59.86 | X-H torsion
[ 10167 10162 10161 10158 ] final  137.10 input  -65.29 | X-H torsion
[ 10718 10713 10712 10709 ] final  -69.89 input   66.30 | X-H torsion
[ 10763 10752 10751 10750 ] final  -40.04 input  -60.55 | X-H torsion
[ 11005 11000 10999 10996 ] final -159.41 input  -57.11 | X-H torsion

> <Gold.Protein.ActiveResidues>
 VAL166  LYS551  ARG553  GLY616  TRP617  ASP618  TYR619  PRO620  LYS621  CYS622 
 ASP623  PHE694  ASN695  SER759  ASP760  ASP761  ALA762  ILE779  LEU786  VAL792 
 PHE793  MET794  SER795  GLU796  ALA797  LYS798  CYS799  TRP800  GLU811  SER814 

> <Gold.Protein.RotatedAtoms>
  152.5452  134.1302  159.8435 H   0  0  0  0  0  0  0  0  0  0  0  0  # atno 6907 bound_to 6896
  151.1349  133.5004  159.2605 H   0  0  0  0  0  0  0  0  0  0  0  0  # atno 6908 bound_to 6896
  151.1635  135.0295  159.8775 H   0  0  0  0  0  0  0  0  0  0  0  0  # atno 6909 bound_to 6896
  145.2423  139.2774  143.4111 H   0  0  0  0  0  0  0  0  0  0  0  0  # atno 7974 bound_to 7965
  154.4002  140.1491  156.3246 H   0  0  0  0  0  0  0  0  0  0  0  0  # atno 8008 bound_to 7997
  155.8499  140.3458  155.5665 H   0  0  0  0  0  0  0  0  0  0  0  0  # atno 8009 bound_to 7997
  155.7996  140.0868  157.1955 H   0  0  0  0  0  0  0  0  0  0  0  0  # atno 8010 bound_to 7997
  139.5156  144.6428  151.5521 H   0  0  0  0  0  0  0  0  0  0  0  0  # atno 10167 bound_to 10162
  156.0434  130.4321  150.2214 H   0  0  0  0  0  0  0  0  0  0  0  0  # atno 10718 bound_to 10713
  153.9394  135.6763  153.4744 H   0  0  0  0  0  0  0  0  0  0  0  0  # atno 10763 bound_to 10752
  153.0939  135.4861  154.8739 H   0  0  0  0  0  0  0  0  0  0  0  0  # atno 10764 bound_to 10752
  154.7385  135.3155  154.8727 H   0  0  0  0  0  0  0  0  0  0  0  0  # atno 10765 bound_to 10752
  140.6428  134.4533  157.5234 H   0  0  0  0  0  0  0  0  0  0  0  0  # atno 11005 bound_to 11000
  146.3325  140.2790  142.8609 LP  0  0  0  0  0  0  0  0  0  0  0  0  # atno 17320 bound_to 7965
  144.9578  140.8244  143.5532 LP  0  0  0  0  0  0  0  0  0  0  0  0  # atno 17321 bound_to 7965
  140.6202  143.9273  150.6520 LP  0  0  0  0  0  0  0  0  0  0  0  0  # atno 17342 bound_to 10162
  140.2544  143.3569  152.1378 LP  0  0  0  0  0  0  0  0  0  0  0  0  # atno 17343 bound_to 10162
  157.0306  131.0006  151.3313 LP  0  0  0  0  0  0  0  0  0  0  0  0  # atno 17370 bound_to 10713
  157.5280  130.8040  149.7884 LP  0  0  0  0  0  0  0  0  0  0  0  0  # atno 17371 bound_to 10713
  139.9074  134.8420  156.1656 LP  0  0  0  0  0  0  0  0  0  0  0  0  # atno 17394 bound_to 11000
  141.0594  133.6849  156.1923 LP  0  0  0  0  0  0  0  0  0  0  0  0  # atno 17395 bound_to 11000

$$$$
