AV-unprocessed.smi:2784|AV-procd|sdf|10726|dock3
  -GOLD-   2272015163D 1   1.00000     0.00000
 Structure written by MMmdl.
 31 32  0  0  0  0  0  0  0  0  1 V2000
  152.5501  142.9182  161.7900 C   0  0  0  0  0  0  0  0  0  0  0  0
  153.0902  142.7069  160.4950 O   0  0  0  0  0  0  0  0  0  0  0  0
  152.4032  143.4104  159.4693 C   0  0  2  0  0  0  0  0  0  0  0  0
  152.3413  144.8984  159.8255 C   0  0  0  0  0  0  0  0  0  0  0  0
  151.0781  145.4012  159.1359 C   0  0  0  0  0  0  0  0  0  0  0  0
  150.0867  144.2506  159.3053 C   0  0  0  0  0  0  0  0  0  0  0  0
  150.9322  142.9618  159.3082 C   0  0  1  0  0  0  0  0  0  0  0  0
  150.7557  142.2202  158.0618 N   0  0  0  0  0  0  0  0  0  0  0  0
  151.5513  141.2292  157.6351 C   0  0  0  0  0  0  0  0  0  0  0  0
  152.5283  140.8223  158.2644 O   0  0  0  0  0  0  0  0  0  0  0  0
  151.1395  140.7497  156.4496 N   0  0  0  0  0  0  0  0  0  0  0  0
  151.7410  139.7239  155.6778 C   0  0  0  0  0  0  0  0  0  0  0  0
  152.8601  139.0603  155.9719 N   0  0  0  0  0  0  0  0  0  0  0  0
  153.0306  138.1767  154.9160 C   0  0  0  0  0  0  0  0  0  0  0  0
  151.9953  138.3579  154.0354 C   0  0  0  0  0  0  0  0  0  0  0  0
  151.1666  139.3406  154.5069 O   0  0  0  0  0  0  0  0  0  0  0  0
  153.1056  142.3257  162.5169 H   0  0  0  0  0  0  0  0  0  0  0  0
  151.5047  142.6110  161.8365 H   0  0  0  0  0  0  0  0  0  0  0  0
  152.6203  143.9639  162.0903 H   0  0  0  0  0  0  0  0  0  0  0  0
  152.9428  143.3167  158.5243 H   0  0  0  0  0  0  0  0  0  0  0  0
  152.2335  145.0196  160.9044 H   0  0  0  0  0  0  0  0  0  0  0  0
  153.2357  145.4411  159.5186 H   0  0  0  0  0  0  0  0  0  0  0  0
  150.7119  146.3375  159.5577 H   0  0  0  0  0  0  0  0  0  0  0  0
  151.2768  145.5654  158.0761 H   0  0  0  0  0  0  0  0  0  0  0  0
  149.5837  144.3502  160.2681 H   0  0  0  0  0  0  0  0  0  0  0  0
  149.3110  144.2616  158.5384 H   0  0  0  0  0  0  0  0  0  0  0  0
  150.6359  142.3452  160.1592 H   0  0  0  0  0  0  0  0  0  0  0  0
  149.9740  142.4879  157.4822 H   0  0  0  0  0  0  0  0  0  0  0  0
  150.3122  141.1683  156.0512 H   0  0  0  0  0  0  0  0  0  0  0  0
  153.8673  137.4952  154.8736 H   0  0  0  0  0  0  0  0  0  0  0  0
  151.7227  137.9022  153.0949 H   0  0  0  0  0  0  0  0  0  0  0  0
  1  2  1  0  0  0  0
  1 17  1  0  0  0  0
  1 18  1  0  0  0  0
  1 19  1  0  0  0  0
  2  3  1  0  0  0  0
  3  7  1  0  0  0  0
  3  4  1  0  0  0  0
  3 20  1  0  0  0  0
  4  5  1  0  0  0  0
  4 21  1  0  0  0  0
  4 22  1  0  0  0  0
  5  6  1  0  0  0  0
  5 23  1  0  0  0  0
  5 24  1  0  0  0  0
  6  7  1  0  0  0  0
  6 25  1  0  0  0  0
  6 26  1  0  0  0  0
  7  8  1  0  0  0  0
  7 27  1  0  0  0  0
  8  9  1  0  0  0  0
  8 28  1  0  0  0  0
  9 10  2  0  0  0  0
  9 11  1  0  0  0  0
 11 12  1  0  0  0  0
 11 29  1  0  0  0  0
 12 16  1  0  0  0  0
 12 13  2  0  0  0  0
 13 14  1  0  0  0  0
 14 15  2  0  0  0  0
 14 30  1  0  0  0  0
 15 16  1  0  0  0  0
 15 31  1  0  0  0  0
M  END
> <s_m_source_file>
AV-unprocessed.smi

> <i_m_source_file_index>
2784

> <i_lp_mmshare_version>
43012

> <i_f3d_flags>
0

> <s_epik_input>
W0NIM11PW0NAQEhdMVtDSDJdW0NIMl1bQ0gyXVtDQEhdMVtOSF1DKD1PKVtOSF1jMm5bY0hdW2NIXW8y

> <s_epik_cmdline>
J2VwaWtfcHl0aG9uJywgJy1waCcsICc3LjAnLCAnLXRuJywgJzgnLCAnLW1hJywgJzIwMCcsICctbWV0YWxfYmluZGluZycsICctaW1hZScsICc8aW5maWxlLm1hZT4nLCAnLW9tYWUnLCAnPG91dGZpbGUubWFlPic=

> <r_lp_tautomer_probability>
0.785861

> <r_epik_Ionization_Penalty>
4.58897e-05

> <r_epik_Ionization_Penalty_Charging>
0

> <r_epik_Ionization_Penalty_Neutral>
4.58897e-05

> <r_epik_State_Penalty>
0.0380021

> <r_epik_Charging_Adjusted_Penalty>
0.0380021

> <i_epik_Tot_Q>
0

> <i_epik_Tot_abs_Q>
0

> <r_epik_Metal_State_Penalty>
0.0585611

> <b_epik_Metal_Only>
0

> <s_lp_Force_Field>
OPLS_2005

> <r_lp_Energy>
17.9939

> <b_lp_Chiralities_Consistent>
1

> <s_lp_Variant>
AV-unprocessed.smi:2784-1

> <Gold.Version>
5.8.1

> <Gold.Id.Protein>
6NUR|6NUR_protein|mol2

> <Gold.PLP.Fitness>
39.0892

> <Gold.PLP.PLP>
-30.7402

> <Gold.PLP.part.hbond>
-2.0030

> <Gold.PLP.part.metal>
0.0000

> <Gold.PLP.part.buried>
-5.2821

> <Gold.PLP.part.nonpolar>
-24.3104

> <Gold.PLP.part.repulsive>
0.2763

> <Gold.PLP.ligand.clash>
0.0000

> <Gold.PLP.ligand.torsion>
0.1785

> <Gold.PLP.Chemscore.Hbond>
1.9000

> <Gold.PLP.Chemscore.CHOScore>
0.9999

> <Gold.PLP.Chemscore.Metal>
0.0000

> <Gold.Chemscore.Hbonds>
donor molecule, donor type, donor heavy atom, donor atom, acceptor molecule, acceptor atom, score
      P1  H  7989  7998       L1    16  0.90
      P1  H  7997  8009       L1    13  1.00
      L1  C    15    31       P1  7949  0.95

> <Gold.PLP.Chemscore.Internal.Correction>
0.0063

> <Gold.Rescore>
     Score         DG    S(hbond)    S(metal)    S(lipo)     H(rot)  DE(clash)    DE(int)     intcor
     11.45     -15.02       0.99        0.00      82.13       1.32       0.04       3.53       ----

> <Gold.Chemscore.Fitness>
11.4479

> <Gold.Chemscore.DG>
-15.0159

> <Gold.Chemscore.ZeroCoef>
-5.4800

> <Gold.Chemscore.Hbond>
0.9926

> <Gold.Chemscore.Metal>
0.0000

> <Gold.Chemscore.Lipo>
82.1269

> <Gold.Chemscore.Internal_Hbond>
0.0000

> <Gold.Chemscore.DEClash>
0.0400

> <Gold.Chemscore.DEInternal>
3.5281

> <Gold.Chemscore.Rot>
1.3235

> <Gold.Chemscore.Internal.Correction>
   9.000000E+99

> <Gold.Chemscore.Hbonds>
donor molecule, donor type, donor heavy atom, donor atom, acceptor molecule, acceptor atom, score
      P1  H  7989  7998       L1    16  0.08
      P1  H  7997  8009       L1    13  0.57

> <Gold.Chemscore.Hbond.Weighted>
-3.3152

> <Gold.Chemscore.Metal.Weighted>
-0.0000

> <Gold.Chemscore.Lipo.Weighted>
-9.6088

> <Gold.Chemscore.Internal_Hbond.Weighted>
0.0000

> <Gold.Chemscore.DEClash.Weighted>
0.0400

> <Gold.Chemscore.DEInternal.Weighted>
3.5281

> <Gold.Chemscore.Rot.Weighted>
3.3882

> <Gold.Chemscore.Internal.Correction.Weighted>
   9.000000E+99

> <Gold.Protein.RotatedTorsions>
[ 6907 6896 6895 6894 ] final  124.48 input  -60.11 | X-H torsion
[ 7974 7965 7964 7962 ] final -107.29 input  175.53 | X-H torsion
[ 8008 7997 7996 7995 ] final -145.07 input   59.86 | X-H torsion
[ 10167 10162 10161 10158 ] final -154.16 input  -65.29 | X-H torsion
[ 10718 10713 10712 10709 ] final   85.88 input   66.30 | X-H torsion
[ 10763 10752 10751 10750 ] final   -0.77 input  -60.55 | X-H torsion
[ 11005 11000 10999 10996 ] final -159.13 input  -57.11 | X-H torsion

> <Gold.Protein.ActiveResidues>
 VAL166  LYS551  ARG553  GLY616  TRP617  ASP618  TYR619  PRO620  LYS621  CYS622 
 ASP623  PHE694  ASN695  SER759  ASP760  ASP761  ALA762  ILE779  LEU786  VAL792 
 PHE793  MET794  SER795  GLU796  ALA797  LYS798  CYS799  TRP800  GLU811  SER814 

> <Gold.Protein.RotatedAtoms>
  152.4074  133.6910  159.6367 H   0  0  0  0  0  0  0  0  0  0  0  0  # atno 6907 bound_to 6896
  150.7957  133.8685  159.3260 H   0  0  0  0  0  0  0  0  0  0  0  0  # atno 6908 bound_to 6896
  151.6436  135.1011  160.0198 H   0  0  0  0  0  0  0  0  0  0  0  0  # atno 6909 bound_to 6896
  145.2071  140.9081  143.3336 H   0  0  0  0  0  0  0  0  0  0  0  0  # atno 7974 bound_to 7965
  155.5371  140.0605  157.2877 H   0  0  0  0  0  0  0  0  0  0  0  0  # atno 8008 bound_to 7997
  154.4464  140.1925  156.0598 H   0  0  0  0  0  0  0  0  0  0  0  0  # atno 8009 bound_to 7997
  156.0611  140.3272  155.7466 H   0  0  0  0  0  0  0  0  0  0  0  0  # atno 8010 bound_to 7997
  139.7036  143.9222  152.2439 H   0  0  0  0  0  0  0  0  0  0  0  0  # atno 10167 bound_to 10162
  157.6921  131.0193  150.2889 H   0  0  0  0  0  0  0  0  0  0  0  0  # atno 10718 bound_to 10713
  153.3362  135.6978  153.6906 H   0  0  0  0  0  0  0  0  0  0  0  0  # atno 10763 bound_to 10752
  153.5689  135.3520  155.2830 H   0  0  0  0  0  0  0  0  0  0  0  0  # atno 10764 bound_to 10752
  154.8628  135.4267  154.2563 H   0  0  0  0  0  0  0  0  0  0  0  0  # atno 10765 bound_to 10752
  140.6460  134.4501  157.5234 H   0  0  0  0  0  0  0  0  0  0  0  0  # atno 11005 bound_to 11000
  144.9891  139.3707  143.6224 LP  0  0  0  0  0  0  0  0  0  0  0  0  # atno 17320 bound_to 7965
  146.3405  139.9066  142.8786 LP  0  0  0  0  0  0  0  0  0  0  0  0  # atno 17321 bound_to 7965
  139.9072  144.6878  150.8601 LP  0  0  0  0  0  0  0  0  0  0  0  0  # atno 17342 bound_to 10162
  140.7716  143.3470  151.2091 LP  0  0  0  0  0  0  0  0  0  0  0  0  # atno 17343 bound_to 10162
  156.3423  130.3817  149.7398 LP  0  0  0  0  0  0  0  0  0  0  0  0  # atno 17370 bound_to 10713
  156.4903  130.8082  151.3092 LP  0  0  0  0  0  0  0  0  0  0  0  0  # atno 17371 bound_to 10713
  139.9063  134.8443  156.1695 LP  0  0  0  0  0  0  0  0  0  0  0  0  # atno 17394 bound_to 11000
  141.0572  133.6859  156.1882 LP  0  0  0  0  0  0  0  0  0  0  0  0  # atno 17395 bound_to 11000

$$$$
