#       Name:                AV-unprocessed.smi:260
#       Creating user name   scv26
#       Creation time:       Thu Mar 26 21:15:34 2020


#       File generated by GOLD software.
#

@<TRIPOS>MOLECULE
AV-unprocessed.smi:260
    62    65     1
SMALL
NO_CHARGES


@<TRIPOS>ATOM
      1 ****        -2.5355   3.0820  -3.5966 C.3            1 S1                 0.0000
      2 ****        -3.2058   2.4884  -2.4508 N.am           1 S1                 0.0000
      3 ****        -4.3438   1.7783  -2.5163 C.2            1 S1                 0.0000
      4 ****        -4.9307   1.5813  -3.5813 O.2            1 S1                 0.0000
      5 ****        -4.9248   1.1901  -1.2029 C.3            1 S1                 0.0000
      6 ****        -6.3480   1.7412  -0.9888 C.3            1 S1                 0.0000
      7 ****        -4.9055  -0.3473  -1.2659 C.3            1 S1                 0.0000
      8 ****        -3.4781  -0.7190  -0.8491 C.3            1 S1                 0.0000
      9 ****        -3.0268   0.3617   0.0190 N.pl3          1 S1                 0.0000
     10 ****        -1.6968   0.6117   0.1659 C.ar           1 S1                 0.0000
     11 ****        -1.2934   1.8714   0.4817 N.ar           1 S1                 0.0000
     12 ****         0.0030   2.1592   0.6241 C.ar           1 S1                 0.0000
     13 ****         1.0544   1.3486   0.5038 N.ar           1 S1                 0.0000
     14 ****         0.6629   0.0783   0.2026 C.ar           1 S1                 0.0000
     15 ****        -0.6757  -0.3754   0.0193 C.ar           1 S1                 0.0000
     16 ****        -0.6673  -1.7376  -0.2659 N.2            1 S1                 0.0000
     17 ****         0.5956  -2.0650  -0.2585 C.2            1 S1                 0.0000
     18 ****         1.4633  -1.0339   0.0151 N.pl3          1 S1                 0.0000
     19 ****         2.9113  -1.1088   0.0922 C.3            1 S1                 0.0000
     20 ****         3.4188  -1.1466   1.5466 C.3            1 S1                 0.0000
     21 ****         2.8889  -2.2661   2.2311 O.3            1 S1                 0.0000
     22 ****         4.9573  -1.1326   1.6432 C.3            1 S1                 0.0000
     23 ****         5.5523  -1.2119   3.0517 C.3            1 S1                 0.0000
     24 ****         6.9314  -1.7584   2.7580 C.3            1 S1                 0.0000
     25 ****         6.6408  -2.7470   1.6314 C.3            1 S1                 0.0000
     26 ****         5.5481  -2.1968   0.9003 O.3            1 S1                 0.0000
     27 ****        -4.0326   1.4248   0.0362 C.3            1 S1                 0.0000
     28 ****        -1.6231   3.5828  -3.2729 H              1 S1                 0.0000
     29 ****        -3.1761   3.8189  -4.0825 H              1 S1                 0.0000
     30 ****        -2.2649   2.3181  -4.3266 H              1 S1                 0.0000
     31 ****        -2.7699   2.6102  -1.5478 H              1 S1                 0.0000
     32 ****        -6.7936   1.3463  -0.0753 H              1 S1                 0.0000
     33 ****        -7.0116   1.4744  -1.8124 H              1 S1                 0.0000
     34 ****        -6.3427   2.8286  -0.9041 H              1 S1                 0.0000
     35 ****        -5.6121  -0.7593  -0.5439 H              1 S1                 0.0000
     36 ****        -5.1691  -0.7570  -2.2421 H              1 S1                 0.0000
     37 ****        -3.4505  -1.6807  -0.3363 H              1 S1                 0.0000
     38 ****        -2.8366  -0.7792  -1.7294 H              1 S1                 0.0000
     39 ****         0.2298   3.1864   0.8691 H              1 S1                 0.0000
     40 ****         0.9300  -3.0745  -0.4485 H              1 S1                 0.0000
     41 ****         3.2438  -1.9917  -0.4553 H              1 S1                 0.0000
     42 ****         3.3244  -0.2444  -0.4287 H              1 S1                 0.0000
     43 ****         3.0461  -0.2621   2.0647 H              1 S1                 0.0000
     44 ****         3.2359  -3.0494   1.8323 H              1 S1                 0.0000
     45 ****         5.3201  -0.2123   1.1825 H              1 S1                 0.0000
     46 ****         5.5727  -0.2470   3.5590 H              1 S1                 0.0000
     47 ****         5.0078  -1.9163   3.6812 H              1 S1                 0.0000
     48 ****         7.5832  -0.9602   2.4000 H              1 S1                 0.0000
     49 ****         7.4030  -2.2242   3.6237 H              1 S1                 0.0000
     50 ****         7.5063  -2.9161   0.9904 H              1 S1                 0.0000
     51 ****         6.3307  -3.7086   2.0428 H              1 S1                 0.0000
     52 ****        -3.6316   2.4376   0.0632 H              1 S1                 0.0000
     53 ****        -4.6163   1.3066   0.9497 H              1 S1                 0.0000
     54 ****        -4.5614   1.9549  -4.4322 LP             1 S1                 0.0000
     55 ****        -5.7764   1.0479  -3.5949 LP             1 S1                 0.0000
     56 ****        -1.9759   2.5912   0.6089 LP             1 S1                 0.0000
     57 ****         2.0055   1.6350   0.6194 LP             1 S1                 0.0000
     58 ****        -1.4529  -2.3319  -0.4379 LP             1 S1                 0.0000
     59 ****         1.8914  -2.2643   2.1608 LP             1 S1                 0.0000
     60 ****         3.1553  -2.2306   3.1943 LP             1 S1                 0.0000
     61 ****         5.8779  -1.8466   0.0236 LP             1 S1                 0.0000
     62 ****         4.8645  -2.9086   0.7390 LP             1 S1                 0.0000
@<TRIPOS>BOND
    1    1    2 1     
    2    1   28 1     
    3    1   29 1     
    4    1   30 1     
    5    2    3 am    
    6    2   31 1     
    7    3    4 2     
    8    3    5 1     
    9    5   27 1     
   10    5    6 1     
   11    5    7 1     
   12    6   32 1     
   13    6   33 1     
   14    6   34 1     
   15    7    8 1     
   16    7   35 1     
   17    7   36 1     
   18    8    9 1     
   19    8   37 1     
   20    8   38 1     
   21    9   10 1     
   22    9   27 1     
   23   10   15 ar    
   24   10   11 ar    
   25   11   12 ar    
   26   12   13 ar    
   27   12   39 1     
   28   13   14 ar    
   29   14   18 1     
   30   14   15 ar    
   31   15   16 1     
   32   16   17 2     
   33   17   18 1     
   34   17   40 1     
   35   18   19 1     
   36   19   20 1     
   37   19   41 1     
   38   19   42 1     
   39   20   21 1     
   40   20   22 1     
   41   20   43 1     
   42   21   44 1     
   43   22   26 1     
   44   22   23 1     
   45   22   45 1     
   46   23   24 1     
   47   23   46 1     
   48   23   47 1     
   49   24   25 1     
   50   24   48 1     
   51   24   49 1     
   52   25   26 1     
   53   25   50 1     
   54   25   51 1     
   55   27   52 1     
   56   27   53 1     
   57    4   54 1     
   58    4   55 1     
   59   11   56 1     
   60   13   57 1     
   61   16   58 1     
   62   21   59 1     
   63   21   60 1     
   64   26   61 1     
   65   26   62 1     
@<TRIPOS>SUBSTRUCTURE
      1 S1             1
@<TRIPOS>SET
LONE_PAIRS      STATIC     ATOMS    <user>   **** ""
9 54 55 56 57 58 59 60 61 62
DONOR_HYDROGENS      STATIC     ATOMS    <user>   **** ""
2 31 44
ATOM$BLUE        STATIC     ATOMS    COLORGROUP SYSTEM
9 54 55 56 57 58 59 60 61 62
ATOM$RED        STATIC     ATOMS    COLORGROUP SYSTEM
2 31 44
