AV-unprocessed.smi:2293|AV-procd|sdf|9214|dock2
  -GOLD-   2272012433D 1   1.00000     0.00000
 Structure written by MMmdl.
 34 35  0  0  0  0  0  0  0  0  1 V2000
  152.3674  143.5555  161.6276 C   0  0  0  0  0  0  0  0  0  0  0  0
  152.1082  143.0861  160.2067 C   0  0  0  0  0  0  0  0  0  0  0  0
  151.3251  143.9380  159.4225 N   0  0  0  0  0  0  0  0  0  0  0  0
  151.0551  143.6214  158.1983 C   0  0  0  0  0  0  0  0  0  0  0  0
  151.5277  142.4305  157.6228 N   0  0  0  0  0  0  0  0  0  0  0  0
  151.1584  142.1931  156.2171 C   0  0  0  0  0  0  0  0  0  0  0  0
  150.2507  140.9536  156.0524 C   0  0  2  0  0  0  0  0  0  0  0  0
  150.8445  140.0789  155.1132 O   0  0  0  0  0  0  0  0  0  0  0  0
  148.8482  141.3571  155.6233 C   0  0  0  0  0  0  0  0  0  0  0  0
  148.5200  141.4065  154.2514 C   0  0  0  0  0  0  0  0  0  0  0  0
  147.2225  141.7735  153.8441 C   0  0  0  0  0  0  0  0  0  0  0  0
  146.2446  142.0902  154.8064 C   0  0  0  0  0  0  0  0  0  0  0  0
  146.5641  142.0372  156.1769 C   0  0  0  0  0  0  0  0  0  0  0  0
  145.6237  142.3384  157.1034 F   0  0  0  0  0  0  0  0  0  0  0  0
  147.8613  141.6701  156.5845 C   0  0  0  0  0  0  0  0  0  0  0  0
  152.2998  141.5446  158.3165 C   0  0  0  0  0  0  0  0  0  0  0  0
  152.7167  140.5064  157.7986 O   0  0  0  0  0  0  0  0  0  0  0  0
  152.5989  141.9184  159.7083 C   0  0  0  0  0  0  0  0  0  0  0  0
  153.4586  140.9524  160.5140 C   0  0  0  0  0  0  0  0  0  0  0  0
  151.9917  142.8264  162.3460 H   0  0  0  0  0  0  0  0  0  0  0  0
  151.8730  144.5068  161.8281 H   0  0  0  0  0  0  0  0  0  0  0  0
  153.4360  143.6925  161.7950 H   0  0  0  0  0  0  0  0  0  0  0  0
  150.4544  144.2543  157.5427 H   0  0  0  0  0  0  0  0  0  0  0  0
  150.6271  143.0766  155.8573 H   0  0  0  0  0  0  0  0  0  0  0  0
  152.0297  142.1201  155.5626 H   0  0  0  0  0  0  0  0  0  0  0  0
  150.1733  140.4148  156.9976 H   0  0  0  0  0  0  0  0  0  0  0  0
  151.2550  139.3691  155.5832 H   0  0  0  0  0  0  0  0  0  0  0  0
  149.2619  141.1614  153.5053 H   0  0  0  0  0  0  0  0  0  0  0  0
  146.9775  141.8109  152.7928 H   0  0  0  0  0  0  0  0  0  0  0  0
  145.2497  142.3712  154.4936 H   0  0  0  0  0  0  0  0  0  0  0  0
  148.0958  141.6279  157.6383 H   0  0  0  0  0  0  0  0  0  0  0  0
  154.4242  140.8130  160.0268 H   0  0  0  0  0  0  0  0  0  0  0  0
  152.9692  139.9800  160.5813 H   0  0  0  0  0  0  0  0  0  0  0  0
  153.6513  141.2934  161.5300 H   0  0  0  0  0  0  0  0  0  0  0  0
  1  2  1  0  0  0  0
  1 20  1  0  0  0  0
  1 21  1  0  0  0  0
  1 22  1  0  0  0  0
  2 18  2  0  0  0  0
  2  3  1  0  0  0  0
  3  4  2  0  0  0  0
  4  5  1  0  0  0  0
  4 23  1  0  0  0  0
  5  6  1  0  0  0  0
  5 16  1  0  0  0  0
  6  7  1  0  0  0  0
  6 24  1  0  0  0  0
  6 25  1  0  0  0  0
  7  8  1  0  0  0  0
  7  9  1  0  0  0  0
  7 26  1  0  0  0  0
  8 27  1  0  0  0  0
  9 15  1  0  0  0  0
  9 10  2  0  0  0  0
 10 11  1  0  0  0  0
 10 28  1  0  0  0  0
 11 12  2  0  0  0  0
 11 29  1  0  0  0  0
 12 13  1  0  0  0  0
 12 30  1  0  0  0  0
 13 14  1  0  0  0  0
 13 15  2  0  0  0  0
 15 31  1  0  0  0  0
 16 17  2  0  0  0  0
 16 18  1  0  0  0  0
 18 19  1  0  0  0  0
 19 32  1  0  0  0  0
 19 33  1  0  0  0  0
 19 34  1  0  0  0  0
M  END
> <s_m_source_file>
AV-unprocessed.smi

> <i_m_source_file_index>
2293

> <i_lp_mmshare_version>
43012

> <i_f3d_flags>
0

> <s_epik_input>
W0NIM11jMW5bY0hdbihjKD1PKWMxW0NIM10pW0NIMl1bQ0BIXShbT0hdKWMyW2NIXVtjSF1bY0hdYyhGKVtjSF0y

> <s_epik_cmdline>
J2VwaWtfcHl0aG9uJywgJy1waCcsICc3LjAnLCAnLXRuJywgJzgnLCAnLW1hJywgJzIwMCcsICctbWV0YWxfYmluZGluZycsICctaW1hZScsICc8aW5maWxlLm1hZT4nLCAnLW9tYWUnLCAnPG91dGZpbGUubWFlPic=

> <r_lp_tautomer_probability>
1

> <r_epik_Ionization_Penalty>
5.08222e-05

> <r_epik_Ionization_Penalty_Charging>
7.56727e-08

> <r_epik_Ionization_Penalty_Neutral>
5.07465e-05

> <r_epik_State_Penalty>
-0

> <r_epik_Charging_Adjusted_Penalty>
7.56727e-08

> <i_epik_Tot_Q>
0

> <i_epik_Tot_abs_Q>
0

> <r_epik_Metal_State_Penalty>
-0

> <b_epik_Metal_Only>
0

> <s_lp_Force_Field>
OPLS_2005

> <r_lp_Energy>
18.7837

> <b_lp_Chiralities_Consistent>
1

> <s_lp_Variant>
AV-unprocessed.smi:2293-1

> <Gold.Version>
5.8.1

> <Gold.Id.Protein>
6NUR|6NUR_protein|mol2

> <Gold.PLP.Fitness>
44.3998

> <Gold.PLP.PLP>
-38.8601

> <Gold.PLP.part.hbond>
-2.0000

> <Gold.PLP.part.metal>
0.0000

> <Gold.PLP.part.buried>
-4.8443

> <Gold.PLP.part.nonpolar>
-29.9463

> <Gold.PLP.part.repulsive>
0.0588

> <Gold.PLP.ligand.clash>
0.0000

> <Gold.PLP.ligand.torsion>
1.4941

> <Gold.PLP.Chemscore.Hbond>
1.8406

> <Gold.PLP.Chemscore.CHOScore>
1.0000

> <Gold.PLP.Chemscore.Metal>
0.0000

> <Gold.Chemscore.Hbonds>
donor molecule, donor type, donor heavy atom, donor atom, acceptor molecule, acceptor atom, score
      P1  H  7989  7998       L1     8  1.00
      P1  H  7997  8009       L1    17  0.83
      L1  C     4    23       P1  8028  1.00

> <Gold.PLP.Chemscore.Internal.Correction>
0.0062

> <Gold.Rescore>
     Score         DG    S(hbond)    S(metal)    S(lipo)     H(rot)  DE(clash)    DE(int)     intcor
     14.34     -16.49       1.78        0.00      87.42       2.02       0.08       2.07       ----

> <Gold.Chemscore.Fitness>
14.3420

> <Gold.Chemscore.DG>
-16.4926

> <Gold.Chemscore.ZeroCoef>
-5.4800

> <Gold.Chemscore.Hbond>
1.7816

> <Gold.Chemscore.Metal>
0.0000

> <Gold.Chemscore.Lipo>
87.4236

> <Gold.Chemscore.Internal_Hbond>
0.0000

> <Gold.Chemscore.DEClash>
0.0775

> <Gold.Chemscore.DEInternal>
2.0731

> <Gold.Chemscore.Rot>
2.0181

> <Gold.Chemscore.Internal.Correction>
   9.000000E+99

> <Gold.Chemscore.Hbonds>
donor molecule, donor type, donor heavy atom, donor atom, acceptor molecule, acceptor atom, score
      P1  H  7989  7998       L1     8  0.94
      P1  H  7997  8009       L1    17  0.78

> <Gold.Chemscore.Hbond.Weighted>
-5.9504

> <Gold.Chemscore.Metal.Weighted>
-0.0000

> <Gold.Chemscore.Lipo.Weighted>
-10.2286

> <Gold.Chemscore.Internal_Hbond.Weighted>
0.0000

> <Gold.Chemscore.DEClash.Weighted>
0.0775

> <Gold.Chemscore.DEInternal.Weighted>
2.0731

> <Gold.Chemscore.Rot.Weighted>
5.1663

> <Gold.Chemscore.Internal.Correction.Weighted>
   9.000000E+99

> <Gold.Protein.RotatedTorsions>
[ 6907 6896 6895 6894 ] final -146.80 input  -60.11 | X-H torsion
[ 7974 7965 7964 7962 ] final  -54.48 input  175.53 | X-H torsion
[ 8008 7997 7996 7995 ] final  169.23 input   59.86 | X-H torsion
[ 10167 10162 10161 10158 ] final   53.21 input  -65.29 | X-H torsion
[ 10718 10713 10712 10709 ] final  -67.76 input   66.30 | X-H torsion
[ 10763 10752 10751 10750 ] final -161.61 input  -60.55 | X-H torsion
[ 11005 11000 10999 10996 ] final  -68.03 input  -57.11 | X-H torsion

> <Gold.Protein.ActiveResidues>
 VAL166  LYS551  ARG553  GLY616  TRP617  ASP618  TYR619  PRO620  LYS621  CYS622 
 ASP623  PHE694  ASN695  SER759  ASP760  ASP761  ALA762  ILE779  LEU786  VAL792 
 PHE793  MET794  SER795  GLU796  ALA797  LYS798  CYS799  TRP800  GLU811  SER814 

> <Gold.Protein.RotatedAtoms>
  151.1467  133.4935  159.2595 H   0  0  0  0  0  0  0  0  0  0  0  0  # atno 6907 bound_to 6896
  151.1597  135.0267  159.8715 H   0  0  0  0  0  0  0  0  0  0  0  0  # atno 6908 bound_to 6896
  152.5463  134.1342  159.8505 H   0  0  0  0  0  0  0  0  0  0  0  0  # atno 6909 bound_to 6896
  145.8851  140.8114  142.9820 H   0  0  0  0  0  0  0  0  0  0  0  0  # atno 7974 bound_to 7965
  156.1476  140.1569  156.8821 H   0  0  0  0  0  0  0  0  0  0  0  0  # atno 8008 bound_to 7997
  154.5042  140.0817  156.7898 H   0  0  0  0  0  0  0  0  0  0  0  0  # atno 8009 bound_to 7997
  155.3958  140.3412  155.4256 H   0  0  0  0  0  0  0  0  0  0  0  0  # atno 8010 bound_to 7997
  140.2432  144.3560  150.6373 H   0  0  0  0  0  0  0  0  0  0  0  0  # atno 10167 bound_to 10162
  156.0540  130.4283  150.1902 H   0  0  0  0  0  0  0  0  0  0  0  0  # atno 10718 bound_to 10713
  154.7288  135.3042  154.8925 H   0  0  0  0  0  0  0  0  0  0  0  0  # atno 10763 bound_to 10752
  153.9774  135.6734  153.4753 H   0  0  0  0  0  0  0  0  0  0  0  0  # atno 10764 bound_to 10752
  153.0900  135.4964  154.8591 H   0  0  0  0  0  0  0  0  0  0  0  0  # atno 10765 bound_to 10752
  141.1522  133.6732  156.6384 H   0  0  0  0  0  0  0  0  0  0  0  0  # atno 11005 bound_to 11000
  144.6728  140.1443  143.7435 LP  0  0  0  0  0  0  0  0  0  0  0  0  # atno 17320 bound_to 7965
  145.8977  139.2412  143.1512 LP  0  0  0  0  0  0  0  0  0  0  0  0  # atno 17321 bound_to 7965
  140.6097  143.2169  151.6910 LP  0  0  0  0  0  0  0  0  0  0  0  0  # atno 17342 bound_to 10162
  139.5070  144.3661  152.0516 LP  0  0  0  0  0  0  0  0  0  0  0  0  # atno 17343 bound_to 10162
  156.9981  130.9914  151.3398 LP  0  0  0  0  0  0  0  0  0  0  0  0  # atno 17370 bound_to 10713
  157.5494  130.8172  149.8126 LP  0  0  0  0  0  0  0  0  0  0  0  0  # atno 17371 bound_to 10713
  140.3412  134.7847  157.4399 LP  0  0  0  0  0  0  0  0  0  0  0  0  # atno 17394 bound_to 11000
  140.0936  134.5567  155.8420 LP  0  0  0  0  0  0  0  0  0  0  0  0  # atno 17395 bound_to 11000

$$$$
