AV-unprocessed.smi:438|AV-procd|sdf|2565|dock9
  -GOLD-   2262022543D 1   1.00000     0.00000
 Structure written by MMmdl.
 48 49  0  0  0  0  0  0  0  0  1 V2000
  145.9492  131.8824  153.2014 C   0  0  0  0  0  0  0  0  0  0  0  0
  146.0871  133.3730  152.9478 C   0  0  0  0  0  0  0  0  0  0  0  0
  146.5215  134.1352  154.0397 N   0  0  0  0  0  0  0  0  0  0  0  0
  146.6726  135.4152  153.9190 C   0  0  0  0  0  0  0  0  0  0  0  0
  147.2288  136.6278  155.1490 S   0  0  0  0  0  0  0  0  0  0  0  0
  148.8348  135.9332  155.6336 C   0  0  0  0  0  0  0  0  0  0  0  0
  149.9996  136.7475  155.0806 C   0  0  0  0  0  0  0  0  0  0  0  0
  150.9950  136.1794  154.6327 O   0  0  0  0  0  0  0  0  0  0  0  0
  149.8617  138.0812  155.1279 N   0  0  0  0  0  0  0  0  0  0  0  0
  150.8652  139.0611  154.7139 C   0  0  2  0  0  0  0  0  0  0  0  0
  152.2079  138.8039  155.4324 C   0  0  0  0  0  0  0  0  0  0  0  0
  152.1279  139.1151  156.9371 C   0  0  0  0  0  0  0  0  0  0  0  0
  151.6381  140.5502  157.1822 C   0  0  0  0  0  0  0  0  0  0  0  0
  150.2945  140.8119  156.4827 C   0  0  0  0  0  0  0  0  0  0  0  0
  150.3703  140.5059  154.9717 C   0  0  2  0  0  0  0  0  0  0  0  0
  149.0398  140.8159  154.2640 C   0  0  0  0  0  0  0  0  0  0  0  0
  146.3987  136.0491  152.7066 N   0  0  0  0  0  0  0  0  0  0  0  0
  145.9725  135.4057  151.5972 C   0  0  0  0  0  0  0  0  0  0  0  0
  145.7458  136.0304  150.5624 O   0  0  0  0  0  0  0  0  0  0  0  0
  145.8096  133.9498  151.7449 C   0  0  0  0  0  0  0  0  0  0  0  0
  145.3568  133.1582  150.5212 C   0  0  0  0  0  0  0  0  0  0  0  0
  144.0121  132.4531  150.7504 C   0  0  0  0  0  0  0  0  0  0  0  0
  143.5811  131.8458  149.5520 O   0  0  0  0  0  0  0  0  0  0  0  0
  144.9600  131.5314  152.9067 H   0  0  0  0  0  0  0  0  0  0  0  0
  146.0843  131.6465  154.2578 H   0  0  0  0  0  0  0  0  0  0  0  0
  146.6986  131.3289  152.6355 H   0  0  0  0  0  0  0  0  0  0  0  0
  148.9141  134.9093  155.2665 H   0  0  0  0  0  0  0  0  0  0  0  0
  148.8944  135.8918  156.7219 H   0  0  0  0  0  0  0  0  0  0  0  0
  149.0035  138.4511  155.5104 H   0  0  0  0  0  0  0  0  0  0  0  0
  151.0256  138.9502  153.6398 H   0  0  0  0  0  0  0  0  0  0  0  0
  152.5316  137.7733  155.2821 H   0  0  0  0  0  0  0  0  0  0  0  0
  152.9792  139.4286  154.9807 H   0  0  0  0  0  0  0  0  0  0  0  0
  151.4551  138.4092  157.4259 H   0  0  0  0  0  0  0  0  0  0  0  0
  153.1063  138.9741  157.3969 H   0  0  0  0  0  0  0  0  0  0  0  0
  151.5412  140.7321  158.2529 H   0  0  0  0  0  0  0  0  0  0  0  0
  152.3835  141.2574  156.8158 H   0  0  0  0  0  0  0  0  0  0  0  0
  149.5172  140.2045  156.9485 H   0  0  0  0  0  0  0  0  0  0  0  0
  150.0028  141.8513  156.6373 H   0  0  0  0  0  0  0  0  0  0  0  0
  151.1150  141.1790  154.5440 H   0  0  0  0  0  0  0  0  0  0  0  0
  148.2163  140.2296  154.6727 H   0  0  0  0  0  0  0  0  0  0  0  0
  149.1047  140.6012  153.1971 H   0  0  0  0  0  0  0  0  0  0  0  0
  148.7777  141.8688  154.3712 H   0  0  0  0  0  0  0  0  0  0  0  0
  146.5221  137.0494  152.6479 H   0  0  0  0  0  0  0  0  0  0  0  0
  146.1124  132.4220  150.2475 H   0  0  0  0  0  0  0  0  0  0  0  0
  145.2876  133.8275  149.6623 H   0  0  0  0  0  0  0  0  0  0  0  0
  144.1043  131.6889  151.5227 H   0  0  0  0  0  0  0  0  0  0  0  0
  143.2523  133.1621  151.0805 H   0  0  0  0  0  0  0  0  0  0  0  0
  143.3440  132.5248  148.9389 H   0  0  0  0  0  0  0  0  0  0  0  0
  1 24  1  0  0  0  0
  1 25  1  0  0  0  0
  1 26  1  0  0  0  0
  1  2  1  0  0  0  0
  2 20  2  0  0  0  0
  2  3  1  0  0  0  0
  3  4  2  0  0  0  0
  4  5  1  0  0  0  0
  4 17  1  0  0  0  0
  5  6  1  0  0  0  0
  6  7  1  0  0  0  0
  6 27  1  0  0  0  0
  6 28  1  0  0  0  0
  7  8  2  0  0  0  0
  7  9  1  0  0  0  0
  9 10  1  0  0  0  0
  9 29  1  0  0  0  0
 10 15  1  0  0  0  0
 10 11  1  0  0  0  0
 10 30  1  0  0  0  0
 11 12  1  0  0  0  0
 11 31  1  0  0  0  0
 11 32  1  0  0  0  0
 12 13  1  0  0  0  0
 12 33  1  0  0  0  0
 12 34  1  0  0  0  0
 13 14  1  0  0  0  0
 13 35  1  0  0  0  0
 13 36  1  0  0  0  0
 14 15  1  0  0  0  0
 14 37  1  0  0  0  0
 14 38  1  0  0  0  0
 15 16  1  0  0  0  0
 15 39  1  0  0  0  0
 16 40  1  0  0  0  0
 16 41  1  0  0  0  0
 16 42  1  0  0  0  0
 17 43  1  0  0  0  0
 17 18  1  0  0  0  0
 18 19  2  0  0  0  0
 18 20  1  0  0  0  0
 20 21  1  0  0  0  0
 21 22  1  0  0  0  0
 21 44  1  0  0  0  0
 21 45  1  0  0  0  0
 22 23  1  0  0  0  0
 22 46  1  0  0  0  0
 22 47  1  0  0  0  0
 23 48  1  0  0  0  0
M  END
> <s_m_source_file>
AV-unprocessed.smi

> <i_m_source_file_index>
438

> <i_lp_mmshare_version>
43012

> <i_f3d_flags>
0

> <s_epik_input>
W09IXVtDSDJdW0NIMl1jMWMoW09IXSluYyhuYzFbQ0gzXSlTW0NIMl1DKD1PKVtOSF1bQ0BASF0yW0NIMl1bQ0gyXVtDSDJdW0NIMl1bQ0BIXTJbQ0gzXQ==

> <s_epik_cmdline>
J2VwaWtfcHl0aG9uJywgJy1waCcsICc3LjAnLCAnLXRuJywgJzgnLCAnLW1hJywgJzIwMCcsICctbWV0YWxfYmluZGluZycsICctaW1hZScsICc8aW5maWxlLm1hZT4nLCAnLW9tYWUnLCAnPG91dGZpbGUubWFlPic=

> <r_lp_tautomer_probability>
0.660323

> <r_epik_Ionization_Penalty>
0.00860626

> <r_epik_Ionization_Penalty_Charging>
0.00860522

> <r_epik_Ionization_Penalty_Neutral>
1.04215e-06

> <r_epik_State_Penalty>
0.156825

> <r_epik_Charging_Adjusted_Penalty>
0.16543

> <i_epik_Tot_Q>
0

> <i_epik_Tot_abs_Q>
0

> <r_epik_Metal_State_Penalty>
0.752038

> <b_epik_Metal_Only>
0

> <s_lp_Force_Field>
OPLS_2005

> <r_lp_Energy>
12.4019

> <b_lp_Chiralities_Consistent>
1

> <s_lp_Variant>
AV-unprocessed.smi:438-3

> <Gold.Version>
5.8.1

> <Gold.Id.Protein>
6NUR|6NUR_protein|mol2

> <Gold.PLP.Fitness>
39.6009

> <Gold.PLP.PLP>
-34.8743

> <Gold.PLP.part.hbond>
-4.0000

> <Gold.PLP.part.metal>
0.0000

> <Gold.PLP.part.buried>
-4.4253

> <Gold.PLP.part.nonpolar>
-27.8723

> <Gold.PLP.part.repulsive>
1.3273

> <Gold.PLP.ligand.clash>
0.0000

> <Gold.PLP.ligand.torsion>
0.6478

> <Gold.PLP.Chemscore.Hbond>
2.0000

> <Gold.PLP.Chemscore.CHOScore>
0.0000

> <Gold.PLP.Chemscore.Metal>
0.0000

> <Gold.Chemscore.Hbonds>
donor molecule, donor type, donor heavy atom, donor atom, acceptor molecule, acceptor atom, score
      P1  H 10752 10765       L1     8  1.00
      P1  H 10785 10796       L1    23  0.96

> <Gold.PLP.Chemscore.Internal.Correction>
0.0222

> <Gold.Rescore>
     Score         DG    S(hbond)    S(metal)    S(lipo)     H(rot)  DE(clash)    DE(int)     intcor
     12.84     -13.60       1.90        0.00      77.94       2.86       0.18       0.58       ----

> <Gold.Chemscore.Fitness>
12.8439

> <Gold.Chemscore.DG>
-13.5977

> <Gold.Chemscore.ZeroCoef>
-5.4800

> <Gold.Chemscore.Hbond>
1.8958

> <Gold.Chemscore.Metal>
0.0000

> <Gold.Chemscore.Lipo>
77.9376

> <Gold.Chemscore.Internal_Hbond>
0.0000

> <Gold.Chemscore.DEClash>
0.1752

> <Gold.Chemscore.DEInternal>
0.5786

> <Gold.Chemscore.Rot>
2.8645

> <Gold.Chemscore.Internal.Correction>
   9.000000E+99

> <Gold.Chemscore.Hbonds>
donor molecule, donor type, donor heavy atom, donor atom, acceptor molecule, acceptor atom, score
      P1  H 10752 10765       L1     8  0.94
      P1  H 10785 10796       L1    23  0.60

> <Gold.Chemscore.Hbond.Weighted>
-6.3321

> <Gold.Chemscore.Metal.Weighted>
-0.0000

> <Gold.Chemscore.Lipo.Weighted>
-9.1187

> <Gold.Chemscore.Internal_Hbond.Weighted>
0.0000

> <Gold.Chemscore.DEClash.Weighted>
0.1752

> <Gold.Chemscore.DEInternal.Weighted>
0.5786

> <Gold.Chemscore.Rot.Weighted>
7.3331

> <Gold.Chemscore.Internal.Correction.Weighted>
   9.000000E+99

> <Gold.Protein.RotatedTorsions>
[ 6907 6896 6895 6894 ] final  -37.71 input  -60.11 | X-H torsion
[ 7974 7965 7964 7962 ] final    6.40 input  175.53 | X-H torsion
[ 8008 7997 7996 7995 ] final  -26.10 input   59.86 | X-H torsion
[ 10167 10162 10161 10158 ] final  161.79 input  -65.29 | X-H torsion
[ 10718 10713 10712 10709 ] final  -52.08 input   66.30 | X-H torsion
[ 10763 10752 10751 10750 ] final  166.60 input  -60.55 | X-H torsion
[ 11005 11000 10999 10996 ] final  153.89 input  -57.11 | X-H torsion

> <Gold.Protein.ActiveResidues>
 VAL166  LYS551  ARG553  GLY616  TRP617  ASP618  TYR619  PRO620  LYS621  CYS622 
 ASP623  PHE694  ASN695  SER759  ASP760  ASP761  ALA762  ILE779  LEU786  VAL792 
 PHE793  MET794  SER795  GLU796  ALA797  LYS798  CYS799  TRP800  GLU811  SER814 

> <Gold.Protein.RotatedAtoms>
  151.0114  134.9399  159.8008 H   0  0  0  0  0  0  0  0  0  0  0  0  # atno 6907 bound_to 6896
  152.5303  134.3023  159.9093 H   0  0  0  0  0  0  0  0  0  0  0  0  # atno 6908 bound_to 6896
  151.3029  133.4072  159.2675 H   0  0  0  0  0  0  0  0  0  0  0  0  # atno 6909 bound_to 6896
  146.2435  140.0238  142.8395 H   0  0  0  0  0  0  0  0  0  0  0  0  # atno 7974 bound_to 7965
  154.4442  140.1908  156.0723 H   0  0  0  0  0  0  0  0  0  0  0  0  # atno 8008 bound_to 7997
  156.0502  140.3309  155.7315 H   0  0  0  0  0  0  0  0  0  0  0  0  # atno 8009 bound_to 7997
  155.5568  140.0600  157.2828 H   0  0  0  0  0  0  0  0  0  0  0  0  # atno 8010 bound_to 7997
  139.4853  144.4501  151.8840 H   0  0  0  0  0  0  0  0  0  0  0  0  # atno 10167 bound_to 10162
  156.1653  130.4149  149.9730 H   0  0  0  0  0  0  0  0  0  0  0  0  # atno 10718 bound_to 10713
  154.3415  135.2754  155.2420 H   0  0  0  0  0  0  0  0  0  0  0  0  # atno 10763 bound_to 10752
  154.4689  135.5888  153.6311 H   0  0  0  0  0  0  0  0  0  0  0  0  # atno 10764 bound_to 10752
  152.9857  135.6083  154.3616 H   0  0  0  0  0  0  0  0  0  0  0  0  # atno 10765 bound_to 10752
  140.1439  134.8721  157.2366 H   0  0  0  0  0  0  0  0  0  0  0  0  # atno 11005 bound_to 11000
  145.1216  140.9466  143.4597 LP  0  0  0  0  0  0  0  0  0  0  0  0  # atno 17320 bound_to 7965
  145.0475  139.3209  143.5945 LP  0  0  0  0  0  0  0  0  0  0  0  0  # atno 17321 bound_to 7965
  140.3958  144.2557  150.5896 LP  0  0  0  0  0  0  0  0  0  0  0  0  # atno 17342 bound_to 10162
  140.5104  143.2292  151.8544 LP  0  0  0  0  0  0  0  0  0  0  0  0  # atno 17343 bound_to 10162
  156.7546  130.9128  151.3639 LP  0  0  0  0  0  0  0  0  0  0  0  0  # atno 17370 bound_to 10713
  157.6763  130.9098  150.0159 LP  0  0  0  0  0  0  0  0  0  0  0  0  # atno 17371 bound_to 10713
  140.2688  134.3484  155.7380 LP  0  0  0  0  0  0  0  0  0  0  0  0  # atno 17394 bound_to 11000
  141.2190  133.7411  156.9192 LP  0  0  0  0  0  0  0  0  0  0  0  0  # atno 17395 bound_to 11000

$$$$
