#       Name:                AV-unprocessed.smi:1563
#       Creating user name   scv26
#       Creation time:       Fri Mar 27 06:49:00 2020


#       File generated by GOLD software.
#

@<TRIPOS>MOLECULE
AV-unprocessed.smi:1563
    48    49     1
SMALL
NO_CHARGES


@<TRIPOS>ATOM
      1 ****        -4.8298   4.3941   0.6912 C.3            1 S1                 0.0000
      2 ****        -3.9998   3.1286   0.8788 C.2            1 S1                 0.0000
      3 ****        -3.8426   2.6567   2.0044 O.2            1 S1                 0.0000
      4 ****        -3.4805   2.5862  -0.2331 N.am           1 S1                 0.0000
      5 ****        -2.6678   1.3750  -0.2759 C.3            1 S1                 0.0000
      6 ****        -3.5635   0.1143  -0.2742 C.3            1 S1                 0.0000
      7 ****        -2.7537  -1.1715  -0.5307 C.3            1 S1                 0.0000
      8 ****        -1.8452  -1.0166  -1.7635 C.3            1 S1                 0.0000
      9 ****        -0.9789   0.1566  -1.5602 N.am           1 S1                 0.0000
     10 ****         0.3272   0.1337  -1.1921 C.2            1 S1                 0.0000
     11 ****         0.9501   1.1413  -0.8536 O.2            1 S1                 0.0000
     12 ****         0.9043  -1.0791  -1.2385 N.am           1 S1                 0.0000
     13 ****         2.2825  -1.3684  -0.8599 C.3            1 S1                 0.0000
     14 ****         2.4342  -1.4813   0.6664 C.3            1 S1                 0.0000
     15 ****         3.8613  -1.7827   1.0818 C.ar           1 S1                 0.0000
     16 ****         4.7085  -0.7526   1.5431 C.ar           1 S1                 0.0000
     17 ****         6.0268  -1.0830   1.9118 C.ar           1 S1                 0.0000
     18 ****         6.4455  -2.4232   1.8045 C.ar           1 S1                 0.0000
     19 ****         5.5232  -3.3774   1.3303 C.ar           1 S1                 0.0000
     20 ****         4.2567  -3.0714   0.9741 N.ar           1 S1                 0.0000
     21 ****        -1.7677   1.3944  -1.5282 C.3            1 S1                 0.0000
     22 ****        -4.3863   5.0427  -0.0651 H              1 S1                 0.0000
     23 ****        -4.8928   4.9546   1.6245 H              1 S1                 0.0000
     24 ****        -5.8416   4.1369   0.3769 H              1 S1                 0.0000
     25 ****        -3.6627   3.0448  -1.1139 H              1 S1                 0.0000
     26 ****        -2.0207   1.3499   0.6034 H              1 S1                 0.0000
     27 ****        -4.1027   0.0310   0.6700 H              1 S1                 0.0000
     28 ****        -4.3212   0.2106  -1.0530 H              1 S1                 0.0000
     29 ****        -2.1429  -1.3979   0.3444 H              1 S1                 0.0000
     30 ****        -3.4290  -2.0168  -0.6646 H              1 S1                 0.0000
     31 ****        -1.3006  -1.9431  -1.9442 H              1 S1                 0.0000
     32 ****        -2.4539  -0.8645  -2.6560 H              1 S1                 0.0000
     33 ****         0.3392  -1.8608  -1.5368 H              1 S1                 0.0000
     34 ****         2.5741  -2.3056  -1.3345 H              1 S1                 0.0000
     35 ****         2.9486  -0.5992  -1.2548 H              1 S1                 0.0000
     36 ****         2.1147  -0.5556   1.1469 H              1 S1                 0.0000
     37 ****         1.7801  -2.2655   1.0508 H              1 S1                 0.0000
     38 ****         4.3587   0.2671   1.6118 H              1 S1                 0.0000
     39 ****         6.7045  -0.3221   2.2697 H              1 S1                 0.0000
     40 ****         7.4492  -2.7129   2.0783 H              1 S1                 0.0000
     41 ****         5.8108  -4.4138   1.2342 H              1 S1                 0.0000
     42 ****        -2.3750   1.4591  -2.4325 H              1 S1                 0.0000
     43 ****        -1.1409   2.2877  -1.5315 H              1 S1                 0.0000
     44 ****        -4.2592   3.1031   2.7964 LP             1 S1                 0.0000
     45 ****        -3.2983   1.8268   2.1271 LP             1 S1                 0.0000
     46 ****         0.4934   2.0308  -0.8413 LP             1 S1                 0.0000
     47 ****         1.9124   1.0696  -0.5912 LP             1 S1                 0.0000
     48 ****         3.6306  -3.7763   0.6409 LP             1 S1                 0.0000
@<TRIPOS>BOND
    1    1    2 1     
    2    1   22 1     
    3    1   23 1     
    4    1   24 1     
    5    2    3 2     
    6    2    4 am    
    7    4    5 1     
    8    4   25 1     
    9    5   21 1     
   10    5    6 1     
   11    5   26 1     
   12    6    7 1     
   13    6   27 1     
   14    6   28 1     
   15    7    8 1     
   16    7   29 1     
   17    7   30 1     
   18    8    9 1     
   19    8   31 1     
   20    8   32 1     
   21    9   10 am    
   22    9   21 1     
   23   10   11 2     
   24   10   12 am    
   25   12   13 1     
   26   12   33 1     
   27   13   14 1     
   28   13   34 1     
   29   13   35 1     
   30   14   15 1     
   31   14   36 1     
   32   14   37 1     
   33   15   20 ar    
   34   15   16 ar    
   35   16   17 ar    
   36   16   38 1     
   37   17   18 ar    
   38   17   39 1     
   39   18   19 ar    
   40   18   40 1     
   41   19   20 ar    
   42   19   41 1     
   43   21   42 1     
   44   21   43 1     
   45    3   44 1     
   46    3   45 1     
   47   11   46 1     
   48   11   47 1     
   49   20   48 1     
@<TRIPOS>SUBSTRUCTURE
      1 S1             1
@<TRIPOS>SET
LONE_PAIRS      STATIC     ATOMS    <user>   **** ""
5 44 45 46 47 48
DONOR_HYDROGENS      STATIC     ATOMS    <user>   **** ""
2 25 33
ATOM$BLUE        STATIC     ATOMS    COLORGROUP SYSTEM
5 44 45 46 47 48
ATOM$RED        STATIC     ATOMS    COLORGROUP SYSTEM
2 25 33
