AV-unprocessed.smi:2121|AV-procd|sdf|8644|dock1
  -GOLD-   2272011393D 1   1.00000     0.00000
 Structure written by MMmdl.
 49 50  0  0  0  0  0  0  0  0  1 V2000
  153.8023  141.7632  161.6789 C   0  0  0  0  0  0  0  0  0  0  0  0
  153.1999  142.2625  160.3613 C   0  0  1  0  0  0  0  0  0  0  0  0
  152.8399  141.1004  159.4185 C   0  0  0  0  0  0  0  0  0  0  0  0
  152.1547  141.6019  158.2317 N   0  0  0  0  0  0  0  0  0  0  0  0
  152.0615  140.6944  157.1547 C   0  0  0  0  0  0  0  0  0  0  0  0
  150.8584  140.5904  156.4173 C   0  0  0  0  0  0  0  0  0  0  0  0
  150.7896  139.6886  155.3388 C   0  0  0  0  0  0  0  0  0  0  0  0
  151.9179  138.9066  155.0243 C   0  0  0  0  0  0  0  0  0  0  0  0
  151.8670  137.9401  153.8480 C   0  0  0  0  0  0  0  0  0  0  0  0
  150.9657  136.8068  154.0272 N   0  0  0  0  0  0  0  0  0  0  0  0
  151.1630  135.7964  154.8872 C   0  0  0  0  0  0  0  0  0  0  0  0
  152.1337  135.7333  155.6434 O   0  0  0  0  0  0  0  0  0  0  0  0
  150.0917  134.6948  154.8950 C   0  0  2  0  0  0  0  0  0  0  0  0
  150.7512  133.3783  154.4517 C   0  0  0  0  0  0  0  0  0  0  0  0
  149.0248  135.0124  153.9472 N   0  0  0  0  0  0  0  0  0  0  0  0
  147.7216  135.0890  154.2551 C   0  0  0  0  0  0  0  0  0  0  0  0
  146.9705  135.4179  153.2038 N   0  0  0  0  0  0  0  0  0  0  0  0
  147.2566  134.8841  155.3750 O   0  0  0  0  0  0  0  0  0  0  0  0
  153.0732  139.0728  155.8192 C   0  0  0  0  0  0  0  0  0  0  0  0
  153.1448  139.9365  156.8540 N   0  0  0  0  0  0  0  0  0  0  0  0
  150.9822  142.4147  158.5480 C   0  0  0  0  0  0  0  0  0  0  0  0
  151.3398  143.5446  159.5338 C   0  0  2  0  0  0  0  0  0  0  0  0
  152.1117  144.7064  158.8831 C   0  0  0  0  0  0  0  0  0  0  0  0
  152.0248  143.0116  160.6696 O   0  0  0  0  0  0  0  0  0  0  0  0
  154.7118  141.1886  161.5023 H   0  0  0  0  0  0  0  0  0  0  0  0
  153.1011  141.1242  162.2165 H   0  0  0  0  0  0  0  0  0  0  0  0
  154.0585  142.5987  162.3307 H   0  0  0  0  0  0  0  0  0  0  0  0
  153.9335  142.9095  159.8803 H   0  0  0  0  0  0  0  0  0  0  0  0
  153.7473  140.5558  159.1609 H   0  0  0  0  0  0  0  0  0  0  0  0
  152.1828  140.3939  159.9274 H   0  0  0  0  0  0  0  0  0  0  0  0
  149.9908  141.1807  156.6713 H   0  0  0  0  0  0  0  0  0  0  0  0
  149.8802  139.5994  154.7628 H   0  0  0  0  0  0  0  0  0  0  0  0
  151.5990  138.4818  152.9392 H   0  0  0  0  0  0  0  0  0  0  0  0
  152.8717  137.5490  153.6869 H   0  0  0  0  0  0  0  0  0  0  0  0
  150.1407  136.7816  153.4456 H   0  0  0  0  0  0  0  0  0  0  0  0
  149.6752  134.5762  155.8974 H   0  0  0  0  0  0  0  0  0  0  0  0
  151.5558  133.0913  155.1301 H   0  0  0  0  0  0  0  0  0  0  0  0
  151.1725  133.4514  153.4478 H   0  0  0  0  0  0  0  0  0  0  0  0
  150.0269  132.5631  154.4459 H   0  0  0  0  0  0  0  0  0  0  0  0
  149.3045  135.2077  152.9973 H   0  0  0  0  0  0  0  0  0  0  0  0
  145.9695  135.5028  153.3006 H   0  0  0  0  0  0  0  0  0  0  0  0
  147.4102  135.5755  152.3086 H   0  0  0  0  0  0  0  0  0  0  0  0
  153.9718  138.5067  155.6230 H   0  0  0  0  0  0  0  0  0  0  0  0
  150.5543  142.8414  157.6399 H   0  0  0  0  0  0  0  0  0  0  0  0
  150.2208  141.7710  158.9907 H   0  0  0  0  0  0  0  0  0  0  0  0
  150.4056  143.9614  159.9109 H   0  0  0  0  0  0  0  0  0  0  0  0
  151.5105  145.1814  158.1075 H   0  0  0  0  0  0  0  0  0  0  0  0
  153.0392  144.3774  158.4153 H   0  0  0  0  0  0  0  0  0  0  0  0
  152.3598  145.4691  159.6213 H   0  0  0  0  0  0  0  0  0  0  0  0
  1  2  1  0  0  0  0
  1 25  1  0  0  0  0
  1 26  1  0  0  0  0
  1 27  1  0  0  0  0
  2 24  1  0  0  0  0
  2  3  1  0  0  0  0
  2 28  1  0  0  0  0
  3  4  1  0  0  0  0
  3 29  1  0  0  0  0
  3 30  1  0  0  0  0
  4  5  1  0  0  0  0
  4 21  1  0  0  0  0
  5 20  1  0  0  0  0
  5  6  2  0  0  0  0
  6  7  1  0  0  0  0
  6 31  1  0  0  0  0
  7  8  2  0  0  0  0
  7 32  1  0  0  0  0
  8  9  1  0  0  0  0
  8 19  1  0  0  0  0
  9 10  1  0  0  0  0
  9 33  1  0  0  0  0
  9 34  1  0  0  0  0
 10 11  1  0  0  0  0
 10 35  1  0  0  0  0
 11 12  2  0  0  0  0
 11 13  1  0  0  0  0
 13 14  1  0  0  0  0
 13 15  1  0  0  0  0
 13 36  1  0  0  0  0
 14 37  1  0  0  0  0
 14 38  1  0  0  0  0
 14 39  1  0  0  0  0
 15 16  1  0  0  0  0
 15 40  1  0  0  0  0
 16 17  1  0  0  0  0
 16 18  2  0  0  0  0
 17 41  1  0  0  0  0
 17 42  1  0  0  0  0
 19 20  2  0  0  0  0
 19 43  1  0  0  0  0
 21 22  1  0  0  0  0
 21 44  1  0  0  0  0
 21 45  1  0  0  0  0
 22 23  1  0  0  0  0
 22 24  1  0  0  0  0
 22 46  1  0  0  0  0
 23 47  1  0  0  0  0
 23 48  1  0  0  0  0
 23 49  1  0  0  0  0
M  END
> <s_m_source_file>
AV-unprocessed.smi

> <i_m_source_file_index>
2121

> <i_lp_mmshare_version>
43012

> <i_f3d_flags>
0

> <s_epik_input>
W0NIM11bQ0BASF0xW0NIMl1OKFtDSDJdW0NASF0oTzEpW0NIM10pYzJbY0hdW2NIXWMoW2NIXW4yKVtDSDJdW05IXUMoPU8pW0NASF0oW0NIM10pW05IXUMoPU8pW05IMl0=

> <s_epik_cmdline>
J2VwaWtfcHl0aG9uJywgJy1waCcsICc3LjAnLCAnLXRuJywgJzgnLCAnLW1hJywgJzIwMCcsICctbWV0YWxfYmluZGluZycsICctaW1hZScsICc8aW5maWxlLm1hZT4nLCAnLW9tYWUnLCAnPG91dGZpbGUubWFlPic=

> <r_lp_tautomer_probability>
1

> <r_epik_Ionization_Penalty>
0.0063713

> <r_epik_Ionization_Penalty_Charging>
0

> <r_epik_Ionization_Penalty_Neutral>
0.0063713

> <r_epik_State_Penalty>
0.00467069

> <r_epik_Charging_Adjusted_Penalty>
0.00467069

> <i_epik_Tot_Q>
0

> <i_epik_Tot_abs_Q>
0

> <r_epik_Metal_State_Penalty>
-0

> <b_epik_Metal_Only>
0

> <s_lp_Force_Field>
OPLS_2005

> <r_lp_Energy>
13.1908

> <b_lp_Chiralities_Consistent>
1

> <s_lp_Variant>
AV-unprocessed.smi:2121-5

> <Gold.Version>
5.8.1

> <Gold.Id.Protein>
6NUR|6NUR_protein|mol2

> <Gold.PLP.Fitness>
56.4519

> <Gold.PLP.PLP>
-44.9135

> <Gold.PLP.part.hbond>
-5.8931

> <Gold.PLP.part.metal>
0.0000

> <Gold.PLP.part.buried>
-1.6539

> <Gold.PLP.part.nonpolar>
-37.0064

> <Gold.PLP.part.repulsive>
0.1952

> <Gold.PLP.ligand.clash>
0.0000

> <Gold.PLP.ligand.torsion>
0.3737

> <Gold.PLP.Chemscore.Hbond>
3.9744

> <Gold.PLP.Chemscore.CHOScore>
0.0000

> <Gold.PLP.Chemscore.Metal>
0.0000

> <Gold.Chemscore.Hbonds>
donor molecule, donor type, donor heavy atom, donor atom, acceptor molecule, acceptor atom, score
      L1  H    10    35       P1  7948  0.75
      L1  H    15    40       P1  7948  0.40
      L1  H    17    42       P1  7948  0.67
      P1  H  7997  8010       L1    20  0.44
      P1  H 10752 10765       L1    12  0.17

> <Gold.PLP.Chemscore.Internal.Correction>
0.3626

> <Gold.Rescore>
     Score         DG    S(hbond)    S(metal)    S(lipo)     H(rot)  DE(clash)    DE(int)     intcor
     19.55     -20.77       2.79        0.00     107.52       2.58       0.09       1.12       ----

> <Gold.Chemscore.Fitness>
19.5503

> <Gold.Chemscore.DG>
-20.7658

> <Gold.Chemscore.ZeroCoef>
-5.4800

> <Gold.Chemscore.Hbond>
2.7904

> <Gold.Chemscore.Metal>
0.0000

> <Gold.Chemscore.Lipo>
107.5236

> <Gold.Chemscore.Internal_Hbond>
0.0000

> <Gold.Chemscore.DEClash>
0.0942

> <Gold.Chemscore.DEInternal>
1.1214

> <Gold.Chemscore.Rot>
2.5838

> <Gold.Chemscore.Internal.Correction>
   9.000000E+99

> <Gold.Chemscore.Hbonds>
donor molecule, donor type, donor heavy atom, donor atom, acceptor molecule, acceptor atom, score
      L1  H    10    35       P1  7948  0.09
      L1  H    15    40       P1  7948  0.02
      L1  H    17    42       P1  7948  0.68
      P1  H  7997  8010       L1    20  0.08

> <Gold.Chemscore.Hbond.Weighted>
-9.3200

> <Gold.Chemscore.Metal.Weighted>
-0.0000

> <Gold.Chemscore.Lipo.Weighted>
-12.5803

> <Gold.Chemscore.Internal_Hbond.Weighted>
0.0000

> <Gold.Chemscore.DEClash.Weighted>
0.0942

> <Gold.Chemscore.DEInternal.Weighted>
1.1214

> <Gold.Chemscore.Rot.Weighted>
6.6145

> <Gold.Chemscore.Internal.Correction.Weighted>
   9.000000E+99

> <Gold.Protein.RotatedTorsions>
[ 6907 6896 6895 6894 ] final   89.40 input  -60.11 | X-H torsion
[ 7974 7965 7964 7962 ] final  164.79 input  175.53 | X-H torsion
[ 8008 7997 7996 7995 ] final   39.58 input   59.86 | X-H torsion
[ 10167 10162 10161 10158 ] final  160.16 input  -65.29 | X-H torsion
[ 10718 10713 10712 10709 ] final -169.07 input   66.30 | X-H torsion
[ 10763 10752 10751 10750 ] final  171.36 input  -60.55 | X-H torsion
[ 11005 11000 10999 10996 ] final   82.39 input  -57.11 | X-H torsion

> <Gold.Protein.ActiveResidues>
 VAL166  LYS551  ARG553  GLY616  TRP617  ASP618  TYR619  PRO620  LYS621  CYS622 
 ASP623  PHE694  ASN695  SER759  ASP760  ASP761  ALA762  ILE779  LEU786  VAL792 
 PHE793  MET794  SER795  GLU796  ALA797  LYS798  CYS799  TRP800  GLU811  SER814 

> <Gold.Protein.RotatedAtoms>
  152.5436  134.1973  159.8697 H   0  0  0  0  0  0  0  0  0  0  0  0  # atno 6907 bound_to 6896
  151.1964  133.4630  159.2603 H   0  0  0  0  0  0  0  0  0  0  0  0  # atno 6908 bound_to 6896
  151.1032  134.9997  159.8514 H   0  0  0  0  0  0  0  0  0  0  0  0  # atno 6909 bound_to 6896
  144.7530  139.8376  143.6359 H   0  0  0  0  0  0  0  0  0  0  0  0  # atno 7974 bound_to 7965
  155.2390  140.3344  155.4294 H   0  0  0  0  0  0  0  0  0  0  0  0  # atno 8008 bound_to 7997
  156.2264  140.1831  156.7398 H   0  0  0  0  0  0  0  0  0  0  0  0  # atno 8009 bound_to 7997
  154.5905  140.0639  156.9217 H   0  0  0  0  0  0  0  0  0  0  0  0  # atno 8010 bound_to 7997
  139.4838  144.4661  151.8640 H   0  0  0  0  0  0  0  0  0  0  0  0  # atno 10167 bound_to 10162
  156.7062  130.9216  151.3085 H   0  0  0  0  0  0  0  0  0  0  0  0  # atno 10718 bound_to 10713
  154.4108  135.2756  155.2038 H   0  0  0  0  0  0  0  0  0  0  0  0  # atno 10763 bound_to 10752
  154.4025  135.6041  153.5909 H   0  0  0  0  0  0  0  0  0  0  0  0  # atno 10764 bound_to 10752
  152.9831  135.5930  154.4389 H   0  0  0  0  0  0  0  0  0  0  0  0  # atno 10765 bound_to 10752
  139.9065  134.8068  156.2168 H   0  0  0  0  0  0  0  0  0  0  0  0  # atno 11005 bound_to 11000
  146.1505  139.4587  143.0051 LP  0  0  0  0  0  0  0  0  0  0  0  0  # atno 17320 bound_to 7965
  145.6877  141.0173  143.1572 LP  0  0  0  0  0  0  0  0  0  0  0  0  # atno 17321 bound_to 7965
  140.4126  144.2348  150.5888 LP  0  0  0  0  0  0  0  0  0  0  0  0  # atno 17342 bound_to 10162
  140.4951  143.2335  151.8761 LP  0  0  0  0  0  0  0  0  0  0  0  0  # atno 17343 bound_to 10162
  157.6954  130.9276  150.0629 LP  0  0  0  0  0  0  0  0  0  0  0  0  # atno 17370 bound_to 10713
  156.1693  130.3646  149.9187 LP  0  0  0  0  0  0  0  0  0  0  0  0  # atno 17371 bound_to 10713
  141.0431  133.6927  156.1633 LP  0  0  0  0  0  0  0  0  0  0  0  0  # atno 17394 bound_to 11000
  140.6926  134.4650  157.5588 LP  0  0  0  0  0  0  0  0  0  0  0  0  # atno 17395 bound_to 11000

$$$$
