AV-unprocessed.smi:1670|AV-procd|sdf|6694|dock1
  -GOLD-   22720 7423D 1   1.00000     0.00000
 Structure written by MMmdl.
 41 42  0  0  0  0  0  0  0  0  1 V2000
  149.8700  132.7680  155.2441 C   0  0  0  0  0  0  0  0  0  0  0  0
  149.5198  134.2586  155.1416 C   0  0  1  0  0  0  0  0  0  0  0  0
  150.7915  135.1310  155.0649 C   0  0  0  0  0  0  0  0  0  0  0  0
  150.5062  136.5495  155.1941 N   0  0  0  0  0  0  0  0  0  0  0  0
  150.9203  137.5826  154.3801 C   0  0  0  0  0  0  0  0  0  0  0  0
  150.4236  138.7398  154.9078 C   0  0  0  0  0  0  0  0  0  0  0  0
  149.7079  138.3064  156.0588 C   0  0  0  0  0  0  0  0  0  0  0  0
  149.7542  136.9946  156.2247 N   0  0  0  0  0  0  0  0  0  0  0  0
  148.6715  134.4687  153.9689 N   0  0  0  0  0  0  0  0  0  0  0  0
  147.6283  133.7040  153.6148 C   0  0  0  0  0  0  0  0  0  0  0  0
  147.2800  132.6912  154.2219 O   0  0  0  0  0  0  0  0  0  0  0  0
  147.0016  134.1951  152.5343 N   0  0  0  0  0  0  0  0  0  0  0  0
  145.7910  133.6739  151.8976 C   0  0  2  0  0  0  0  0  0  0  0  0
  145.9690  132.2290  151.3819 C   0  0  0  0  0  0  0  0  0  0  0  0
  144.6546  131.6907  150.7936 C   0  0  0  0  0  0  0  0  0  0  0  0
  144.1210  132.6196  149.6880 C   0  0  1  0  0  0  0  0  0  0  0  0
  142.8828  132.1292  149.2192 O   0  0  0  0  0  0  0  0  0  0  0  0
  143.9401  134.0586  150.2051 C   0  0  0  0  0  0  0  0  0  0  0  0
  145.2523  134.6052  150.7903 C   0  0  0  0  0  0  0  0  0  0  0  0
  150.4783  132.5688  156.1268 H   0  0  0  0  0  0  0  0  0  0  0  0
  150.4293  132.4291  154.3713 H   0  0  0  0  0  0  0  0  0  0  0  0
  148.9701  132.1571  155.3218 H   0  0  0  0  0  0  0  0  0  0  0  0
  148.9700  134.5218  156.0471 H   0  0  0  0  0  0  0  0  0  0  0  0
  151.4788  134.8587  155.8665 H   0  0  0  0  0  0  0  0  0  0  0  0
  151.3237  134.9543  154.1284 H   0  0  0  0  0  0  0  0  0  0  0  0
  151.5326  137.4099  153.5072 H   0  0  0  0  0  0  0  0  0  0  0  0
  150.5548  139.7431  154.5308 H   0  0  0  0  0  0  0  0  0  0  0  0
  149.1586  138.9018  156.7733 H   0  0  0  0  0  0  0  0  0  0  0  0
  148.8731  135.2819  153.4059 H   0  0  0  0  0  0  0  0  0  0  0  0
  147.3857  135.0337  152.1244 H   0  0  0  0  0  0  0  0  0  0  0  0
  145.0439  133.6461  152.6919 H   0  0  0  0  0  0  0  0  0  0  0  0
  146.7431  132.1876  150.6151 H   0  0  0  0  0  0  0  0  0  0  0  0
  146.3026  131.5796  152.1922 H   0  0  0  0  0  0  0  0  0  0  0  0
  144.8120  130.6870  150.3971 H   0  0  0  0  0  0  0  0  0  0  0  0
  143.9141  131.5971  151.5895 H   0  0  0  0  0  0  0  0  0  0  0  0
  144.8195  132.6223  148.8501 H   0  0  0  0  0  0  0  0  0  0  0  0
  142.2252  132.7936  149.3575 H   0  0  0  0  0  0  0  0  0  0  0  0
  143.5983  134.7076  149.3980 H   0  0  0  0  0  0  0  0  0  0  0  0
  143.1646  134.0828  150.9723 H   0  0  0  0  0  0  0  0  0  0  0  0
  145.0876  135.6068  151.1895 H   0  0  0  0  0  0  0  0  0  0  0  0
  145.9817  134.7083  149.9867 H   0  0  0  0  0  0  0  0  0  0  0  0
  1  2  1  0  0  0  0
  1 20  1  0  0  0  0
  1 21  1  0  0  0  0
  1 22  1  0  0  0  0
  2  3  1  0  0  0  0
  2  9  1  0  0  0  0
  2 23  1  0  0  0  0
  3  4  1  0  0  0  0
  3 24  1  0  0  0  0
  3 25  1  0  0  0  0
  4  8  1  0  0  0  0
  4  5  1  0  0  0  0
  5  6  2  0  0  0  0
  5 26  1  0  0  0  0
  6  7  1  0  0  0  0
  6 27  1  0  0  0  0
  7  8  2  0  0  0  0
  7 28  1  0  0  0  0
  9 10  1  0  0  0  0
  9 29  1  0  0  0  0
 10 11  2  0  0  0  0
 10 12  1  0  0  0  0
 12 13  1  0  0  0  0
 12 30  1  0  0  0  0
 13 19  1  0  0  0  0
 13 14  1  0  0  0  0
 13 31  1  0  0  0  0
 14 15  1  0  0  0  0
 14 32  1  0  0  0  0
 14 33  1  0  0  0  0
 15 16  1  0  0  0  0
 15 34  1  0  0  0  0
 15 35  1  0  0  0  0
 16 17  1  0  0  0  0
 16 18  1  0  0  0  0
 16 36  1  0  0  0  0
 17 37  1  0  0  0  0
 18 19  1  0  0  0  0
 18 38  1  0  0  0  0
 18 39  1  0  0  0  0
 19 40  1  0  0  0  0
 19 41  1  0  0  0  0
M  END
> <s_m_source_file>
AV-unprocessed.smi

> <i_m_source_file_index>
1670

> <i_lp_mmshare_version>
43012

> <i_f3d_flags>
0

> <s_epik_input>
bjFbY0hdW2NIXVtjSF1uMVtDSDJdW0NAQEhdKFtDSDNdKVtOSF1DKD1PKVtOSF1bQ0BASF0yW0NIMl1bQ0gyXVtDQEBIXShbT0hdKVtDSDJdW0NIMl0y

> <s_epik_cmdline>
J2VwaWtfcHl0aG9uJywgJy1waCcsICc3LjAnLCAnLXRuJywgJzgnLCAnLW1hJywgJzIwMCcsICctbWV0YWxfYmluZGluZycsICctaW1hZScsICc8aW5maWxlLm1hZT4nLCAnLW9tYWUnLCAnPG91dGZpbGUubWFlPic=

> <r_lp_tautomer_probability>
1

> <r_epik_Ionization_Penalty>
7.33369e-05

> <r_epik_Ionization_Penalty_Charging>
0

> <r_epik_Ionization_Penalty_Neutral>
7.33369e-05

> <r_epik_State_Penalty>
-0

> <r_epik_Charging_Adjusted_Penalty>
0

> <i_epik_Tot_Q>
0

> <i_epik_Tot_abs_Q>
0

> <r_epik_Metal_State_Penalty>
-0

> <b_epik_Metal_Only>
0

> <s_lp_Force_Field>
OPLS_2005

> <r_lp_Energy>
5.2693

> <b_lp_Chiralities_Consistent>
1

> <s_lp_Variant>
AV-unprocessed.smi:1670-2

> <Gold.Version>
5.8.1

> <Gold.Id.Protein>
6NUR|6NUR_protein|mol2

> <Gold.PLP.Fitness>
48.6043

> <Gold.PLP.PLP>
-34.4237

> <Gold.PLP.part.hbond>
-5.0000

> <Gold.PLP.part.metal>
0.0000

> <Gold.PLP.part.buried>
-4.3994

> <Gold.PLP.part.nonpolar>
-26.0779

> <Gold.PLP.part.repulsive>
0.0746

> <Gold.PLP.ligand.clash>
0.0000

> <Gold.PLP.ligand.torsion>
0.3183

> <Gold.PLP.Chemscore.Hbond>
3.9175

> <Gold.PLP.Chemscore.CHOScore>
1.0000

> <Gold.PLP.Chemscore.Metal>
0.0000

> <Gold.Chemscore.Hbonds>
donor molecule, donor type, donor heavy atom, donor atom, acceptor molecule, acceptor atom, score
      L1  H     9    29       P1  7948  1.00
      L1  H    12    30       P1  7948  0.98
      L1  H    17    37       P1 10186  0.99
      P1  H 10785 10796       L1    17  0.91
      L1  C     5    26       P1  7949  1.00

> <Gold.PLP.Chemscore.Internal.Correction>
0.0646

> <Gold.Rescore>
     Score         DG    S(hbond)    S(metal)    S(lipo)     H(rot)  DE(clash)    DE(int)     intcor
     17.63     -19.39       3.15        0.00      77.62       2.22       0.22       1.54       ----

> <Gold.Chemscore.Fitness>
17.6331

> <Gold.Chemscore.DG>
-19.3917

> <Gold.Chemscore.ZeroCoef>
-5.4800

> <Gold.Chemscore.Hbond>
3.1496

> <Gold.Chemscore.Metal>
0.0000

> <Gold.Chemscore.Lipo>
77.6182

> <Gold.Chemscore.Internal_Hbond>
0.0000

> <Gold.Chemscore.DEClash>
0.2221

> <Gold.Chemscore.DEInternal>
1.5364

> <Gold.Chemscore.Rot>
2.2224

> <Gold.Chemscore.Internal.Correction>
   9.000000E+99

> <Gold.Chemscore.Hbonds>
donor molecule, donor type, donor heavy atom, donor atom, acceptor molecule, acceptor atom, score
      L1  H     9    29       P1  7948  0.64
      L1  H    12    30       P1  7948  0.88
      L1  H    17    37       P1 10186  0.92
      P1  H 10785 10796       L1    17  0.48

> <Gold.Chemscore.Hbond.Weighted>
-10.5197

> <Gold.Chemscore.Metal.Weighted>
-0.0000

> <Gold.Chemscore.Lipo.Weighted>
-9.0813

> <Gold.Chemscore.Internal_Hbond.Weighted>
0.0000

> <Gold.Chemscore.DEClash.Weighted>
0.2221

> <Gold.Chemscore.DEInternal.Weighted>
1.5364

> <Gold.Chemscore.Rot.Weighted>
5.6893

> <Gold.Chemscore.Internal.Correction.Weighted>
   9.000000E+99

> <Gold.Protein.RotatedTorsions>
[ 6907 6896 6895 6894 ] final  109.66 input  -60.11 | X-H torsion
[ 7974 7965 7964 7962 ] final -168.72 input  175.53 | X-H torsion
[ 8008 7997 7996 7995 ] final   71.65 input   59.86 | X-H torsion
[ 10167 10162 10161 10158 ] final  123.30 input  -65.29 | X-H torsion
[ 10718 10713 10712 10709 ] final  127.75 input   66.30 | X-H torsion
[ 10763 10752 10751 10750 ] final  138.17 input  -60.55 | X-H torsion
[ 11005 11000 10999 10996 ] final  158.43 input  -57.11 | X-H torsion

> <Gold.Protein.ActiveResidues>
 VAL166  LYS551  ARG553  GLY616  TRP617  ASP618  TYR619  PRO620  LYS621  CYS622 
 ASP623  PHE694  ASN695  SER759  ASP760  ASP761  ALA762  ILE779  LEU786  VAL792 
 PHE793  MET794  SER795  GLU796  ALA797  LYS798  CYS799  TRP800  GLU811  SER814 

> <Gold.Protein.RotatedAtoms>
  152.5057  133.8912  159.7394 H   0  0  0  0  0  0  0  0  0  0  0  0  # atno 6907 bound_to 6896
  150.9350  133.6713  159.2809 H   0  0  0  0  0  0  0  0  0  0  0  0  # atno 6908 bound_to 6896
  151.4044  135.0980  159.9618 H   0  0  0  0  0  0  0  0  0  0  0  0  # atno 6909 bound_to 6896
  144.7198  140.2329  143.6302 H   0  0  0  0  0  0  0  0  0  0  0  0  # atno 7974 bound_to 7965
  155.7571  140.3487  155.5179 H   0  0  0  0  0  0  0  0  0  0  0  0  # atno 8008 bound_to 7997
  155.8949  140.1024  157.1413 H   0  0  0  0  0  0  0  0  0  0  0  0  # atno 8009 bound_to 7997
  154.4037  140.1297  156.4350 H   0  0  0  0  0  0  0  0  0  0  0  0  # atno 8010 bound_to 7997
  139.5807  144.6985  151.3535 H   0  0  0  0  0  0  0  0  0  0  0  0  # atno 10167 bound_to 10162
  157.5305  131.1098  150.9016 H   0  0  0  0  0  0  0  0  0  0  0  0  # atno 10718 bound_to 10713
  153.8852  135.3039  155.3446 H   0  0  0  0  0  0  0  0  0  0  0  0  # atno 10763 bound_to 10752
  154.7742  135.4870  153.9714 H   0  0  0  0  0  0  0  0  0  0  0  0  # atno 10764 bound_to 10752
  153.1328  135.6807  153.9248 H   0  0  0  0  0  0  0  0  0  0  0  0  # atno 10765 bound_to 10752
  140.1864  134.8438  157.2862 H   0  0  0  0  0  0  0  0  0  0  0  0  # atno 11005 bound_to 11000
  145.8394  139.2122  143.1836 LP  0  0  0  0  0  0  0  0  0  0  0  0  # atno 17320 bound_to 7965
  146.0360  140.8211  142.9852 LP  0  0  0  0  0  0  0  0  0  0  0  0  # atno 17321 bound_to 7965
  140.7086  143.7450  150.7526 LP  0  0  0  0  0  0  0  0  0  0  0  0  # atno 17342 bound_to 10162
  140.0982  143.4813  152.2440 LP  0  0  0  0  0  0  0  0  0  0  0  0  # atno 17343 bound_to 10162
  156.9599  130.5451  149.5285 LP  0  0  0  0  0  0  0  0  0  0  0  0  # atno 17370 bound_to 10713
  156.0419  130.5500  150.8791 LP  0  0  0  0  0  0  0  0  0  0  0  0  # atno 17371 bound_to 10713
  140.2209  134.4025  155.7566 LP  0  0  0  0  0  0  0  0  0  0  0  0  # atno 17394 bound_to 11000
  141.2225  133.7165  156.8488 LP  0  0  0  0  0  0  0  0  0  0  0  0  # atno 17395 bound_to 11000

$$$$
