AV-unprocessed.smi:652|AV-procd|sdf|3192|dock9
  -GOLD-   22720 0123D 1   1.00000     0.00000
 Structure written by MMmdl.
 48 49  0  0  0  0  0  0  0  0  2 V2000
  143.6858  143.5918  162.4666 C   0  0  0  0  0  0  0  0  0  0  0  0
  144.9184  143.0656  161.7195 C   0  0  0  0  0  0  0  0  0  0  0  0
  146.0314  144.1224  161.6424 C   0  0  0  0  0  0  0  0  0  0  0  0
  144.5277  142.6372  160.3792 N   0  0  0  0  0  0  0  0  0  0  0  0
  145.3692  142.2324  159.4145 C   0  0  0  0  0  0  0  0  0  0  0  0
  146.5916  142.1938  159.5546 O   0  0  0  0  0  0  0  0  0  0  0  0
  144.7333  141.8137  158.0863 C   0  0  0  0  0  0  0  0  0  0  0  0
  145.1802  142.7096  156.9126 C   0  0  0  0  0  0  0  0  0  0  0  0
  146.1913  142.0543  156.0451 N   0  3  1  0  0  0  0  0  0  0  0  0
  146.2149  142.6281  154.6784 C   0  0  0  0  0  0  0  0  0  0  0  0
  147.2457  141.8970  153.8031 C   0  0  0  0  0  0  0  0  0  0  0  0
  148.5247  141.9632  154.4204 O   0  0  0  0  0  0  0  0  0  0  0  0
  148.5429  141.3187  155.6899 C   0  0  1  0  0  0  0  0  0  0  0  0
  149.9747  141.3663  156.2404 C   0  0  0  0  0  0  0  0  0  0  0  0
  150.3649  142.7171  156.6209 N   0  0  0  0  0  0  0  0  0  0  0  0
  150.9734  142.9565  157.8605 C   0  0  0  0  0  0  0  0  0  0  0  0
  151.5955  144.2002  158.0880 C   0  0  0  0  0  0  0  0  0  0  0  0
  152.2012  144.4072  159.3396 C   0  0  0  0  0  0  0  0  0  0  0  0
  152.1393  143.3530  160.2692 C   0  0  0  0  0  0  0  0  0  0  0  0
  151.5280  142.1782  159.9974 N   0  0  0  0  0  0  0  0  0  0  0  0
  150.9518  141.9831  158.8060 N   0  0  0  0  0  0  0  0  0  0  0  0
  147.5576  142.0476  156.6241 C   0  0  0  0  0  0  0  0  0  0  0  0
  143.9426  143.8905  163.4834 H   0  0  0  0  0  0  0  0  0  0  0  0
  142.9113  142.8269  162.5357 H   0  0  0  0  0  0  0  0  0  0  0  0
  143.2550  144.4590  161.9648 H   0  0  0  0  0  0  0  0  0  0  0  0
  145.2967  142.2046  162.2737 H   0  0  0  0  0  0  0  0  0  0  0  0
  146.3393  144.4387  162.6394 H   0  0  0  0  0  0  0  0  0  0  0  0
  145.7015  145.0090  161.0999 H   0  0  0  0  0  0  0  0  0  0  0  0
  146.9148  143.7314  161.1366 H   0  0  0  0  0  0  0  0  0  0  0  0
  143.5391  142.6441  160.1729 H   0  0  0  0  0  0  0  0  0  0  0  0
  144.9738  140.7693  157.8867 H   0  0  0  0  0  0  0  0  0  0  0  0
  143.6504  141.8691  158.2039 H   0  0  0  0  0  0  0  0  0  0  0  0
  144.3108  142.9484  156.2975 H   0  0  0  0  0  0  0  0  0  0  0  0
  145.5686  143.6608  157.2806 H   0  0  0  0  0  0  0  0  0  0  0  0
  145.2266  142.5480  154.2241 H   0  0  0  0  0  0  0  0  0  0  0  0
  146.4583  143.6906  154.7326 H   0  0  0  0  0  0  0  0  0  0  0  0
  146.9569  140.8569  153.6441 H   0  0  0  0  0  0  0  0  0  0  0  0
  147.3030  142.3651  152.8201 H   0  0  0  0  0  0  0  0  0  0  0  0
  148.2353  140.2768  155.5804 H   0  0  0  0  0  0  0  0  0  0  0  0
  150.0732  140.6992  157.0980 H   0  0  0  0  0  0  0  0  0  0  0  0
  150.6655  141.0105  155.4749 H   0  0  0  0  0  0  0  0  0  0  0  0
  150.0600  143.4954  156.0543 H   0  0  0  0  0  0  0  0  0  0  0  0
  151.6098  144.9711  157.3315 H   0  0  0  0  0  0  0  0  0  0  0  0
  152.6948  145.3373  159.5790 H   0  0  0  0  0  0  0  0  0  0  0  0
  152.5872  143.4519  161.2468 H   0  0  0  0  0  0  0  0  0  0  0  0
  147.8875  143.0742  156.7927 H   0  0  0  0  0  0  0  0  0  0  0  0
  147.5546  141.5499  157.5931 H   0  0  0  0  0  0  0  0  0  0  0  0
  145.9068  141.0903  155.9440 H   0  0  0  0  0  0  0  0  0  0  0  0
  1  2  1  0  0  0  0
  1 23  1  0  0  0  0
  1 24  1  0  0  0  0
  1 25  1  0  0  0  0
  2  3  1  0  0  0  0
  2  4  1  0  0  0  0
  2 26  1  0  0  0  0
  3 27  1  0  0  0  0
  3 28  1  0  0  0  0
  3 29  1  0  0  0  0
  4  5  1  0  0  0  0
  4 30  1  0  0  0  0
  5  6  2  0  0  0  0
  5  7  1  0  0  0  0
  7  8  1  0  0  0  0
  7 31  1  0  0  0  0
  7 32  1  0  0  0  0
  8  9  1  0  0  0  0
  8 33  1  0  0  0  0
  8 34  1  0  0  0  0
  9 22  1  0  0  0  0
  9 10  1  0  0  0  0
  9 48  1  0  0  0  0
 10 11  1  0  0  0  0
 10 35  1  0  0  0  0
 10 36  1  0  0  0  0
 11 12  1  0  0  0  0
 11 37  1  0  0  0  0
 11 38  1  0  0  0  0
 12 13  1  0  0  0  0
 13 14  1  0  0  0  0
 13 22  1  0  0  0  0
 13 39  1  0  0  0  0
 14 15  1  0  0  0  0
 14 40  1  0  0  0  0
 14 41  1  0  0  0  0
 15 16  1  0  0  0  0
 15 42  1  0  0  0  0
 16 21  1  0  0  0  0
 16 17  2  0  0  0  0
 17 18  1  0  0  0  0
 17 43  1  0  0  0  0
 18 19  2  0  0  0  0
 18 44  1  0  0  0  0
 19 20  1  0  0  0  0
 19 45  1  0  0  0  0
 20 21  2  0  0  0  0
 22 46  1  0  0  0  0
 22 47  1  0  0  0  0
M  CHG  1   9   1
M  END
> <s_m_source_file>
AV-unprocessed.smi

> <i_m_source_file_index>
652

> <i_lp_mmshare_version>
43012

> <i_f3d_flags>
0

> <s_epik_input>
W0NIM11bQ0hdKFtDSDNdKVtOSF1DKD1PKVtDSDJdW0NIMl1OMVtDSDJdW0NIMl1PW0NASF0oW0NIMl0xKVtDSDJdW05IXWMyW2NIXVtjSF1bY0hdbm4y

> <s_epik_cmdline>
J2VwaWtfcHl0aG9uJywgJy1waCcsICc3LjAnLCAnLXRuJywgJzgnLCAnLW1hJywgJzIwMCcsICctbWV0YWxfYmluZGluZycsICctaW1hZScsICc8aW5maWxlLm1hZT4nLCAnLW9tYWUnLCAnPG91dGZpbGUubWFlPic=

> <r_lp_tautomer_probability>
0.999978

> <r_epik_Ionization_Penalty>
0.433079

> <r_epik_Ionization_Penalty_Charging>
0.413784

> <r_epik_Ionization_Penalty_Neutral>
0.0192945

> <r_epik_State_Penalty>
0.425138

> <r_epik_Charging_Adjusted_Penalty>
0.838922

> <i_epik_Tot_Q>
1

> <i_epik_Tot_abs_Q>
1

> <r_epik_Metal_State_Penalty>
0.422073

> <b_epik_Metal_Only>
0

> <s_lp_Force_Field>
OPLS_2005

> <r_lp_Energy>
21.6039

> <b_lp_Chiralities_Consistent>
1

> <s_lp_Variant>
AV-unprocessed.smi:652-1

> <Gold.Version>
5.8.1

> <Gold.Id.Protein>
6NUR|6NUR_protein|mol2

> <Gold.PLP.Fitness>
48.6615

> <Gold.PLP.PLP>
-44.2066

> <Gold.PLP.part.hbond>
-3.2081

> <Gold.PLP.part.metal>
0.0000

> <Gold.PLP.part.buried>
-6.8607

> <Gold.PLP.part.nonpolar>
-35.5853

> <Gold.PLP.part.repulsive>
0.8837

> <Gold.PLP.ligand.clash>
0.0000

> <Gold.PLP.ligand.torsion>
0.7278

> <Gold.PLP.Chemscore.Hbond>
1.9360

> <Gold.PLP.Chemscore.CHOScore>
0.0000

> <Gold.PLP.Chemscore.Metal>
0.0000

> <Gold.Chemscore.Hbonds>
donor molecule, donor type, donor heavy atom, donor atom, acceptor molecule, acceptor atom, score
      L1  H    15    42       P1  8028  1.00
      P1  H  6934  6946       L1     6  1.00

> <Gold.PLP.Chemscore.Internal.Correction>
0.1024

> <Gold.Rescore>
     Score         DG    S(hbond)    S(metal)    S(lipo)     H(rot)  DE(clash)    DE(int)     intcor
     14.47     -16.66       1.99        0.00      88.13       2.26       0.10       2.08       ----

> <Gold.Chemscore.Fitness>
14.4699

> <Gold.Chemscore.DG>
-16.6591

> <Gold.Chemscore.ZeroCoef>
-5.4800

> <Gold.Chemscore.Hbond>
1.9917

> <Gold.Chemscore.Metal>
0.0000

> <Gold.Chemscore.Lipo>
88.1270

> <Gold.Chemscore.Internal_Hbond>
0.0000

> <Gold.Chemscore.DEClash>
0.1046

> <Gold.Chemscore.DEInternal>
2.0846

> <Gold.Chemscore.Rot>
2.2594

> <Gold.Chemscore.Internal.Correction>
   9.000000E+99

> <Gold.Chemscore.Hbonds>
donor molecule, donor type, donor heavy atom, donor atom, acceptor molecule, acceptor atom, score
      L1  H    15    42       P1  8028  0.95
      P1  H  6934  6946       L1     6  0.53

> <Gold.Chemscore.Hbond.Weighted>
-6.6524

> <Gold.Chemscore.Metal.Weighted>
-0.0000

> <Gold.Chemscore.Lipo.Weighted>
-10.3109

> <Gold.Chemscore.Internal_Hbond.Weighted>
0.0000

> <Gold.Chemscore.DEClash.Weighted>
0.1046

> <Gold.Chemscore.DEInternal.Weighted>
2.0846

> <Gold.Chemscore.Rot.Weighted>
5.7841

> <Gold.Chemscore.Internal.Correction.Weighted>
   9.000000E+99

> <Gold.Protein.RotatedTorsions>
[ 6907 6896 6895 6894 ] final  153.48 input  -60.11 | X-H torsion
[ 7974 7965 7964 7962 ] final   66.59 input  175.53 | X-H torsion
[ 8008 7997 7996 7995 ] final  -74.89 input   59.86 | X-H torsion
[ 10167 10162 10161 10158 ] final  -75.14 input  -65.29 | X-H torsion
[ 10718 10713 10712 10709 ] final -129.94 input   66.30 | X-H torsion
[ 10763 10752 10751 10750 ] final  106.18 input  -60.55 | X-H torsion
[ 11005 11000 10999 10996 ] final   91.62 input  -57.11 | X-H torsion

> <Gold.Protein.ActiveResidues>
 VAL166  LYS551  ARG553  GLY616  TRP617  ASP618  TYR619  PRO620  LYS621  CYS622 
 ASP623  PHE694  ASN695  SER759  ASP760  ASP761  ALA762  ILE779  LEU786  VAL792 
 PHE793  MET794  SER795  GLU796  ALA797  LYS798  CYS799  TRP800  GLU811  SER814 

> <Gold.Protein.RotatedAtoms>
  152.0721  133.4111  159.4463 H   0  0  0  0  0  0  0  0  0  0  0  0  # atno 6907 bound_to 6896
  150.6863  134.3080  159.4743 H   0  0  0  0  0  0  0  0  0  0  0  0  # atno 6908 bound_to 6896
  152.0913  134.9405  160.0622 H   0  0  0  0  0  0  0  0  0  0  0  0  # atno 6909 bound_to 6896
  145.8247  139.3105  143.1022 H   0  0  0  0  0  0  0  0  0  0  0  0  # atno 7974 bound_to 7965
  154.5369  140.0753  156.8443 H   0  0  0  0  0  0  0  0  0  0  0  0  # atno 8008 bound_to 7997
  155.3260  140.3399  155.4222 H   0  0  0  0  0  0  0  0  0  0  0  0  # atno 8009 bound_to 7997
  156.1837  140.1661  156.8213 H   0  0  0  0  0  0  0  0  0  0  0  0  # atno 8010 bound_to 7997
  140.4968  143.2369  151.7818 H   0  0  0  0  0  0  0  0  0  0  0  0  # atno 10167 bound_to 10162
  156.2096  130.6910  151.0634 H   0  0  0  0  0  0  0  0  0  0  0  0  # atno 10718 bound_to 10713
  153.3894  135.3885  155.1912 H   0  0  0  0  0  0  0  0  0  0  0  0  # atno 10763 bound_to 10752
  154.8717  135.3744  154.4756 H   0  0  0  0  0  0  0  0  0  0  0  0  # atno 10764 bound_to 10752
  153.5242  135.7086  153.5777 H   0  0  0  0  0  0  0  0  0  0  0  0  # atno 10765 bound_to 10752
  139.8836  134.8685  156.3455 H   0  0  0  0  0  0  0  0  0  0  0  0  # atno 11005 bound_to 11000
  145.9636  140.8816  143.0198 LP  0  0  0  0  0  0  0  0  0  0  0  0  # atno 17320 bound_to 7965
  144.6744  140.1847  143.7402 LP  0  0  0  0  0  0  0  0  0  0  0  0  # atno 17321 bound_to 7965
  139.4863  144.4576  151.9579 LP  0  0  0  0  0  0  0  0  0  0  0  0  # atno 17342 bound_to 10162
  140.3664  144.2909  150.5926 LP  0  0  0  0  0  0  0  0  0  0  0  0  # atno 17343 bound_to 10162
  157.7031  131.0768  150.6756 LP  0  0  0  0  0  0  0  0  0  0  0  0  # atno 17370 bound_to 10713
  156.6815  130.4568  149.5626 LP  0  0  0  0  0  0  0  0  0  0  0  0  # atno 17371 bound_to 10713
  140.9630  133.7376  156.0427 LP  0  0  0  0  0  0  0  0  0  0  0  0  # atno 17394 bound_to 11000
  140.7966  134.3556  157.5450 LP  0  0  0  0  0  0  0  0  0  0  0  0  # atno 17395 bound_to 11000

$$$$
