#       Name:                AV-unprocessed.smi:72
#       Creating user name   scv26
#       Creation time:       Thu Mar 26 16:58:56 2020


#       File generated by GOLD software.
#

@<TRIPOS>MOLECULE
AV-unprocessed.smi:72
    41    42     1
SMALL
NO_CHARGES


@<TRIPOS>ATOM
      1 ****        -2.1546   4.4948  -0.9025 N.2            1 S1                 0.0000
      2 ****        -1.6975   3.3481  -0.5469 C.2            1 S1                 0.0000
      3 ****        -0.3507   2.9586  -0.6011 N.2            1 S1                 0.0000
      4 ****        -0.0317   1.7683  -0.1946 C.2            1 S1                 0.0000
      5 ****        -1.0205   0.8347   0.3225 N.am           1 S1                 0.0000
      6 ****        -0.6279  -0.5508   0.7829 C.3            1 S1                 0.0000
      7 ****         0.6549  -0.5034   1.3398 O.3            1 S1                 0.0000
      8 ****         1.4592  -1.5252   0.7643 C.3            1 S1                 0.0000
      9 ****         2.9544  -1.1741   0.8687 C.3            1 S1                 0.0000
     10 ****         3.3275  -0.1514  -0.0320 O.3            1 S1                 0.0000
     11 ****         0.8856  -1.7267  -0.6398 C.3            1 S1                 0.0000
     12 ****         1.2078  -2.9886  -1.1936 O.3            1 S1                 0.0000
     13 ****        -0.6099  -1.5295  -0.4066 C.3            1 S1                 0.0000
     14 ****        -1.2787  -2.7330  -0.0764 O.3            1 S1                 0.0000
     15 ****        -2.3884   1.2001   0.3510 C.2            1 S1                 0.0000
     16 ****        -3.2709   0.4320   0.7329 O.2            1 S1                 0.0000
     17 ****        -2.6655   2.4505  -0.0779 N.am           1 S1                 0.0000
     18 ****        -1.3344  -0.8253   1.5682 H              1 S1                 0.0000
     19 ****         1.2729  -2.4245   1.3546 H              1 S1                 0.0000
     20 ****         1.2369  -0.9450  -1.3138 H              1 S1                 0.0000
     21 ****        -1.0997  -1.0971  -1.2804 H              1 S1                 0.0000
     22 ****        -3.1556   4.5249  -0.7696 H              1 S1                 0.0000
     23 ****         0.9918   1.3932  -0.2181 H              1 S1                 0.0000
     24 ****         3.2076  -0.8756   1.8862 H              1 S1                 0.0000
     25 ****         3.5531  -2.0551   0.6365 H              1 S1                 0.0000
     26 ****         4.2533   0.0114   0.0659 H              1 S1                 0.0000
     27 ****         0.7397  -3.0861  -2.0085 H              1 S1                 0.0000
     28 ****        -2.1829  -2.5318   0.1112 H              1 S1                 0.0000
     29 ****        -3.6304   2.7478  -0.0646 H              1 S1                 0.0000
     30 ****        -1.6007   5.2474  -1.2587 LP             1 S1                 0.0000
     31 ****         0.3485   3.5850  -0.9457 LP             1 S1                 0.0000
     32 ****         0.5947  -0.6434   2.3281 LP             1 S1                 0.0000
     33 ****         1.0662   0.3890   1.1541 LP             1 S1                 0.0000
     34 ****         2.8148   0.6824   0.1732 LP             1 S1                 0.0000
     35 ****         3.1330  -0.4400  -0.9695 LP             1 S1                 0.0000
     36 ****         0.9377  -3.7139  -0.5604 LP             1 S1                 0.0000
     37 ****         2.1921  -3.0421  -1.3614 LP             1 S1                 0.0000
     38 ****        -0.8514  -3.1467   0.7275 LP             1 S1                 0.0000
     39 ****        -1.2274  -3.3695  -0.8459 LP             1 S1                 0.0000
     40 ****        -3.0334  -0.4899   1.0388 LP             1 S1                 0.0000
     41 ****        -4.2255   0.7299   0.7373 LP             1 S1                 0.0000
@<TRIPOS>BOND
    1    1    2 2     
    2    1   22 1     
    3    2   17 1     
    4    2    3 1     
    5    3    4 2     
    6    4    5 1     
    7    4   23 1     
    8    5    6 1     
    9    5   15 am    
   10    6   18 1     
   11    6   13 1     
   12    6    7 1     
   13    7    8 1     
   14    8   19 1     
   15    8    9 1     
   16    8   11 1     
   17    9   10 1     
   18    9   24 1     
   19    9   25 1     
   20   10   26 1     
   21   11   20 1     
   22   11   12 1     
   23   11   13 1     
   24   12   27 1     
   25   13   21 1     
   26   13   14 1     
   27   14   28 1     
   28   15   16 2     
   29   15   17 am    
   30   17   29 1     
   31    1   30 1     
   32    3   31 1     
   33    7   32 1     
   34    7   33 1     
   35   10   34 1     
   36   10   35 1     
   37   12   36 1     
   38   12   37 1     
   39   14   38 1     
   40   14   39 1     
   41   16   40 1     
   42   16   41 1     
@<TRIPOS>SUBSTRUCTURE
      1 S1             1
@<TRIPOS>SET
LONE_PAIRS      STATIC     ATOMS    <user>   **** ""
12 30 31 32 33 34 35 36 37 38 39 40 41
DONOR_HYDROGENS      STATIC     ATOMS    <user>   **** ""
5 22 26 27 28 29
ATOM$BLUE        STATIC     ATOMS    COLORGROUP SYSTEM
12 30 31 32 33 34 35 36 37 38 39 40 41
ATOM$RED        STATIC     ATOMS    COLORGROUP SYSTEM
5 22 26 27 28 29
