AV-unprocessed.smi:2811|AV-procd|sdf|10830|dock2
  -GOLD-   2272015273D 1   1.00000     0.00000
 Structure written by MMmdl.
 38 40  0  0  0  0  0  0  0  0  1 V2000
  152.0893  145.8955  160.3453 C   0  0  0  0  0  0  0  0  0  0  0  0
  152.0937  144.5274  159.6961 C   0  0  0  0  0  0  0  0  0  0  0  0
  152.9334  143.5027  160.1734 C   0  0  0  0  0  0  0  0  0  0  0  0
  152.8877  142.2522  159.5269 C   0  0  0  0  0  0  0  0  0  0  0  0
  153.7545  141.1001  159.9890 C   0  0  0  0  0  0  0  0  0  0  0  0
  152.0809  141.9970  158.4753 N   0  0  0  0  0  0  0  0  0  0  0  0
  151.2707  142.9771  158.0010 C   0  0  0  0  0  0  0  0  0  0  0  0
  150.3651  142.8118  156.9123 N   0  0  0  0  0  0  0  0  0  0  0  0
  150.1439  141.7545  156.1026 C   0  0  0  0  0  0  0  0  0  0  0  0
  150.7653  140.7020  156.2398 O   0  0  0  0  0  0  0  0  0  0  0  0
  149.2058  141.9273  155.1587 N   0  0  0  0  0  0  0  0  0  0  0  0
  148.8423  140.9545  154.1347 C   0  0  1  0  0  0  0  0  0  0  0  0
  148.5497  139.5793  154.7414 C   0  0  0  0  0  0  0  0  0  0  0  0
  147.1009  139.3359  154.2984 C   0  0  1  0  0  0  0  0  0  0  0  0
  146.1098  140.2258  155.0625 C   0  0  0  0  0  0  0  0  0  0  0  0
  146.3584  141.5908  154.4229 C   0  0  0  0  0  0  0  0  0  0  0  0
  147.5005  141.2728  153.4423 C   0  0  2  0  0  0  0  0  0  0  0  0
  147.1099  139.9731  153.0325 O   0  0  0  0  0  0  0  0  0  0  0  0
  151.2503  144.2569  158.5998 C   0  0  0  0  0  0  0  0  0  0  0  0
  152.8543  145.9702  161.1187 H   0  0  0  0  0  0  0  0  0  0  0  0
  151.1197  146.0925  160.8032 H   0  0  0  0  0  0  0  0  0  0  0  0
  152.2817  146.6684  159.6005 H   0  0  0  0  0  0  0  0  0  0  0  0
  153.5917  143.6698  161.0135 H   0  0  0  0  0  0  0  0  0  0  0  0
  154.4368  141.4105  160.7810 H   0  0  0  0  0  0  0  0  0  0  0  0
  154.3484  140.7140  159.1598 H   0  0  0  0  0  0  0  0  0  0  0  0
  153.1327  140.2904  160.3722 H   0  0  0  0  0  0  0  0  0  0  0  0
  149.7397  143.5910  156.7677 H   0  0  0  0  0  0  0  0  0  0  0  0
  148.7443  142.8249  155.1180 H   0  0  0  0  0  0  0  0  0  0  0  0
  149.6391  140.8623  153.3945 H   0  0  0  0  0  0  0  0  0  0  0  0
  149.2144  138.8280  154.3135 H   0  0  0  0  0  0  0  0  0  0  0  0
  148.6577  139.5442  155.8265 H   0  0  0  0  0  0  0  0  0  0  0  0
  146.8192  138.2830  154.2702 H   0  0  0  0  0  0  0  0  0  0  0  0
  145.0819  139.9046  154.8911 H   0  0  0  0  0  0  0  0  0  0  0  0
  146.2949  140.2227  156.1372 H   0  0  0  0  0  0  0  0  0  0  0  0
  145.4724  141.9184  153.8781 H   0  0  0  0  0  0  0  0  0  0  0  0
  146.6070  142.3652  155.1488 H   0  0  0  0  0  0  0  0  0  0  0  0
  147.5875  141.9889  152.6246 H   0  0  0  0  0  0  0  0  0  0  0  0
  150.5955  145.0285  158.2210 H   0  0  0  0  0  0  0  0  0  0  0  0
  1  2  1  0  0  0  0
  1 20  1  0  0  0  0
  1 21  1  0  0  0  0
  1 22  1  0  0  0  0
  2 19  1  0  0  0  0
  2  3  2  0  0  0  0
  3  4  1  0  0  0  0
  3 23  1  0  0  0  0
  4  5  1  0  0  0  0
  4  6  2  0  0  0  0
  5 24  1  0  0  0  0
  5 25  1  0  0  0  0
  5 26  1  0  0  0  0
  6  7  1  0  0  0  0
  7  8  1  0  0  0  0
  7 19  2  0  0  0  0
  8  9  1  0  0  0  0
  8 27  1  0  0  0  0
  9 10  2  0  0  0  0
  9 11  1  0  0  0  0
 11 12  1  0  0  0  0
 11 28  1  0  0  0  0
 12 17  1  0  0  0  0
 12 13  1  0  0  0  0
 12 29  1  0  0  0  0
 13 14  1  0  0  0  0
 13 30  1  0  0  0  0
 13 31  1  0  0  0  0
 14 18  1  0  0  0  0
 14 15  1  0  0  0  0
 14 32  1  0  0  0  0
 15 16  1  0  0  0  0
 15 33  1  0  0  0  0
 15 34  1  0  0  0  0
 16 17  1  0  0  0  0
 16 35  1  0  0  0  0
 16 36  1  0  0  0  0
 17 18  1  0  0  0  0
 17 37  1  0  0  0  0
 19 38  1  0  0  0  0
M  END
> <s_m_source_file>
AV-unprocessed.smi

> <i_m_source_file_index>
2811

> <i_lp_mmshare_version>
43012

> <i_f3d_flags>
0

> <s_epik_input>
W0NIM11jMVtjSF1jKFtDSDNdKW5jKFtjSF0xKVtOSF1DKD1PKVtOSF1bQ0BIXShbQ0gyXVtDQEBIXTIzKVtDQEBIXShPMylbQ0gyXVtDSDJdMg==

> <s_epik_cmdline>
J2VwaWtfcHl0aG9uJywgJy1waCcsICc3LjAnLCAnLXRuJywgJzgnLCAnLW1hJywgJzIwMCcsICctbWV0YWxfYmluZGluZycsICctaW1hZScsICc8aW5maWxlLm1hZT4nLCAnLW9tYWUnLCAnPG91dGZpbGUubWFlPic=

> <r_lp_tautomer_probability>
1

> <r_epik_Ionization_Penalty>
0.000281548

> <r_epik_Ionization_Penalty_Charging>
0

> <r_epik_Ionization_Penalty_Neutral>
0.000281548

> <r_epik_State_Penalty>
-0

> <r_epik_Charging_Adjusted_Penalty>
0

> <i_epik_Tot_Q>
0

> <i_epik_Tot_abs_Q>
0

> <r_epik_Metal_State_Penalty>
-0

> <b_epik_Metal_Only>
0

> <s_lp_Force_Field>
OPLS_2005

> <r_lp_Energy>
38.9687

> <b_lp_Chiralities_Consistent>
1

> <s_lp_Variant>
AV-unprocessed.smi:2811-2

> <Gold.Version>
5.8.1

> <Gold.Id.Protein>
6NUR|6NUR_protein|mol2

> <Gold.PLP.Fitness>
44.9006

> <Gold.PLP.PLP>
-39.4898

> <Gold.PLP.part.hbond>
-2.0000

> <Gold.PLP.part.metal>
0.0000

> <Gold.PLP.part.buried>
-6.6648

> <Gold.PLP.part.nonpolar>
-32.6074

> <Gold.PLP.part.repulsive>
0.7132

> <Gold.PLP.ligand.clash>
0.0000

> <Gold.PLP.ligand.torsion>
0.1372

> <Gold.PLP.Chemscore.Hbond>
1.8880

> <Gold.PLP.Chemscore.CHOScore>
0.0000

> <Gold.PLP.Chemscore.Metal>
0.0000

> <Gold.Chemscore.Hbonds>
donor molecule, donor type, donor heavy atom, donor atom, acceptor molecule, acceptor atom, score
      L1  H     8    27       P1  8028  1.00
      L1  H    11    28       P1  8028  0.90

> <Gold.PLP.Chemscore.Internal.Correction>
0.0211

> <Gold.Rescore>
     Score         DG    S(hbond)    S(metal)    S(lipo)     H(rot)  DE(clash)    DE(int)     intcor
     17.85     -20.51       1.75        0.00     100.29       1.00       0.12       2.54       ----

> <Gold.Chemscore.Fitness>
17.8493

> <Gold.Chemscore.DG>
-20.5087

> <Gold.Chemscore.ZeroCoef>
-5.4800

> <Gold.Chemscore.Hbond>
1.7528

> <Gold.Chemscore.Metal>
0.0000

> <Gold.Chemscore.Lipo>
100.2946

> <Gold.Chemscore.Internal_Hbond>
0.0000

> <Gold.Chemscore.DEClash>
0.1168

> <Gold.Chemscore.DEInternal>
2.5427

> <Gold.Chemscore.Rot>
1.0000

> <Gold.Chemscore.Internal.Correction>
   9.000000E+99

> <Gold.Chemscore.Hbonds>
donor molecule, donor type, donor heavy atom, donor atom, acceptor molecule, acceptor atom, score
      L1  H     8    27       P1  8028  0.95
      L1  H    11    28       P1  8028  0.87

> <Gold.Chemscore.Hbond.Weighted>
-5.8543

> <Gold.Chemscore.Metal.Weighted>
-0.0000

> <Gold.Chemscore.Lipo.Weighted>
-11.7345

> <Gold.Chemscore.Internal_Hbond.Weighted>
0.0000

> <Gold.Chemscore.DEClash.Weighted>
0.1168

> <Gold.Chemscore.DEInternal.Weighted>
2.5427

> <Gold.Chemscore.Rot.Weighted>
2.5600

> <Gold.Chemscore.Internal.Correction.Weighted>
   9.000000E+99

> <Gold.Protein.RotatedTorsions>
[ 6907 6896 6895 6894 ] final   54.20 input  -60.11 | X-H torsion
[ 7974 7965 7964 7962 ] final -160.05 input  175.53 | X-H torsion
[ 8008 7997 7996 7995 ] final -164.98 input   59.86 | X-H torsion
[ 10167 10162 10161 10158 ] final -117.65 input  -65.29 | X-H torsion
[ 10718 10713 10712 10709 ] final  -24.20 input   66.30 | X-H torsion
[ 10763 10752 10751 10750 ] final -161.92 input  -60.55 | X-H torsion
[ 11005 11000 10999 10996 ] final -137.19 input  -57.11 | X-H torsion

> <Gold.Protein.ActiveResidues>
 VAL166  LYS551  ARG553  GLY616  TRP617  ASP618  TYR619  PRO620  LYS621  CYS622 
 ASP623  PHE694  ASN695  SER759  ASP760  ASP761  ALA762  ILE779  LEU786  VAL792 
 PHE793  MET794  SER795  GLU796  ALA797  LYS798  CYS799  TRP800  GLU811  SER814 

> <Gold.Protein.RotatedAtoms>
  152.3414  134.7129  160.0262 H   0  0  0  0  0  0  0  0  0  0  0  0  # atno 6907 bound_to 6896
  151.7513  133.3322  159.3400 H   0  0  0  0  0  0  0  0  0  0  0  0  # atno 6908 bound_to 6896
  150.7482  134.6122  159.6137 H   0  0  0  0  0  0  0  0  0  0  0  0  # atno 6909 bound_to 6896
  144.7441  140.3597  143.6099 H   0  0  0  0  0  0  0  0  0  0  0  0  # atno 7974 bound_to 7965
  155.8433  140.0952  157.1720 H   0  0  0  0  0  0  0  0  0  0  0  0  # atno 8008 bound_to 7997
  154.3982  140.1397  156.3817 H   0  0  0  0  0  0  0  0  0  0  0  0  # atno 8009 bound_to 7997
  155.8040  140.3452  155.5421 H   0  0  0  0  0  0  0  0  0  0  0  0  # atno 8010 bound_to 7997
  140.0660  143.4922  152.2006 H   0  0  0  0  0  0  0  0  0  0  0  0  # atno 10167 bound_to 10162
  156.4808  130.4545  149.6813 H   0  0  0  0  0  0  0  0  0  0  0  0  # atno 10718 bound_to 10713
  154.7261  135.3036  154.8969 H   0  0  0  0  0  0  0  0  0  0  0  0  # atno 10763 bound_to 10752
  153.9826  135.6728  153.4755 H   0  0  0  0  0  0  0  0  0  0  0  0  # atno 10764 bound_to 10752
  153.0876  135.4976  154.8546 H   0  0  0  0  0  0  0  0  0  0  0  0  # atno 10765 bound_to 10752
  140.8734  134.2022  157.4637 H   0  0  0  0  0  0  0  0  0  0  0  0  # atno 11005 bound_to 11000
  145.7190  139.1705  143.2495 LP  0  0  0  0  0  0  0  0  0  0  0  0  # atno 17320 bound_to 7965
  146.1291  140.7209  142.9421 LP  0  0  0  0  0  0  0  0  0  0  0  0  # atno 17321 bound_to 7965
  139.5864  144.7533  151.3508 LP  0  0  0  0  0  0  0  0  0  0  0  0  # atno 17342 bound_to 10162
  140.7149  143.7294  150.7635 LP  0  0  0  0  0  0  0  0  0  0  0  0  # atno 17343 bound_to 10162
  156.3524  130.7439  151.2400 LP  0  0  0  0  0  0  0  0  0  0  0  0  # atno 17370 bound_to 10713
  157.7483  131.0373  150.4451 LP  0  0  0  0  0  0  0  0  0  0  0  0  # atno 17371 bound_to 10713
  139.8714  134.9784  156.4998 LP  0  0  0  0  0  0  0  0  0  0  0  0  # atno 17394 bound_to 11000
  140.8547  133.8105  155.9203 LP  0  0  0  0  0  0  0  0  0  0  0  0  # atno 17395 bound_to 11000

$$$$
