#       Name:                AV-unprocessed.smi:2468
#       Creating user name   scv26
#       Creation time:       Fri Mar 27 13:37:16 2020


#       File generated by GOLD software.
#

@<TRIPOS>MOLECULE
AV-unprocessed.smi:2468
    37    38     1
SMALL
NO_CHARGES


@<TRIPOS>ATOM
      1 ****        -4.9375   1.8916  -1.1623 C.3            1 S1                 0.0000
      2 ****        -3.9646   0.7694  -0.8513 C.ar           1 S1                 0.0000
      3 ****        -4.5247  -0.4111  -0.5082 N.ar           1 S1                 0.0000
      4 ****        -3.7048  -1.4455  -0.2312 C.ar           1 S1                 0.0000
      5 ****        -2.3006  -1.3549  -0.2756 C.ar           1 S1                 0.0000
      6 ****        -1.7093  -0.1150  -0.6184 C.ar           1 S1                 0.0000
      7 ****        -0.3038   0.0876  -0.7097 N.am           1 S1                 0.0000
      8 ****         0.6933  -0.5992  -0.1225 C.2            1 S1                 0.0000
      9 ****         0.5350  -1.5787   0.6063 O.2            1 S1                 0.0000
     10 ****         2.1124  -0.0820  -0.4134 C.3            1 S1                 0.0000
     11 ****         2.8379  -1.1441  -1.0359 O.3            1 S1                 0.0000
     12 ****         3.9691  -1.5145  -0.2519 C.3            1 S1                 0.0000
     13 ****         3.6831  -0.9845   1.1480 C.3            1 S1                 0.0000
     14 ****         2.9493   0.3017   0.8273 C.3            1 S1                 0.0000
     15 ****         2.2023   0.9268   2.0198 C.3            1 S1                 0.0000
     16 ****        -2.5658   0.9683  -0.9263 C.ar           1 S1                 0.0000
     17 ****        -1.9168   2.5089  -1.3805 Cl             1 S1                 0.0000
     18 ****        -4.7402   2.7544  -0.5257 H              1 S1                 0.0000
     19 ****        -5.9712   1.5836  -0.9992 H              1 S1                 0.0000
     20 ****        -4.8380   2.2005  -2.2032 H              1 S1                 0.0000
     21 ****        -4.1833  -2.3784   0.0277 H              1 S1                 0.0000
     22 ****        -1.7143  -2.2343  -0.0600 H              1 S1                 0.0000
     23 ****        -0.0230   0.9086  -1.2264 H              1 S1                 0.0000
     24 ****         2.0594   0.7645  -1.1002 H              1 S1                 0.0000
     25 ****         4.1309  -2.5925  -0.2680 H              1 S1                 0.0000
     26 ****         4.8550  -1.0321  -0.6669 H              1 S1                 0.0000
     27 ****         3.0388  -1.6757   1.6926 H              1 S1                 0.0000
     28 ****         4.5890  -0.8267   1.7339 H              1 S1                 0.0000
     29 ****         3.6920   1.0303   0.4975 H              1 S1                 0.0000
     30 ****         1.4967   0.2309   2.4738 H              1 S1                 0.0000
     31 ****         1.6491   1.8145   1.7121 H              1 S1                 0.0000
     32 ****         2.9041   1.2285   2.7975 H              1 S1                 0.0000
     33 ****        -5.5182  -0.5150  -0.4610 LP             1 S1                 0.0000
     34 ****        -0.3868  -1.9159   0.7975 LP             1 S1                 0.0000
     35 ****         1.3282  -2.0372   1.0071 LP             1 S1                 0.0000
     36 ****         3.1486  -0.8439  -1.9377 LP             1 S1                 0.0000
     37 ****         2.2362  -1.9363  -1.1373 LP             1 S1                 0.0000
@<TRIPOS>BOND
    1    1    2 1     
    2    1   18 1     
    3    1   19 1     
    4    1   20 1     
    5    2   16 ar    
    6    2    3 ar    
    7    3    4 ar    
    8    4    5 ar    
    9    4   21 1     
   10    5    6 ar    
   11    5   22 1     
   12    6    7 1     
   13    6   16 ar    
   14    7    8 am    
   15    7   23 1     
   16    8    9 2     
   17    8   10 1     
   18   10   14 1     
   19   10   11 1     
   20   10   24 1     
   21   11   12 1     
   22   12   13 1     
   23   12   25 1     
   24   12   26 1     
   25   13   14 1     
   26   13   27 1     
   27   13   28 1     
   28   14   15 1     
   29   14   29 1     
   30   15   30 1     
   31   15   31 1     
   32   15   32 1     
   33   16   17 1     
   34    3   33 1     
   35    9   34 1     
   36    9   35 1     
   37   11   36 1     
   38   11   37 1     
@<TRIPOS>SUBSTRUCTURE
      1 S1             1
@<TRIPOS>SET
LONE_PAIRS      STATIC     ATOMS    <user>   **** ""
5 33 34 35 36 37
DONOR_HYDROGENS      STATIC     ATOMS    <user>   **** ""
1 23
ATOM$BLUE        STATIC     ATOMS    COLORGROUP SYSTEM
5 33 34 35 36 37
ATOM$RED        STATIC     ATOMS    COLORGROUP SYSTEM
1 23
