AV-unprocessed.smi:964|AV-procd|sdf|4279|dock7
  -GOLD-   22720 2183D 1   1.00000     0.00000
 Structure written by MMmdl.
 20 20  0  0  0  0  0  0  0  0  2 V2000
  147.9622  133.0042  153.0531 C   0  0  0  0  0  0  0  0  0  0  0  0
  146.9158  133.1828  152.0057 C   0  0  0  0  0  0  0  0  0  0  0  0
  146.8251  132.3622  150.9494 N   0  0  0  0  0  0  0  0  0  0  0  0
  145.7755  132.8572  150.2766 C   0  0  0  0  0  0  0  0  0  0  0  0
  145.2934  132.2573  148.9965 C   0  0  0  0  0  0  0  0  0  0  0  0
  143.7733  132.3824  148.8252 C   0  0  0  0  0  0  0  0  0  0  0  0
  143.4180  133.5718  148.0333 N   0  3  0  0  0  0  0  0  0  0  0  0
  145.2359  133.9304  150.8620 N   0  0  0  0  0  0  0  0  0  0  0  0
  145.9883  134.1448  152.0045 N   0  0  0  0  0  0  0  0  0  0  0  0
  147.4029  131.5656  150.7231 H   0  0  0  0  0  0  0  0  0  0  0  0
  147.8122  133.7140  153.8672 H   0  0  0  0  0  0  0  0  0  0  0  0
  148.9518  133.1678  152.6258 H   0  0  0  0  0  0  0  0  0  0  0  0
  147.9167  131.9941  153.4606 H   0  0  0  0  0  0  0  0  0  0  0  0
  145.5872  131.2068  148.9783 H   0  0  0  0  0  0  0  0  0  0  0  0
  145.8076  132.7390  148.1633 H   0  0  0  0  0  0  0  0  0  0  0  0
  143.3742  131.4996  148.3242 H   0  0  0  0  0  0  0  0  0  0  0  0
  143.2857  132.4484  149.7983 H   0  0  0  0  0  0  0  0  0  0  0  0
  142.7107  134.1024  148.5219 H   0  0  0  0  0  0  0  0  0  0  0  0
  143.0582  133.2831  147.1345 H   0  0  0  0  0  0  0  0  0  0  0  0
  144.2368  134.1477  147.8986 H   0  0  0  0  0  0  0  0  0  0  0  0
  1 11  1  0  0  0  0
  1 12  1  0  0  0  0
  1 13  1  0  0  0  0
  1  2  1  0  0  0  0
  2  3  1  0  0  0  0
  2  9  2  0  0  0  0
  3 10  1  0  0  0  0
  3  4  1  0  0  0  0
  4  8  2  0  0  0  0
  4  5  1  0  0  0  0
  5  6  1  0  0  0  0
  5 14  1  0  0  0  0
  5 15  1  0  0  0  0
  6  7  1  0  0  0  0
  6 16  1  0  0  0  0
  6 17  1  0  0  0  0
  7 18  1  0  0  0  0
  7 19  1  0  0  0  0
  7 20  1  0  0  0  0
  8  9  1  0  0  0  0
M  CHG  1   7   1
M  END
> <s_m_source_file>
AV-unprocessed.smi

> <i_m_source_file_index>
964

> <i_lp_mmshare_version>
43012

> <i_f3d_flags>
0

> <s_epik_input>
W0NIM11jMW5jKG5bbkhdMSlbQ0gyXVtDSDJdW05IMl0=

> <s_epik_cmdline>
J2VwaWtfcHl0aG9uJywgJy1waCcsICc3LjAnLCAnLXRuJywgJzgnLCAnLW1hJywgJzIwMCcsICctbWV0YWxfYmluZGluZycsICctaW1hZScsICc8aW5maWxlLm1hZT4nLCAnLW9tYWUnLCAnPG91dGZpbGUubWFlPic=

> <r_lp_tautomer_probability>
0.0517155

> <r_epik_Ionization_Penalty>
0.0139864

> <r_epik_Ionization_Penalty_Charging>
0.00465044

> <r_epik_Ionization_Penalty_Neutral>
0.00933595

> <r_epik_State_Penalty>
2.23303

> <r_epik_Charging_Adjusted_Penalty>
2.23768

> <i_epik_Tot_Q>
1

> <i_epik_Tot_abs_Q>
1

> <r_epik_Metal_State_Penalty>
2.43351

> <b_epik_Metal_Only>
0

> <s_lp_Force_Field>
OPLS_2005

> <r_lp_Energy>
2.69796

> <b_lp_Chiralities_Consistent>
1

> <s_lp_Variant>
AV-unprocessed.smi:964-3

> <Gold.Version>
5.8.1

> <Gold.Id.Protein>
6NUR|6NUR_protein|mol2

> <Gold.PLP.Fitness>
32.7010

> <Gold.PLP.PLP>
-18.9988

> <Gold.PLP.part.hbond>
-4.0000

> <Gold.PLP.part.metal>
0.0000

> <Gold.PLP.part.buried>
-1.5076

> <Gold.PLP.part.nonpolar>
-13.6699

> <Gold.PLP.part.repulsive>
0.5101

> <Gold.PLP.ligand.clash>
0.0000

> <Gold.PLP.ligand.torsion>
0.5996

> <Gold.PLP.Chemscore.Hbond>
4.9670

> <Gold.PLP.Chemscore.CHOScore>
0.0000

> <Gold.PLP.Chemscore.Metal>
0.0000

> <Gold.Chemscore.Hbonds>
donor molecule, donor type, donor heavy atom, donor atom, acceptor molecule, acceptor atom, score
      L1  H     3    10       P1 10747  1.00
      L1  H     7    18       P1 10186  2.00
      L1  H     7    19       P1 10195  0.99
      L1  H     7    20       P1  7921  1.00

> <Gold.PLP.Chemscore.Internal.Correction>
0.0004

> <Gold.Rescore>
     Score         DG    S(hbond)    S(metal)    S(lipo)     H(rot)  DE(clash)    DE(int)     intcor
     17.14     -17.81       3.73        0.00      31.98       1.51       0.07       0.60       ----

> <Gold.Chemscore.Fitness>
17.1362

> <Gold.Chemscore.DG>
-17.8114

> <Gold.Chemscore.ZeroCoef>
-5.4800

> <Gold.Chemscore.Hbond>
3.7277

> <Gold.Chemscore.Metal>
0.0000

> <Gold.Chemscore.Lipo>
31.9824

> <Gold.Chemscore.Internal_Hbond>
0.0000

> <Gold.Chemscore.DEClash>
0.0750

> <Gold.Chemscore.DEInternal>
0.6003

> <Gold.Chemscore.Rot>
1.5082

> <Gold.Chemscore.Internal.Correction>
   9.000000E+99

> <Gold.Chemscore.Hbonds>
donor molecule, donor type, donor heavy atom, donor atom, acceptor molecule, acceptor atom, score
      L1  H     3    10       P1 10747  0.95
      L1  H     7    18       P1 10186  0.96
      L1  H     7    19       P1 10195  0.92
      L1  H     7    20       P1  7921  0.96

> <Gold.Chemscore.Hbond.Weighted>
-12.4505

> <Gold.Chemscore.Metal.Weighted>
-0.0000

> <Gold.Chemscore.Lipo.Weighted>
-3.7419

> <Gold.Chemscore.Internal_Hbond.Weighted>
0.0000

> <Gold.Chemscore.DEClash.Weighted>
0.0750

> <Gold.Chemscore.DEInternal.Weighted>
0.6003

> <Gold.Chemscore.Rot.Weighted>
3.8611

> <Gold.Chemscore.Internal.Correction.Weighted>
   9.000000E+99

> <Gold.Protein.RotatedTorsions>
[ 6907 6896 6895 6894 ] final  -93.25 input  -60.11 | X-H torsion
[ 7974 7965 7964 7962 ] final  103.60 input  175.53 | X-H torsion
[ 8008 7997 7996 7995 ] final  -26.77 input   59.86 | X-H torsion
[ 10167 10162 10161 10158 ] final  -44.38 input  -65.29 | X-H torsion
[ 10718 10713 10712 10709 ] final  -16.50 input   66.30 | X-H torsion
[ 10763 10752 10751 10750 ] final  -56.08 input  -60.55 | X-H torsion
[ 11005 11000 10999 10996 ] final  -65.38 input  -57.11 | X-H torsion

> <Gold.Protein.ActiveResidues>
 VAL166  LYS551  ARG553  GLY616  TRP617  ASP618  TYR619  PRO620  LYS621  CYS622 
 ASP623  PHE694  ASN695  SER759  ASP760  ASP761  ALA762  ILE779  LEU786  VAL792 
 PHE793  MET794  SER795  GLU796  ALA797  LYS798  CYS799  TRP800  GLU811  SER814 

> <Gold.Protein.RotatedAtoms>
  150.6919  134.1996  159.4316 H   0  0  0  0  0  0  0  0  0  0  0  0  # atno 6907 bound_to 6896
  151.9963  134.9950  160.0572 H   0  0  0  0  0  0  0  0  0  0  0  0  # atno 6908 bound_to 6896
  152.1620  133.4553  159.4903 H   0  0  0  0  0  0  0  0  0  0  0  0  # atno 6909 bound_to 6896
  145.3438  139.2456  143.3595 H   0  0  0  0  0  0  0  0  0  0  0  0  # atno 7974 bound_to 7965
  154.4409  140.1890  156.0828 H   0  0  0  0  0  0  0  0  0  0  0  0  # atno 8008 bound_to 7997
  156.0426  140.3318  155.7234 H   0  0  0  0  0  0  0  0  0  0  0  0  # atno 8009 bound_to 7997
  155.5677  140.0609  157.2805 H   0  0  0  0  0  0  0  0  0  0  0  0  # atno 8010 bound_to 7997
  140.6899  143.2933  151.3486 H   0  0  0  0  0  0  0  0  0  0  0  0  # atno 10167 bound_to 10162
  156.5867  130.4788  149.6297 H   0  0  0  0  0  0  0  0  0  0  0  0  # atno 10718 bound_to 10713
  154.2010  135.6411  153.5087 H   0  0  0  0  0  0  0  0  0  0  0  0  # atno 10763 bound_to 10752
  153.0012  135.5451  154.6315 H   0  0  0  0  0  0  0  0  0  0  0  0  # atno 10764 bound_to 10752
  154.5728  135.2918  155.0783 H   0  0  0  0  0  0  0  0  0  0  0  0  # atno 10765 bound_to 10752
  141.1452  133.6680  156.5977 H   0  0  0  0  0  0  0  0  0  0  0  0  # atno 11005 bound_to 11000
  146.2996  140.4040  142.8709 LP  0  0  0  0  0  0  0  0  0  0  0  0  # atno 17320 bound_to 7965
  144.8770  140.7350  143.6010 LP  0  0  0  0  0  0  0  0  0  0  0  0  # atno 17321 bound_to 7965
  139.6292  144.0755  152.2461 LP  0  0  0  0  0  0  0  0  0  0  0  0  # atno 17342 bound_to 10162
  140.0224  144.6143  150.7556 LP  0  0  0  0  0  0  0  0  0  0  0  0  # atno 17343 bound_to 10162
  156.2584  130.6948  151.1709 LP  0  0  0  0  0  0  0  0  0  0  0  0  # atno 17370 bound_to 10713
  157.7313  131.0609  150.5682 LP  0  0  0  0  0  0  0  0  0  0  0  0  # atno 17371 bound_to 10713
  140.3713  134.7603  157.4600 LP  0  0  0  0  0  0  0  0  0  0  0  0  # atno 17394 bound_to 11000
  140.0708  134.5865  155.8644 LP  0  0  0  0  0  0  0  0  0  0  0  0  # atno 17395 bound_to 11000

$$$$
