AV-unprocessed.smi:1047|AV-procd|sdf|4573|dock3
  -GOLD-   22720 3 33D 1   1.00000     0.00000
 Structure written by MMmdl.
 56 58  0  0  0  0  0  0  0  0  2 V2000
  143.4383  145.9488  157.7153 C   0  0  0  0  0  0  0  0  0  0  0  0
  144.1141  145.6863  156.3622 C   0  0  0  0  0  0  0  0  0  0  0  0
  143.6445  144.4280  155.7237 N   0  3  2  0  0  0  0  0  0  0  0  0
  143.4992  143.3010  156.6769 C   0  0  0  0  0  0  0  0  0  0  0  0
  144.8668  142.6833  157.0193 C   0  0  0  0  0  0  0  0  0  0  0  0
  145.5138  142.2706  155.8216 O   0  0  0  0  0  0  0  0  0  0  0  0
  145.7733  143.3554  154.9364 C   0  0  1  0  0  0  0  0  0  0  0  0
  146.5350  142.7939  153.7261 C   0  0  0  0  0  0  0  0  0  0  0  0
  147.9442  142.5753  154.0383 N   0  0  0  0  0  0  0  0  0  0  0  0
  148.3386  141.1708  153.9905 C   0  0  0  0  0  0  0  0  0  0  0  0
  149.1360  140.7689  155.2456 C   0  0  2  0  0  0  0  0  0  0  0  0
  148.2745  140.8415  156.3643 O   0  0  0  0  0  0  0  0  0  0  0  0
  150.3637  141.6697  155.5036 C   0  0  0  0  0  0  0  0  0  0  0  0
  151.1983  141.2208  156.6075 N   0  0  0  0  0  0  0  0  0  0  0  0
  151.8651  140.0536  156.6983 C   0  0  0  0  0  0  0  0  0  0  0  0
  152.5744  139.8403  157.8025 N   0  0  0  0  0  0  0  0  0  0  0  0
  152.3330  141.0008  158.5171 C   0  0  0  0  0  0  0  0  0  0  0  0
  152.7948  141.4068  159.7883 C   0  0  0  0  0  0  0  0  0  0  0  0
  152.4132  142.6531  160.3339 C   0  0  0  0  0  0  0  0  0  0  0  0
  152.9329  143.0494  161.7046 C   0  0  0  0  0  0  0  0  0  0  0  0
  151.5561  143.5154  159.6041 C   0  0  0  0  0  0  0  0  0  0  0  0
  151.1322  144.8591  160.1699 C   0  0  0  0  0  0  0  0  0  0  0  0
  151.0862  143.1255  158.3326 C   0  0  0  0  0  0  0  0  0  0  0  0
  151.4736  141.8834  157.7995 C   0  0  0  0  0  0  0  0  0  0  0  0
  144.4261  144.0004  154.5351 C   0  0  0  0  0  0  0  0  0  0  0  0
  143.8808  146.8189  158.2003 H   0  0  0  0  0  0  0  0  0  0  0  0
  143.5598  145.0999  158.3886 H   0  0  0  0  0  0  0  0  0  0  0  0
  142.3721  146.1477  157.6110 H   0  0  0  0  0  0  0  0  0  0  0  0
  143.9752  146.5385  155.6975 H   0  0  0  0  0  0  0  0  0  0  0  0
  145.1874  145.6115  156.5404 H   0  0  0  0  0  0  0  0  0  0  0  0
  142.9805  143.6228  157.5807 H   0  0  0  0  0  0  0  0  0  0  0  0
  142.8669  142.5410  156.2162 H   0  0  0  0  0  0  0  0  0  0  0  0
  145.4953  143.3871  157.5667 H   0  0  0  0  0  0  0  0  0  0  0  0
  144.7325  141.8135  157.6626 H   0  0  0  0  0  0  0  0  0  0  0  0
  146.4122  144.0777  155.4470 H   0  0  0  0  0  0  0  0  0  0  0  0
  146.0819  141.8470  153.4302 H   0  0  0  0  0  0  0  0  0  0  0  0
  146.4320  143.4666  152.8737 H   0  0  0  0  0  0  0  0  0  0  0  0
  148.1609  142.9603  154.9523 H   0  0  0  0  0  0  0  0  0  0  0  0
  147.4381  140.5578  153.9364 H   0  0  0  0  0  0  0  0  0  0  0  0
  148.9108  140.9592  153.0860 H   0  0  0  0  0  0  0  0  0  0  0  0
  149.4855  139.7398  155.1502 H   0  0  0  0  0  0  0  0  0  0  0  0
  148.7572  141.2049  157.0912 H   0  0  0  0  0  0  0  0  0  0  0  0
  150.9805  141.7351  154.6064 H   0  0  0  0  0  0  0  0  0  0  0  0
  150.0341  142.6869  155.7198 H   0  0  0  0  0  0  0  0  0  0  0  0
  151.8313  139.3201  155.9058 H   0  0  0  0  0  0  0  0  0  0  0  0
  153.4470  140.7492  160.3440 H   0  0  0  0  0  0  0  0  0  0  0  0
  152.1049  143.2291  162.3906 H   0  0  0  0  0  0  0  0  0  0  0  0
  153.5319  143.9578  161.6377 H   0  0  0  0  0  0  0  0  0  0  0  0
  153.5587  142.2670  162.1348 H   0  0  0  0  0  0  0  0  0  0  0  0
  150.4916  145.3998  159.4728 H   0  0  0  0  0  0  0  0  0  0  0  0
  152.0041  145.4810  160.3733 H   0  0  0  0  0  0  0  0  0  0  0  0
  150.5776  144.7241  161.0987 H   0  0  0  0  0  0  0  0  0  0  0  0
  150.4332  143.7731  157.7661 H   0  0  0  0  0  0  0  0  0  0  0  0
  143.8283  143.2715  153.9862 H   0  0  0  0  0  0  0  0  0  0  0  0
  144.5818  144.8336  153.8513 H   0  0  0  0  0  0  0  0  0  0  0  0
  142.7116  144.6330  155.3951 H   0  0  0  0  0  0  0  0  0  0  0  0
  1  2  1  0  0  0  0
  1 26  1  0  0  0  0
  1 27  1  0  0  0  0
  1 28  1  0  0  0  0
  2  3  1  0  0  0  0
  2 29  1  0  0  0  0
  2 30  1  0  0  0  0
  3 25  1  0  0  0  0
  3  4  1  0  0  0  0
  3 56  1  0  0  0  0
  4  5  1  0  0  0  0
  4 31  1  0  0  0  0
  4 32  1  0  0  0  0
  5  6  1  0  0  0  0
  5 33  1  0  0  0  0
  5 34  1  0  0  0  0
  6  7  1  0  0  0  0
  7  8  1  0  0  0  0
  7 25  1  0  0  0  0
  7 35  1  0  0  0  0
  8  9  1  0  0  0  0
  8 36  1  0  0  0  0
  8 37  1  0  0  0  0
  9 10  1  0  0  0  0
  9 38  1  0  0  0  0
 10 11  1  0  0  0  0
 10 39  1  0  0  0  0
 10 40  1  0  0  0  0
 11 12  1  0  0  0  0
 11 13  1  0  0  0  0
 11 41  1  0  0  0  0
 12 42  1  0  0  0  0
 13 14  1  0  0  0  0
 13 43  1  0  0  0  0
 13 44  1  0  0  0  0
 14 24  1  0  0  0  0
 14 15  1  0  0  0  0
 15 16  2  0  0  0  0
 15 45  1  0  0  0  0
 16 17  1  0  0  0  0
 17 24  2  0  0  0  0
 17 18  1  0  0  0  0
 18 19  2  0  0  0  0
 18 46  1  0  0  0  0
 19 20  1  0  0  0  0
 19 21  1  0  0  0  0
 20 47  1  0  0  0  0
 20 48  1  0  0  0  0
 20 49  1  0  0  0  0
 21 22  1  0  0  0  0
 21 23  2  0  0  0  0
 22 50  1  0  0  0  0
 22 51  1  0  0  0  0
 22 52  1  0  0  0  0
 23 24  1  0  0  0  0
 23 53  1  0  0  0  0
 25 54  1  0  0  0  0
 25 55  1  0  0  0  0
M  CHG  1   3   1
M  END
> <s_m_source_file>
AV-unprocessed.smi

> <i_m_source_file_index>
1047

> <i_lp_mmshare_version>
43012

> <i_f3d_flags>
0

> <s_epik_input>
W0NIM11bQ0gyXU4xW0NIMl1bQ0gyXU9bQ0BIXShbQ0gyXTEpW0NIMl1bTkhdW0NIMl1bQ0BIXShbT0hdKVtDSDJdbihbY0hdbjIpYyhjMjMpW2NIXWMoW0NIM10pYyhbY0hdMylbQ0gzXQ==

> <s_epik_cmdline>
J2VwaWtfcHl0aG9uJywgJy1waCcsICc3LjAnLCAnLXRuJywgJzgnLCAnLW1hJywgJzIwMCcsICctbWV0YWxfYmluZGluZycsICctaW1hZScsICc8aW5maWxlLm1hZT4nLCAnLW9tYWUnLCAnPG91dGZpbGUubWFlPic=

> <r_epik_Ionization_Penalty>
1.19246

> <r_epik_Ionization_Penalty_Charging>
0.210041

> <r_epik_Ionization_Penalty_Neutral>
0.982415

> <r_epik_State_Penalty>
1.57595

> <r_epik_Charging_Adjusted_Penalty>
1.78599

> <i_epik_Tot_Q>
1

> <i_epik_Tot_abs_Q>
1

> <r_epik_Metal_State_Penalty>
1.46172

> <b_epik_Metal_Only>
0

> <s_lp_Force_Field>
OPLS_2005

> <r_lp_Energy>
32.195

> <b_lp_Chiralities_Consistent>
1

> <s_lp_Variant>
AV-unprocessed.smi:1047-14

> <Gold.Version>
5.8.1

> <Gold.Id.Protein>
6NUR|6NUR_protein|mol2

> <Gold.PLP.Fitness>
51.3947

> <Gold.PLP.PLP>
-48.2527

> <Gold.PLP.part.hbond>
-3.5997

> <Gold.PLP.part.metal>
0.0000

> <Gold.PLP.part.buried>
-6.3619

> <Gold.PLP.part.nonpolar>
-37.4970

> <Gold.PLP.part.repulsive>
0.1140

> <Gold.PLP.ligand.clash>
0.0000

> <Gold.PLP.ligand.torsion>
1.0087

> <Gold.PLP.Chemscore.Hbond>
1.6560

> <Gold.PLP.Chemscore.CHOScore>
0.0000

> <Gold.PLP.Chemscore.Metal>
0.0000

> <Gold.Chemscore.Hbonds>
donor molecule, donor type, donor heavy atom, donor atom, acceptor molecule, acceptor atom, score
      L1  H     9    38       P1  8028  0.70
      P1  H  7997  8010       L1    16  0.57

> <Gold.PLP.Chemscore.Internal.Correction>
0.1914

> <Gold.Rescore>
     Score         DG    S(hbond)    S(metal)    S(lipo)     H(rot)  DE(clash)    DE(int)     intcor
     16.06     -17.10       1.02        0.00     127.40       2.62       0.09       0.95       ----

> <Gold.Chemscore.Fitness>
16.0579

> <Gold.Chemscore.DG>
-17.0975

> <Gold.Chemscore.ZeroCoef>
-5.4800

> <Gold.Chemscore.Hbond>
1.0242

> <Gold.Chemscore.Metal>
0.0000

> <Gold.Chemscore.Lipo>
127.4033

> <Gold.Chemscore.Internal_Hbond>
0.0000

> <Gold.Chemscore.DEClash>
0.0941

> <Gold.Chemscore.DEInternal>
0.9455

> <Gold.Chemscore.Rot>
2.6209

> <Gold.Chemscore.Internal.Correction>
   9.000000E+99

> <Gold.Chemscore.Hbonds>
donor molecule, donor type, donor heavy atom, donor atom, acceptor molecule, acceptor atom, score
      L1  H     9    38       P1  8028  0.66
      P1  H  7997  8010       L1    16  0.04

> <Gold.Chemscore.Hbond.Weighted>
-3.4209

> <Gold.Chemscore.Metal.Weighted>
-0.0000

> <Gold.Chemscore.Lipo.Weighted>
-14.9062

> <Gold.Chemscore.Internal_Hbond.Weighted>
0.0000

> <Gold.Chemscore.DEClash.Weighted>
0.0941

> <Gold.Chemscore.DEInternal.Weighted>
0.9455

> <Gold.Chemscore.Rot.Weighted>
6.7096

> <Gold.Chemscore.Internal.Correction.Weighted>
   9.000000E+99

> <Gold.Protein.RotatedTorsions>
[ 6907 6896 6895 6894 ] final  -54.48 input  -60.11 | X-H torsion
[ 7974 7965 7964 7962 ] final   99.67 input  175.53 | X-H torsion
[ 8008 7997 7996 7995 ] final   45.93 input   59.86 | X-H torsion
[ 10167 10162 10161 10158 ] final  133.10 input  -65.29 | X-H torsion
[ 10718 10713 10712 10709 ] final  151.02 input   66.30 | X-H torsion
[ 10763 10752 10751 10750 ] final  -13.96 input  -60.55 | X-H torsion
[ 11005 11000 10999 10996 ] final -137.06 input  -57.11 | X-H torsion

> <Gold.Protein.ActiveResidues>
 VAL166  LYS551  ARG553  GLY616  TRP617  ASP618  TYR619  PRO620  LYS621  CYS622 
 ASP623  PHE694  ASN695  SER759  ASP760  ASP761  ALA762  ILE779  LEU786  VAL792 
 PHE793  MET794  SER795  GLU796  ALA797  LYS798  CYS799  TRP800  GLU811  SER814 

> <Gold.Protein.RotatedAtoms>
  150.8334  134.7597  159.6872 H   0  0  0  0  0  0  0  0  0  0  0  0  # atno 6907 bound_to 6896
  152.4435  134.5539  159.9884 H   0  0  0  0  0  0  0  0  0  0  0  0  # atno 6908 bound_to 6896
  151.5695  133.3354  159.3022 H   0  0  0  0  0  0  0  0  0  0  0  0  # atno 6909 bound_to 6896
  145.3957  139.2355  143.3327 H   0  0  0  0  0  0  0  0  0  0  0  0  # atno 7974 bound_to 7965
  155.3441  140.3410  155.4239 H   0  0  0  0  0  0  0  0  0  0  0  0  # atno 8008 bound_to 7997
  156.1798  140.1660  156.8331 H   0  0  0  0  0  0  0  0  0  0  0  0  # atno 8009 bound_to 7997
  154.5321  140.0743  156.8346 H   0  0  0  0  0  0  0  0  0  0  0  0  # atno 8010 bound_to 7997
  139.5311  144.6632  151.4946 H   0  0  0  0  0  0  0  0  0  0  0  0  # atno 10167 bound_to 10162
  157.2760  131.0826  151.1565 H   0  0  0  0  0  0  0  0  0  0  0  0  # atno 10718 bound_to 10713
  153.5211  135.7015  153.5731 H   0  0  0  0  0  0  0  0  0  0  0  0  # atno 10763 bound_to 10752
  153.3779  135.3928  155.1836 H   0  0  0  0  0  0  0  0  0  0  0  0  # atno 10764 bound_to 10752
  154.8694  135.3828  154.4700 H   0  0  0  0  0  0  0  0  0  0  0  0  # atno 10765 bound_to 10752
  140.8747  134.2007  157.4629 H   0  0  0  0  0  0  0  0  0  0  0  0  # atno 11005 bound_to 11000
  146.2776  140.4647  142.8789 LP  0  0  0  0  0  0  0  0  0  0  0  0  # atno 17320 bound_to 7965
  144.8409  140.6855  143.6230 LP  0  0  0  0  0  0  0  0  0  0  0  0  # atno 17321 bound_to 7965
  140.6490  143.8735  150.6766 LP  0  0  0  0  0  0  0  0  0  0  0  0  # atno 17342 bound_to 10162
  140.2094  143.3895  152.1730 LP  0  0  0  0  0  0  0  0  0  0  0  0  # atno 17343 bound_to 10162
  157.3018  130.6846  149.6168 LP  0  0  0  0  0  0  0  0  0  0  0  0  # atno 17370 bound_to 10713
  155.9664  130.4390  150.5239 LP  0  0  0  0  0  0  0  0  0  0  0  0  # atno 17371 bound_to 10713
  139.8714  134.9790  156.5019 LP  0  0  0  0  0  0  0  0  0  0  0  0  # atno 17394 bound_to 11000
  140.8532  133.8116  155.9190 LP  0  0  0  0  0  0  0  0  0  0  0  0  # atno 17395 bound_to 11000

$$$$
