AV-unprocessed.smi:2772|AV-procd|sdf|10668|dock4
  -GOLD-   2272015113D 1   1.00000     0.00000
 Structure written by MMmdl.
 54 56  0  0  0  0  0  0  0  0  2 V2000
  153.4274  142.9691  162.4199 C   0  0  0  0  0  0  0  0  0  0  0  0
  152.6013  143.0727  161.1548 C   0  0  0  0  0  0  0  0  0  0  0  0
  152.0784  144.3114  160.7299 C   0  0  0  0  0  0  0  0  0  0  0  0
  151.3141  144.3499  159.5479 C   0  0  0  0  0  0  0  0  0  0  0  0
  151.0930  143.1457  158.8372 C   0  0  0  0  0  0  0  0  0  0  0  0
  150.3558  143.0599  157.6258 N   0  0  0  0  0  0  0  0  0  0  0  0
  150.0954  141.9691  156.8853 C   0  0  0  0  0  0  0  0  0  0  0  0
  150.4904  140.8297  157.1328 O   0  0  0  0  0  0  0  0  0  0  0  0
  149.3552  142.2783  155.8113 N   0  0  0  0  0  0  0  0  0  0  0  0
  148.9151  141.3303  154.7921 C   0  0  0  0  0  0  0  0  0  0  0  0
  147.6987  141.8867  154.0488 C   0  0  0  0  0  0  0  0  0  0  0  0
  147.1421  140.8612  153.0462 C   0  0  0  0  0  0  0  0  0  0  0  0
  146.7383  139.6073  153.7066 N   0  0  0  0  0  0  0  0  0  0  0  0
  146.1397  138.6508  152.7471 C   0  0  2  0  0  0  0  0  0  0  0  0
  146.0344  137.2222  153.3485 C   0  0  0  0  0  0  0  0  0  0  0  0
  145.5481  136.1780  152.3310 C   0  0  0  0  0  0  0  0  0  0  0  0
  146.4216  136.1498  151.1377 N   0  3  1  0  0  0  0  0  0  0  0  0
  146.0658  135.0607  150.2027 C   0  0  0  0  0  0  0  0  0  0  0  0
  146.4631  137.4732  150.4782 C   0  0  0  0  0  0  0  0  0  0  0  0
  146.9770  138.5552  151.4415 C   0  0  0  0  0  0  0  0  0  0  0  0
  147.9284  139.0369  154.3618 C   0  0  0  0  0  0  0  0  0  0  0  0
  148.5175  139.9880  155.4177 C   0  0  0  0  0  0  0  0  0  0  0  0
  151.6779  141.9660  159.3437 C   0  0  0  0  0  0  0  0  0  0  0  0
  152.4111  141.9205  160.4764 N   0  0  0  0  0  0  0  0  0  0  0  0
  153.4983  143.9321  162.9264 H   0  0  0  0  0  0  0  0  0  0  0  0
  154.4377  142.6323  162.1864 H   0  0  0  0  0  0  0  0  0  0  0  0
  152.9772  142.2553  163.1104 H   0  0  0  0  0  0  0  0  0  0  0  0
  152.2599  145.2155  161.2923 H   0  0  0  0  0  0  0  0  0  0  0  0
  150.9279  145.2972  159.2051 H   0  0  0  0  0  0  0  0  0  0  0  0
  150.0394  143.9409  157.2477 H   0  0  0  0  0  0  0  0  0  0  0  0
  149.0799  143.2413  155.6856 H   0  0  0  0  0  0  0  0  0  0  0  0
  149.7211  141.1717  154.0728 H   0  0  0  0  0  0  0  0  0  0  0  0
  146.9160  142.1586  154.7591 H   0  0  0  0  0  0  0  0  0  0  0  0
  147.9710  142.8030  153.5235 H   0  0  0  0  0  0  0  0  0  0  0  0
  146.2931  141.3432  152.5679 H   0  0  0  0  0  0  0  0  0  0  0  0
  147.8771  140.6541  152.2666 H   0  0  0  0  0  0  0  0  0  0  0  0
  145.1356  138.9951  152.4938 H   0  0  0  0  0  0  0  0  0  0  0  0
  147.0030  136.9157  153.7468 H   0  0  0  0  0  0  0  0  0  0  0  0
  145.3288  137.1907  154.1770 H   0  0  0  0  0  0  0  0  0  0  0  0
  145.5387  135.1931  152.7998 H   0  0  0  0  0  0  0  0  0  0  0  0
  144.5219  136.3956  152.0300 H   0  0  0  0  0  0  0  0  0  0  0  0
  145.0598  135.1991  149.8038 H   0  0  0  0  0  0  0  0  0  0  0  0
  146.1042  134.0940  150.7059 H   0  0  0  0  0  0  0  0  0  0  0  0
  146.7643  135.0269  149.3662 H   0  0  0  0  0  0  0  0  0  0  0  0
  147.1163  137.4257  149.6060 H   0  0  0  0  0  0  0  0  0  0  0  0
  145.4680  137.7346  150.1145 H   0  0  0  0  0  0  0  0  0  0  0  0
  146.9590  139.4911  150.8860 H   0  0  0  0  0  0  0  0  0  0  0  0
  148.0215  138.3554  151.6862 H   0  0  0  0  0  0  0  0  0  0  0  0
  147.6851  138.1179  154.8894 H   0  0  0  0  0  0  0  0  0  0  0  0
  148.6829  138.7878  153.6140 H   0  0  0  0  0  0  0  0  0  0  0  0
  149.3849  139.5196  155.8841 H   0  0  0  0  0  0  0  0  0  0  0  0
  147.7866  140.1454  156.2126 H   0  0  0  0  0  0  0  0  0  0  0  0
  151.5502  141.0256  158.8278 H   0  0  0  0  0  0  0  0  0  0  0  0
  147.3578  135.9559  151.4644 H   0  0  0  0  0  0  0  0  0  0  0  0
  1  2  1  0  0  0  0
  1 25  1  0  0  0  0
  1 26  1  0  0  0  0
  1 27  1  0  0  0  0
  2 24  1  0  0  0  0
  2  3  2  0  0  0  0
  3  4  1  0  0  0  0
  3 28  1  0  0  0  0
  4  5  2  0  0  0  0
  4 29  1  0  0  0  0
  5  6  1  0  0  0  0
  5 23  1  0  0  0  0
  6  7  1  0  0  0  0
  6 30  1  0  0  0  0
  7  8  2  0  0  0  0
  7  9  1  0  0  0  0
  9 10  1  0  0  0  0
  9 31  1  0  0  0  0
 10 22  1  0  0  0  0
 10 11  1  0  0  0  0
 10 32  1  0  0  0  0
 11 12  1  0  0  0  0
 11 33  1  0  0  0  0
 11 34  1  0  0  0  0
 12 13  1  0  0  0  0
 12 35  1  0  0  0  0
 12 36  1  0  0  0  0
 13 14  1  0  0  0  0
 13 21  1  0  0  0  0
 14 20  1  0  0  0  0
 14 15  1  0  0  0  0
 14 37  1  0  0  0  0
 15 16  1  0  0  0  0
 15 38  1  0  0  0  0
 15 39  1  0  0  0  0
 16 17  1  0  0  0  0
 16 40  1  0  0  0  0
 16 41  1  0  0  0  0
 17 18  1  0  0  0  0
 17 19  1  0  0  0  0
 17 54  1  0  0  0  0
 18 42  1  0  0  0  0
 18 43  1  0  0  0  0
 18 44  1  0  0  0  0
 19 20  1  0  0  0  0
 19 45  1  0  0  0  0
 19 46  1  0  0  0  0
 20 47  1  0  0  0  0
 20 48  1  0  0  0  0
 21 22  1  0  0  0  0
 21 49  1  0  0  0  0
 21 50  1  0  0  0  0
 22 51  1  0  0  0  0
 22 52  1  0  0  0  0
 23 24  2  0  0  0  0
 23 53  1  0  0  0  0
M  CHG  1  17   1
M  END
> <s_m_source_file>
AV-unprocessed.smi

> <i_m_source_file_index>
2772

> <i_lp_mmshare_version>
43012

> <i_f3d_flags>
0

> <s_epik_input>
W0NIM11jMVtjSF1bY0hdYyhbY0hdbjEpW05IXUMoPU8pW05IXVtDSF0yW0NIMl1bQ0gyXU4oW0NIMl1bQ0gyXTIpW0NIXTNbQ0gyXVtDSDJdTihbQ0gzXSlbQ0gyXVtDSDJdMw==

> <s_epik_cmdline>
J2VwaWtfcHl0aG9uJywgJy1waCcsICc3LjAnLCAnLXRuJywgJzgnLCAnLW1hJywgJzIwMCcsICctbWV0YWxfYmluZGluZycsICctaW1hZScsICc8aW5maWxlLm1hZT4nLCAnLW9tYWUnLCAnPG91dGZpbGUubWFlPic=

> <r_epik_Ionization_Penalty>
1.02952

> <r_epik_Ionization_Penalty_Charging>
0.000974969

> <r_epik_Ionization_Penalty_Neutral>
1.02854

> <r_epik_State_Penalty>
1.11259

> <r_epik_Charging_Adjusted_Penalty>
1.11356

> <i_epik_Tot_Q>
1

> <i_epik_Tot_abs_Q>
1

> <r_epik_Metal_State_Penalty>
1.1091

> <b_epik_Metal_Only>
0

> <s_lp_Force_Field>
OPLS_2005

> <r_lp_Energy>
33.5329

> <b_lp_Chiralities_Consistent>
1

> <s_lp_Variant>
AV-unprocessed.smi:2772-5

> <Gold.Version>
5.8.1

> <Gold.Id.Protein>
6NUR|6NUR_protein|mol2

> <Gold.PLP.Fitness>
49.4267

> <Gold.PLP.PLP>
-39.6828

> <Gold.PLP.part.hbond>
-2.9593

> <Gold.PLP.part.metal>
0.0000

> <Gold.PLP.part.buried>
3.3705

> <Gold.PLP.part.nonpolar>
-39.2592

> <Gold.PLP.part.repulsive>
0.4271

> <Gold.PLP.ligand.clash>
0.1310

> <Gold.PLP.ligand.torsion>
0.5157

> <Gold.PLP.Chemscore.Hbond>
3.6350

> <Gold.PLP.Chemscore.CHOScore>
0.0000

> <Gold.PLP.Chemscore.Metal>
0.0000

> <Gold.Chemscore.Hbonds>
donor molecule, donor type, donor heavy atom, donor atom, acceptor molecule, acceptor atom, score
      L1  H     6    30       P1  8028  0.72
      L1  H     9    31       P1  8028  0.89
      L1  H    17    54       P1  7948  2.00

> <Gold.PLP.Chemscore.Internal.Correction>
0.0013

> <Gold.Rescore>
     Score         DG    S(hbond)    S(metal)    S(lipo)     H(rot)  DE(clash)    DE(int)     intcor
     19.63     -26.63       2.57        0.00     133.62       1.20       3.48       3.51       ----

> <Gold.Chemscore.Fitness>
19.6343

> <Gold.Chemscore.DG>
-26.6267

> <Gold.Chemscore.ZeroCoef>
-5.4800

> <Gold.Chemscore.Hbond>
2.5684

> <Gold.Chemscore.Metal>
0.0000

> <Gold.Chemscore.Lipo>
133.6192

> <Gold.Chemscore.Internal_Hbond>
0.0000

> <Gold.Chemscore.DEClash>
3.4817

> <Gold.Chemscore.DEInternal>
3.5107

> <Gold.Chemscore.Rot>
1.1974

> <Gold.Chemscore.Internal.Correction>
   9.000000E+99

> <Gold.Chemscore.Hbonds>
donor molecule, donor type, donor heavy atom, donor atom, acceptor molecule, acceptor atom, score
      L1  H     6    30       P1  8028  0.58
      L1  H     9    31       P1  8028  0.87
      L1  H    17    54       P1  7948  0.99

> <Gold.Chemscore.Hbond.Weighted>
-8.5785

> <Gold.Chemscore.Metal.Weighted>
-0.0000

> <Gold.Chemscore.Lipo.Weighted>
-15.6334

> <Gold.Chemscore.Internal_Hbond.Weighted>
0.0000

> <Gold.Chemscore.DEClash.Weighted>
3.4817

> <Gold.Chemscore.DEInternal.Weighted>
3.5107

> <Gold.Chemscore.Rot.Weighted>
3.0652

> <Gold.Chemscore.Internal.Correction.Weighted>
   9.000000E+99

> <Gold.Protein.RotatedTorsions>
[ 6907 6896 6895 6894 ] final   69.60 input  -60.11 | X-H torsion
[ 7974 7965 7964 7962 ] final  119.16 input  175.53 | X-H torsion
[ 8008 7997 7996 7995 ] final -165.16 input   59.86 | X-H torsion
[ 10167 10162 10161 10158 ] final   76.09 input  -65.29 | X-H torsion
[ 10718 10713 10712 10709 ] final  120.93 input   66.30 | X-H torsion
[ 10763 10752 10751 10750 ] final  -54.81 input  -60.55 | X-H torsion
[ 11005 11000 10999 10996 ] final  -77.01 input  -57.11 | X-H torsion

> <Gold.Protein.ActiveResidues>
 VAL166  LYS551  ARG553  GLY616  TRP617  ASP618  TYR619  PRO620  LYS621  CYS622 
 ASP623  PHE694  ASN695  SER759  ASP760  ASP761  ALA762  ILE779  LEU786  VAL792 
 PHE793  MET794  SER795  GLU796  ALA797  LYS798  CYS799  TRP800  GLU811  SER814 

> <Gold.Protein.RotatedAtoms>
  152.4697  134.4991  159.9718 H   0  0  0  0  0  0  0  0  0  0  0  0  # atno 6907 bound_to 6896
  151.5021  133.3496  159.2878 H   0  0  0  0  0  0  0  0  0  0  0  0  # atno 6908 bound_to 6896
  150.8699  134.8099  159.7209 H   0  0  0  0  0  0  0  0  0  0  0  0  # atno 6909 bound_to 6896
  145.1465  139.3236  143.4589 H   0  0  0  0  0  0  0  0  0  0  0  0  # atno 7974 bound_to 7965
  155.8458  140.0955  157.1706 H   0  0  0  0  0  0  0  0  0  0  0  0  # atno 8008 bound_to 7997
  154.3983  140.1392  156.3846 H   0  0  0  0  0  0  0  0  0  0  0  0  # atno 8009 bound_to 7997
  155.8015  140.3452  155.5408 H   0  0  0  0  0  0  0  0  0  0  0  0  # atno 8010 bound_to 7997
  139.9959  144.5722  150.7778 H   0  0  0  0  0  0  0  0  0  0  0  0  # atno 10167 bound_to 10162
  157.5855  131.1070  150.8103 H   0  0  0  0  0  0  0  0  0  0  0  0  # atno 10718 bound_to 10713
  154.1808  135.6443  153.5033 H   0  0  0  0  0  0  0  0  0  0  0  0  # atno 10763 bound_to 10752
  153.0059  135.5405  154.6516 H   0  0  0  0  0  0  0  0  0  0  0  0  # atno 10764 bound_to 10752
  154.5880  135.2931  155.0638 H   0  0  0  0  0  0  0  0  0  0  0  0  # atno 10765 bound_to 10752
  141.1658  133.7006  156.7756 H   0  0  0  0  0  0  0  0  0  0  0  0  # atno 11005 bound_to 11000
  146.3499  140.1522  142.8592 LP  0  0  0  0  0  0  0  0  0  0  0  0  # atno 17320 bound_to 7965
  145.0477  140.8994  143.5014 LP  0  0  0  0  0  0  0  0  0  0  0  0  # atno 17321 bound_to 7965
  140.7437  143.2850  151.3489 LP  0  0  0  0  0  0  0  0  0  0  0  0  # atno 17342 bound_to 10162
  139.6306  144.0728  152.2473 LP  0  0  0  0  0  0  0  0  0  0  0  0  # atno 17343 bound_to 10162
  156.8538  130.5089  149.5309 LP  0  0  0  0  0  0  0  0  0  0  0  0  # atno 17370 bound_to 10713
  156.0904  130.5891  150.9722 LP  0  0  0  0  0  0  0  0  0  0  0  0  # atno 17371 bound_to 10713
  140.2432  134.8597  157.3594 LP  0  0  0  0  0  0  0  0  0  0  0  0  # atno 17394 bound_to 11000
  140.1775  134.4531  155.7792 LP  0  0  0  0  0  0  0  0  0  0  0  0  # atno 17395 bound_to 11000

$$$$
