#       Name:                AV-unprocessed.smi:1580
#       Creating user name   scv26
#       Creation time:       Fri Mar 27 06:58:22 2020


#       File generated by GOLD software.
#

@<TRIPOS>MOLECULE
AV-unprocessed.smi:1580
    42    43     1
SMALL
NO_CHARGES


@<TRIPOS>ATOM
      1 ****        -6.4845   1.4514   1.3277 C.3            1 S1                 0.0000
      2 ****        -6.1513   1.3385  -0.4772 S.o2           1 S1                 0.0000
      3 ****        -6.7678   0.0979  -0.9731 O.2            1 S1                 0.0000
      4 ****        -6.5105   2.6248  -1.0945 O.2            1 S1                 0.0000
      5 ****        -4.3735   1.1598  -0.5712 C.ar           1 S1                 0.0000
      6 ****        -3.7968  -0.0923  -0.8621 C.ar           1 S1                 0.0000
      7 ****        -2.3924  -0.1880  -0.8856 C.ar           1 S1                 0.0000
      8 ****        -1.6209   0.9691  -0.6105 C.ar           1 S1                 0.0000
      9 ****        -0.1990   1.0172  -0.5965 N.am           1 S1                 0.0000
     10 ****         0.6932   0.0783  -0.9569 C.2            1 S1                 0.0000
     11 ****         0.4227  -1.0458  -1.3775 O.2            1 S1                 0.0000
     12 ****         1.9479   0.5235  -0.8037 N.am           1 S1                 0.0000
     13 ****         3.1503  -0.2524  -1.0857 C.3            1 S1                 0.0000
     14 ****         3.5194  -1.1675   0.0936 C.3            1 S1                 0.0000
     15 ****         4.7219  -2.0685  -0.1815 C.3            1 S1                 0.0000
     16 ****         5.2254  -2.3386   1.2177 C.3            1 S1                 0.0000
     17 ****         5.0119  -0.9856   1.8894 C.3            1 S1                 0.0000
     18 ****         3.8939  -0.3935   1.2318 O.3            1 S1                 0.0000
     19 ****        -2.3123   2.1631  -0.3110 C.ar           1 S1                 0.0000
     20 ****        -3.6573   2.2669  -0.2837 N.ar           1 S1                 0.0000
     21 ****        -7.5555   1.5667   1.4925 H              1 S1                 0.0000
     22 ****        -5.9590   2.3119   1.7413 H              1 S1                 0.0000
     23 ****        -6.1369   0.5428   1.8189 H              1 S1                 0.0000
     24 ****        -4.4079  -0.9598  -1.0623 H              1 S1                 0.0000
     25 ****        -1.9494  -1.1457  -1.1054 H              1 S1                 0.0000
     26 ****         0.1936   1.8963  -0.2933 H              1 S1                 0.0000
     27 ****         2.0839   1.4599  -0.4521 H              1 S1                 0.0000
     28 ****         3.0071  -0.8434  -1.9918 H              1 S1                 0.0000
     29 ****         3.9669   0.4391  -1.2944 H              1 S1                 0.0000
     30 ****         2.6703  -1.7924   0.3756 H              1 S1                 0.0000
     31 ****         4.4574  -2.9763  -0.7243 H              1 S1                 0.0000
     32 ****         5.4822  -1.5356  -0.7545 H              1 S1                 0.0000
     33 ****         4.6080  -3.0993   1.6974 H              1 S1                 0.0000
     34 ****         6.2635  -2.6707   1.2459 H              1 S1                 0.0000
     35 ****         4.8411  -1.0776   2.9621 H              1 S1                 0.0000
     36 ****         5.8808  -0.3440   1.7388 H              1 S1                 0.0000
     37 ****        -1.7680   3.0683  -0.0842 H              1 S1                 0.0000
     38 ****        -0.5320  -1.3266  -1.4754 LP             1 S1                 0.0000
     39 ****         1.1576  -1.6786  -1.6215 LP             1 S1                 0.0000
     40 ****         3.1235  -0.3485   1.8677 LP             1 S1                 0.0000
     41 ****         4.1368   0.5306   0.9365 LP             1 S1                 0.0000
     42 ****        -4.1065   3.1316  -0.0589 LP             1 S1                 0.0000
@<TRIPOS>BOND
    1    1    2 1     
    2    1   21 1     
    3    1   22 1     
    4    1   23 1     
    5    2    3 2     
    6    2    4 2     
    7    2    5 1     
    8    5   20 ar    
    9    5    6 ar    
   10    6    7 ar    
   11    6   24 1     
   12    7    8 ar    
   13    7   25 1     
   14    8    9 1     
   15    8   19 ar    
   16    9   10 am    
   17    9   26 1     
   18   10   11 2     
   19   10   12 am    
   20   12   13 1     
   21   12   27 1     
   22   13   14 1     
   23   13   28 1     
   24   13   29 1     
   25   14   18 1     
   26   14   15 1     
   27   14   30 1     
   28   15   16 1     
   29   15   31 1     
   30   15   32 1     
   31   16   17 1     
   32   16   33 1     
   33   16   34 1     
   34   17   18 1     
   35   17   35 1     
   36   17   36 1     
   37   19   20 ar    
   38   19   37 1     
   39   11   38 1     
   40   11   39 1     
   41   18   40 1     
   42   18   41 1     
   43   20   42 1     
@<TRIPOS>SUBSTRUCTURE
      1 S1             1
@<TRIPOS>SET
LONE_PAIRS      STATIC     ATOMS    <user>   **** ""
7 3 4 38 39 40 41 42
DONOR_HYDROGENS      STATIC     ATOMS    <user>   **** ""
2 26 27
ATOM$BLUE        STATIC     ATOMS    COLORGROUP SYSTEM
7 3 4 38 39 40 41 42
ATOM$RED        STATIC     ATOMS    COLORGROUP SYSTEM
2 26 27
