AV-unprocessed.smi:1956|AV-procd|sdf|7900|dock5
  -GOLD-   2272010 53D 1   1.00000     0.00000
 Structure written by MMmdl.
 46 47  0  0  0  0  0  0  0  0  2 V2000
  151.9982  141.8936  159.1364 C   0  0  0  0  0  0  0  0  0  0  0  0
  150.7963  142.3649  158.5372 O   0  0  0  0  0  0  0  0  0  0  0  0
  150.3773  141.7785  157.3607 C   0  0  0  0  0  0  0  0  0  0  0  0
  151.2966  140.9984  156.6323 C   0  0  0  0  0  0  0  0  0  0  0  0
  150.8794  140.3980  155.4293 C   0  0  0  0  0  0  0  0  0  0  0  0
  149.5462  140.5914  154.9935 C   0  0  0  0  0  0  0  0  0  0  0  0
  149.0034  140.0594  153.7914 N   0  0  0  0  0  0  0  0  0  0  0  0
  147.7510  139.6394  153.5433 C   0  0  0  0  0  0  0  0  0  0  0  0
  146.8078  139.6964  154.3308 O   0  0  0  0  0  0  0  0  0  0  0  0
  147.6428  139.1423  152.3029 N   0  0  0  0  0  0  0  0  0  0  0  0
  146.4162  138.6058  151.7170 C   0  0  0  0  0  0  0  0  0  0  0  0
  145.5465  137.8291  152.7303 C   0  0  0  0  0  0  0  0  0  0  0  0
  144.6996  136.7865  152.0955 N   0  3  1  0  0  0  0  0  0  0  0  0
  145.5038  135.7392  151.4163 C   0  0  0  0  0  0  0  0  0  0  0  0
  144.5994  134.7650  150.6456 C   0  0  0  0  0  0  0  0  0  0  0  0
  143.5564  134.1336  151.5761 C   0  0  0  0  0  0  0  0  0  0  0  0
  142.7517  135.2276  152.2986 C   0  0  1  0  0  0  0  0  0  0  0  0
  141.7229  134.6205  153.2629 C   0  0  0  0  0  0  0  0  0  0  0  0
  143.7025  136.1979  153.0282 C   0  0  0  0  0  0  0  0  0  0  0  0
  148.7080  141.3973  155.7918 C   0  0  0  0  0  0  0  0  0  0  0  0
  149.1020  141.9767  156.9451 N   0  0  0  0  0  0  0  0  0  0  0  0
  152.1916  142.4580  160.0485 H   0  0  0  0  0  0  0  0  0  0  0  0
  152.8550  142.0305  158.4753 H   0  0  0  0  0  0  0  0  0  0  0  0
  151.9210  140.8400  159.4093 H   0  0  0  0  0  0  0  0  0  0  0  0
  152.3079  140.8671  156.9882 H   0  0  0  0  0  0  0  0  0  0  0  0
  151.5942  139.8183  154.8676 H   0  0  0  0  0  0  0  0  0  0  0  0
  149.6467  140.0173  153.0144 H   0  0  0  0  0  0  0  0  0  0  0  0
  148.4641  139.1492  151.7151 H   0  0  0  0  0  0  0  0  0  0  0  0
  145.8369  139.4150  151.2698 H   0  0  0  0  0  0  0  0  0  0  0  0
  146.7022  137.9525  150.8929 H   0  0  0  0  0  0  0  0  0  0  0  0
  146.2145  137.3517  153.4482 H   0  0  0  0  0  0  0  0  0  0  0  0
  144.9274  138.5152  153.3099 H   0  0  0  0  0  0  0  0  0  0  0  0
  146.2020  136.2038  150.7191 H   0  0  0  0  0  0  0  0  0  0  0  0
  146.1006  135.2001  152.1538 H   0  0  0  0  0  0  0  0  0  0  0  0
  144.0970  135.2944  149.8349 H   0  0  0  0  0  0  0  0  0  0  0  0
  145.2026  133.9855  150.1793 H   0  0  0  0  0  0  0  0  0  0  0  0
  142.8894  133.4890  151.0024 H   0  0  0  0  0  0  0  0  0  0  0  0
  144.0560  133.4947  152.3058 H   0  0  0  0  0  0  0  0  0  0  0  0
  142.2025  135.7961  151.5465 H   0  0  0  0  0  0  0  0  0  0  0  0
  142.2088  134.0323  154.0422 H   0  0  0  0  0  0  0  0  0  0  0  0
  141.0292  133.9649  152.7355 H   0  0  0  0  0  0  0  0  0  0  0  0
  141.1343  135.3976  153.7513 H   0  0  0  0  0  0  0  0  0  0  0  0
  144.2225  135.6814  153.8369 H   0  0  0  0  0  0  0  0  0  0  0  0
  143.1148  136.9922  153.4883 H   0  0  0  0  0  0  0  0  0  0  0  0
  147.6853  141.5839  155.4977 H   0  0  0  0  0  0  0  0  0  0  0  0
  144.1801  137.2535  151.3658 H   0  0  0  0  0  0  0  0  0  0  0  0
  1  2  1  0  0  0  0
  1 22  1  0  0  0  0
  1 23  1  0  0  0  0
  1 24  1  0  0  0  0
  2  3  1  0  0  0  0
  3 21  1  0  0  0  0
  3  4  2  0  0  0  0
  4  5  1  0  0  0  0
  4 25  1  0  0  0  0
  5  6  2  0  0  0  0
  5 26  1  0  0  0  0
  6  7  1  0  0  0  0
  6 20  1  0  0  0  0
  7  8  1  0  0  0  0
  7 27  1  0  0  0  0
  8  9  2  0  0  0  0
  8 10  1  0  0  0  0
 10 11  1  0  0  0  0
 10 28  1  0  0  0  0
 11 12  1  0  0  0  0
 11 29  1  0  0  0  0
 11 30  1  0  0  0  0
 12 13  1  0  0  0  0
 12 31  1  0  0  0  0
 12 32  1  0  0  0  0
 13 19  1  0  0  0  0
 13 14  1  0  0  0  0
 13 46  1  0  0  0  0
 14 15  1  0  0  0  0
 14 33  1  0  0  0  0
 14 34  1  0  0  0  0
 15 16  1  0  0  0  0
 15 35  1  0  0  0  0
 15 36  1  0  0  0  0
 16 17  1  0  0  0  0
 16 37  1  0  0  0  0
 16 38  1  0  0  0  0
 17 18  1  0  0  0  0
 17 19  1  0  0  0  0
 17 39  1  0  0  0  0
 18 40  1  0  0  0  0
 18 41  1  0  0  0  0
 18 42  1  0  0  0  0
 19 43  1  0  0  0  0
 19 44  1  0  0  0  0
 20 21  2  0  0  0  0
 20 45  1  0  0  0  0
M  CHG  1  13   1
M  END
> <s_m_source_file>
AV-unprocessed.smi

> <i_m_source_file_index>
1956

> <i_lp_mmshare_version>
43012

> <i_f3d_flags>
0

> <s_epik_input>
W0NIM11PYzFbY0hdW2NIXWMoW2NIXW4xKVtOSF1DKD1PKVtOSF1bQ0gyXVtDSDJdTjJbQ0gyXVtDSDJdW0NIMl1bQ0BASF0oW0NIM10pW0NIMl0y

> <s_epik_cmdline>
J2VwaWtfcHl0aG9uJywgJy1waCcsICc3LjAnLCAnLXRuJywgJzgnLCAnLW1hJywgJzIwMCcsICctbWV0YWxfYmluZGluZycsICctaW1hZScsICc8aW5maWxlLm1hZT4nLCAnLW9tYWUnLCAnPG91dGZpbGUubWFlPic=

> <r_lp_tautomer_probability>
1

> <r_epik_Ionization_Penalty>
0.00179545

> <r_epik_Ionization_Penalty_Charging>
0.00171832

> <r_epik_Ionization_Penalty_Neutral>
7.7124e-05

> <r_epik_State_Penalty>
0.0011618

> <r_epik_Charging_Adjusted_Penalty>
0.00288012

> <i_epik_Tot_Q>
1

> <i_epik_Tot_abs_Q>
1

> <r_epik_Metal_State_Penalty>
-0

> <b_epik_Metal_Only>
0

> <s_lp_Force_Field>
OPLS_2005

> <r_lp_Energy>
26.1696

> <b_lp_Chiralities_Consistent>
1

> <s_lp_Variant>
AV-unprocessed.smi:1956-1

> <Gold.Version>
5.8.1

> <Gold.Id.Protein>
6NUR|6NUR_protein|mol2

> <Gold.PLP.Fitness>
42.5026

> <Gold.PLP.PLP>
-36.9728

> <Gold.PLP.part.hbond>
-3.1219

> <Gold.PLP.part.metal>
0.0000

> <Gold.PLP.part.buried>
-3.7675

> <Gold.PLP.part.nonpolar>
-32.0943

> <Gold.PLP.part.repulsive>
1.3693

> <Gold.PLP.ligand.clash>
0.0000

> <Gold.PLP.ligand.torsion>
0.7839

> <Gold.PLP.Chemscore.Hbond>
2.3489

> <Gold.PLP.Chemscore.CHOScore>
0.0000

> <Gold.PLP.Chemscore.Metal>
0.0000

> <Gold.Chemscore.Hbonds>
donor molecule, donor type, donor heavy atom, donor atom, acceptor molecule, acceptor atom, score
      L1  H     7    27       P1  7957  0.78
      L1  H    10    28       P1  7957  0.89
      L1  H    13    46       P1 10171  0.91

> <Gold.PLP.Chemscore.Internal.Correction>
0.0508

> <Gold.Rescore>
     Score         DG    S(hbond)    S(metal)    S(lipo)     H(rot)  DE(clash)    DE(int)     intcor
     15.57     -19.20       2.51        0.00      82.89       1.71       0.36       3.26       ----

> <Gold.Chemscore.Fitness>
15.5709

> <Gold.Chemscore.DG>
-19.1950

> <Gold.Chemscore.ZeroCoef>
-5.4800

> <Gold.Chemscore.Hbond>
2.5140

> <Gold.Chemscore.Metal>
0.0000

> <Gold.Chemscore.Lipo>
82.8857

> <Gold.Chemscore.Internal_Hbond>
0.0000

> <Gold.Chemscore.DEClash>
0.3638

> <Gold.Chemscore.DEInternal>
3.2604

> <Gold.Chemscore.Rot>
1.7107

> <Gold.Chemscore.Internal.Correction>
   9.000000E+99

> <Gold.Chemscore.Hbonds>
donor molecule, donor type, donor heavy atom, donor atom, acceptor molecule, acceptor atom, score
      L1  H     7    27       P1  7957  0.80
      L1  H    10    28       P1  7957  0.77
      L1  H    13    46       P1 10171  0.86

> <Gold.Chemscore.Hbond.Weighted>
-8.3968

> <Gold.Chemscore.Metal.Weighted>
-0.0000

> <Gold.Chemscore.Lipo.Weighted>
-9.6976

> <Gold.Chemscore.Internal_Hbond.Weighted>
0.0000

> <Gold.Chemscore.DEClash.Weighted>
0.3638

> <Gold.Chemscore.DEInternal.Weighted>
3.2604

> <Gold.Chemscore.Rot.Weighted>
4.3794

> <Gold.Chemscore.Internal.Correction.Weighted>
   9.000000E+99

> <Gold.Protein.RotatedTorsions>
[ 6907 6896 6895 6894 ] final  123.94 input  -60.11 | X-H torsion
[ 7974 7965 7964 7962 ] final   91.87 input  175.53 | X-H torsion
[ 8008 7997 7996 7995 ] final  107.09 input   59.86 | X-H torsion
[ 10167 10162 10161 10158 ] final  179.23 input  -65.29 | X-H torsion
[ 10718 10713 10712 10709 ] final   12.99 input   66.30 | X-H torsion
[ 10763 10752 10751 10750 ] final  176.22 input  -60.55 | X-H torsion
[ 11005 11000 10999 10996 ] final  145.82 input  -57.11 | X-H torsion

> <Gold.Protein.ActiveResidues>
 VAL166  LYS551  ARG553  GLY616  TRP617  ASP618  TYR619  PRO620  LYS621  CYS622 
 ASP623  PHE694  ASN695  SER759  ASP760  ASP761  ALA762  ILE779  LEU786  VAL792 
 PHE793  MET794  SER795  GLU796  ALA797  LYS798  CYS799  TRP800  GLU811  SER814 

> <Gold.Protein.RotatedAtoms>
  152.4120  133.6978  159.6405 H   0  0  0  0  0  0  0  0  0  0  0  0  # atno 6907 bound_to 6896
  150.7999  133.8608  159.3240 H   0  0  0  0  0  0  0  0  0  0  0  0  # atno 6908 bound_to 6896
  151.6348  135.1021  160.0180 H   0  0  0  0  0  0  0  0  0  0  0  0  # atno 6909 bound_to 6896
  145.4998  139.2276  143.2783 H   0  0  0  0  0  0  0  0  0  0  0  0  # atno 7974 bound_to 7965
  156.1796  140.3101  155.9124 H   0  0  0  0  0  0  0  0  0  0  0  0  # atno 8008 bound_to 7997
  155.3412  140.0466  157.3062 H   0  0  0  0  0  0  0  0  0  0  0  0  # atno 8009 bound_to 7997
  154.5328  140.2236  155.8784 H   0  0  0  0  0  0  0  0  0  0  0  0  # atno 8010 bound_to 7997
  139.5327  144.2586  152.0725 H   0  0  0  0  0  0  0  0  0  0  0  0  # atno 10167 bound_to 10162
  157.0181  130.6144  149.5717 H   0  0  0  0  0  0  0  0  0  0  0  0  # atno 10718 bound_to 10713
  154.4781  135.2774  155.1591 H   0  0  0  0  0  0  0  0  0  0  0  0  # atno 10763 bound_to 10752
  154.3312  135.6189  153.5556 H   0  0  0  0  0  0  0  0  0  0  0  0  # atno 10764 bound_to 10752
  152.9872  135.5766  154.5177 H   0  0  0  0  0  0  0  0  0  0  0  0  # atno 10765 bound_to 10752
  140.0743  134.9134  157.1396 H   0  0  0  0  0  0  0  0  0  0  0  0  # atno 11005 bound_to 11000
  146.2233  140.5798  142.9008 LP  0  0  0  0  0  0  0  0  0  0  0  0  # atno 17320 bound_to 7965
  144.7786  140.5793  143.6621 LP  0  0  0  0  0  0  0  0  0  0  0  0  # atno 17321 bound_to 7965
  140.2052  144.4618  150.6412 LP  0  0  0  0  0  0  0  0  0  0  0  0  # atno 17342 bound_to 10162
  140.6515  143.2226  151.6065 LP  0  0  0  0  0  0  0  0  0  0  0  0  # atno 17343 bound_to 10162
  156.0112  130.5203  150.7993 LP  0  0  0  0  0  0  0  0  0  0  0  0  # atno 17370 bound_to 10713
  157.5270  131.0934  151.0005 LP  0  0  0  0  0  0  0  0  0  0  0  0  # atno 17371 bound_to 10713
  140.3581  134.2524  155.7190 LP  0  0  0  0  0  0  0  0  0  0  0  0  # atno 17394 bound_to 11000
  141.2023  133.7940  157.0395 LP  0  0  0  0  0  0  0  0  0  0  0  0  # atno 17395 bound_to 11000

$$$$
