#       Name:                AV-unprocessed.smi:1107
#       Creating user name   scv26
#       Creation time:       Fri Mar 27 03:32:39 2020


#       File generated by GOLD software.
#

@<TRIPOS>MOLECULE
AV-unprocessed.smi:1107
    54    55     1
SMALL
NO_CHARGES


@<TRIPOS>ATOM
      1 ****        -3.7181   5.5075  -0.3971 C.3            1 S1                 0.0000
      2 ****        -3.1398   4.1298  -0.6423 C.2            1 S1                 0.0000
      3 ****        -3.3859   3.1007   0.1001 N.2            1 S1                 0.0000
      4 ****        -2.7909   1.8742  -0.2268 C.2            1 S1                 0.0000
      5 ****        -3.1386   0.7141   0.6906 C.3            1 S1                 0.0000
      6 ****        -1.9612   1.7473  -1.3043 C.2            1 S1                 0.0000
      7 ****        -1.2811   0.4341  -1.6917 C.3            1 S1                 0.0000
      8 ****         0.1314   0.2159  -1.1418 C.2            1 S1                 0.0000
      9 ****         0.9915  -0.2973  -1.8560 O.2            1 S1                 0.0000
     10 ****         0.3575   0.5903   0.1283 N.am           1 S1                 0.0000
     11 ****         1.6326   0.5144   0.8402 C.3            1 S1                 0.0000
     12 ****         1.7433   1.7178   1.7858 C.3            1 S1                 0.0000
     13 ****         1.7707  -0.8188   1.6111 C.3            1 S1                 0.0000
     14 ****         1.6778  -2.0132   0.7328 N.4            1 S1                 1.0000
     15 ****         1.1802  -3.2169   1.4469 C.3            1 S1                 0.0000
     16 ****         0.9446  -4.3796   0.4675 C.3            1 S1                 0.0000
     17 ****         2.2179  -4.6989  -0.3270 C.3            1 S1                 0.0000
     18 ****         2.7360  -3.4321  -1.0207 C.3            1 S1                 0.0000
     19 ****         2.9372  -2.2948  -0.0060 C.3            1 S1                 0.0000
     20 ****        -1.6825   2.9300  -2.1412 C.2            1 S1                 0.0000
     21 ****        -0.9407   2.9276  -3.1221 O.2            1 S1                 0.0000
     22 ****        -2.3032   4.0668  -1.7552 N.am           1 S1                 0.0000
     23 ****        -2.1460   4.9034  -2.2980 H              1 S1                 0.0000
     24 ****        -3.3759   6.2268  -1.1429 H              1 S1                 0.0000
     25 ****        -3.4212   5.8701   0.5874 H              1 S1                 0.0000
     26 ****        -4.8068   5.4691  -0.4352 H              1 S1                 0.0000
     27 ****        -3.7277  -0.0301   0.1544 H              1 S1                 0.0000
     28 ****        -3.7248   1.0492   1.5470 H              1 S1                 0.0000
     29 ****        -2.2390   0.2337   1.0737 H              1 S1                 0.0000
     30 ****        -1.8920  -0.4076  -1.3665 H              1 S1                 0.0000
     31 ****        -1.2543   0.3496  -2.7793 H              1 S1                 0.0000
     32 ****        -0.4151   0.9984   0.6354 H              1 S1                 0.0000
     33 ****         2.4480   0.6031   0.1212 H              1 S1                 0.0000
     34 ****         2.6994   1.7179   2.3098 H              1 S1                 0.0000
     35 ****         0.9524   1.7094   2.5369 H              1 S1                 0.0000
     36 ****         1.6704   2.6571   1.2365 H              1 S1                 0.0000
     37 ****         2.7077  -0.8484   2.1693 H              1 S1                 0.0000
     38 ****         0.9747  -0.8581   2.3563 H              1 S1                 0.0000
     39 ****         1.8961  -3.5081   2.2171 H              1 S1                 0.0000
     40 ****         0.2430  -2.9846   1.9541 H              1 S1                 0.0000
     41 ****         0.6126  -5.2648   1.0108 H              1 S1                 0.0000
     42 ****         0.1396  -4.1191  -0.2214 H              1 S1                 0.0000
     43 ****         2.9832  -5.0908   0.3442 H              1 S1                 0.0000
     44 ****         2.0184  -5.4781  -1.0632 H              1 S1                 0.0000
     45 ****         3.6740  -3.6452  -1.5342 H              1 S1                 0.0000
     46 ****         2.0278  -3.1165  -1.7883 H              1 S1                 0.0000
     47 ****         3.2738  -1.4036  -0.5347 H              1 S1                 0.0000
     48 ****         3.7256  -2.5577   0.7009 H              1 S1                 0.0000
     49 ****         0.9781  -1.7927   0.0381 H              1 S1                 0.0000
     50 ****        -3.9899   3.1780   0.8933 LP             1 S1                 0.0000
     51 ****         0.7670  -0.5701  -2.7915 LP             1 S1                 0.0000
     52 ****         1.9152  -0.4417  -1.5011 LP             1 S1                 0.0000
     53 ****        -0.4798   2.0842  -3.3984 LP             1 S1                 0.0000
     54 ****        -0.7984   3.7690  -3.6434 LP             1 S1                 0.0000
@<TRIPOS>BOND
    1    1    2 1     
    2    1   24 1     
    3    1   25 1     
    4    1   26 1     
    5    2   22 1     
    6    2    3 2     
    7    3    4 1     
    8    4    5 1     
    9    4    6 2     
   10    5   27 1     
   11    5   28 1     
   12    5   29 1     
   13    6    7 1     
   14    6   20 1     
   15    7    8 1     
   16    7   30 1     
   17    7   31 1     
   18    8    9 2     
   19    8   10 am    
   20   10   11 1     
   21   10   32 1     
   22   11   12 1     
   23   11   13 1     
   24   11   33 1     
   25   12   34 1     
   26   12   35 1     
   27   12   36 1     
   28   13   14 1     
   29   13   37 1     
   30   13   38 1     
   31   14   19 1     
   32   14   15 1     
   33   14   49 1     
   34   15   16 1     
   35   15   39 1     
   36   15   40 1     
   37   16   17 1     
   38   16   41 1     
   39   16   42 1     
   40   17   18 1     
   41   17   43 1     
   42   17   44 1     
   43   18   19 1     
   44   18   45 1     
   45   18   46 1     
   46   19   47 1     
   47   19   48 1     
   48   20   21 2     
   49   20   22 am    
   50   22   23 1     
   51    3   50 1     
   52    9   51 1     
   53    9   52 1     
   54   21   53 1     
   55   21   54 1     
@<TRIPOS>SUBSTRUCTURE
      1 S1             1
@<TRIPOS>SET
LONE_PAIRS      STATIC     ATOMS    <user>   **** ""
5 50 51 52 53 54
DONOR_HYDROGENS      STATIC     ATOMS    <user>   **** ""
3 32 49 23
ATOM$BLUE        STATIC     ATOMS    COLORGROUP SYSTEM
5 50 51 52 53 54
ATOM$RED        STATIC     ATOMS    COLORGROUP SYSTEM
3 32 49 23
