AV-unprocessed.smi:181|AV-procd|sdf|1453|dock4
  -GOLD-   2262019253D 1   1.00000     0.00000
 Structure written by MMmdl.
 50 53  0  0  0  0  0  0  0  0  1 V2000
  163.6252  128.9240  150.9309 C   0  0  0  0  0  0  0  0  0  0  0  0
  162.3149  129.1833  150.1779 C   0  0  0  0  0  0  0  0  0  0  0  0
  162.0862  130.6115  149.9633 N   0  0  0  0  0  0  0  0  0  0  0  0
  161.4766  131.2410  150.9941 C   0  0  0  0  0  0  0  0  0  0  0  0
  161.1234  130.5423  152.1033 N   0  0  0  0  0  0  0  0  0  0  0  0
  160.5262  131.1680  153.1221 C   0  0  0  0  0  0  0  0  0  0  0  0
  160.2032  132.4587  153.2359 N   0  0  0  0  0  0  0  0  0  0  0  0
  160.5699  133.1617  152.1257 C   0  0  0  0  0  0  0  0  0  0  0  0
  161.2088  132.6342  150.9699 C   0  0  0  0  0  0  0  0  0  0  0  0
  161.4300  133.6430  150.0415 N   0  0  0  0  0  0  0  0  0  0  0  0
  160.9496  134.7111  150.6184 C   0  0  0  0  0  0  0  0  0  0  0  0
  160.4171  134.5134  151.8732 N   0  0  0  0  0  0  0  0  0  0  0  0
  159.8191  135.5209  152.7352 C   0  0  0  0  0  0  0  0  0  0  0  0
  158.5745  136.2108  152.1240 C   0  0  0  0  0  0  0  0  0  0  0  0
  159.0126  136.9882  151.0227 O   0  0  0  0  0  0  0  0  0  0  0  0
  157.5754  135.1561  151.6079 C   0  0  0  0  0  0  0  0  0  0  0  0
  156.2500  135.7881  151.1474 C   0  0  0  0  0  0  0  0  0  0  0  0
  155.6872  136.5598  152.2013 O   0  0  0  0  0  0  0  0  0  0  0  0
  156.5117  137.6548  152.5816 C   0  0  0  0  0  0  0  0  0  0  0  0
  157.8570  137.1426  153.1257 C   0  0  0  0  0  0  0  0  0  0  0  0
  161.9231  131.1311  148.5953 C   0  0  2  0  0  0  0  0  0  0  0  0
  160.4548  131.2494  148.1368 C   0  0  0  0  0  0  0  0  0  0  0  0
  160.5054  131.0185  146.6193 C   0  0  0  0  0  0  0  0  0  0  0  0
  161.7463  130.2965  146.4078 N   0  0  0  0  0  0  0  0  0  0  0  0
  162.5502  130.3087  147.4708 C   0  0  0  0  0  0  0  0  0  0  0  0
  163.6492  129.7627  147.5431 O   0  0  0  0  0  0  0  0  0  0  0  0
  163.7703  127.8564  151.0963 H   0  0  0  0  0  0  0  0  0  0  0  0
  163.6189  129.4135  151.9053 H   0  0  0  0  0  0  0  0  0  0  0  0
  164.4886  129.2918  150.3767 H   0  0  0  0  0  0  0  0  0  0  0  0
  162.3401  128.6706  149.2164 H   0  0  0  0  0  0  0  0  0  0  0  0
  161.4921  128.7334  150.7375 H   0  0  0  0  0  0  0  0  0  0  0  0
  160.2724  130.5455  153.9673 H   0  0  0  0  0  0  0  0  0  0  0  0
  160.9743  135.6816  150.1438 H   0  0  0  0  0  0  0  0  0  0  0  0
  159.5644  135.0497  153.6857 H   0  0  0  0  0  0  0  0  0  0  0  0
  160.5833  136.2650  152.9631 H   0  0  0  0  0  0  0  0  0  0  0  0
  158.2661  137.1822  150.4768 H   0  0  0  0  0  0  0  0  0  0  0  0
  158.0157  134.5758  150.7960 H   0  0  0  0  0  0  0  0  0  0  0  0
  157.3573  134.4453  152.4062 H   0  0  0  0  0  0  0  0  0  0  0  0
  156.3956  136.4102  150.2628 H   0  0  0  0  0  0  0  0  0  0  0  0
  155.5426  135.0068  150.8695 H   0  0  0  0  0  0  0  0  0  0  0  0
  156.6597  138.3252  151.7336 H   0  0  0  0  0  0  0  0  0  0  0  0
  155.9956  138.2302  153.3504 H   0  0  0  0  0  0  0  0  0  0  0  0
  157.6701  136.5979  154.0520 H   0  0  0  0  0  0  0  0  0  0  0  0
  158.4896  137.9906  153.3910 H   0  0  0  0  0  0  0  0  0  0  0  0
  162.3814  132.1190  148.5431 H   0  0  0  0  0  0  0  0  0  0  0  0
  159.8183  130.4837  148.5803 H   0  0  0  0  0  0  0  0  0  0  0  0
  160.0207  132.2167  148.3918 H   0  0  0  0  0  0  0  0  0  0  0  0
  159.6474  130.4494  146.2608 H   0  0  0  0  0  0  0  0  0  0  0  0
  160.5446  131.9641  146.0773 H   0  0  0  0  0  0  0  0  0  0  0  0
  161.9581  129.8191  145.5437 H   0  0  0  0  0  0  0  0  0  0  0  0
  1  2  1  0  0  0  0
  1 27  1  0  0  0  0
  1 28  1  0  0  0  0
  1 29  1  0  0  0  0
  2  3  1  0  0  0  0
  2 30  1  0  0  0  0
  2 31  1  0  0  0  0
  3  4  1  0  0  0  0
  3 21  1  0  0  0  0
  4  9  1  0  0  0  0
  4  5  2  0  0  0  0
  5  6  1  0  0  0  0
  6  7  2  0  0  0  0
  6 32  1  0  0  0  0
  7  8  1  0  0  0  0
  8 12  1  0  0  0  0
  8  9  2  0  0  0  0
  9 10  1  0  0  0  0
 10 11  2  0  0  0  0
 11 12  1  0  0  0  0
 11 33  1  0  0  0  0
 12 13  1  0  0  0  0
 13 14  1  0  0  0  0
 13 34  1  0  0  0  0
 13 35  1  0  0  0  0
 14 20  1  0  0  0  0
 14 15  1  0  0  0  0
 14 16  1  0  0  0  0
 15 36  1  0  0  0  0
 16 17  1  0  0  0  0
 16 37  1  0  0  0  0
 16 38  1  0  0  0  0
 17 18  1  0  0  0  0
 17 39  1  0  0  0  0
 17 40  1  0  0  0  0
 18 19  1  0  0  0  0
 19 20  1  0  0  0  0
 19 41  1  0  0  0  0
 19 42  1  0  0  0  0
 20 43  1  0  0  0  0
 20 44  1  0  0  0  0
 21 25  1  0  0  0  0
 21 22  1  0  0  0  0
 21 45  1  0  0  0  0
 22 23  1  0  0  0  0
 22 46  1  0  0  0  0
 22 47  1  0  0  0  0
 23 24  1  0  0  0  0
 23 48  1  0  0  0  0
 23 49  1  0  0  0  0
 24 25  1  0  0  0  0
 24 50  1  0  0  0  0
 25 26  2  0  0  0  0
M  END
> <s_m_source_file>
AV-unprocessed.smi

> <i_m_source_file_index>
181

> <i_lp_mmshare_version>
43012

> <i_f3d_flags>
0

> <s_epik_input>
Tz1DMVtOSF1bQ0gyXVtDSDJdW0NASF0xTihbQ0gyXVtDSDNdKWMobltjSF1uMiljKGMyMyluW2NIXW4zW0NIMl1DNChbT0hdKVtDSDJdW0NIMl1PW0NIMl1bQ0gyXTQ=

> <s_epik_cmdline>
J2VwaWtfcHl0aG9uJywgJy1waCcsICc3LjAnLCAnLXRuJywgJzgnLCAnLW1hJywgJzIwMCcsICctbWV0YWxfYmluZGluZycsICctaW1hZScsICc8aW5maWxlLm1hZT4nLCAnLW9tYWUnLCAnPG91dGZpbGUubWFlPic=

> <r_lp_tautomer_probability>
1

> <r_epik_Ionization_Penalty>
0.000985257

> <r_epik_Ionization_Penalty_Charging>
0

> <r_epik_Ionization_Penalty_Neutral>
0.000985257

> <r_epik_State_Penalty>
0.000517047

> <r_epik_Charging_Adjusted_Penalty>
0.000517047

> <i_epik_Tot_Q>
0

> <i_epik_Tot_abs_Q>
0

> <r_epik_Metal_State_Penalty>
-0

> <b_epik_Metal_Only>
0

> <s_lp_Force_Field>
OPLS_2005

> <r_lp_Energy>
35.7055

> <b_lp_Chiralities_Consistent>
1

> <s_lp_Variant>
AV-unprocessed.smi:181-1

> <Gold.Version>
5.8.1

> <Gold.Id.Protein>
6NUR|6NUR_protein|mol2

> <Gold.PLP.Fitness>
47.6179

> <Gold.PLP.PLP>
-41.8971

> <Gold.PLP.part.hbond>
-5.6271

> <Gold.PLP.part.metal>
0.0000

> <Gold.PLP.part.buried>
-0.6506

> <Gold.PLP.part.nonpolar>
-36.4109

> <Gold.PLP.part.repulsive>
0.4402

> <Gold.PLP.ligand.clash>
0.0000

> <Gold.PLP.ligand.torsion>
0.7712

> <Gold.PLP.Chemscore.Hbond>
2.0000

> <Gold.PLP.Chemscore.CHOScore>
0.0000

> <Gold.PLP.Chemscore.Metal>
0.0000

> <Gold.Chemscore.Hbonds>
donor molecule, donor type, donor heavy atom, donor atom, acceptor molecule, acceptor atom, score
      L1  H    15    36       P1 10674  0.75
      P1  H 10752 10764       L1    18  0.96

> <Gold.PLP.Chemscore.Internal.Correction>
1.2632

> <Gold.Rescore>
     Score         DG    S(hbond)    S(metal)    S(lipo)     H(rot)  DE(clash)    DE(int)     intcor
     14.00     -18.06       1.94        0.00     106.77       2.49       0.82       3.24       ----

> <Gold.Chemscore.Fitness>
14.0016

> <Gold.Chemscore.DG>
-18.0620

> <Gold.Chemscore.ZeroCoef>
-5.4800

> <Gold.Chemscore.Hbond>
1.9353

> <Gold.Chemscore.Metal>
0.0000

> <Gold.Chemscore.Lipo>
106.7653

> <Gold.Chemscore.Internal_Hbond>
0.0000

> <Gold.Chemscore.DEClash>
0.8233

> <Gold.Chemscore.DEInternal>
3.2370

> <Gold.Chemscore.Rot>
2.4897

> <Gold.Chemscore.Internal.Correction>
   9.000000E+99

> <Gold.Chemscore.Hbonds>
donor molecule, donor type, donor heavy atom, donor atom, acceptor molecule, acceptor atom, score
      L1  H    15    36       P1 10674  0.75
      P1  H 10752 10764       L1    18  0.86

> <Gold.Chemscore.Hbond.Weighted>
-6.4639

> <Gold.Chemscore.Metal.Weighted>
-0.0000

> <Gold.Chemscore.Lipo.Weighted>
-12.4915

> <Gold.Chemscore.Internal_Hbond.Weighted>
0.0000

> <Gold.Chemscore.DEClash.Weighted>
0.8233

> <Gold.Chemscore.DEInternal.Weighted>
3.2370

> <Gold.Chemscore.Rot.Weighted>
6.3735

> <Gold.Chemscore.Internal.Correction.Weighted>
   9.000000E+99

> <Gold.Protein.RotatedTorsions>
[ 6907 6896 6895 6894 ] final -152.97 input  -60.11 | X-H torsion
[ 7974 7965 7964 7962 ] final    8.88 input  175.53 | X-H torsion
[ 8008 7997 7996 7995 ] final   90.49 input   59.86 | X-H torsion
[ 10167 10162 10161 10158 ] final   10.89 input  -65.29 | X-H torsion
[ 10718 10713 10712 10709 ] final  -92.01 input   66.30 | X-H torsion
[ 10763 10752 10751 10750 ] final  163.64 input  -60.55 | X-H torsion
[ 11005 11000 10999 10996 ] final  -76.94 input  -57.11 | X-H torsion

> <Gold.Protein.ActiveResidues>
 VAL166  LYS551  ARG553  GLY616  TRP617  ASP618  TYR619  PRO620  LYS621  CYS622 
 ASP623  PHE694  ASN695  SER759  ASP760  ASP761  ALA762  ILE779  LEU786  VAL792 
 PHE793  MET794  SER795  GLU796  ALA797  LYS798  CYS799  TRP800  GLU811  SER814 

> <Gold.Protein.RotatedAtoms>
  151.2357  133.4426  159.2605 H   0  0  0  0  0  0  0  0  0  0  0  0  # atno 6907 bound_to 6896
  151.0753  134.9824  159.8339 H   0  0  0  0  0  0  0  0  0  0  0  0  # atno 6908 bound_to 6896
  152.5417  134.2300  159.8874 H   0  0  0  0  0  0  0  0  0  0  0  0  # atno 6909 bound_to 6896
  146.2411  139.9866  142.8430 H   0  0  0  0  0  0  0  0  0  0  0  0  # atno 7974 bound_to 7965
  156.0126  140.3349  155.6956 H   0  0  0  0  0  0  0  0  0  0  0  0  # atno 8008 bound_to 7997
  155.6136  140.0668  157.2716 H   0  0  0  0  0  0  0  0  0  0  0  0  # atno 8009 bound_to 7997
  154.4287  140.1789  156.1286 H   0  0  0  0  0  0  0  0  0  0  0  0  # atno 8010 bound_to 7997
  140.6166  143.8295  150.7125 H   0  0  0  0  0  0  0  0  0  0  0  0  # atno 10167 bound_to 10162
  155.9998  130.4970  150.5560 H   0  0  0  0  0  0  0  0  0  0  0  0  # atno 10718 bound_to 10713
  154.2968  135.2760  155.2629 H   0  0  0  0  0  0  0  0  0  0  0  0  # atno 10763 bound_to 10752
  154.5084  135.5789  153.6589 H   0  0  0  0  0  0  0  0  0  0  0  0  # atno 10764 bound_to 10752
  152.9906  135.6175  154.3136 H   0  0  0  0  0  0  0  0  0  0  0  0  # atno 10765 bound_to 10752
  141.1657  133.7003  156.7745 H   0  0  0  0  0  0  0  0  0  0  0  0  # atno 11005 bound_to 11000
  145.1542  140.9639  143.4415 LP  0  0  0  0  0  0  0  0  0  0  0  0  # atno 17320 bound_to 7965
  145.0177  139.3452  143.6088 LP  0  0  0  0  0  0  0  0  0  0  0  0  # atno 17321 bound_to 7965
  140.1876  143.4063  152.1887 LP  0  0  0  0  0  0  0  0  0  0  0  0  # atno 17342 bound_to 10162
  139.5403  144.7250  151.4755 LP  0  0  0  0  0  0  0  0  0  0  0  0  # atno 17343 bound_to 10162
  157.3476  131.0728  151.1738 LP  0  0  0  0  0  0  0  0  0  0  0  0  # atno 17370 bound_to 10713
  157.2566  130.6639  149.5955 LP  0  0  0  0  0  0  0  0  0  0  0  0  # atno 17371 bound_to 10713
  140.2440  134.8592  157.3601 LP  0  0  0  0  0  0  0  0  0  0  0  0  # atno 17394 bound_to 11000
  140.1768  134.4539  155.7797 LP  0  0  0  0  0  0  0  0  0  0  0  0  # atno 17395 bound_to 11000

$$$$
