AV-unprocessed.smi:1399|AV-procd|sdf|5681|dock10
  -GOLD-   22720 5303D 1   1.00000     0.00000
 Structure written by MMmdl.
 37 38  0  0  0  0  0  0  0  0  1 V2000
  145.0507  141.7753  154.8843 N   0  0  0  0  0  0  0  0  0  0  0  0
  146.0621  142.3491  154.2278 C   0  0  0  0  0  0  0  0  0  0  0  0
  145.9427  143.4242  153.6444 O   0  0  0  0  0  0  0  0  0  0  0  0
  147.4010  141.6024  154.2183 C   0  0  0  0  0  0  0  0  0  0  0  0
  147.3669  140.2764  153.5584 N   0  0  0  0  0  0  0  0  0  0  0  0
  146.6548  140.3076  152.2719 C   0  0  0  0  0  0  0  0  0  0  0  0
  146.7029  138.9278  151.5916 C   0  0  0  0  0  0  0  0  0  0  0  0
  146.1037  137.8382  152.4959 C   0  0  0  0  0  0  0  0  0  0  0  0
  146.2711  136.5148  151.9027 N   0  0  0  0  0  0  0  0  0  0  0  0
  145.2872  135.6251  151.7090 C   0  0  0  0  0  0  0  0  0  0  0  0
  144.1119  135.8325  152.0111 O   0  0  0  0  0  0  0  0  0  0  0  0
  145.7530  134.4969  151.1487 N   0  0  0  0  0  0  0  0  0  0  0  0
  145.0128  133.3389  150.8010 C   0  0  0  0  0  0  0  0  0  0  0  0
  145.5830  132.1243  150.3322 C   0  0  0  0  0  0  0  0  0  0  0  0
  144.6504  131.2149  150.0875 N   0  0  0  0  0  0  0  0  0  0  0  0
  143.4902  131.8377  150.3948 N   0  0  0  0  0  0  0  0  0  0  0  0
  143.6620  133.1319  150.8337 C   0  0  0  0  0  0  0  0  0  0  0  0
  146.7987  137.8901  153.8634 C   0  0  0  0  0  0  0  0  0  0  0  0
  146.7382  139.3065  154.4615 C   0  0  0  0  0  0  0  0  0  0  0  0
  142.5988  131.3715  150.3014 H   0  0  0  0  0  0  0  0  0  0  0  0
  144.1522  142.2342  154.9230 H   0  0  0  0  0  0  0  0  0  0  0  0
  145.1912  140.8879  155.3450 H   0  0  0  0  0  0  0  0  0  0  0  0
  148.1234  142.2432  153.7106 H   0  0  0  0  0  0  0  0  0  0  0  0
  147.7539  141.4933  155.2457 H   0  0  0  0  0  0  0  0  0  0  0  0
  145.6195  140.6188  152.4222 H   0  0  0  0  0  0  0  0  0  0  0  0
  147.1056  141.0323  151.5941 H   0  0  0  0  0  0  0  0  0  0  0  0
  146.1635  138.9688  150.6447 H   0  0  0  0  0  0  0  0  0  0  0  0
  147.7374  138.6816  151.3466 H   0  0  0  0  0  0  0  0  0  0  0  0
  145.0401  138.0375  152.6419 H   0  0  0  0  0  0  0  0  0  0  0  0
  147.2062  136.2583  151.6217 H   0  0  0  0  0  0  0  0  0  0  0  0
  146.7425  134.4612  150.9517 H   0  0  0  0  0  0  0  0  0  0  0  0
  146.6212  131.8773  150.1656 H   0  0  0  0  0  0  0  0  0  0  0  0
  142.8316  133.7611  151.1182 H   0  0  0  0  0  0  0  0  0  0  0  0
  146.3305  137.1813  154.5474 H   0  0  0  0  0  0  0  0  0  0  0  0
  147.8414  137.5831  153.7657 H   0  0  0  0  0  0  0  0  0  0  0  0
  147.2576  139.3039  155.4208 H   0  0  0  0  0  0  0  0  0  0  0  0
  145.7029  139.5883  154.6624 H   0  0  0  0  0  0  0  0  0  0  0  0
  1  2  1  0  0  0  0
  1 21  1  0  0  0  0
  1 22  1  0  0  0  0
  2  3  2  0  0  0  0
  2  4  1  0  0  0  0
  4  5  1  0  0  0  0
  4 23  1  0  0  0  0
  4 24  1  0  0  0  0
  5 19  1  0  0  0  0
  5  6  1  0  0  0  0
  6  7  1  0  0  0  0
  6 25  1  0  0  0  0
  6 26  1  0  0  0  0
  7  8  1  0  0  0  0
  7 27  1  0  0  0  0
  7 28  1  0  0  0  0
  8  9  1  0  0  0  0
  8 18  1  0  0  0  0
  8 29  1  0  0  0  0
  9 10  1  0  0  0  0
  9 30  1  0  0  0  0
 10 11  2  0  0  0  0
 10 12  1  0  0  0  0
 12 13  1  0  0  0  0
 12 31  1  0  0  0  0
 13 17  2  0  0  0  0
 13 14  1  0  0  0  0
 14 15  2  0  0  0  0
 14 32  1  0  0  0  0
 15 16  1  0  0  0  0
 16 20  1  0  0  0  0
 16 17  1  0  0  0  0
 17 33  1  0  0  0  0
 18 19  1  0  0  0  0
 18 34  1  0  0  0  0
 18 35  1  0  0  0  0
 19 36  1  0  0  0  0
 19 37  1  0  0  0  0
M  END
> <s_m_source_file>
AV-unprocessed.smi

> <i_m_source_file_index>
1399

> <i_lp_mmshare_version>
43012

> <i_f3d_flags>
0

> <s_epik_input>
W05IMl1DKD1PKVtDSDJdTjFbQ0gyXVtDSDJdW0NIXShbQ0gyXVtDSDJdMSlbTkhdQyg9TylbTkhdYzJbY0hdbltuSF1bY0hdMg==

> <s_epik_cmdline>
J2VwaWtfcHl0aG9uJywgJy1waCcsICc3LjAnLCAnLXRuJywgJzgnLCAnLW1hJywgJzIwMCcsICctbWV0YWxfYmluZGluZycsICctaW1hZScsICc8aW5maWxlLm1hZT4nLCAnLW9tYWUnLCAnPG91dGZpbGUubWFlPic=

> <r_lp_tautomer_probability>
0.5

> <r_epik_Ionization_Penalty>
0.164786

> <r_epik_Ionization_Penalty_Charging>
0

> <r_epik_Ionization_Penalty_Neutral>
0.164786

> <r_epik_State_Penalty>
0.154069

> <r_epik_Charging_Adjusted_Penalty>
0.154069

> <i_epik_Tot_Q>
0

> <i_epik_Tot_abs_Q>
0

> <r_epik_Metal_State_Penalty>
0.171367

> <b_epik_Metal_Only>
0

> <s_lp_Force_Field>
OPLS_2005

> <r_lp_Energy>
13.9175

> <b_lp_Chiralities_Consistent>
1

> <s_lp_Variant>
AV-unprocessed.smi:1399-1

> <Gold.Version>
5.8.1

> <Gold.Id.Protein>
6NUR|6NUR_protein|mol2

> <Gold.PLP.Fitness>
38.7709

> <Gold.PLP.PLP>
-28.0868

> <Gold.PLP.part.hbond>
-4.0340

> <Gold.PLP.part.metal>
0.0000

> <Gold.PLP.part.buried>
0.4309

> <Gold.PLP.part.nonpolar>
-26.4988

> <Gold.PLP.part.repulsive>
0.8546

> <Gold.PLP.ligand.clash>
0.0000

> <Gold.PLP.ligand.torsion>
0.1968

> <Gold.PLP.Chemscore.Hbond>
1.6988

> <Gold.PLP.Chemscore.CHOScore>
1.9913

> <Gold.PLP.Chemscore.Metal>
0.0000

> <Gold.Chemscore.Hbonds>
donor molecule, donor type, donor heavy atom, donor atom, acceptor molecule, acceptor atom, score
      L1  H     9    30       P1  7948  1.00
      L1  H    16    20       P1 10952  0.63
      L1  C    14    32       P1 10747  0.93
      L1  C    17    33       P1 10186  0.88

> <Gold.PLP.Chemscore.Internal.Correction>
0.0074

> <Gold.Rescore>
     Score         DG    S(hbond)    S(metal)    S(lipo)     H(rot)  DE(clash)    DE(int)     intcor
     11.31     -13.77       1.89        0.00      61.91       2.06       1.02       1.43       ----

> <Gold.Chemscore.Fitness>
11.3105

> <Gold.Chemscore.DG>
-13.7700

> <Gold.Chemscore.ZeroCoef>
-5.4800

> <Gold.Chemscore.Hbond>
1.8937

> <Gold.Chemscore.Metal>
0.0000

> <Gold.Chemscore.Lipo>
61.9113

> <Gold.Chemscore.Internal_Hbond>
0.0000

> <Gold.Chemscore.DEClash>
1.0249

> <Gold.Chemscore.DEInternal>
1.4345

> <Gold.Chemscore.Rot>
2.0620

> <Gold.Chemscore.Internal.Correction>
   9.000000E+99

> <Gold.Chemscore.Hbonds>
donor molecule, donor type, donor heavy atom, donor atom, acceptor molecule, acceptor atom, score
      L1  H     9    30       P1  7948  0.98
      L1  H    16    20       P1 10952  0.44

> <Gold.Chemscore.Hbond.Weighted>
-6.3251

> <Gold.Chemscore.Metal.Weighted>
-0.0000

> <Gold.Chemscore.Lipo.Weighted>
-7.2436

> <Gold.Chemscore.Internal_Hbond.Weighted>
0.0000

> <Gold.Chemscore.DEClash.Weighted>
1.0249

> <Gold.Chemscore.DEInternal.Weighted>
1.4345

> <Gold.Chemscore.Rot.Weighted>
5.2788

> <Gold.Chemscore.Internal.Correction.Weighted>
   9.000000E+99

> <Gold.Protein.RotatedTorsions>
[ 6907 6896 6895 6894 ] final   72.18 input  -60.11 | X-H torsion
[ 7974 7965 7964 7962 ] final  112.21 input  175.53 | X-H torsion
[ 8008 7997 7996 7995 ] final  151.52 input   59.86 | X-H torsion
[ 10167 10162 10161 10158 ] final   14.60 input  -65.29 | X-H torsion
[ 10718 10713 10712 10709 ] final  118.16 input   66.30 | X-H torsion
[ 10763 10752 10751 10750 ] final  125.10 input  -60.55 | X-H torsion
[ 11005 11000 10999 10996 ] final  -80.62 input  -57.11 | X-H torsion

> <Gold.Protein.ActiveResidues>
 VAL166  LYS551  ARG553  GLY616  TRP617  ASP618  TYR619  PRO620  LYS621  CYS622 
 ASP623  PHE694  ASN695  SER759  ASP760  ASP761  ALA762  ILE779  LEU786  VAL792 
 PHE793  MET794  SER795  GLU796  ALA797  LYS798  CYS799  TRP800  GLU811  SER814 

> <Gold.Protein.RotatedAtoms>
  152.4853  134.4609  159.9604 H   0  0  0  0  0  0  0  0  0  0  0  0  # atno 6907 bound_to 6896
  151.4606  133.3587  159.2816 H   0  0  0  0  0  0  0  0  0  0  0  0  # atno 6908 bound_to 6896
  150.8959  134.8392  159.7386 H   0  0  0  0  0  0  0  0  0  0  0  0  # atno 6909 bound_to 6896
  145.2324  139.2813  143.4161 H   0  0  0  0  0  0  0  0  0  0  0  0  # atno 7974 bound_to 7965
  156.2670  140.2045  156.6189 H   0  0  0  0  0  0  0  0  0  0  0  0  # atno 8008 bound_to 7997
  154.6772  140.0544  157.0252 H   0  0  0  0  0  0  0  0  0  0  0  0  # atno 8009 bound_to 7997
  155.1052  140.3210  155.4539 H   0  0  0  0  0  0  0  0  0  0  0  0  # atno 8010 bound_to 7997
  140.5924  143.8768  150.6886 H   0  0  0  0  0  0  0  0  0  0  0  0  # atno 10167 bound_to 10162
  157.6048  131.1045  150.7717 H   0  0  0  0  0  0  0  0  0  0  0  0  # atno 10718 bound_to 10713
  153.6719  135.3329  155.3155 H   0  0  0  0  0  0  0  0  0  0  0  0  # atno 10763 bound_to 10752
  154.8489  135.4388  154.1697 H   0  0  0  0  0  0  0  0  0  0  0  0  # atno 10764 bound_to 10752
  153.2690  135.6998  153.7576 H   0  0  0  0  0  0  0  0  0  0  0  0  # atno 10765 bound_to 10752
  141.1667  133.7159  156.8301 H   0  0  0  0  0  0  0  0  0  0  0  0  # atno 11005 bound_to 11000
  146.3349  140.2663  142.8604 LP  0  0  0  0  0  0  0  0  0  0  0  0  # atno 17320 bound_to 7965
  144.9664  140.8326  143.5482 LP  0  0  0  0  0  0  0  0  0  0  0  0  # atno 17321 bound_to 7965
  140.2294  143.3747  152.1578 LP  0  0  0  0  0  0  0  0  0  0  0  0  # atno 17342 bound_to 10162
  139.5236  144.7074  151.5313 LP  0  0  0  0  0  0  0  0  0  0  0  0  # atno 17343 bound_to 10162
  156.8108  130.4951  149.5356 LP  0  0  0  0  0  0  0  0  0  0  0  0  # atno 17370 bound_to 10713
  156.1132  130.6055  151.0079 LP  0  0  0  0  0  0  0  0  0  0  0  0  # atno 17371 bound_to 10713
  140.2057  134.8864  157.3219 LP  0  0  0  0  0  0  0  0  0  0  0  0  # atno 17394 bound_to 11000
  140.2140  134.4104  155.7598 LP  0  0  0  0  0  0  0  0  0  0  0  0  # atno 17395 bound_to 11000

$$$$
