AV-unprocessed.smi:1514|AV-procd|sdf|6116|dock9
  -GOLD-   22720 6253D 1   1.00000     0.00000
 Structure written by MMmdl.
 47 48  0  0  0  0  0  0  0  0  1 V2000
  152.9321  142.0961  160.0877 C   0  0  0  0  0  0  0  0  0  0  0  0
  152.0877  142.6520  158.9322 C   0  0  0  0  0  0  0  0  0  0  0  0
  151.4808  141.6396  158.0705 N   0  0  0  0  0  0  0  0  0  0  0  0
  152.4447  140.5912  157.7367 C   0  0  0  0  0  0  0  0  0  0  0  0
  151.8180  139.5037  156.8444 C   0  0  0  0  0  0  0  0  0  0  0  0
  151.3007  140.0653  155.5937 N   0  0  0  0  0  0  0  0  0  0  0  0
  150.6890  139.0525  154.7362 C   0  0  0  0  0  0  0  0  0  0  0  0
  149.7608  138.0642  155.4604 C   0  0  0  0  0  0  0  0  0  0  0  0
  149.5571  136.8754  154.6450 N   0  0  0  0  0  0  0  0  0  0  0  0
  149.7695  135.6216  155.0662 C   0  0  0  0  0  0  0  0  0  0  0  0
  150.1540  135.3451  156.2027 O   0  0  0  0  0  0  0  0  0  0  0  0
  149.5053  134.7327  154.0926 N   0  0  0  0  0  0  0  0  0  0  0  0
  149.6373  133.3799  154.1170 C   0  0  0  0  0  0  0  0  0  0  0  0
  150.5399  132.6146  154.8037 C   0  0  0  0  0  0  0  0  0  0  0  0
  150.1831  131.2891  154.4198 C   0  0  0  0  0  0  0  0  0  0  0  0
  150.8198  129.9996  154.8470 C   0  0  0  0  0  0  0  0  0  0  0  0
  149.1549  131.2581  153.5795 N   0  0  0  0  0  0  0  0  0  0  0  0
  148.8149  132.5509  153.3873 N   0  0  0  0  0  0  0  0  0  0  0  0
  147.7128  132.8884  152.5075 C   0  0  0  0  0  0  0  0  0  0  0  0
  150.3384  141.1156  155.9278 C   0  0  0  0  0  0  0  0  0  0  0  0
  150.9663  142.2025  156.8198 C   0  0  0  0  0  0  0  0  0  0  0  0
  153.4351  142.9053  160.6171 H   0  0  0  0  0  0  0  0  0  0  0  0
  153.6995  141.4139  159.7210 H   0  0  0  0  0  0  0  0  0  0  0  0
  152.3242  141.5617  160.8175 H   0  0  0  0  0  0  0  0  0  0  0  0
  151.3162  143.3132  159.3295 H   0  0  0  0  0  0  0  0  0  0  0  0
  152.7400  143.2826  158.3265 H   0  0  0  0  0  0  0  0  0  0  0  0
  153.3095  141.0247  157.2318 H   0  0  0  0  0  0  0  0  0  0  0  0
  152.8181  140.1293  158.6513 H   0  0  0  0  0  0  0  0  0  0  0  0
  152.5771  138.7511  156.6345 H   0  0  0  0  0  0  0  0  0  0  0  0
  151.0181  138.9988  157.3884 H   0  0  0  0  0  0  0  0  0  0  0  0
  150.1451  139.5378  153.9240 H   0  0  0  0  0  0  0  0  0  0  0  0
  151.4822  138.4730  154.2614 H   0  0  0  0  0  0  0  0  0  0  0  0
  150.1962  137.7788  156.4195 H   0  0  0  0  0  0  0  0  0  0  0  0
  148.7893  138.5151  155.6642 H   0  0  0  0  0  0  0  0  0  0  0  0
  149.2404  137.0185  153.6973 H   0  0  0  0  0  0  0  0  0  0  0  0
  149.1795  135.1163  153.2178 H   0  0  0  0  0  0  0  0  0  0  0  0
  151.3299  132.9285  155.4691 H   0  0  0  0  0  0  0  0  0  0  0  0
  151.7277  130.1800  155.4226 H   0  0  0  0  0  0  0  0  0  0  0  0
  151.0908  129.3899  153.9846 H   0  0  0  0  0  0  0  0  0  0  0  0
  150.1421  129.4151  155.4695 H   0  0  0  0  0  0  0  0  0  0  0  0
  148.0478  133.6059  151.7582 H   0  0  0  0  0  0  0  0  0  0  0  0
  146.9039  133.3309  153.0890 H   0  0  0  0  0  0  0  0  0  0  0  0
  147.3390  131.9977  152.0003 H   0  0  0  0  0  0  0  0  0  0  0  0
  149.9662  141.5781  155.0131 H   0  0  0  0  0  0  0  0  0  0  0  0
  149.4727  140.6838  156.4326 H   0  0  0  0  0  0  0  0  0  0  0  0
  150.2085  142.9567  157.0296 H   0  0  0  0  0  0  0  0  0  0  0  0
  151.7678  142.7057  156.2766 H   0  0  0  0  0  0  0  0  0  0  0  0
  1  2  1  0  0  0  0
  1 22  1  0  0  0  0
  1 23  1  0  0  0  0
  1 24  1  0  0  0  0
  2  3  1  0  0  0  0
  2 25  1  0  0  0  0
  2 26  1  0  0  0  0
  3 21  1  0  0  0  0
  3  4  1  0  0  0  0
  4  5  1  0  0  0  0
  4 27  1  0  0  0  0
  4 28  1  0  0  0  0
  5  6  1  0  0  0  0
  5 29  1  0  0  0  0
  5 30  1  0  0  0  0
  6  7  1  0  0  0  0
  6 20  1  0  0  0  0
  7  8  1  0  0  0  0
  7 31  1  0  0  0  0
  7 32  1  0  0  0  0
  8  9  1  0  0  0  0
  8 33  1  0  0  0  0
  8 34  1  0  0  0  0
  9 10  1  0  0  0  0
  9 35  1  0  0  0  0
 10 11  2  0  0  0  0
 10 12  1  0  0  0  0
 12 13  1  0  0  0  0
 12 36  1  0  0  0  0
 13 18  1  0  0  0  0
 13 14  2  0  0  0  0
 14 15  1  0  0  0  0
 14 37  1  0  0  0  0
 15 16  1  0  0  0  0
 15 17  2  0  0  0  0
 16 38  1  0  0  0  0
 16 39  1  0  0  0  0
 16 40  1  0  0  0  0
 17 18  1  0  0  0  0
 18 19  1  0  0  0  0
 19 41  1  0  0  0  0
 19 42  1  0  0  0  0
 19 43  1  0  0  0  0
 20 21  1  0  0  0  0
 20 44  1  0  0  0  0
 20 45  1  0  0  0  0
 21 46  1  0  0  0  0
 21 47  1  0  0  0  0
M  END
> <s_m_source_file>
AV-unprocessed.smi

> <i_m_source_file_index>
1514

> <i_lp_mmshare_version>
43012

> <i_f3d_flags>
0

> <s_epik_input>
W0NIM11bQ0gyXU4xW0NIMl1bQ0gyXU4oW0NIMl1bQ0gyXTEpW0NIMl1bQ0gyXVtOSF1DKD1PKVtOSF1jMltjSF1jKFtDSDNdKW5uMltDSDNd

> <s_epik_cmdline>
J2VwaWtfcHl0aG9uJywgJy1waCcsICc3LjAnLCAnLXRuJywgJzgnLCAnLW1hJywgJzIwMCcsICctbWV0YWxfYmluZGluZycsICctaW1hZScsICc8aW5maWxlLm1hZT4nLCAnLW9tYWUnLCAnPG91dGZpbGUubWFlPic=

> <r_lp_tautomer_probability>
1

> <r_epik_Ionization_Penalty>
2.12169

> <r_epik_Ionization_Penalty_Charging>
0

> <r_epik_Ionization_Penalty_Neutral>
2.12169

> <r_epik_State_Penalty>
1.63644

> <r_epik_Charging_Adjusted_Penalty>
1.63644

> <i_epik_Tot_Q>
0

> <i_epik_Tot_abs_Q>
0

> <r_epik_Metal_State_Penalty>
1.63644

> <b_epik_Metal_Only>
0

> <s_lp_Force_Field>
OPLS_2005

> <r_lp_Energy>
34.6539

> <b_lp_Chiralities_Consistent>
1

> <s_lp_Variant>
AV-unprocessed.smi:1514-3

> <Gold.Version>
5.8.1

> <Gold.Id.Protein>
6NUR|6NUR_protein|mol2

> <Gold.PLP.Fitness>
42.7009

> <Gold.PLP.PLP>
-37.8304

> <Gold.PLP.part.hbond>
-2.5079

> <Gold.PLP.part.metal>
0.0000

> <Gold.PLP.part.buried>
-4.9640

> <Gold.PLP.part.nonpolar>
-31.3367

> <Gold.PLP.part.repulsive>
0.1687

> <Gold.PLP.ligand.clash>
0.0000

> <Gold.PLP.ligand.torsion>
0.5310

> <Gold.PLP.Chemscore.Hbond>
1.9600

> <Gold.PLP.Chemscore.CHOScore>
0.0000

> <Gold.PLP.Chemscore.Metal>
0.0000

> <Gold.Chemscore.Hbonds>
donor molecule, donor type, donor heavy atom, donor atom, acceptor molecule, acceptor atom, score
      L1  H     9    35       P1  7948  0.94
      L1  H    12    36       P1  7948  0.80

> <Gold.PLP.Chemscore.Internal.Correction>
0.0523

> <Gold.Rescore>
     Score         DG    S(hbond)    S(metal)    S(lipo)     H(rot)  DE(clash)    DE(int)     intcor
     15.55     -15.99       1.60        0.00      80.10       1.64       0.01       0.43       ----

> <Gold.Chemscore.Fitness>
15.5464

> <Gold.Chemscore.DG>
-15.9892

> <Gold.Chemscore.ZeroCoef>
-5.4800

> <Gold.Chemscore.Hbond>
1.6001

> <Gold.Chemscore.Metal>
0.0000

> <Gold.Chemscore.Lipo>
80.0963

> <Gold.Chemscore.Internal_Hbond>
0.0000

> <Gold.Chemscore.DEClash>
0.0134

> <Gold.Chemscore.DEInternal>
0.4295

> <Gold.Chemscore.Rot>
1.6432

> <Gold.Chemscore.Internal.Correction>
   9.000000E+99

> <Gold.Chemscore.Hbonds>
donor molecule, donor type, donor heavy atom, donor atom, acceptor molecule, acceptor atom, score
      L1  H     9    35       P1  7948  0.87
      L1  H    12    36       P1  7948  0.12

> <Gold.Chemscore.Hbond.Weighted>
-5.3445

> <Gold.Chemscore.Metal.Weighted>
-0.0000

> <Gold.Chemscore.Lipo.Weighted>
-9.3713

> <Gold.Chemscore.Internal_Hbond.Weighted>
0.0000

> <Gold.Chemscore.DEClash.Weighted>
0.0134

> <Gold.Chemscore.DEInternal.Weighted>
0.4295

> <Gold.Chemscore.Rot.Weighted>
4.2065

> <Gold.Chemscore.Internal.Correction.Weighted>
   9.000000E+99

> <Gold.Protein.RotatedTorsions>
[ 6907 6896 6895 6894 ] final   81.17 input  -60.11 | X-H torsion
[ 7974 7965 7964 7962 ] final  124.27 input  175.53 | X-H torsion
[ 8008 7997 7996 7995 ] final -110.38 input   59.86 | X-H torsion
[ 10167 10162 10161 10158 ] final  149.54 input  -65.29 | X-H torsion
[ 10718 10713 10712 10709 ] final  -24.11 input   66.30 | X-H torsion
[ 10763 10752 10751 10750 ] final  127.41 input  -60.55 | X-H torsion
[ 11005 11000 10999 10996 ] final -157.50 input  -57.11 | X-H torsion

> <Gold.Protein.ActiveResidues>
 VAL166  LYS551  ARG553  GLY616  TRP617  ASP618  TYR619  PRO620  LYS621  CYS622 
 ASP623  PHE694  ASN695  SER759  ASP760  ASP761  ALA762  ILE779  LEU786  VAL792 
 PHE793  MET794  SER795  GLU796  ALA797  LYS798  CYS799  TRP800  GLU811  SER814 

> <Gold.Protein.RotatedAtoms>
  152.5259  134.3246  159.9160 H   0  0  0  0  0  0  0  0  0  0  0  0  # atno 6907 bound_to 6896
  151.3195  133.4040  159.2661 H   0  0  0  0  0  0  0  0  0  0  0  0  # atno 6908 bound_to 6896
  150.9971  134.9309  159.7990 H   0  0  0  0  0  0  0  0  0  0  0  0  # atno 6909 bound_to 6896
  145.0863  139.3619  143.4883 H   0  0  0  0  0  0  0  0  0  0  0  0  # atno 7974 bound_to 7965
  154.9736  140.0397  157.2246 H   0  0  0  0  0  0  0  0  0  0  0  0  # atno 8008 bound_to 7997
  154.7778  140.2813  155.6065 H   0  0  0  0  0  0  0  0  0  0  0  0  # atno 8009 bound_to 7997
  156.2931  140.2597  156.2596 H   0  0  0  0  0  0  0  0  0  0  0  0  # atno 8010 bound_to 7997
  139.4860  144.5594  151.7259 H   0  0  0  0  0  0  0  0  0  0  0  0  # atno 10167 bound_to 10162
  156.4820  130.4547  149.6806 H   0  0  0  0  0  0  0  0  0  0  0  0  # atno 10718 bound_to 10713
  153.7090  135.3271  155.3242 H   0  0  0  0  0  0  0  0  0  0  0  0  # atno 10763 bound_to 10752
  154.8390  135.4472  154.1333 H   0  0  0  0  0  0  0  0  0  0  0  0  # atno 10764 bound_to 10752
  153.2422  135.6972  153.7850 H   0  0  0  0  0  0  0  0  0  0  0  0  # atno 10765 bound_to 10752
  140.6639  134.4319  157.5234 H   0  0  0  0  0  0  0  0  0  0  0  0  # atno 11005 bound_to 11000
  146.3531  140.0677  142.8625 LP  0  0  0  0  0  0  0  0  0  0  0  0  # atno 17320 bound_to 7965
  145.1118  140.9410  143.4652 LP  0  0  0  0  0  0  0  0  0  0  0  0  # atno 17321 bound_to 7965
  140.5161  144.0951  150.6008 LP  0  0  0  0  0  0  0  0  0  0  0  0  # atno 17342 bound_to 10162
  140.3893  143.2761  152.0079 LP  0  0  0  0  0  0  0  0  0  0  0  0  # atno 17343 bound_to 10162
  156.3512  130.7433  151.2392 LP  0  0  0  0  0  0  0  0  0  0  0  0  # atno 17370 bound_to 10713
  157.7482  131.0376  150.4466 LP  0  0  0  0  0  0  0  0  0  0  0  0  # atno 17371 bound_to 10713
  139.9004  134.8570  156.1922 LP  0  0  0  0  0  0  0  0  0  0  0  0  # atno 17394 bound_to 11000
  141.0444  133.6921  156.1656 LP  0  0  0  0  0  0  0  0  0  0  0  0  # atno 17395 bound_to 11000

$$$$
