AV-unprocessed.smi:2001|AV-procd|sdf|8105|dock4
  -GOLD-   2272010333D 1   1.00000     0.00000
 Structure written by MMmdl.
 51 52  0  0  0  0  0  0  0  0  2 V2000
  156.2384  138.7144  153.4163 C   0  0  0  0  0  0  0  0  0  0  0  0
  155.4085  138.6440  154.5625 O   0  0  0  0  0  0  0  0  0  0  0  0
  154.0426  138.4565  154.2336 C   0  0  0  0  0  0  0  0  0  0  0  0
  153.2633  138.1327  155.5172 C   0  0  0  0  0  0  0  0  0  0  0  0
  151.8246  138.0140  155.2599 N   0  0  0  0  0  0  0  0  0  0  0  0
  151.3501  136.7132  155.2944 N   0  0  0  0  0  0  0  0  0  0  0  0
  150.0969  136.4724  155.0793 C   0  0  0  0  0  0  0  0  0  0  0  0
  149.5488  135.0874  155.0998 C   0  0  0  0  0  0  0  0  0  0  0  0
  149.9361  134.2443  155.9105 O   0  0  0  0  0  0  0  0  0  0  0  0
  148.6047  134.8270  154.1787 N   0  0  0  0  0  0  0  0  0  0  0  0
  147.9195  133.5499  154.0351 C   0  0  0  0  0  0  0  0  0  0  0  0
  148.5187  132.7470  152.8687 C   0  0  0  0  0  0  0  0  0  0  0  0
  147.4832  132.0955  152.0274 N   0  3  1  0  0  0  0  0  0  0  0  0
  147.0043  130.8227  152.6171 C   0  0  0  0  0  0  0  0  0  0  0  0
  145.9784  130.1444  151.6896 C   0  0  1  0  0  0  0  0  0  0  0  0
  145.3981  128.8675  152.3073 C   0  0  0  0  0  0  0  0  0  0  0  0
  144.9046  131.0462  151.4470 O   0  0  0  0  0  0  0  0  0  0  0  0
  145.3280  132.2393  150.7968 C   0  0  1  0  0  0  0  0  0  0  0  0
  144.0862  133.0873  150.4994 C   0  0  0  0  0  0  0  0  0  0  0  0
  146.3337  132.9761  151.7022 C   0  0  0  0  0  0  0  0  0  0  0  0
  149.1677  137.5552  154.8042 C   0  0  0  0  0  0  0  0  0  0  0  0
  149.6442  138.8192  154.7804 C   0  0  0  0  0  0  0  0  0  0  0  0
  151.0564  139.1195  155.0208 C   0  0  0  0  0  0  0  0  0  0  0  0
  151.5126  140.2623  155.0117 O   0  0  0  0  0  0  0  0  0  0  0  0
  157.2740  138.8612  153.7226 H   0  0  0  0  0  0  0  0  0  0  0  0
  155.9556  139.5496  152.7746 H   0  0  0  0  0  0  0  0  0  0  0  0
  156.1869  137.7931  152.8347 H   0  0  0  0  0  0  0  0  0  0  0  0
  153.6448  139.3617  153.7714 H   0  0  0  0  0  0  0  0  0  0  0  0
  153.9418  137.6446  153.5115 H   0  0  0  0  0  0  0  0  0  0  0  0
  153.6472  137.2151  155.9667 H   0  0  0  0  0  0  0  0  0  0  0  0
  153.4448  138.9145  156.2572 H   0  0  0  0  0  0  0  0  0  0  0  0
  148.3399  135.5698  153.5473 H   0  0  0  0  0  0  0  0  0  0  0  0
  148.0058  132.9967  154.9708 H   0  0  0  0  0  0  0  0  0  0  0  0
  146.8581  133.7334  153.8627 H   0  0  0  0  0  0  0  0  0  0  0  0
  149.0976  133.4322  152.2474 H   0  0  0  0  0  0  0  0  0  0  0  0
  149.2198  131.9962  153.2370 H   0  0  0  0  0  0  0  0  0  0  0  0
  147.8490  130.1522  152.7808 H   0  0  0  0  0  0  0  0  0  0  0  0
  146.5580  131.0203  153.5933 H   0  0  0  0  0  0  0  0  0  0  0  0
  146.4526  129.8864  150.7410 H   0  0  0  0  0  0  0  0  0  0  0  0
  146.1826  128.1386  152.5120 H   0  0  0  0  0  0  0  0  0  0  0  0
  144.6787  128.4010  151.6337 H   0  0  0  0  0  0  0  0  0  0  0  0
  144.8853  129.0801  153.2459 H   0  0  0  0  0  0  0  0  0  0  0  0
  145.8059  131.9821  149.8498 H   0  0  0  0  0  0  0  0  0  0  0  0
  144.3550  134.0141  149.9919 H   0  0  0  0  0  0  0  0  0  0  0  0
  143.5568  133.3488  151.4161 H   0  0  0  0  0  0  0  0  0  0  0  0
  143.3906  132.5473  149.8566 H   0  0  0  0  0  0  0  0  0  0  0  0
  145.8464  133.2950  152.6252 H   0  0  0  0  0  0  0  0  0  0  0  0
  146.6763  133.8766  151.1939 H   0  0  0  0  0  0  0  0  0  0  0  0
  148.1200  137.3631  154.6236 H   0  0  0  0  0  0  0  0  0  0  0  0
  148.9643  139.6338  154.5782 H   0  0  0  0  0  0  0  0  0  0  0  0
  147.9279  131.8539  151.1531 H   0  0  0  0  0  0  0  0  0  0  0  0
  1  2  1  0  0  0  0
  1 25  1  0  0  0  0
  1 26  1  0  0  0  0
  1 27  1  0  0  0  0
  2  3  1  0  0  0  0
  3  4  1  0  0  0  0
  3 28  1  0  0  0  0
  3 29  1  0  0  0  0
  4  5  1  0  0  0  0
  4 30  1  0  0  0  0
  4 31  1  0  0  0  0
  5 23  1  0  0  0  0
  5  6  1  0  0  0  0
  6  7  2  0  0  0  0
  7  8  1  0  0  0  0
  7 21  1  0  0  0  0
  8  9  2  0  0  0  0
  8 10  1  0  0  0  0
 10 11  1  0  0  0  0
 10 32  1  0  0  0  0
 11 12  1  0  0  0  0
 11 33  1  0  0  0  0
 11 34  1  0  0  0  0
 12 13  1  0  0  0  0
 12 35  1  0  0  0  0
 12 36  1  0  0  0  0
 13 20  1  0  0  0  0
 13 14  1  0  0  0  0
 13 51  1  0  0  0  0
 14 15  1  0  0  0  0
 14 37  1  0  0  0  0
 14 38  1  0  0  0  0
 15 16  1  0  0  0  0
 15 17  1  0  0  0  0
 15 39  1  0  0  0  0
 16 40  1  0  0  0  0
 16 41  1  0  0  0  0
 16 42  1  0  0  0  0
 17 18  1  0  0  0  0
 18 19  1  0  0  0  0
 18 20  1  0  0  0  0
 18 43  1  0  0  0  0
 19 44  1  0  0  0  0
 19 45  1  0  0  0  0
 19 46  1  0  0  0  0
 20 47  1  0  0  0  0
 20 48  1  0  0  0  0
 21 22  2  0  0  0  0
 21 49  1  0  0  0  0
 22 23  1  0  0  0  0
 22 50  1  0  0  0  0
 23 24  2  0  0  0  0
M  CHG  1  13   1
M  END
> <s_m_source_file>
AV-unprocessed.smi

> <i_m_source_file_index>
2001

> <i_lp_mmshare_version>
43012

> <i_f3d_flags>
0

> <s_epik_input>
W0NIM11PW0NIMl1bQ0gyXW4xbmMoW2NIXVtjSF1jMT1PKUMoPU8pW05IXVtDSDJdW0NIMl1OMltDSDJdW0NAQEhdKFtDSDNdKU9bQ0BASF0oW0NIM10pW0NIMl0y

> <s_epik_cmdline>
J2VwaWtfcHl0aG9uJywgJy1waCcsICc3LjAnLCAnLXRuJywgJzgnLCAnLW1hJywgJzIwMCcsICctbWV0YWxfYmluZGluZycsICctaW1hZScsICc8aW5maWxlLm1hZT4nLCAnLW9tYWUnLCAnPG91dGZpbGUubWFlPic=

> <r_lp_tautomer_probability>
1

> <r_epik_Ionization_Penalty>
0.724354

> <r_epik_Ionization_Penalty_Charging>
0.724348

> <r_epik_Ionization_Penalty_Neutral>
6.1656e-06

> <r_epik_State_Penalty>
0.749058

> <r_epik_Charging_Adjusted_Penalty>
1.47341

> <i_epik_Tot_Q>
1

> <i_epik_Tot_abs_Q>
1

> <r_epik_Metal_State_Penalty>
0.750779

> <b_epik_Metal_Only>
0

> <s_lp_Force_Field>
OPLS_2005

> <r_lp_Energy>
35.6345

> <b_lp_Chiralities_Consistent>
1

> <s_lp_Variant>
AV-unprocessed.smi:2001-4

> <Gold.Version>
5.8.1

> <Gold.Id.Protein>
6NUR|6NUR_protein|mol2

> <Gold.PLP.Fitness>
52.2339

> <Gold.PLP.PLP>
-41.7294

> <Gold.PLP.part.hbond>
-4.7661

> <Gold.PLP.part.metal>
0.0000

> <Gold.PLP.part.buried>
-1.8567

> <Gold.PLP.part.nonpolar>
-35.9596

> <Gold.PLP.part.repulsive>
0.3358

> <Gold.PLP.ligand.clash>
0.0000

> <Gold.PLP.ligand.torsion>
1.3663

> <Gold.PLP.Chemscore.Hbond>
4.2960

> <Gold.PLP.Chemscore.CHOScore>
0.0000

> <Gold.PLP.Chemscore.Metal>
0.0000

> <Gold.Chemscore.Hbonds>
donor molecule, donor type, donor heavy atom, donor atom, acceptor molecule, acceptor atom, score
      L1  H    10    32       P1  7948  0.70
      L1  H    13    51       P1 10747  0.99
      P1  H  7989  7998       L1    24  1.00
      P1  H  7997  8008       L1     2  0.52
      P1  H 10752 10765       L1     6  0.93

> <Gold.PLP.Chemscore.Internal.Correction>
0.3491

> <Gold.Rescore>
     Score         DG    S(hbond)    S(metal)    S(lipo)     H(rot)  DE(clash)    DE(int)     intcor
     22.67     -24.95       3.69        0.00     106.47       2.07       0.84       1.44       ----

> <Gold.Chemscore.Fitness>
22.6713

> <Gold.Chemscore.DG>
-24.9494

> <Gold.Chemscore.ZeroCoef>
-5.4800

> <Gold.Chemscore.Hbond>
3.6877

> <Gold.Chemscore.Metal>
0.0000

> <Gold.Chemscore.Lipo>
106.4715

> <Gold.Chemscore.Internal_Hbond>
0.0000

> <Gold.Chemscore.DEClash>
0.8421

> <Gold.Chemscore.DEInternal>
1.4360

> <Gold.Chemscore.Rot>
2.0721

> <Gold.Chemscore.Internal.Correction>
   9.000000E+99

> <Gold.Chemscore.Hbonds>
donor molecule, donor type, donor heavy atom, donor atom, acceptor molecule, acceptor atom, score
      L1  H    10    32       P1  7948  0.70
      L1  H    13    51       P1 10747  0.94
      P1  H  7989  7998       L1    24  0.80
      P1  H  7997  8008       L1     2  0.09
      P1  H 10752 10765       L1     6  0.40

> <Gold.Chemscore.Hbond.Weighted>
-12.3169

> <Gold.Chemscore.Metal.Weighted>
-0.0000

> <Gold.Chemscore.Lipo.Weighted>
-12.4572

> <Gold.Chemscore.Internal_Hbond.Weighted>
0.0000

> <Gold.Chemscore.DEClash.Weighted>
0.8421

> <Gold.Chemscore.DEInternal.Weighted>
1.4360

> <Gold.Chemscore.Rot.Weighted>
5.3047

> <Gold.Chemscore.Internal.Correction.Weighted>
   9.000000E+99

> <Gold.Protein.RotatedTorsions>
[ 6907 6896 6895 6894 ] final -157.62 input  -60.11 | X-H torsion
[ 7974 7965 7964 7962 ] final  -96.61 input  175.53 | X-H torsion
[ 8008 7997 7996 7995 ] final   42.17 input   59.86 | X-H torsion
[ 10167 10162 10161 10158 ] final  -41.92 input  -65.29 | X-H torsion
[ 10718 10713 10712 10709 ] final  -64.18 input   66.30 | X-H torsion
[ 10763 10752 10751 10750 ] final -175.37 input  -60.55 | X-H torsion
[ 11005 11000 10999 10996 ] final  176.06 input  -57.11 | X-H torsion

> <Gold.Protein.ActiveResidues>
 VAL166  LYS551  ARG553  GLY616  TRP617  ASP618  TYR619  PRO620  LYS621  CYS622 
 ASP623  PHE694  ASN695  SER759  ASP760  ASP761  ALA762  ILE779  LEU786  VAL792 
 PHE793  MET794  SER795  GLU796  ALA797  LYS798  CYS799  TRP800  GLU811  SER814 

> <Gold.Protein.RotatedAtoms>
  151.3057  133.4102  159.2642 H   0  0  0  0  0  0  0  0  0  0  0  0  # atno 6907 bound_to 6896
  151.0157  134.9431  159.8042 H   0  0  0  0  0  0  0  0  0  0  0  0  # atno 6908 bound_to 6896
  152.5312  134.3021  159.9134 H   0  0  0  0  0  0  0  0  0  0  0  0  # atno 6909 bound_to 6896
  145.3446  140.9466  143.2589 H   0  0  0  0  0  0  0  0  0  0  0  0  # atno 7974 bound_to 7965
  155.2817  140.3373  155.4258 H   0  0  0  0  0  0  0  0  0  0  0  0  # atno 8008 bound_to 7997
  156.2086  140.1761  156.7785 H   0  0  0  0  0  0  0  0  0  0  0  0  # atno 8009 bound_to 7997
  154.5655  140.0679  156.8870 H   0  0  0  0  0  0  0  0  0  0  0  0  # atno 8010 bound_to 7997
  140.6987  143.3067  151.3135 H   0  0  0  0  0  0  0  0  0  0  0  0  # atno 10167 bound_to 10162
  156.0745  130.4230  150.1383 H   0  0  0  0  0  0  0  0  0  0  0  0  # atno 10718 bound_to 10713
  154.5852  135.2840  155.0692 H   0  0  0  0  0  0  0  0  0  0  0  0  # atno 10763 bound_to 10752
  154.2013  135.6424  153.5091 H   0  0  0  0  0  0  0  0  0  0  0  0  # atno 10764 bound_to 10752
  153.0102  135.5469  154.6520 H   0  0  0  0  0  0  0  0  0  0  0  0  # atno 10765 bound_to 10752
  140.3690  134.7047  157.4380 H   0  0  0  0  0  0  0  0  0  0  0  0  # atno 11005 bound_to 11000
  144.8764  139.4965  143.6743 LP  0  0  0  0  0  0  0  0  0  0  0  0  # atno 17320 bound_to 7965
  146.2993  139.7377  142.9103 LP  0  0  0  0  0  0  0  0  0  0  0  0  # atno 17321 bound_to 7965
  139.6475  144.0423  152.2602 LP  0  0  0  0  0  0  0  0  0  0  0  0  # atno 17342 bound_to 10162
  139.9949  144.6335  150.7781 LP  0  0  0  0  0  0  0  0  0  0  0  0  # atno 17343 bound_to 10162
  156.9427  130.9749  151.3513 LP  0  0  0  0  0  0  0  0  0  0  0  0  # atno 17370 bound_to 10713
  157.5833  130.8392  149.8554 LP  0  0  0  0  0  0  0  0  0  0  0  0  # atno 17371 bound_to 10713
  140.0567  134.6054  155.8797 LP  0  0  0  0  0  0  0  0  0  0  0  0  # atno 17394 bound_to 11000
  141.1960  133.6590  156.5673 LP  0  0  0  0  0  0  0  0  0  0  0  0  # atno 17395 bound_to 11000

$$$$
