AV-unprocessed.smi:2532|AV-procd|sdf|9969|dock5
  -GOLD-   2272014 13D 1   1.00000     0.00000
 Structure written by MMmdl.
 36 38  0  0  0  0  0  0  0  0  1 V2000
  149.9304  142.4597  158.2805 O   0  0  0  0  0  0  0  0  0  0  0  0
  151.1470  141.8024  157.9826 C   0  0  1  0  0  0  0  0  0  0  0  0
  151.2475  141.6270  156.4588 C   0  0  0  0  0  0  0  0  0  0  0  0
  150.1224  140.8967  155.9991 O   0  0  0  0  0  0  0  0  0  0  0  0
  149.1292  141.7283  155.4209 C   0  0  0  0  0  0  0  0  0  0  0  0
  148.4520  140.9480  154.3399 C   0  0  0  0  0  0  0  0  0  0  0  0
  147.5814  141.4311  153.3960 C   0  0  0  0  0  0  0  0  0  0  0  0
  147.1232  140.4324  152.4875 C   0  0  0  0  0  0  0  0  0  0  0  0
  147.6561  139.1972  152.7433 C   0  0  0  0  0  0  0  0  0  0  0  0
  148.7367  139.2378  154.1097 S   0  0  0  0  0  0  0  0  0  0  0  0
  152.3160  142.6364  158.5419 C   0  0  0  0  0  0  0  0  0  0  0  0
  152.8879  142.0600  159.7464 N   0  0  0  0  0  0  0  0  0  0  0  0
  153.4715  140.8520  159.8660 C   0  0  0  0  0  0  0  0  0  0  0  0
  153.9365  140.5156  161.0658 N   0  0  0  0  0  0  0  0  0  0  0  0
  153.6193  141.6371  161.8130 C   0  0  0  0  0  0  0  0  0  0  0  0
  153.8446  141.9232  163.1786 C   0  0  0  0  0  0  0  0  0  0  0  0
  153.4262  143.1523  163.7295 C   0  0  0  0  0  0  0  0  0  0  0  0
  152.7759  144.1116  162.9263 C   0  0  0  0  0  0  0  0  0  0  0  0
  152.5398  143.8489  161.5631 C   0  0  0  0  0  0  0  0  0  0  0  0
  152.9610  142.6224  161.0165 C   0  0  0  0  0  0  0  0  0  0  0  0
  149.2542  142.1046  157.7240 H   0  0  0  0  0  0  0  0  0  0  0  0
  151.1478  140.8235  158.4644 H   0  0  0  0  0  0  0  0  0  0  0  0
  151.3324  142.5917  155.9552 H   0  0  0  0  0  0  0  0  0  0  0  0
  152.1442  141.0557  156.2133 H   0  0  0  0  0  0  0  0  0  0  0  0
  148.4052  142.0361  156.1771 H   0  0  0  0  0  0  0  0  0  0  0  0
  149.5803  142.6285  155.0014 H   0  0  0  0  0  0  0  0  0  0  0  0
  147.2589  142.4596  153.3277 H   0  0  0  0  0  0  0  0  0  0  0  0
  146.4303  140.6524  151.6886 H   0  0  0  0  0  0  0  0  0  0  0  0
  147.4836  138.2714  152.2147 H   0  0  0  0  0  0  0  0  0  0  0  0
  153.1092  142.7181  157.7976 H   0  0  0  0  0  0  0  0  0  0  0  0
  151.9896  143.6543  158.7597 H   0  0  0  0  0  0  0  0  0  0  0  0
  153.5583  140.1809  159.0238 H   0  0  0  0  0  0  0  0  0  0  0  0
  154.3404  141.1952  163.8035 H   0  0  0  0  0  0  0  0  0  0  0  0
  153.6048  143.3600  164.7744 H   0  0  0  0  0  0  0  0  0  0  0  0
  152.4581  145.0496  163.3575 H   0  0  0  0  0  0  0  0  0  0  0  0
  152.0399  144.5807  160.9457 H   0  0  0  0  0  0  0  0  0  0  0  0
  1  2  1  0  0  0  0
  1 21  1  0  0  0  0
  2  3  1  0  0  0  0
  2 11  1  0  0  0  0
  2 22  1  0  0  0  0
  3  4  1  0  0  0  0
  3 23  1  0  0  0  0
  3 24  1  0  0  0  0
  4  5  1  0  0  0  0
  5  6  1  0  0  0  0
  5 25  1  0  0  0  0
  5 26  1  0  0  0  0
  6 10  1  0  0  0  0
  6  7  2  0  0  0  0
  7  8  1  0  0  0  0
  7 27  1  0  0  0  0
  8  9  2  0  0  0  0
  8 28  1  0  0  0  0
  9 10  1  0  0  0  0
  9 29  1  0  0  0  0
 11 12  1  0  0  0  0
 11 30  1  0  0  0  0
 11 31  1  0  0  0  0
 12 20  1  0  0  0  0
 12 13  1  0  0  0  0
 13 14  2  0  0  0  0
 13 32  1  0  0  0  0
 14 15  1  0  0  0  0
 15 20  2  0  0  0  0
 15 16  1  0  0  0  0
 16 17  2  0  0  0  0
 16 33  1  0  0  0  0
 17 18  1  0  0  0  0
 17 34  1  0  0  0  0
 18 19  2  0  0  0  0
 18 35  1  0  0  0  0
 19 20  1  0  0  0  0
 19 36  1  0  0  0  0
M  END
> <s_m_source_file>
AV-unprocessed.smi

> <i_m_source_file_index>
2532

> <i_lp_mmshare_version>
43012

> <i_f3d_flags>
0

> <s_epik_input>
W2NIXTFbY0hdW2NIXVtjSF1jKGMxMiluKFtjSF1uMilbQ0gyXVtDQEhdKFtPSF0pW0NIMl1PW0NIMl1jM1tjSF1bY0hdW2NIXXMz

> <s_epik_cmdline>
J2VwaWtfcHl0aG9uJywgJy1waCcsICc3LjAnLCAnLXRuJywgJzgnLCAnLW1hJywgJzIwMCcsICctbWV0YWxfYmluZGluZycsICctaW1hZScsICc8aW5maWxlLm1hZT4nLCAnLW9tYWUnLCAnPG91dGZpbGUubWFlPic=

> <r_epik_Ionization_Penalty>
0.0678455

> <r_epik_Ionization_Penalty_Charging>
0

> <r_epik_Ionization_Penalty_Neutral>
0.0678455

> <r_epik_State_Penalty>
0.0593261

> <r_epik_Charging_Adjusted_Penalty>
0.0593261

> <i_epik_Tot_Q>
0

> <i_epik_Tot_abs_Q>
0

> <r_epik_Metal_State_Penalty>
6.23947e-05

> <b_epik_Metal_Only>
0

> <s_lp_Force_Field>
OPLS_2005

> <r_lp_Energy>
10.0551

> <b_lp_Chiralities_Consistent>
1

> <s_lp_Variant>
AV-unprocessed.smi:2532-2

> <Gold.Version>
5.8.1

> <Gold.Id.Protein>
6NUR|6NUR_protein|mol2

> <Gold.PLP.Fitness>
45.0532

> <Gold.PLP.PLP>
-44.4345

> <Gold.PLP.part.hbond>
0.0000

> <Gold.PLP.part.metal>
0.0000

> <Gold.PLP.part.buried>
-0.1873

> <Gold.PLP.part.nonpolar>
-43.8226

> <Gold.PLP.part.repulsive>
0.0467

> <Gold.PLP.ligand.clash>
0.0000

> <Gold.PLP.ligand.torsion>
1.2288

> <Gold.PLP.Chemscore.Hbond>
0.0000

> <Gold.PLP.Chemscore.CHOScore>
1.0000

> <Gold.PLP.Chemscore.Metal>
0.0000

> <Gold.Chemscore.Hbonds>
donor molecule, donor type, donor heavy atom, donor atom, acceptor molecule, acceptor atom, score
      L1  C     9    29       P1  7948  1.00

> <Gold.PLP.Chemscore.Internal.Correction>
0.0763

> <Gold.Rescore>
     Score         DG    S(hbond)    S(metal)    S(lipo)     H(rot)  DE(clash)    DE(int)     intcor
     12.81     -15.03       0.00        0.00     133.29       2.36       0.87       1.34       ----

> <Gold.Chemscore.Fitness>
12.8148

> <Gold.Chemscore.DG>
-15.0279

> <Gold.Chemscore.ZeroCoef>
-5.4800

> <Gold.Chemscore.Hbond>
0.0000

> <Gold.Chemscore.Metal>
0.0000

> <Gold.Chemscore.Lipo>
133.2876

> <Gold.Chemscore.Internal_Hbond>
0.0000

> <Gold.Chemscore.DEClash>
0.8696

> <Gold.Chemscore.DEInternal>
1.3434

> <Gold.Chemscore.Rot>
2.3620

> <Gold.Chemscore.Internal.Correction>
   9.000000E+99

> <Gold.Chemscore.Hbond.Weighted>
-0.0000

> <Gold.Chemscore.Metal.Weighted>
-0.0000

> <Gold.Chemscore.Lipo.Weighted>
-15.5947

> <Gold.Chemscore.Internal_Hbond.Weighted>
0.0000

> <Gold.Chemscore.DEClash.Weighted>
0.8696

> <Gold.Chemscore.DEInternal.Weighted>
1.3434

> <Gold.Chemscore.Rot.Weighted>
6.0468

> <Gold.Chemscore.Internal.Correction.Weighted>
   9.000000E+99

> <Gold.Protein.RotatedTorsions>
[ 6907 6896 6895 6894 ] final -162.42 input  -60.11 | X-H torsion
[ 7974 7965 7964 7962 ] final -156.39 input  175.53 | X-H torsion
[ 8008 7997 7996 7995 ] final -174.44 input   59.86 | X-H torsion
[ 10167 10162 10161 10158 ] final  106.02 input  -65.29 | X-H torsion
[ 10718 10713 10712 10709 ] final   31.53 input   66.30 | X-H torsion
[ 10763 10752 10751 10750 ] final  -90.63 input  -60.55 | X-H torsion
[ 11005 11000 10999 10996 ] final -125.40 input  -57.11 | X-H torsion

> <Gold.Protein.ActiveResidues>
 VAL166  LYS551  ARG553  GLY616  TRP617  ASP618  TYR619  PRO620  LYS621  CYS622 
 ASP623  PHE694  ASN695  SER759  ASP760  ASP761  ALA762  ILE779  LEU786  VAL792 
 PHE793  MET794  SER795  GLU796  ALA797  LYS798  CYS799  TRP800  GLU811  SER814 

> <Gold.Protein.RotatedAtoms>
  151.3800  133.3824  159.2708 H   0  0  0  0  0  0  0  0  0  0  0  0  # atno 6907 bound_to 6896
  150.9584  134.8977  159.7726 H   0  0  0  0  0  0  0  0  0  0  0  0  # atno 6908 bound_to 6896
  152.5140  134.3759  159.9386 H   0  0  0  0  0  0  0  0  0  0  0  0  # atno 6909 bound_to 6896
  144.7595  140.4116  143.5987 H   0  0  0  0  0  0  0  0  0  0  0  0  # atno 7974 bound_to 7965
  155.9701  140.1161  157.0820 H   0  0  0  0  0  0  0  0  0  0  0  0  # atno 8008 bound_to 7997
  154.4154  140.1165  156.5362 H   0  0  0  0  0  0  0  0  0  0  0  0  # atno 8009 bound_to 7997
  155.6608  140.3473  155.4784 H   0  0  0  0  0  0  0  0  0  0  0  0  # atno 8010 bound_to 7997
  139.7044  144.7089  151.1132 H   0  0  0  0  0  0  0  0  0  0  0  0  # atno 10167 bound_to 10162
  157.2736  130.7220  149.6518 H   0  0  0  0  0  0  0  0  0  0  0  0  # atno 10718 bound_to 10713
  154.6678  135.5297  153.8099 H   0  0  0  0  0  0  0  0  0  0  0  0  # atno 10763 bound_to 10752
  153.0482  135.6521  154.0773 H   0  0  0  0  0  0  0  0  0  0  0  0  # atno 10764 bound_to 10752
  154.0675  135.2957  155.3294 H   0  0  0  0  0  0  0  0  0  0  0  0  # atno 10765 bound_to 10752
  140.9765  134.0733  157.3813 H   0  0  0  0  0  0  0  0  0  0  0  0  # atno 11005 bound_to 11000
  145.6665  139.1591  143.2778 LP  0  0  0  0  0  0  0  0  0  0  0  0  # atno 17320 bound_to 7965
  146.1643  140.6741  142.9263 LP  0  0  0  0  0  0  0  0  0  0  0  0  # atno 17321 bound_to 7965
  140.7718  143.5380  150.9346 LP  0  0  0  0  0  0  0  0  0  0  0  0  # atno 17342 bound_to 10162
  139.9062  143.6775  152.3123 LP  0  0  0  0  0  0  0  0  0  0  0  0  # atno 17343 bound_to 10162
  155.9663  130.4360  150.5114 LP  0  0  0  0  0  0  0  0  0  0  0  0  # atno 17370 bound_to 10713
  157.3043  131.0651  151.2046 LP  0  0  0  0  0  0  0  0  0  0  0  0  # atno 17371 bound_to 10713
  139.8932  135.0129  156.6889 LP  0  0  0  0  0  0  0  0  0  0  0  0  # atno 17394 bound_to 11000
  140.7251  133.9107  155.8173 LP  0  0  0  0  0  0  0  0  0  0  0  0  # atno 17395 bound_to 11000

$$$$
