AV-unprocessed.smi:408|AV-procd|sdf|2503|dock9
  -GOLD-   2262022453D 1   1.00000     0.00000
 Structure written by MMmdl.
 41 42  0  0  0  0  0  0  0  0  1 V2000
  149.4874  131.8098  155.5518 C   0  0  0  0  0  0  0  0  0  0  0  0
  148.5084  132.3970  154.5214 C   0  0  0  0  0  0  0  0  0  0  0  0
  148.2152  131.3703  153.4167 C   0  0  0  0  0  0  0  0  0  0  0  0
  149.0138  133.7211  153.9130 C   0  0  0  0  0  0  0  0  0  0  0  0
  149.5349  134.7332  154.9508 C   0  0  0  0  0  0  0  0  0  0  0  0
  149.8922  136.0019  154.3265 N   0  0  0  0  0  0  0  0  0  0  0  0
  150.7384  136.9060  154.8445 C   0  0  0  0  0  0  0  0  0  0  0  0
  151.3158  136.7468  155.9211 O   0  0  0  0  0  0  0  0  0  0  0  0
  150.9463  138.1862  154.0266 C   0  0  0  0  0  0  0  0  0  0  0  0
  150.1994  139.3449  154.6241 C   0  0  0  0  0  0  0  0  0  0  0  0
  148.8364  139.5001  154.7001 C   0  0  0  0  0  0  0  0  0  0  0  0
  148.3910  140.9973  155.4746 S   0  0  0  0  0  0  0  0  0  0  0  0
  150.0984  141.3715  155.6520 C   0  0  0  0  0  0  0  0  0  0  0  0
  150.5409  142.5727  156.2702 N   0  0  0  0  0  0  0  0  0  0  0  0
  151.2036  142.7703  157.4288 C   0  0  0  0  0  0  0  0  0  0  0  0
  151.5312  141.8088  158.1225 O   0  0  0  0  0  0  0  0  0  0  0  0
  151.5453  144.1680  157.8380 C   0  0  0  0  0  0  0  0  0  0  0  0
  152.3008  144.3486  159.1412 C   0  0  0  0  0  0  0  0  0  0  0  0
  150.8469  144.7314  159.0595 C   0  0  0  0  0  0  0  0  0  0  0  0
  150.9051  140.4097  155.1929 N   0  0  0  0  0  0  0  0  0  0  0  0
  150.4692  131.6349  155.1110 H   0  0  0  0  0  0  0  0  0  0  0  0
  149.1238  130.8572  155.9382 H   0  0  0  0  0  0  0  0  0  0  0  0
  149.6173  132.4724  156.4069 H   0  0  0  0  0  0  0  0  0  0  0  0
  147.5657  132.5982  155.0325 H   0  0  0  0  0  0  0  0  0  0  0  0
  149.1165  131.1255  152.8536 H   0  0  0  0  0  0  0  0  0  0  0  0
  147.4752  131.7502  152.7117 H   0  0  0  0  0  0  0  0  0  0  0  0
  147.8218  130.4430  153.8344 H   0  0  0  0  0  0  0  0  0  0  0  0
  149.7930  133.5144  153.1778 H   0  0  0  0  0  0  0  0  0  0  0  0
  148.1948  134.1828  153.3595 H   0  0  0  0  0  0  0  0  0  0  0  0
  148.7932  134.8972  155.7344 H   0  0  0  0  0  0  0  0  0  0  0  0
  150.4278  134.3490  155.4428 H   0  0  0  0  0  0  0  0  0  0  0  0
  149.4571  136.2115  153.4395 H   0  0  0  0  0  0  0  0  0  0  0  0
  152.0110  138.4165  153.9654 H   0  0  0  0  0  0  0  0  0  0  0  0
  150.6130  137.9998  153.0051 H   0  0  0  0  0  0  0  0  0  0  0  0
  148.0699  138.8266  154.3470 H   0  0  0  0  0  0  0  0  0  0  0  0
  150.3626  143.4108  155.7361 H   0  0  0  0  0  0  0  0  0  0  0  0
  151.8302  144.8478  157.0372 H   0  0  0  0  0  0  0  0  0  0  0  0
  152.5490  143.4681  159.7313 H   0  0  0  0  0  0  0  0  0  0  0  0
  153.0367  145.1492  159.1784 H   0  0  0  0  0  0  0  0  0  0  0  0
  150.5914  145.7887  159.0343 H   0  0  0  0  0  0  0  0  0  0  0  0
  150.1308  144.0967  159.5789 H   0  0  0  0  0  0  0  0  0  0  0  0
  1  2  1  0  0  0  0
  1 21  1  0  0  0  0
  1 22  1  0  0  0  0
  1 23  1  0  0  0  0
  2  3  1  0  0  0  0
  2  4  1  0  0  0  0
  2 24  1  0  0  0  0
  3 25  1  0  0  0  0
  3 26  1  0  0  0  0
  3 27  1  0  0  0  0
  4  5  1  0  0  0  0
  4 28  1  0  0  0  0
  4 29  1  0  0  0  0
  5  6  1  0  0  0  0
  5 30  1  0  0  0  0
  5 31  1  0  0  0  0
  6  7  1  0  0  0  0
  6 32  1  0  0  0  0
  7  8  2  0  0  0  0
  7  9  1  0  0  0  0
  9 10  1  0  0  0  0
  9 33  1  0  0  0  0
  9 34  1  0  0  0  0
 10 20  1  0  0  0  0
 10 11  2  0  0  0  0
 11 12  1  0  0  0  0
 11 35  1  0  0  0  0
 12 13  1  0  0  0  0
 13 14  1  0  0  0  0
 13 20  2  0  0  0  0
 14 15  1  0  0  0  0
 14 36  1  0  0  0  0
 15 16  2  0  0  0  0
 15 17  1  0  0  0  0
 17 19  1  0  0  0  0
 17 18  1  0  0  0  0
 17 37  1  0  0  0  0
 18 19  1  0  0  0  0
 18 38  1  0  0  0  0
 18 39  1  0  0  0  0
 19 40  1  0  0  0  0
 19 41  1  0  0  0  0
M  END
> <s_m_source_file>
AV-unprocessed.smi

> <i_m_source_file_index>
408

> <i_lp_mmshare_version>
43012

> <i_f3d_flags>
0

> <s_epik_input>
W0NIM11bQ0hdKFtDSDNdKVtDSDJdW0NIMl1bTkhdQyg9TylbQ0gyXWMxW2NIXXNjKG4xKVtOSF1DKD1PKVtDSF0yW0NIMl1bQ0gyXTI=

> <s_epik_cmdline>
J2VwaWtfcHl0aG9uJywgJy1waCcsICc3LjAnLCAnLXRuJywgJzgnLCAnLW1hJywgJzIwMCcsICctbWV0YWxfYmluZGluZycsICctaW1hZScsICc8aW5maWxlLm1hZT4nLCAnLW9tYWUnLCAnPG91dGZpbGUubWFlPic=

> <r_lp_tautomer_probability>
1

> <r_epik_Ionization_Penalty>
0.000153743

> <r_epik_Ionization_Penalty_Charging>
0

> <r_epik_Ionization_Penalty_Neutral>
0.000153743

> <r_epik_State_Penalty>
-0

> <r_epik_Charging_Adjusted_Penalty>
0

> <i_epik_Tot_Q>
0

> <i_epik_Tot_abs_Q>
0

> <r_epik_Metal_State_Penalty>
0.0946566

> <b_epik_Metal_Only>
0

> <s_lp_Force_Field>
OPLS_2005

> <r_lp_Energy>
15.0159

> <b_lp_Chiralities_Consistent>
1

> <s_lp_Variant>
AV-unprocessed.smi:408-1

> <Gold.Version>
5.8.1

> <Gold.Id.Protein>
6NUR|6NUR_protein|mol2

> <Gold.PLP.Fitness>
52.3362

> <Gold.PLP.PLP>
-43.1707

> <Gold.PLP.part.hbond>
-4.9457

> <Gold.PLP.part.metal>
0.0000

> <Gold.PLP.part.buried>
-5.7965

> <Gold.PLP.part.nonpolar>
-34.4695

> <Gold.PLP.part.repulsive>
0.2604

> <Gold.PLP.ligand.clash>
0.0000

> <Gold.PLP.ligand.torsion>
1.1708

> <Gold.PLP.Chemscore.Hbond>
3.8000

> <Gold.PLP.Chemscore.CHOScore>
0.0000

> <Gold.PLP.Chemscore.Metal>
0.0000

> <Gold.Chemscore.Hbonds>
donor molecule, donor type, donor heavy atom, donor atom, acceptor molecule, acceptor atom, score
      L1  H     6    32       P1  7948  1.00
      L1  H    14    36       P1  8028  0.70
      P1  H  7989  7998       L1    20  0.55
      P1  H 10752 10764       L1     8  0.10

> <Gold.PLP.Chemscore.Internal.Correction>
0.1070

> <Gold.Rescore>
     Score         DG    S(hbond)    S(metal)    S(lipo)     H(rot)  DE(clash)    DE(int)     intcor
     19.60     -20.94       3.12        0.00      86.68       1.99       0.06       1.29       ----

> <Gold.Chemscore.Fitness>
19.5950

> <Gold.Chemscore.DG>
-20.9393

> <Gold.Chemscore.ZeroCoef>
-5.4800

> <Gold.Chemscore.Hbond>
3.1172

> <Gold.Chemscore.Metal>
0.0000

> <Gold.Chemscore.Lipo>
86.6839

> <Gold.Chemscore.Internal_Hbond>
0.0000

> <Gold.Chemscore.DEClash>
0.0570

> <Gold.Chemscore.DEInternal>
1.2873

> <Gold.Chemscore.Rot>
1.9899

> <Gold.Chemscore.Internal.Correction>
   9.000000E+99

> <Gold.Chemscore.Hbonds>
donor molecule, donor type, donor heavy atom, donor atom, acceptor molecule, acceptor atom, score
      L1  H     6    32       P1  7948  0.60
      L1  H    14    36       P1  8028  0.71
      P1  H  7989  7998       L1    20  0.02
      P1  H 10752 10764       L1     8  0.02

> <Gold.Chemscore.Hbond.Weighted>
-10.4114

> <Gold.Chemscore.Metal.Weighted>
-0.0000

> <Gold.Chemscore.Lipo.Weighted>
-10.1420

> <Gold.Chemscore.Internal_Hbond.Weighted>
0.0000

> <Gold.Chemscore.DEClash.Weighted>
0.0570

> <Gold.Chemscore.DEInternal.Weighted>
1.2873

> <Gold.Chemscore.Rot.Weighted>
5.0941

> <Gold.Chemscore.Internal.Correction.Weighted>
   9.000000E+99

> <Gold.Protein.RotatedTorsions>
[ 6907 6896 6895 6894 ] final  -76.19 input  -60.11 | X-H torsion
[ 7974 7965 7964 7962 ] final  157.20 input  175.53 | X-H torsion
[ 8008 7997 7996 7995 ] final  110.92 input   59.86 | X-H torsion
[ 10167 10162 10161 10158 ] final  120.87 input  -65.29 | X-H torsion
[ 10718 10713 10712 10709 ] final   25.46 input   66.30 | X-H torsion
[ 10763 10752 10751 10750 ] final  -30.46 input  -60.55 | X-H torsion
[ 11005 11000 10999 10996 ] final  -53.73 input  -57.11 | X-H torsion

> <Gold.Protein.ActiveResidues>
 VAL166  LYS551  ARG553  GLY616  TRP617  ASP618  TYR619  PRO620  LYS621  CYS622 
 ASP623  PHE694  ASN695  SER759  ASP760  ASP761  ALA762  ILE779  LEU786  VAL792 
 PHE793  MET794  SER795  GLU796  ALA797  LYS798  CYS799  TRP800  GLU811  SER814 

> <Gold.Protein.RotatedAtoms>
  150.7035  134.4608  159.5379 H   0  0  0  0  0  0  0  0  0  0  0  0  # atno 6907 bound_to 6896
  152.2283  134.8344  160.0486 H   0  0  0  0  0  0  0  0  0  0  0  0  # atno 6908 bound_to 6896
  151.9169  133.3540  159.3920 H   0  0  0  0  0  0  0  0  0  0  0  0  # atno 6909 bound_to 6896
  144.7917  139.7308  143.6218 H   0  0  0  0  0  0  0  0  0  0  0  0  # atno 7974 bound_to 7965
  156.2087  140.3029  155.9684 H   0  0  0  0  0  0  0  0  0  0  0  0  # atno 8008 bound_to 7997
  155.2777  140.0436  157.3030 H   0  0  0  0  0  0  0  0  0  0  0  0  # atno 8009 bound_to 7997
  154.5669  140.2337  155.8258 H   0  0  0  0  0  0  0  0  0  0  0  0  # atno 8010 bound_to 7997
  139.5954  144.7040  151.3188 H   0  0  0  0  0  0  0  0  0  0  0  0  # atno 10167 bound_to 10162
  157.1937  130.6858  149.6160 H   0  0  0  0  0  0  0  0  0  0  0  0  # atno 10718 bound_to 10713
  153.7814  135.6905  153.4888 H   0  0  0  0  0  0  0  0  0  0  0  0  # atno 10763 bound_to 10752
  153.1809  135.4507  155.0025 H   0  0  0  0  0  0  0  0  0  0  0  0  # atno 10764 bound_to 10752
  154.8080  135.3365  154.7316 H   0  0  0  0  0  0  0  0  0  0  0  0  # atno 10765 bound_to 10752
  141.0990  133.6620  156.4215 H   0  0  0  0  0  0  0  0  0  0  0  0  # atno 11005 bound_to 11000
  146.2172  139.5570  142.9642 LP  0  0  0  0  0  0  0  0  0  0  0  0  # atno 17320 bound_to 7965
  145.5776  141.0386  143.2140 LP  0  0  0  0  0  0  0  0  0  0  0  0  # atno 17321 bound_to 7965
  140.7208  143.7141  150.7746 LP  0  0  0  0  0  0  0  0  0  0  0  0  # atno 17342 bound_to 10162
  140.0706  143.5064  152.2581 LP  0  0  0  0  0  0  0  0  0  0  0  0  # atno 17343 bound_to 10162
  155.9708  130.4606  150.6078 LP  0  0  0  0  0  0  0  0  0  0  0  0  # atno 17370 bound_to 10713
  157.3835  131.0784  151.1456 LP  0  0  0  0  0  0  0  0  0  0  0  0  # atno 17371 bound_to 10713
  140.5068  134.6433  157.5269 LP  0  0  0  0  0  0  0  0  0  0  0  0  # atno 17394 bound_to 11000
  139.9836  134.7097  155.9814 LP  0  0  0  0  0  0  0  0  0  0  0  0  # atno 17395 bound_to 11000

$$$$
