#       Name:                AV-unprocessed.smi:2567
#       Creating user name   scv26
#       Creation time:       Fri Mar 27 14:11:13 2020


#       File generated by GOLD software.
#

@<TRIPOS>MOLECULE
AV-unprocessed.smi:2567
    38    39     1
SMALL
NO_CHARGES


@<TRIPOS>ATOM
      1 ****        -2.9276   1.8185  -0.8260 C.3            1 S1                 0.0000
      2 ****        -2.6443   0.3681  -1.2522 C.3            1 S1                 0.0000
      3 ****        -3.3176  -0.6122  -0.2705 C.3            1 S1                 0.0000
      4 ****        -3.2417   0.1030  -2.6487 C.3            1 S1                 0.0000
      5 ****        -1.1381   0.1286  -1.2763 C.2            1 S1                 0.0000
      6 ****        -0.3104   0.4043  -2.3031 N.pl3          1 S1                -1.0000
      7 ****         0.9404   0.1937  -1.9490 N.2            1 S1                 0.0000
      8 ****         0.8857  -0.1910  -0.6656 C.2            1 S1                 0.0000
      9 ****         2.0978  -0.4975   0.1914 C.3            1 S1                 0.0000
     10 ****         2.6060   0.7724   0.9042 C.3            1 S1                 0.0000
     11 ****         3.7678   0.4676   1.7396 N.3            1 S1                 0.0000
     12 ****         3.4744  -0.6107   2.6809 C.3            1 S1                 0.0000
     13 ****         2.9540  -1.8471   1.9287 C.3            1 S1                 0.0000
     14 ****         1.8029  -1.4909   1.1717 O.3            1 S1                 0.0000
     15 ****        -0.3826  -0.2019  -0.2309 N.2            1 S1                 0.0000
     16 ****        -3.9981   2.0225  -0.7939 H              1 S1                 0.0000
     17 ****        -2.4758   2.5283  -1.5197 H              1 S1                 0.0000
     18 ****        -2.5220   2.0245   0.1651 H              1 S1                 0.0000
     19 ****        -2.9586  -0.4669   0.7488 H              1 S1                 0.0000
     20 ****        -3.1167  -1.6486  -0.5445 H              1 S1                 0.0000
     21 ****        -4.3996  -0.4788  -0.2544 H              1 S1                 0.0000
     22 ****        -4.3230   0.2430  -2.6516 H              1 S1                 0.0000
     23 ****        -3.0398  -0.9164  -2.9793 H              1 S1                 0.0000
     24 ****        -2.8261   0.7792  -3.3965 H              1 S1                 0.0000
     25 ****         2.8744  -0.8808  -0.4736 H              1 S1                 0.0000
     26 ****         2.8668   1.5350   0.1699 H              1 S1                 0.0000
     27 ****         1.8076   1.1910   1.5187 H              1 S1                 0.0000
     28 ****         4.3691  -0.8658   3.2491 H              1 S1                 0.0000
     29 ****         2.7266  -0.2806   3.4030 H              1 S1                 0.0000
     30 ****         3.7238  -2.2628   1.2764 H              1 S1                 0.0000
     31 ****         2.6813  -2.6288   2.6376 H              1 S1                 0.0000
     32 ****         4.0436   1.2996   2.2506 H              1 S1                 0.0000
     33 ****        -0.6037   0.7231  -3.2044 LP             1 S1                 0.0000
     34 ****         1.7571   0.2984  -2.5164 LP             1 S1                 0.0000
     35 ****         4.5136   0.1682   1.1446 LP             1 S1                 0.0000
     36 ****         1.4540  -2.3067   0.7105 LP             1 S1                 0.0000
     37 ****         1.1048  -1.1349   1.7929 LP             1 S1                 0.0000
     38 ****        -0.6981  -0.4155   0.6937 LP             1 S1                 0.0000
@<TRIPOS>BOND
    1    1    2 1     
    2    1   16 1     
    3    1   17 1     
    4    1   18 1     
    5    2    3 1     
    6    2    4 1     
    7    2    5 1     
    8    3   19 1     
    9    3   20 1     
   10    3   21 1     
   11    4   22 1     
   12    4   23 1     
   13    4   24 1     
   14    5   15 2     
   15    5    6 1     
   16    6    7 1     
   17    7    8 2     
   18    8    9 1     
   19    8   15 1     
   20    9   14 1     
   21    9   10 1     
   22    9   25 1     
   23   10   11 1     
   24   10   26 1     
   25   10   27 1     
   26   11   12 1     
   27   11   32 1     
   28   12   13 1     
   29   12   28 1     
   30   12   29 1     
   31   13   14 1     
   32   13   30 1     
   33   13   31 1     
   34    6   33 1     
   35    7   34 1     
   36   11   35 1     
   37   14   36 1     
   38   14   37 1     
   39   15   38 1     
@<TRIPOS>SUBSTRUCTURE
      1 S1             1
@<TRIPOS>SET
LONE_PAIRS      STATIC     ATOMS    <user>   **** ""
6 33 34 35 36 37 38
DONOR_HYDROGENS      STATIC     ATOMS    <user>   **** ""
1 32
ATOM$BLUE        STATIC     ATOMS    COLORGROUP SYSTEM
6 33 34 35 36 37 38
ATOM$RED        STATIC     ATOMS    COLORGROUP SYSTEM
1 32
