#       Name:                AV-unprocessed.smi:642
#       Creating user name   scv26
#       Creation time:       Fri Mar 27 00:07:39 2020


#       File generated by GOLD software.
#

@<TRIPOS>MOLECULE
AV-unprocessed.smi:642
    55    57     1
SMALL
NO_CHARGES


@<TRIPOS>ATOM
      1 ****         0.9474   2.6006  -0.0665 O.2            1 S1                 0.0000
      2 ****         0.6033   1.4918  -0.4763 C.2            1 S1                 0.0000
      3 ****         1.4352   0.4631  -0.7054 N.am           1 S1                 0.0000
      4 ****         2.8419   0.4235  -0.4970 C.ar           1 S1                 0.0000
      5 ****         3.6681   1.5443  -0.7510 C.ar           1 S1                 0.0000
      6 ****         5.0581   1.4253  -0.5742 C.ar           1 S1                 0.0000
      7 ****         5.5743   0.1845  -0.1608 C.ar           1 S1                 0.0000
      8 ****         4.8015  -0.8955   0.0735 N.ar           1 S1                 0.0000
      9 ****         3.4598  -0.7892  -0.0896 C.ar           1 S1                 0.0000
     10 ****         2.6784  -1.9274   0.1937 N.3            1 S1                 0.0000
     11 ****         1.9995  -1.8597   1.4832 C.3            1 S1                 0.0000
     12 ****         0.9781  -3.0039   1.6011 C.3            1 S1                 0.0000
     13 ****         1.6303  -4.2533   1.3910 O.3            1 S1                 0.0000
     14 ****         2.2250  -4.3378   0.0990 C.3            1 S1                 0.0000
     15 ****         3.2836  -3.2322  -0.0554 C.3            1 S1                 0.0000
     16 ****        -0.6691   1.1492  -0.7243 N.am           1 S1                 0.0000
     17 ****        -1.8371   2.0045  -0.5234 C.3            1 S1                 0.0000
     18 ****        -2.3707   1.8543   0.9194 C.3            1 S1                 0.0000
     19 ****        -3.3563   0.6952   1.1464 C.3            1 S1                 0.0000
     20 ****        -4.8153   1.0922   0.8579 C.3            1 S1                 0.0000
     21 ****        -5.1610   1.2592  -0.6304 C.3            1 S1                 0.0000
     22 ****        -4.2757   2.2593  -1.3953 C.3            1 S1                 0.0000
     23 ****        -2.8572   1.7217  -1.6457 C.3            1 S1                 0.0000
     24 ****         1.0041  -0.4201  -0.9369 H              1 S1                 0.0000
     25 ****         3.2586   2.4824  -1.0943 H              1 S1                 0.0000
     26 ****         5.7136   2.2632  -0.7597 H              1 S1                 0.0000
     27 ****         6.6367   0.0539  -0.0181 H              1 S1                 0.0000
     28 ****         2.7408  -1.9377   2.2797 H              1 S1                 0.0000
     29 ****         1.4970  -0.9008   1.6107 H              1 S1                 0.0000
     30 ****         0.5248  -3.0020   2.5925 H              1 S1                 0.0000
     31 ****         0.1689  -2.8771   0.8799 H              1 S1                 0.0000
     32 ****         2.6865  -5.3186  -0.0167 H              1 S1                 0.0000
     33 ****         1.4577  -4.2526  -0.6722 H              1 S1                 0.0000
     34 ****         3.7102  -3.2588  -1.0590 H              1 S1                 0.0000
     35 ****         4.0980  -3.4024   0.6503 H              1 S1                 0.0000
     36 ****        -0.8490   0.2136  -1.0579 H              1 S1                 0.0000
     37 ****        -1.5246   3.0444  -0.6359 H              1 S1                 0.0000
     38 ****        -1.5268   1.7401   1.6013 H              1 S1                 0.0000
     39 ****        -2.8437   2.7882   1.2252 H              1 S1                 0.0000
     40 ****        -3.0654  -0.1879   0.5763 H              1 S1                 0.0000
     41 ****        -3.2961   0.4038   2.1956 H              1 S1                 0.0000
     42 ****        -5.4720   0.3276   1.2743 H              1 S1                 0.0000
     43 ****        -5.0586   2.0099   1.3946 H              1 S1                 0.0000
     44 ****        -5.1274   0.2873  -1.1244 H              1 S1                 0.0000
     45 ****        -6.1982   1.5879  -0.7022 H              1 S1                 0.0000
     46 ****        -4.7432   2.4397  -2.3639 H              1 S1                 0.0000
     47 ****        -4.2477   3.2273  -0.8939 H              1 S1                 0.0000
     48 ****        -2.4731   2.1664  -2.5647 H              1 S1                 0.0000
     49 ****        -2.9120   0.6511  -1.8488 H              1 S1                 0.0000
     50 ****         1.9117   2.7871   0.1214 LP             1 S1                 0.0000
     51 ****         0.2625   3.3148   0.0784 LP             1 S1                 0.0000
     52 ****         5.2113  -1.7605   0.3628 LP             1 S1                 0.0000
     53 ****         1.9783  -1.8720  -0.5183 LP             1 S1                 0.0000
     54 ****         0.9580  -4.9876   1.4850 LP             1 S1                 0.0000
     55 ****         2.3442  -4.3644   2.0823 LP             1 S1                 0.0000
@<TRIPOS>BOND
    1    1    2 2     
    2    2    3 am    
    3    2   16 am    
    4    3    4 1     
    5    3   24 1     
    6    4    9 ar    
    7    4    5 ar    
    8    5    6 ar    
    9    5   25 1     
   10    6    7 ar    
   11    6   26 1     
   12    7    8 ar    
   13    7   27 1     
   14    8    9 ar    
   15    9   10 1     
   16   10   15 1     
   17   10   11 1     
   18   11   12 1     
   19   11   28 1     
   20   11   29 1     
   21   12   13 1     
   22   12   30 1     
   23   12   31 1     
   24   13   14 1     
   25   14   15 1     
   26   14   32 1     
   27   14   33 1     
   28   15   34 1     
   29   15   35 1     
   30   16   17 1     
   31   16   36 1     
   32   17   23 1     
   33   17   18 1     
   34   17   37 1     
   35   18   19 1     
   36   18   38 1     
   37   18   39 1     
   38   19   20 1     
   39   19   40 1     
   40   19   41 1     
   41   20   21 1     
   42   20   42 1     
   43   20   43 1     
   44   21   22 1     
   45   21   44 1     
   46   21   45 1     
   47   22   23 1     
   48   22   46 1     
   49   22   47 1     
   50   23   48 1     
   51   23   49 1     
   52    1   50 1     
   53    1   51 1     
   54    8   52 1     
   55   10   53 1     
   56   13   54 1     
   57   13   55 1     
@<TRIPOS>SUBSTRUCTURE
      1 S1             1
@<TRIPOS>SET
LONE_PAIRS      STATIC     ATOMS    <user>   **** ""
6 50 51 52 53 54 55
DONOR_HYDROGENS      STATIC     ATOMS    <user>   **** ""
2 24 36
ATOM$BLUE        STATIC     ATOMS    COLORGROUP SYSTEM
6 50 51 52 53 54 55
ATOM$RED        STATIC     ATOMS    COLORGROUP SYSTEM
2 24 36
