AV-unprocessed.smi:2829|AV-procd|sdf|10905|dock3
  -GOLD-   2272015353D 1   1.00000     0.00000
 Structure written by MMmdl.
 50 53  0  0  0  0  0  0  0  0  1 V2000
  151.3435  141.0971  158.7830 C   0  0  0  0  0  0  0  0  0  0  0  0
  150.3926  141.6122  157.6828 C   0  0  0  0  0  0  0  0  0  0  0  0
  149.1522  142.2661  158.3260 C   0  0  0  0  0  0  0  0  0  0  0  0
  151.1426  142.7125  156.8984 C   0  0  0  0  0  0  0  0  0  0  0  0
  149.9559  140.4420  156.7829 C   0  0  0  0  0  0  0  0  0  0  0  0
  150.2232  140.3908  155.3962 C   0  0  0  0  0  0  0  0  0  0  0  0
  149.7693  139.2685  154.6833 C   0  0  0  0  0  0  0  0  0  0  0  0
  149.0782  138.2609  155.3853 C   0  0  0  0  0  0  0  0  0  0  0  0
  148.6521  137.1576  154.6014 N   0  0  0  0  0  0  0  0  0  0  0  0
  147.9776  136.0608  155.0002 C   0  0  0  0  0  0  0  0  0  0  0  0
  147.5899  135.8535  156.1482 O   0  0  0  0  0  0  0  0  0  0  0  0
  147.7549  135.1709  154.0171 N   0  0  0  0  0  0  0  0  0  0  0  0
  147.0533  133.8847  154.1251 C   0  0  1  0  0  0  0  0  0  0  0  0
  146.1191  133.5756  152.9477 C   0  0  1  0  0  0  0  0  0  0  0  0
  145.3844  134.3809  151.9386 C   0  0  0  0  0  0  0  0  0  0  0  0
  145.6186  133.4336  150.7342 C   0  0  0  0  0  0  0  0  0  0  0  0
  146.5761  132.4440  151.1894 O   0  0  0  0  0  0  0  0  0  0  0  0
  147.3430  133.1142  152.1733 C   0  0  2  0  0  0  0  0  0  0  0  0
  147.8660  132.6777  153.5541 C   0  0  0  0  0  0  0  0  0  0  0  0
  149.3679  132.5040  153.8132 C   0  0  0  0  0  0  0  0  0  0  0  0
  149.1505  130.9877  153.7702 C   0  0  0  0  0  0  0  0  0  0  0  0
  147.6651  131.2368  154.0507 C   0  0  0  0  0  0  0  0  0  0  0  0
  148.8577  138.3742  156.7189 N   0  0  0  0  0  0  0  0  0  0  0  0
  149.2858  139.4397  157.4024 N   0  0  0  0  0  0  0  0  0  0  0  0
  151.6870  141.9095  159.4243 H   0  0  0  0  0  0  0  0  0  0  0  0
  152.2259  140.6225  158.3523 H   0  0  0  0  0  0  0  0  0  0  0  0
  150.8581  140.3636  159.4278 H   0  0  0  0  0  0  0  0  0  0  0  0
  148.6035  141.5635  158.9541 H   0  0  0  0  0  0  0  0  0  0  0  0
  148.4621  142.6367  157.5673 H   0  0  0  0  0  0  0  0  0  0  0  0
  149.4305  143.1106  158.9576 H   0  0  0  0  0  0  0  0  0  0  0  0
  151.4416  143.5311  157.5543 H   0  0  0  0  0  0  0  0  0  0  0  0
  150.5198  143.1447  156.1142 H   0  0  0  0  0  0  0  0  0  0  0  0
  152.0521  142.3286  156.4346 H   0  0  0  0  0  0  0  0  0  0  0  0
  150.7544  141.1709  154.8734 H   0  0  0  0  0  0  0  0  0  0  0  0
  149.9500  139.1867  153.6213 H   0  0  0  0  0  0  0  0  0  0  0  0
  148.9043  137.1943  153.6249 H   0  0  0  0  0  0  0  0  0  0  0  0
  148.1173  135.4029  153.1034 H   0  0  0  0  0  0  0  0  0  0  0  0
  146.6198  133.6871  155.1065 H   0  0  0  0  0  0  0  0  0  0  0  0
  145.4881  132.7315  153.2500 H   0  0  0  0  0  0  0  0  0  0  0  0
  144.3287  134.5061  152.1801 H   0  0  0  0  0  0  0  0  0  0  0  0
  145.8373  135.3603  151.7798 H   0  0  0  0  0  0  0  0  0  0  0  0
  144.7000  132.9371  150.4207 H   0  0  0  0  0  0  0  0  0  0  0  0
  146.0166  133.9828  149.8801 H   0  0  0  0  0  0  0  0  0  0  0  0
  147.9291  133.9287  151.7371 H   0  0  0  0  0  0  0  0  0  0  0  0
  150.0162  132.8936  153.0279 H   0  0  0  0  0  0  0  0  0  0  0  0
  149.6691  132.8586  154.8000 H   0  0  0  0  0  0  0  0  0  0  0  0
  149.3259  130.5653  152.7795 H   0  0  0  0  0  0  0  0  0  0  0  0
  149.6740  130.4296  154.5469 H   0  0  0  0  0  0  0  0  0  0  0  0
  147.4228  131.1868  155.1132 H   0  0  0  0  0  0  0  0  0  0  0  0
  146.9827  130.6337  153.4511 H   0  0  0  0  0  0  0  0  0  0  0  0
  1  2  1  0  0  0  0
  1 25  1  0  0  0  0
  1 26  1  0  0  0  0
  1 27  1  0  0  0  0
  2  3  1  0  0  0  0
  2  4  1  0  0  0  0
  2  5  1  0  0  0  0
  3 28  1  0  0  0  0
  3 29  1  0  0  0  0
  3 30  1  0  0  0  0
  4 31  1  0  0  0  0
  4 32  1  0  0  0  0
  4 33  1  0  0  0  0
  5 24  1  0  0  0  0
  5  6  2  0  0  0  0
  6  7  1  0  0  0  0
  6 34  1  0  0  0  0
  7  8  2  0  0  0  0
  7 35  1  0  0  0  0
  8  9  1  0  0  0  0
  8 23  1  0  0  0  0
  9 10  1  0  0  0  0
  9 36  1  0  0  0  0
 10 11  2  0  0  0  0
 10 12  1  0  0  0  0
 12 13  1  0  0  0  0
 12 37  1  0  0  0  0
 13 19  1  0  0  0  0
 13 14  1  0  0  0  0
 13 38  1  0  0  0  0
 14 18  1  0  0  0  0
 14 15  1  0  0  0  0
 14 39  1  0  0  0  0
 15 16  1  0  0  0  0
 15 40  1  0  0  0  0
 15 41  1  0  0  0  0
 16 17  1  0  0  0  0
 16 42  1  0  0  0  0
 16 43  1  0  0  0  0
 17 18  1  0  0  0  0
 18 19  1  0  0  0  0
 18 44  1  0  0  0  0
 19 22  1  0  0  0  0
 19 20  1  0  0  0  0
 20 21  1  0  0  0  0
 20 45  1  0  0  0  0
 20 46  1  0  0  0  0
 21 22  1  0  0  0  0
 21 47  1  0  0  0  0
 21 48  1  0  0  0  0
 22 49  1  0  0  0  0
 22 50  1  0  0  0  0
 23 24  2  0  0  0  0
M  END
> <s_m_source_file>
AV-unprocessed.smi

> <i_m_source_file_index>
2829

> <i_lp_mmshare_version>
43012

> <i_f3d_flags>
0

> <s_epik_input>
W0NIM11DKFtDSDNdKShbQ0gzXSljMVtjSF1bY0hdYyhubjEpW05IXUMoPU8pW05IXVtDQEBIXTJbQ0BIXShbQ0gyXVtDSDJdTzMpW0NAQEhdM0MyNFtDSDJdW0NIMl1bQ0gyXTQ=

> <s_epik_cmdline>
J2VwaWtfcHl0aG9uJywgJy1waCcsICc3LjAnLCAnLXRuJywgJzgnLCAnLW1hJywgJzIwMCcsICctbWV0YWxfYmluZGluZycsICctaW1hZScsICc8aW5maWxlLm1hZT4nLCAnLW9tYWUnLCAnPG91dGZpbGUubWFlPic=

> <r_lp_tautomer_probability>
1

> <r_epik_Ionization_Penalty>
0.011915

> <r_epik_Ionization_Penalty_Charging>
0

> <r_epik_Ionization_Penalty_Neutral>
0.011915

> <r_epik_State_Penalty>
0.00486223

> <r_epik_Charging_Adjusted_Penalty>
0.00486223

> <i_epik_Tot_Q>
0

> <i_epik_Tot_abs_Q>
0

> <r_epik_Metal_State_Penalty>
-0

> <b_epik_Metal_Only>
0

> <s_lp_Force_Field>
OPLS_2005

> <r_lp_Energy>
85.0365

> <b_lp_Chiralities_Consistent>
1

> <s_lp_Variant>
AV-unprocessed.smi:2829-8

> <Gold.Version>
5.8.1

> <Gold.Id.Protein>
6NUR|6NUR_protein|mol2

> <Gold.PLP.Fitness>
38.1116

> <Gold.PLP.PLP>
-32.2407

> <Gold.PLP.part.hbond>
-2.0000

> <Gold.PLP.part.metal>
0.0000

> <Gold.PLP.part.buried>
-5.6286

> <Gold.PLP.part.nonpolar>
-25.6860

> <Gold.PLP.part.repulsive>
0.4683

> <Gold.PLP.ligand.clash>
0.0000

> <Gold.PLP.ligand.torsion>
0.1624

> <Gold.PLP.Chemscore.Hbond>
1.9600

> <Gold.PLP.Chemscore.CHOScore>
0.0000

> <Gold.PLP.Chemscore.Metal>
0.0000

> <Gold.Chemscore.Hbonds>
donor molecule, donor type, donor heavy atom, donor atom, acceptor molecule, acceptor atom, score
      L1  H     9    36       P1  7948  0.96
      L1  H    12    37       P1  7948  1.00

> <Gold.PLP.Chemscore.Internal.Correction>
0.3157

> <Gold.Rescore>
     Score         DG    S(hbond)    S(metal)    S(lipo)     H(rot)  DE(clash)    DE(int)     intcor
     17.23     -18.90       1.83        0.00      87.80       1.16       0.22       1.45       ----

> <Gold.Chemscore.Fitness>
17.2297

> <Gold.Chemscore.DG>
-18.9035

> <Gold.Chemscore.ZeroCoef>
-5.4800

> <Gold.Chemscore.Hbond>
1.8337

> <Gold.Chemscore.Metal>
0.0000

> <Gold.Chemscore.Lipo>
87.8038

> <Gold.Chemscore.Internal_Hbond>
0.0000

> <Gold.Chemscore.DEClash>
0.2196

> <Gold.Chemscore.DEInternal>
1.4542

> <Gold.Chemscore.Rot>
1.1618

> <Gold.Chemscore.Internal.Correction>
   9.000000E+99

> <Gold.Chemscore.Hbonds>
donor molecule, donor type, donor heavy atom, donor atom, acceptor molecule, acceptor atom, score
      L1  H     9    36       P1  7948  0.89
      L1  H    12    37       P1  7948  1.00

> <Gold.Chemscore.Hbond.Weighted>
-6.1246

> <Gold.Chemscore.Metal.Weighted>
-0.0000

> <Gold.Chemscore.Lipo.Weighted>
-10.2730

> <Gold.Chemscore.Internal_Hbond.Weighted>
0.0000

> <Gold.Chemscore.DEClash.Weighted>
0.2196

> <Gold.Chemscore.DEInternal.Weighted>
1.4542

> <Gold.Chemscore.Rot.Weighted>
2.9741

> <Gold.Chemscore.Internal.Correction.Weighted>
   9.000000E+99

> <Gold.Protein.RotatedTorsions>
[ 6907 6896 6895 6894 ] final  140.13 input  -60.11 | X-H torsion
[ 7974 7965 7964 7962 ] final  -24.64 input  175.53 | X-H torsion
[ 8008 7997 7996 7995 ] final   56.04 input   59.86 | X-H torsion
[ 10167 10162 10161 10158 ] final  -50.95 input  -65.29 | X-H torsion
[ 10718 10713 10712 10709 ] final  -80.69 input   66.30 | X-H torsion
[ 10763 10752 10751 10750 ] final  123.98 input  -60.55 | X-H torsion
[ 11005 11000 10999 10996 ] final   39.25 input  -57.11 | X-H torsion

> <Gold.Protein.ActiveResidues>
 VAL166  LYS551  ARG553  GLY616  TRP617  ASP618  TYR619  PRO620  LYS621  CYS622 
 ASP623  PHE694  ASN695  SER759  ASP760  ASP761  ALA762  ILE779  LEU786  VAL792 
 PHE793  MET794  SER795  GLU796  ALA797  LYS798  CYS799  TRP800  GLU811  SER814 

> <Gold.Protein.RotatedAtoms>
  152.2467  133.5181  159.5301 H   0  0  0  0  0  0  0  0  0  0  0  0  # atno 6907 bound_to 6896
  150.7081  134.1015  159.3976 H   0  0  0  0  0  0  0  0  0  0  0  0  # atno 6908 bound_to 6896
  151.8935  135.0407  160.0551 H   0  0  0  0  0  0  0  0  0  0  0  0  # atno 6909 bound_to 6896
  146.1542  140.4779  142.8598 H   0  0  0  0  0  0  0  0  0  0  0  0  # atno 7974 bound_to 7965
  155.5110  140.3477  155.4388 H   0  0  0  0  0  0  0  0  0  0  0  0  # atno 8008 bound_to 7997
  156.0849  140.1396  156.9693 H   0  0  0  0  0  0  0  0  0  0  0  0  # atno 8009 bound_to 7997
  154.4601  140.0938  156.6845 H   0  0  0  0  0  0  0  0  0  0  0  0  # atno 8010 bound_to 7997
  140.6613  143.2638  151.4433 H   0  0  0  0  0  0  0  0  0  0  0  0  # atno 10167 bound_to 10162
  156.0065  130.4582  150.3839 H   0  0  0  0  0  0  0  0  0  0  0  0  # atno 10718 bound_to 10713
  153.6541  135.3358  155.3108 H   0  0  0  0  0  0  0  0  0  0  0  0  # atno 10763 bound_to 10752
  154.8531  135.4348  154.1874 H   0  0  0  0  0  0  0  0  0  0  0  0  # atno 10764 bound_to 10752
  153.2823  135.7010  153.7448 H   0  0  0  0  0  0  0  0  0  0  0  0  # atno 10765 bound_to 10752
  140.2046  134.3828  155.8079 H   0  0  0  0  0  0  0  0  0  0  0  0  # atno 11005 bound_to 11000
  144.7941  140.6090  143.6521 LP  0  0  0  0  0  0  0  0  0  0  0  0  # atno 17320 bound_to 7965
  145.4750  139.1500  143.3793 LP  0  0  0  0  0  0  0  0  0  0  0  0  # atno 17321 bound_to 7965
  139.5847  144.1630  152.2014 LP  0  0  0  0  0  0  0  0  0  0  0  0  # atno 17342 bound_to 10162
  140.0966  144.5575  150.7017 LP  0  0  0  0  0  0  0  0  0  0  0  0  # atno 17343 bound_to 10162
  157.1917  131.0417  151.2696 LP  0  0  0  0  0  0  0  0  0  0  0  0  # atno 17370 bound_to 10713
  157.4055  130.7356  149.6799 LP  0  0  0  0  0  0  0  0  0  0  0  0  # atno 17371 bound_to 10713
  141.2227  133.7112  156.8316 LP  0  0  0  0  0  0  0  0  0  0  0  0  # atno 17394 bound_to 11000
  140.2016  134.8893  157.3175 LP  0  0  0  0  0  0  0  0  0  0  0  0  # atno 17395 bound_to 11000

$$$$
