AV-unprocessed.smi:271|AV-procd|sdf|2049|dock8
  -GOLD-   2262021283D 1   1.00000     0.00000
 Structure written by MMmdl.
 58 60  0  0  0  0  0  0  0  0  1 V2000
  151.7673  144.5593  158.8587 C   0  0  0  0  0  0  0  0  0  0  0  0
  151.6438  143.0417  159.0631 C   0  0  0  0  0  0  0  0  0  0  0  0
  152.8028  142.5213  159.9305 C   0  0  0  0  0  0  0  0  0  0  0  0
  151.5558  142.3145  157.7071 C   0  0  0  0  0  0  0  0  0  0  0  0
  150.1389  142.3141  157.0948 C   0  0  0  0  0  0  0  0  0  0  0  0
  149.7814  141.0570  156.4373 N   0  0  0  0  0  0  0  0  0  0  0  0
  150.8540  140.4523  155.6501 C   0  0  0  0  0  0  0  0  0  0  0  0
  151.3036  141.3190  154.4628 C   0  0  0  0  0  0  0  0  0  0  0  0
  151.4838  140.5321  153.2343 C   0  0  0  0  0  0  0  0  0  0  0  0
  151.6260  139.9127  152.2675 N   0  0  0  0  0  0  0  0  0  0  0  0
  148.6056  141.1102  155.7707 C   0  0  0  0  0  0  0  0  0  0  0  0
  148.4562  142.1006  154.8572 N   0  0  0  0  0  0  0  0  0  0  0  0
  147.3204  142.1984  154.1606 C   0  0  0  0  0  0  0  0  0  0  0  0
  146.2352  141.4239  154.2210 N   0  0  0  0  0  0  0  0  0  0  0  0
  146.3838  140.4248  155.1372 C   0  0  0  0  0  0  0  0  0  0  0  0
  147.5259  140.2014  155.9561 C   0  0  0  0  0  0  0  0  0  0  0  0
  147.3127  139.1031  156.7793 N   0  0  0  0  0  0  0  0  0  0  0  0
  146.1135  138.6985  156.4629 C   0  0  0  0  0  0  0  0  0  0  0  0
  145.4896  139.4206  155.4695 N   0  0  0  0  0  0  0  0  0  0  0  0
  144.1631  139.1739  154.9215 C   0  0  0  0  0  0  0  0  0  0  0  0
  144.0993  138.0044  153.8997 C   0  0  2  0  0  0  0  0  0  0  0  0
  144.7582  138.3647  152.5463 C   0  0  0  0  0  0  0  0  0  0  0  0
  144.3526  139.6448  152.1079 O   0  0  0  0  0  0  0  0  0  0  0  0
  142.6530  137.4803  153.6992 C   0  0  2  0  0  0  0  0  0  0  0  0
  141.6943  138.4861  153.0825 C   0  0  0  0  0  0  0  0  0  0  0  0
  140.3357  137.8808  153.4155 C   0  0  0  0  0  0  0  0  0  0  0  0
  140.5077  137.2247  154.6663 O   0  0  0  0  0  0  0  0  0  0  0  0
  141.8928  137.1537  154.9897 C   0  0  0  0  0  0  0  0  0  0  0  0
  152.6779  144.8134  158.3148 H   0  0  0  0  0  0  0  0  0  0  0  0
  151.7929  145.0849  159.8137 H   0  0  0  0  0  0  0  0  0  0  0  0
  150.9217  144.9515  158.2931 H   0  0  0  0  0  0  0  0  0  0  0  0
  150.7137  142.8630  159.6043 H   0  0  0  0  0  0  0  0  0  0  0  0
  153.7608  142.6351  159.4224 H   0  0  0  0  0  0  0  0  0  0  0  0
  152.6800  141.4674  160.1783 H   0  0  0  0  0  0  0  0  0  0  0  0
  152.8608  143.0666  160.8728 H   0  0  0  0  0  0  0  0  0  0  0  0
  152.2333  142.7960  157.0003 H   0  0  0  0  0  0  0  0  0  0  0  0
  151.9211  141.2939  157.8293 H   0  0  0  0  0  0  0  0  0  0  0  0
  149.3943  142.5434  157.8567 H   0  0  0  0  0  0  0  0  0  0  0  0
  150.0747  143.1145  156.3569 H   0  0  0  0  0  0  0  0  0  0  0  0
  151.7057  140.2339  156.2953 H   0  0  0  0  0  0  0  0  0  0  0  0
  150.5032  139.4917  155.2714 H   0  0  0  0  0  0  0  0  0  0  0  0
  150.5668  142.0956  154.2564 H   0  0  0  0  0  0  0  0  0  0  0  0
  152.2521  141.8148  154.6709 H   0  0  0  0  0  0  0  0  0  0  0  0
  147.2745  143.0122  153.4518 H   0  0  0  0  0  0  0  0  0  0  0  0
  145.6516  137.8476  156.9420 H   0  0  0  0  0  0  0  0  0  0  0  0
  143.4920  138.9707  155.7566 H   0  0  0  0  0  0  0  0  0  0  0  0
  143.7949  140.0980  154.4761 H   0  0  0  0  0  0  0  0  0  0  0  0
  144.6790  137.1832  154.3246 H   0  0  0  0  0  0  0  0  0  0  0  0
  145.8438  138.3915  152.6371 H   0  0  0  0  0  0  0  0  0  0  0  0
  144.5282  137.6246  151.7800 H   0  0  0  0  0  0  0  0  0  0  0  0
  143.7220  139.9872  152.7232 H   0  0  0  0  0  0  0  0  0  0  0  0
  142.6687  136.5807  153.0822 H   0  0  0  0  0  0  0  0  0  0  0  0
  141.7973  139.4576  153.5681 H   0  0  0  0  0  0  0  0  0  0  0  0
  141.8311  138.6304  152.0119 H   0  0  0  0  0  0  0  0  0  0  0  0
  139.5443  138.6293  153.4610 H   0  0  0  0  0  0  0  0  0  0  0  0
  140.0577  137.1371  152.6676 H   0  0  0  0  0  0  0  0  0  0  0  0
  142.1479  136.1717  155.3886 H   0  0  0  0  0  0  0  0  0  0  0  0
  142.1021  137.8966  155.7607 H   0  0  0  0  0  0  0  0  0  0  0  0
  1  2  1  0  0  0  0
  1 29  1  0  0  0  0
  1 30  1  0  0  0  0
  1 31  1  0  0  0  0
  2  3  1  0  0  0  0
  2  4  1  0  0  0  0
  2 32  1  0  0  0  0
  3 33  1  0  0  0  0
  3 34  1  0  0  0  0
  3 35  1  0  0  0  0
  4  5  1  0  0  0  0
  4 36  1  0  0  0  0
  4 37  1  0  0  0  0
  5  6  1  0  0  0  0
  5 38  1  0  0  0  0
  5 39  1  0  0  0  0
  6  7  1  0  0  0  0
  6 11  1  0  0  0  0
  7  8  1  0  0  0  0
  7 40  1  0  0  0  0
  7 41  1  0  0  0  0
  8  9  1  0  0  0  0
  8 42  1  0  0  0  0
  8 43  1  0  0  0  0
  9 10  3  0  0  0  0
 11 16  1  0  0  0  0
 11 12  2  0  0  0  0
 12 13  1  0  0  0  0
 13 14  2  0  0  0  0
 13 44  1  0  0  0  0
 14 15  1  0  0  0  0
 15 19  1  0  0  0  0
 15 16  2  0  0  0  0
 16 17  1  0  0  0  0
 17 18  2  0  0  0  0
 18 19  1  0  0  0  0
 18 45  1  0  0  0  0
 19 20  1  0  0  0  0
 20 21  1  0  0  0  0
 20 46  1  0  0  0  0
 20 47  1  0  0  0  0
 21 22  1  0  0  0  0
 21 24  1  0  0  0  0
 21 48  1  0  0  0  0
 22 23  1  0  0  0  0
 22 49  1  0  0  0  0
 22 50  1  0  0  0  0
 23 51  1  0  0  0  0
 24 28  1  0  0  0  0
 24 25  1  0  0  0  0
 24 52  1  0  0  0  0
 25 26  1  0  0  0  0
 25 53  1  0  0  0  0
 25 54  1  0  0  0  0
 26 27  1  0  0  0  0
 26 55  1  0  0  0  0
 26 56  1  0  0  0  0
 27 28  1  0  0  0  0
 28 57  1  0  0  0  0
 28 58  1  0  0  0  0
M  END
> <s_m_source_file>
AV-unprocessed.smi

> <i_m_source_file_index>
271

> <i_lp_mmshare_version>
43012

> <i_f3d_flags>
0

> <s_epik_input>
W0NIM11bQ0hdKFtDSDNdKVtDSDJdW0NIMl1OKFtDSDJdW0NIMl1DI04pYyhuW2NIXW4xKWMoYzEyKW5bY0hdbjJbQ0gyXVtDQEhdKFtDSDJdW09IXSlbQ0BASF0zW0NIMl1bQ0gyXU9bQ0gyXTM=

> <s_epik_cmdline>
J2VwaWtfcHl0aG9uJywgJy1waCcsICc3LjAnLCAnLXRuJywgJzgnLCAnLW1hJywgJzIwMCcsICctbWV0YWxfYmluZGluZycsICctaW1hZScsICc8aW5maWxlLm1hZT4nLCAnLW9tYWUnLCAnPG91dGZpbGUubWFlPic=

> <r_lp_tautomer_probability>
1

> <r_epik_Ionization_Penalty>
0.000825874

> <r_epik_Ionization_Penalty_Charging>
0

> <r_epik_Ionization_Penalty_Neutral>
0.000825874

> <r_epik_State_Penalty>
0.000396768

> <r_epik_Charging_Adjusted_Penalty>
0.000396768

> <i_epik_Tot_Q>
0

> <i_epik_Tot_abs_Q>
0

> <r_epik_Metal_State_Penalty>
-0

> <b_epik_Metal_Only>
0

> <s_lp_Force_Field>
OPLS_2005

> <r_lp_Energy>
34.7872

> <b_lp_Chiralities_Consistent>
1

> <s_lp_Variant>
AV-unprocessed.smi:271-1

> <Gold.Version>
5.8.1

> <Gold.Id.Protein>
6NUR|6NUR_protein|mol2

> <Gold.PLP.Fitness>
43.3911

> <Gold.PLP.PLP>
-38.1801

> <Gold.PLP.part.hbond>
-3.0000

> <Gold.PLP.part.metal>
0.0000

> <Gold.PLP.part.buried>
-4.3352

> <Gold.PLP.part.nonpolar>
-31.0012

> <Gold.PLP.part.repulsive>
0.4622

> <Gold.PLP.ligand.clash>
0.0000

> <Gold.PLP.ligand.torsion>
1.8126

> <Gold.PLP.Chemscore.Hbond>
1.8720

> <Gold.PLP.Chemscore.CHOScore>
0.8838

> <Gold.PLP.Chemscore.Metal>
0.0000

> <Gold.PLP.Chemscore.Internal.Correction>
0.5689

> <Gold.Rescore>
     Score         DG    S(hbond)    S(metal)    S(lipo)     H(rot)  DE(clash)    DE(int)     intcor
      9.37     -11.90       1.88        0.00      83.58       3.77       0.45       2.08       ----

> <Gold.Chemscore.Fitness>
9.3685

> <Gold.Chemscore.DG>
-11.8954

> <Gold.Chemscore.ZeroCoef>
-5.4800

> <Gold.Chemscore.Hbond>
1.8811

> <Gold.Chemscore.Metal>
0.0000

> <Gold.Chemscore.Lipo>
83.5838

> <Gold.Chemscore.Internal_Hbond>
0.0000

> <Gold.Chemscore.DEClash>
0.4502

> <Gold.Chemscore.DEInternal>
2.0767

> <Gold.Chemscore.Rot>
3.7683

> <Gold.Chemscore.Internal.Correction>
   9.000000E+99

> <Gold.Chemscore.Hbond.Weighted>
-6.2828

> <Gold.Chemscore.Metal.Weighted>
-0.0000

> <Gold.Chemscore.Lipo.Weighted>
-9.7793

> <Gold.Chemscore.Internal_Hbond.Weighted>
0.0000

> <Gold.Chemscore.DEClash.Weighted>
0.4502

> <Gold.Chemscore.DEInternal.Weighted>
2.0767

> <Gold.Chemscore.Rot.Weighted>
9.6468

> <Gold.Chemscore.Internal.Correction.Weighted>
   9.000000E+99

> <Gold.Protein.RotatedTorsions>
[ 6907 6896 6895 6894 ] final -162.90 input  -60.11 | X-H torsion
[ 7974 7965 7964 7962 ] final   15.53 input  175.53 | X-H torsion
[ 8008 7997 7996 7995 ] final   15.59 input   59.86 | X-H torsion
[ 10167 10162 10161 10158 ] final  -84.99 input  -65.29 | X-H torsion
[ 10718 10713 10712 10709 ] final   37.66 input   66.30 | X-H torsion
[ 10763 10752 10751 10750 ] final  158.07 input  -60.55 | X-H torsion
[ 11005 11000 10999 10996 ] final   78.67 input  -57.11 | X-H torsion

> <Gold.Protein.ActiveResidues>
 VAL166  LYS551  ARG553  GLY616  TRP617  ASP618  TYR619  PRO620  LYS621  CYS622 
 ASP623  PHE694  ASN695  SER759  ASP760  ASP761  ALA762  ILE779  LEU786  VAL792 
 PHE793  MET794  SER795  GLU796  ALA797  LYS798  CYS799  TRP800  GLU811  SER814 

> <Gold.Protein.RotatedAtoms>
  151.3875  133.3800  159.2716 H   0  0  0  0  0  0  0  0  0  0  0  0  # atno 6907 bound_to 6896
  150.9530  134.8929  159.7694 H   0  0  0  0  0  0  0  0  0  0  0  0  # atno 6908 bound_to 6896
  152.5119  134.3831  159.9410 H   0  0  0  0  0  0  0  0  0  0  0  0  # atno 6909 bound_to 6896
  146.2276  139.8881  142.8559 H   0  0  0  0  0  0  0  0  0  0  0  0  # atno 7974 bound_to 7965
  154.8649  140.2950  155.5516 H   0  0  0  0  0  0  0  0  0  0  0  0  # atno 8008 bound_to 7997
  156.3020  140.2471  156.3561 H   0  0  0  0  0  0  0  0  0  0  0  0  # atno 8009 bound_to 7997
  154.8879  140.0395  157.1810 H   0  0  0  0  0  0  0  0  0  0  0  0  # atno 8010 bound_to 7997
  140.4080  143.2634  151.9055 H   0  0  0  0  0  0  0  0  0  0  0  0  # atno 10167 bound_to 10162
  157.3495  130.7591  149.6968 H   0  0  0  0  0  0  0  0  0  0  0  0  # atno 10718 bound_to 10713
  154.2102  135.2786  155.2961 H   0  0  0  0  0  0  0  0  0  0  0  0  # atno 10763 bound_to 10752
  154.5785  135.5597  153.7165 H   0  0  0  0  0  0  0  0  0  0  0  0  # atno 10764 bound_to 10752
  153.0066  135.6339  154.2241 H   0  0  0  0  0  0  0  0  0  0  0  0  # atno 10765 bound_to 10752
  139.9203  134.7782  156.1679 H   0  0  0  0  0  0  0  0  0  0  0  0  # atno 11005 bound_to 11000
  145.2445  141.0021  143.3916 LP  0  0  0  0  0  0  0  0  0  0  0  0  # atno 17320 bound_to 7965
  144.9424  139.4173  143.6442 LP  0  0  0  0  0  0  0  0  0  0  0  0  # atno 17321 bound_to 7965
  139.4783  144.5566  151.8304 LP  0  0  0  0  0  0  0  0  0  0  0  0  # atno 17342 bound_to 10162
  140.4668  144.1643  150.5913 LP  0  0  0  0  0  0  0  0  0  0  0  0  # atno 17343 bound_to 10162
  155.9719  130.4144  150.4133 LP  0  0  0  0  0  0  0  0  0  0  0  0  # atno 17370 bound_to 10713
  157.2193  131.0479  151.2555 LP  0  0  0  0  0  0  0  0  0  0  0  0  # atno 17371 bound_to 10713
  141.0718  133.6793  156.2156 LP  0  0  0  0  0  0  0  0  0  0  0  0  # atno 17394 bound_to 11000
  140.6494  134.5083  157.5576 LP  0  0  0  0  0  0  0  0  0  0  0  0  # atno 17395 bound_to 11000

$$$$
