#       Name:                AV-unprocessed.smi:1751
#       Creating user name   scv26
#       Creation time:       Fri Mar 27 08:27:28 2020


#       File generated by GOLD software.
#

@<TRIPOS>MOLECULE
AV-unprocessed.smi:1751
    42    43     1
SMALL
NO_CHARGES


@<TRIPOS>ATOM
      1 ****        -6.6037  -0.0810   0.2405 C.3            1 S1                 0.0000
      2 ****        -5.9162  -1.3224   0.3512 O.3            1 S1                 0.0000
      3 ****        -4.5383  -1.3043   0.4202 C.ar           1 S1                 0.0000
      4 ****        -3.8539  -2.5292   0.5432 C.ar           1 S1                 0.0000
      5 ****        -2.4487  -2.5152   0.6213 C.ar           1 S1                 0.0000
      6 ****        -1.7668  -1.2824   0.5791 C.ar           1 S1                 0.0000
      7 ****        -0.3469  -1.3129   0.6534 N.am           1 S1                 0.0000
      8 ****         0.5153  -0.3041   0.8685 C.2            1 S1                 0.0000
      9 ****         0.2090   0.8743   1.0444 O.2            1 S1                 0.0000
     10 ****         1.7801  -0.7480   0.8757 N.am           1 S1                 0.0000
     11 ****         2.9676   0.0778   1.0715 C.3            1 S1                 0.0000
     12 ****         3.6118   0.4733  -0.2677 C.3            1 S1                 0.0000
     13 ****         2.7768   1.4127  -1.1368 C.3            1 S1                 0.0000
     14 ****         3.8390   2.0291  -2.0175 C.3            1 S1                 0.0000
     15 ****         5.0121   2.1744  -1.0505 C.3            1 S1                 0.0000
     16 ****         4.8255   1.1831  -0.0419 O.3            1 S1                 0.0000
     17 ****        -2.5448  -0.1062   0.4407 C.ar           1 S1                 0.0000
     18 ****        -3.8932  -0.1130   0.3658 N.ar           1 S1                 0.0000
     19 ****        -7.6775  -0.2651   0.2093 H              1 S1                 0.0000
     20 ****        -6.3313   0.4454  -0.6754 H              1 S1                 0.0000
     21 ****        -6.4040   0.5638   1.0974 H              1 S1                 0.0000
     22 ****        -4.3972  -3.4620   0.5785 H              1 S1                 0.0000
     23 ****        -1.9035  -3.4431   0.7162 H              1 S1                 0.0000
     24 ****         0.0657  -2.2307   0.5744 H              1 S1                 0.0000
     25 ****         1.9368  -1.7340   0.7268 H              1 S1                 0.0000
     26 ****         2.7393   0.9654   1.6643 H              1 S1                 0.0000
     27 ****         3.6798  -0.5032   1.6577 H              1 S1                 0.0000
     28 ****         3.8591  -0.4219  -0.8410 H              1 S1                 0.0000
     29 ****         2.0002   0.8957  -1.7011 H              1 S1                 0.0000
     30 ****         2.3042   2.1835  -0.5261 H              1 S1                 0.0000
     31 ****         4.0997   1.3410  -2.8228 H              1 S1                 0.0000
     32 ****         3.5326   2.9759  -2.4628 H              1 S1                 0.0000
     33 ****         5.9730   2.0534  -1.5516 H              1 S1                 0.0000
     34 ****         4.9996   3.1563  -0.5762 H              1 S1                 0.0000
     35 ****        -2.1026   0.8744   0.3704 H              1 S1                 0.0000
     36 ****        -6.1652  -1.8708  -0.4471 LP             1 S1                 0.0000
     37 ****        -6.2481  -1.7715   1.1808 LP             1 S1                 0.0000
     38 ****        -0.7528   1.1478   1.0341 LP             1 S1                 0.0000
     39 ****         0.9219   1.5587   1.1977 LP             1 S1                 0.0000
     40 ****         5.5923   0.5415  -0.0636 LP             1 S1                 0.0000
     41 ****         4.7871   1.6263   0.8537 LP             1 S1                 0.0000
     42 ****        -4.4043   0.7414   0.2723 LP             1 S1                 0.0000
@<TRIPOS>BOND
    1    1    2 1     
    2    1   19 1     
    3    1   20 1     
    4    1   21 1     
    5    2    3 1     
    6    3   18 ar    
    7    3    4 ar    
    8    4    5 ar    
    9    4   22 1     
   10    5    6 ar    
   11    5   23 1     
   12    6    7 1     
   13    6   17 ar    
   14    7    8 am    
   15    7   24 1     
   16    8    9 2     
   17    8   10 am    
   18   10   11 1     
   19   10   25 1     
   20   11   12 1     
   21   11   26 1     
   22   11   27 1     
   23   12   16 1     
   24   12   13 1     
   25   12   28 1     
   26   13   14 1     
   27   13   29 1     
   28   13   30 1     
   29   14   15 1     
   30   14   31 1     
   31   14   32 1     
   32   15   16 1     
   33   15   33 1     
   34   15   34 1     
   35   17   18 ar    
   36   17   35 1     
   37    2   36 1     
   38    2   37 1     
   39    9   38 1     
   40    9   39 1     
   41   16   40 1     
   42   16   41 1     
   43   18   42 1     
@<TRIPOS>SUBSTRUCTURE
      1 S1             1
@<TRIPOS>SET
LONE_PAIRS      STATIC     ATOMS    <user>   **** ""
7 36 37 38 39 40 41 42
DONOR_HYDROGENS      STATIC     ATOMS    <user>   **** ""
2 24 25
ATOM$BLUE        STATIC     ATOMS    COLORGROUP SYSTEM
7 36 37 38 39 40 41 42
ATOM$RED        STATIC     ATOMS    COLORGROUP SYSTEM
2 24 25
