AV-unprocessed.smi:3134|AV-procd|sdf|11944|dock2
  -GOLD-   2272017333D 1   1.00000     0.00000
 Structure written by MMmdl.
 36 36  0  0  0  0  0  0  0  0  1 V2000
  148.9567  136.1428  155.3228 C   0  0  0  0  0  0  0  0  0  0  0  0
  150.0545  137.1723  155.0099 C   0  0  0  0  0  0  0  0  0  0  0  0
  151.2594  137.0186  155.9473 C   0  0  0  0  0  0  0  0  0  0  0  0
  149.5249  138.5281  155.1173 N   0  0  0  0  0  0  0  0  0  0  0  0
  150.2348  139.6561  154.9570 C   0  0  0  0  0  0  0  0  0  0  0  0
  151.4393  139.6665  154.7002 O   0  0  0  0  0  0  0  0  0  0  0  0
  149.4556  140.9779  155.0668 C   0  0  1  0  0  0  0  0  0  0  0  0
  148.3250  141.0328  154.0270 C   0  0  0  0  0  0  0  0  0  0  0  0
  148.9048  141.2214  156.4126 N   0  0  0  0  0  0  0  0  0  0  0  0
  149.9109  141.4286  157.4484 C   0  0  0  0  0  0  0  0  0  0  0  0
  151.0313  142.3219  156.8984 C   0  0  0  0  0  0  0  0  0  0  0  0
  151.5441  143.2167  157.9173 N   0  0  0  0  0  0  0  0  0  0  0  0
  151.4369  144.5898  157.9837 C   0  0  0  0  0  0  0  0  0  0  0  0
  152.0681  144.9910  159.1262 C   0  0  0  0  0  0  0  0  0  0  0  0
  152.5344  143.7748  159.6995 C   0  0  0  0  0  0  0  0  0  0  0  0
  152.2176  142.7143  158.9745 N   0  0  0  0  0  0  0  0  0  0  0  0
  149.3399  135.1256  155.2407 H   0  0  0  0  0  0  0  0  0  0  0  0
  148.1189  136.2332  154.6306 H   0  0  0  0  0  0  0  0  0  0  0  0
  148.5679  136.2718  156.3335 H   0  0  0  0  0  0  0  0  0  0  0  0
  150.4050  137.0078  153.9894 H   0  0  0  0  0  0  0  0  0  0  0  0
  151.6924  136.0212  155.8672 H   0  0  0  0  0  0  0  0  0  0  0  0
  150.9766  137.1757  156.9887 H   0  0  0  0  0  0  0  0  0  0  0  0
  152.0424  137.7370  155.7020 H   0  0  0  0  0  0  0  0  0  0  0  0
  148.5388  138.6167  155.3159 H   0  0  0  0  0  0  0  0  0  0  0  0
  150.1436  141.7939  154.8377 H   0  0  0  0  0  0  0  0  0  0  0  0
  148.7079  140.8807  153.0170 H   0  0  0  0  0  0  0  0  0  0  0  0
  147.8279  142.0032  154.0431 H   0  0  0  0  0  0  0  0  0  0  0  0
  147.5663  140.2714  154.2141 H   0  0  0  0  0  0  0  0  0  0  0  0
  148.2697  140.4875  156.6928 H   0  0  0  0  0  0  0  0  0  0  0  0
  149.4688  141.9033  158.3250 H   0  0  0  0  0  0  0  0  0  0  0  0
  150.3188  140.4671  157.7639 H   0  0  0  0  0  0  0  0  0  0  0  0
  151.8554  141.7171  156.5165 H   0  0  0  0  0  0  0  0  0  0  0  0
  150.6662  142.9235  156.0647 H   0  0  0  0  0  0  0  0  0  0  0  0
  150.9253  145.1597  157.2220 H   0  0  0  0  0  0  0  0  0  0  0  0
  152.1795  145.9992  159.4965 H   0  0  0  0  0  0  0  0  0  0  0  0
  153.0891  143.6321  160.6150 H   0  0  0  0  0  0  0  0  0  0  0  0
  1  2  1  0  0  0  0
  1 17  1  0  0  0  0
  1 18  1  0  0  0  0
  1 19  1  0  0  0  0
  2  3  1  0  0  0  0
  2  4  1  0  0  0  0
  2 20  1  0  0  0  0
  3 21  1  0  0  0  0
  3 22  1  0  0  0  0
  3 23  1  0  0  0  0
  4  5  1  0  0  0  0
  4 24  1  0  0  0  0
  5  6  2  0  0  0  0
  5  7  1  0  0  0  0
  7  8  1  0  0  0  0
  7  9  1  0  0  0  0
  7 25  1  0  0  0  0
  8 26  1  0  0  0  0
  8 27  1  0  0  0  0
  8 28  1  0  0  0  0
  9 10  1  0  0  0  0
  9 29  1  0  0  0  0
 10 11  1  0  0  0  0
 10 30  1  0  0  0  0
 10 31  1  0  0  0  0
 11 12  1  0  0  0  0
 11 32  1  0  0  0  0
 11 33  1  0  0  0  0
 12 16  1  0  0  0  0
 12 13  1  0  0  0  0
 13 14  2  0  0  0  0
 13 34  1  0  0  0  0
 14 15  1  0  0  0  0
 14 35  1  0  0  0  0
 15 16  2  0  0  0  0
 15 36  1  0  0  0  0
M  END
> <s_m_source_file>
AV-unprocessed.smi

> <i_m_source_file_index>
3134

> <i_lp_mmshare_version>
43012

> <i_f3d_flags>
0

> <s_epik_input>
W0NIM11bQ0hdKFtDSDNdKVtOSF1DKD1PKVtDQEhdKFtDSDNdKVtOSF1bQ0gyXVtDSDJdbjFbY0hdW2NIXVtjSF1uMQ==

> <s_epik_cmdline>
J2VwaWtfcHl0aG9uJywgJy1waCcsICc3LjAnLCAnLXRuJywgJzgnLCAnLW1hJywgJzIwMCcsICctbWV0YWxfYmluZGluZycsICctaW1hZScsICc8aW5maWxlLm1hZT4nLCAnLW9tYWUnLCAnPG91dGZpbGUubWFlPic=

> <r_lp_tautomer_probability>
1

> <r_epik_Ionization_Penalty>
0.731872

> <r_epik_Ionization_Penalty_Charging>
0

> <r_epik_Ionization_Penalty_Neutral>
0.731872

> <r_epik_State_Penalty>
0.75611

> <r_epik_Charging_Adjusted_Penalty>
0.75611

> <i_epik_Tot_Q>
0

> <i_epik_Tot_abs_Q>
0

> <r_epik_Metal_State_Penalty>
0.755373

> <b_epik_Metal_Only>
0

> <s_lp_Force_Field>
OPLS_2005

> <r_lp_Energy>
3.64981

> <b_lp_Chiralities_Consistent>
1

> <s_lp_Variant>
AV-unprocessed.smi:3134-4

> <Gold.Version>
5.8.1

> <Gold.Id.Protein>
6NUR|6NUR_protein|mol2

> <Gold.PLP.Fitness>
38.5709

> <Gold.PLP.PLP>
-33.4102

> <Gold.PLP.part.hbond>
-1.0000

> <Gold.PLP.part.metal>
0.0000

> <Gold.PLP.part.buried>
-5.9809

> <Gold.PLP.part.nonpolar>
-28.2230

> <Gold.PLP.part.repulsive>
0.0932

> <Gold.PLP.ligand.clash>
0.0000

> <Gold.PLP.ligand.torsion>
0.4568

> <Gold.PLP.Chemscore.Hbond>
1.0000

> <Gold.PLP.Chemscore.CHOScore>
0.9945

> <Gold.PLP.Chemscore.Metal>
0.0000

> <Gold.Chemscore.Hbonds>
donor molecule, donor type, donor heavy atom, donor atom, acceptor molecule, acceptor atom, score
      P1  H  7989  7998       L1     6  1.00
      L1  C    13    34       P1  8028  0.94

> <Gold.PLP.Chemscore.Internal.Correction>
0.0909

> <Gold.Rescore>
     Score         DG    S(hbond)    S(metal)    S(lipo)     H(rot)  DE(clash)    DE(int)     intcor
     12.19     -12.65       0.97        0.00      78.44       2.05       0.00       0.46       ----

> <Gold.Chemscore.Fitness>
12.1886

> <Gold.Chemscore.DG>
-12.6515

> <Gold.Chemscore.ZeroCoef>
-5.4800

> <Gold.Chemscore.Hbond>
0.9729

> <Gold.Chemscore.Metal>
0.0000

> <Gold.Chemscore.Lipo>
78.4400

> <Gold.Chemscore.Internal_Hbond>
0.0000

> <Gold.Chemscore.DEClash>
0.0000

> <Gold.Chemscore.DEInternal>
0.4629

> <Gold.Chemscore.Rot>
2.0529

> <Gold.Chemscore.Internal.Correction>
   9.000000E+99

> <Gold.Chemscore.Hbonds>
donor molecule, donor type, donor heavy atom, donor atom, acceptor molecule, acceptor atom, score
      P1  H  7989  7998       L1     6  0.55

> <Gold.Chemscore.Hbond.Weighted>
-3.2494

> <Gold.Chemscore.Metal.Weighted>
-0.0000

> <Gold.Chemscore.Lipo.Weighted>
-9.1775

> <Gold.Chemscore.Internal_Hbond.Weighted>
0.0000

> <Gold.Chemscore.DEClash.Weighted>
0.0000

> <Gold.Chemscore.DEInternal.Weighted>
0.4629

> <Gold.Chemscore.Rot.Weighted>
5.2554

> <Gold.Chemscore.Internal.Correction.Weighted>
   9.000000E+99

> <Gold.Protein.RotatedTorsions>
[ 6907 6896 6895 6894 ] final   27.12 input  -60.11 | X-H torsion
[ 7974 7965 7964 7962 ] final   72.41 input  175.53 | X-H torsion
[ 8008 7997 7996 7995 ] final -137.93 input   59.86 | X-H torsion
[ 10167 10162 10161 10158 ] final -159.89 input  -65.29 | X-H torsion
[ 10718 10713 10712 10709 ] final -107.46 input   66.30 | X-H torsion
[ 10763 10752 10751 10750 ] final -176.17 input  -60.55 | X-H torsion
[ 11005 11000 10999 10996 ] final  -49.70 input  -57.11 | X-H torsion

> <Gold.Protein.ActiveResidues>
 VAL166  LYS551  ARG553  GLY616  TRP617  ASP618  TYR619  PRO620  LYS621  CYS622 
 ASP623  PHE694  ASN695  SER759  ASP760  ASP761  ALA762  ILE779  LEU786  VAL792 
 PHE793  MET794  SER795  GLU796  ALA797  LYS798  CYS799  TRP800  GLU811  SER814 

> <Gold.Protein.RotatedAtoms>
  151.9975  134.9946  160.0563 H   0  0  0  0  0  0  0  0  0  0  0  0  # atno 6907 bound_to 6896
  152.1550  133.4541  159.4840 H   0  0  0  0  0  0  0  0  0  0  0  0  # atno 6908 bound_to 6896
  150.6880  134.2060  159.4383 H   0  0  0  0  0  0  0  0  0  0  0  0  # atno 6909 bound_to 6896
  145.7537  139.2771  143.1416 H   0  0  0  0  0  0  0  0  0  0  0  0  # atno 7974 bound_to 7965
  155.4199  140.0518  157.3026 H   0  0  0  0  0  0  0  0  0  0  0  0  # atno 8008 bound_to 7997
  154.4907  140.2119  155.9513 H   0  0  0  0  0  0  0  0  0  0  0  0  # atno 8009 bound_to 7997
  156.1338  140.3167  155.8395 H   0  0  0  0  0  0  0  0  0  0  0  0  # atno 8010 bound_to 7997
  139.6581  143.9962  152.2207 H   0  0  0  0  0  0  0  0  0  0  0  0  # atno 10167 bound_to 10162
  156.0438  130.5664  150.7825 H   0  0  0  0  0  0  0  0  0  0  0  0  # atno 10718 bound_to 10713
  154.5756  135.2831  155.0784 H   0  0  0  0  0  0  0  0  0  0  0  0  # atno 10763 bound_to 10752
  154.2140  135.6403  153.5128 H   0  0  0  0  0  0  0  0  0  0  0  0  # atno 10764 bound_to 10752
  153.0071  135.5498  154.6393 H   0  0  0  0  0  0  0  0  0  0  0  0  # atno 10765 bound_to 10752
  141.0774  133.6662  156.3624 H   0  0  0  0  0  0  0  0  0  0  0  0  # atno 11005 bound_to 11000
  146.0331  140.8238  142.9866 LP  0  0  0  0  0  0  0  0  0  0  0  0  # atno 17320 bound_to 7965
  144.6844  140.2799  143.7294 LP  0  0  0  0  0  0  0  0  0  0  0  0  # atno 17321 bound_to 7965
  139.9694  144.6504  150.8003 LP  0  0  0  0  0  0  0  0  0  0  0  0  # atno 17342 bound_to 10162
  140.7568  143.3073  151.2930 LP  0  0  0  0  0  0  0  0  0  0  0  0  # atno 17343 bound_to 10162
  157.5288  131.0935  150.9982 LP  0  0  0  0  0  0  0  0  0  0  0  0  # atno 17370 bound_to 10713
  157.0294  130.5705  149.5341 LP  0  0  0  0  0  0  0  0  0  0  0  0  # atno 17371 bound_to 10713
  140.5543  134.5997  157.5416 LP  0  0  0  0  0  0  0  0  0  0  0  0  # atno 17394 bound_to 11000
  139.9587  134.7490  156.0285 LP  0  0  0  0  0  0  0  0  0  0  0  0  # atno 17395 bound_to 11000

$$$$
