AV-unprocessed.smi:1743|AV-procd|sdf|7023|dock7
  -GOLD-   22720 8243D 1   1.00000     0.00000
 Structure written by MMmdl.
 38 39  0  0  0  0  0  0  0  0  1 V2000
  143.9688  136.4834  152.2105 C   0  0  0  0  0  0  0  0  0  0  0  0
  143.3538  135.2956  151.7233 O   0  0  0  0  0  0  0  0  0  0  0  0
  144.1403  134.1755  151.5478 C   0  0  0  0  0  0  0  0  0  0  0  0
  143.5144  132.9570  151.2172 C   0  0  0  0  0  0  0  0  0  0  0  0
  144.3094  131.8088  151.0387 C   0  0  0  0  0  0  0  0  0  0  0  0
  145.7108  131.9149  151.2044 C   0  0  0  0  0  0  0  0  0  0  0  0
  146.6194  130.8360  151.0319 N   0  0  0  0  0  0  0  0  0  0  0  0
  146.4663  129.5498  151.3909 C   0  0  0  0  0  0  0  0  0  0  0  0
  145.4926  129.0910  151.9881 O   0  0  0  0  0  0  0  0  0  0  0  0
  147.5321  128.8194  151.0322 N   0  0  0  0  0  0  0  0  0  0  0  0
  147.7140  127.3911  151.2777 C   0  0  2  0  0  0  0  0  0  0  0  0
  147.7737  127.1248  152.7933 C   0  0  0  0  0  0  0  0  0  0  0  0
  148.0424  125.6401  153.0975 C   0  0  0  0  0  0  0  0  0  0  0  0
  149.3051  125.1166  152.3871 C   0  0  2  0  0  0  0  0  0  0  0  0
  150.4604  125.6857  152.9706 O   0  0  0  0  0  0  0  0  0  0  0  0
  149.2721  125.4190  150.8769 C   0  0  0  0  0  0  0  0  0  0  0  0
  148.9999  126.9051  150.5846 C   0  0  0  0  0  0  0  0  0  0  0  0
  146.2401  133.1837  151.5190 C   0  0  0  0  0  0  0  0  0  0  0  0
  145.4838  134.2877  151.6937 N   0  0  0  0  0  0  0  0  0  0  0  0
  143.2197  137.2709  152.2913 H   0  0  0  0  0  0  0  0  0  0  0  0
  144.7482  136.8366  151.5338 H   0  0  0  0  0  0  0  0  0  0  0  0
  144.3980  136.3317  153.2019 H   0  0  0  0  0  0  0  0  0  0  0  0
  142.4423  132.9044  151.0983 H   0  0  0  0  0  0  0  0  0  0  0  0
  143.8330  130.8802  150.7655 H   0  0  0  0  0  0  0  0  0  0  0  0
  147.5134  131.0826  150.6333 H   0  0  0  0  0  0  0  0  0  0  0  0
  148.2847  129.2905  150.5520 H   0  0  0  0  0  0  0  0  0  0  0  0
  146.8764  126.8263  150.8641 H   0  0  0  0  0  0  0  0  0  0  0  0
  148.5565  127.7350  153.2463 H   0  0  0  0  0  0  0  0  0  0  0  0
  146.8376  127.4298  153.2623 H   0  0  0  0  0  0  0  0  0  0  0  0
  148.1231  125.4867  154.1742 H   0  0  0  0  0  0  0  0  0  0  0  0
  147.1832  125.0528  152.7710 H   0  0  0  0  0  0  0  0  0  0  0  0
  149.3751  124.0382  152.5338 H   0  0  0  0  0  0  0  0  0  0  0  0
  150.7517  126.3997  152.4246 H   0  0  0  0  0  0  0  0  0  0  0  0
  150.2065  125.1092  150.4076 H   0  0  0  0  0  0  0  0  0  0  0  0
  148.4873  124.8202  150.4129 H   0  0  0  0  0  0  0  0  0  0  0  0
  148.9213  127.0563  149.5073 H   0  0  0  0  0  0  0  0  0  0  0  0
  149.8494  127.5033  150.9173 H   0  0  0  0  0  0  0  0  0  0  0  0
  147.3050  133.3188  151.6398 H   0  0  0  0  0  0  0  0  0  0  0  0
  1  2  1  0  0  0  0
  1 20  1  0  0  0  0
  1 21  1  0  0  0  0
  1 22  1  0  0  0  0
  2  3  1  0  0  0  0
  3 19  1  0  0  0  0
  3  4  2  0  0  0  0
  4  5  1  0  0  0  0
  4 23  1  0  0  0  0
  5  6  2  0  0  0  0
  5 24  1  0  0  0  0
  6  7  1  0  0  0  0
  6 18  1  0  0  0  0
  7  8  1  0  0  0  0
  7 25  1  0  0  0  0
  8  9  2  0  0  0  0
  8 10  1  0  0  0  0
 10 11  1  0  0  0  0
 10 26  1  0  0  0  0
 11 17  1  0  0  0  0
 11 12  1  0  0  0  0
 11 27  1  0  0  0  0
 12 13  1  0  0  0  0
 12 28  1  0  0  0  0
 12 29  1  0  0  0  0
 13 14  1  0  0  0  0
 13 30  1  0  0  0  0
 13 31  1  0  0  0  0
 14 15  1  0  0  0  0
 14 16  1  0  0  0  0
 14 32  1  0  0  0  0
 15 33  1  0  0  0  0
 16 17  1  0  0  0  0
 16 34  1  0  0  0  0
 16 35  1  0  0  0  0
 17 36  1  0  0  0  0
 17 37  1  0  0  0  0
 18 19  2  0  0  0  0
 18 38  1  0  0  0  0
M  END
> <s_m_source_file>
AV-unprocessed.smi

> <i_m_source_file_index>
1743

> <i_lp_mmshare_version>
43012

> <i_f3d_flags>
0

> <s_epik_input>
W0NIM11PYzFbY0hdW2NIXWMoW2NIXW4xKVtOSF1DKD1PKVtOSF1bQ0BASF0yW0NIMl1bQ0gyXVtDQEBIXShbT0hdKVtDSDJdW0NIMl0y

> <s_epik_cmdline>
J2VwaWtfcHl0aG9uJywgJy1waCcsICc3LjAnLCAnLXRuJywgJzgnLCAnLW1hJywgJzIwMCcsICctbWV0YWxfYmluZGluZycsICctaW1hZScsICc8aW5maWxlLm1hZT4nLCAnLW9tYWUnLCAnPG91dGZpbGUubWFlPic=

> <r_lp_tautomer_probability>
1

> <r_epik_Ionization_Penalty>
9.95686e-05

> <r_epik_Ionization_Penalty_Charging>
0

> <r_epik_Ionization_Penalty_Neutral>
9.95686e-05

> <r_epik_State_Penalty>
-0

> <r_epik_Charging_Adjusted_Penalty>
0

> <i_epik_Tot_Q>
0

> <i_epik_Tot_abs_Q>
0

> <r_epik_Metal_State_Penalty>
-0

> <b_epik_Metal_Only>
0

> <s_lp_Force_Field>
OPLS_2005

> <r_lp_Energy>
13.581

> <b_lp_Chiralities_Consistent>
1

> <s_lp_Variant>
AV-unprocessed.smi:1743-2

> <Gold.Version>
5.8.1

> <Gold.Id.Protein>
6NUR|6NUR_protein|mol2

> <Gold.PLP.Fitness>
42.4907

> <Gold.PLP.PLP>
-35.0352

> <Gold.PLP.part.hbond>
-2.9071

> <Gold.PLP.part.metal>
0.0000

> <Gold.PLP.part.buried>
-5.4865

> <Gold.PLP.part.nonpolar>
-27.4223

> <Gold.PLP.part.repulsive>
0.6300

> <Gold.PLP.ligand.clash>
0.0000

> <Gold.PLP.ligand.torsion>
0.3637

> <Gold.PLP.Chemscore.Hbond>
2.7264

> <Gold.PLP.Chemscore.CHOScore>
0.0000

> <Gold.PLP.Chemscore.Metal>
0.0000

> <Gold.Chemscore.Hbonds>
donor molecule, donor type, donor heavy atom, donor atom, acceptor molecule, acceptor atom, score
      L1  H     7    25       P1 10747  0.98
      L1  H    10    26       P1 10747  0.72
      L1  H    15    33       P1 10737  1.00

> <Gold.PLP.Chemscore.Internal.Correction>
0.0036

> <Gold.Rescore>
     Score         DG    S(hbond)    S(metal)    S(lipo)     H(rot)  DE(clash)    DE(int)     intcor
     17.41     -17.74       2.48        0.00      72.71       1.77       0.02       0.31       ----

> <Gold.Chemscore.Fitness>
17.4113

> <Gold.Chemscore.DG>
-17.7358

> <Gold.Chemscore.ZeroCoef>
-5.4800

> <Gold.Chemscore.Hbond>
2.4801

> <Gold.Chemscore.Metal>
0.0000

> <Gold.Chemscore.Lipo>
72.7088

> <Gold.Chemscore.Internal_Hbond>
0.0000

> <Gold.Chemscore.DEClash>
0.0176

> <Gold.Chemscore.DEInternal>
0.3069

> <Gold.Chemscore.Rot>
1.7714

> <Gold.Chemscore.Internal.Correction>
   9.000000E+99

> <Gold.Chemscore.Hbonds>
donor molecule, donor type, donor heavy atom, donor atom, acceptor molecule, acceptor atom, score
      L1  H     7    25       P1 10747  0.89
      L1  H    10    26       P1 10747  0.10
      L1  H    15    33       P1 10737  0.97

> <Gold.Chemscore.Hbond.Weighted>
-8.2836

> <Gold.Chemscore.Metal.Weighted>
-0.0000

> <Gold.Chemscore.Lipo.Weighted>
-8.5069

> <Gold.Chemscore.Internal_Hbond.Weighted>
0.0000

> <Gold.Chemscore.DEClash.Weighted>
0.0176

> <Gold.Chemscore.DEInternal.Weighted>
0.3069

> <Gold.Chemscore.Rot.Weighted>
4.5347

> <Gold.Chemscore.Internal.Correction.Weighted>
   9.000000E+99

> <Gold.Protein.RotatedTorsions>
[ 6907 6896 6895 6894 ] final  -40.43 input  -60.11 | X-H torsion
[ 7974 7965 7964 7962 ] final   -4.31 input  175.53 | X-H torsion
[ 8008 7997 7996 7995 ] final  169.01 input   59.86 | X-H torsion
[ 10167 10162 10161 10158 ] final -123.58 input  -65.29 | X-H torsion
[ 10718 10713 10712 10709 ] final  -94.95 input   66.30 | X-H torsion
[ 10763 10752 10751 10750 ] final  -38.84 input  -60.55 | X-H torsion
[ 11005 11000 10999 10996 ] final   -9.81 input  -57.11 | X-H torsion

> <Gold.Protein.ActiveResidues>
 VAL166  LYS551  ARG553  GLY616  TRP617  ASP618  TYR619  PRO620  LYS621  CYS622 
 ASP623  PHE694  ASN695  SER759  ASP760  ASP761  ALA762  ILE779  LEU786  VAL792 
 PHE793  MET794  SER795  GLU796  ALA797  LYS798  CYS799  TRP800  GLU811  SER814 

> <Gold.Protein.RotatedAtoms>
  150.9786  134.9145  159.7830 H   0  0  0  0  0  0  0  0  0  0  0  0  # atno 6907 bound_to 6896
  152.5214  134.3442  159.9238 H   0  0  0  0  0  0  0  0  0  0  0  0  # atno 6908 bound_to 6896
  151.3450  133.3907  159.2709 H   0  0  0  0  0  0  0  0  0  0  0  0  # atno 6909 bound_to 6896
  146.2374  140.1851  142.8332 H   0  0  0  0  0  0  0  0  0  0  0  0  # atno 7974 bound_to 7965
  156.1496  140.1575  156.8791 H   0  0  0  0  0  0  0  0  0  0  0  0  # atno 8008 bound_to 7997
  154.5059  140.0813  156.7930 H   0  0  0  0  0  0  0  0  0  0  0  0  # atno 8009 bound_to 7997
  155.3922  140.3410  155.4254 H   0  0  0  0  0  0  0  0  0  0  0  0  # atno 8010 bound_to 7997
  140.0020  143.5531  152.2299 H   0  0  0  0  0  0  0  0  0  0  0  0  # atno 10167 bound_to 10162
  156.0035  130.5089  150.6004 H   0  0  0  0  0  0  0  0  0  0  0  0  # atno 10718 bound_to 10713
  153.9195  135.6784  153.4748 H   0  0  0  0  0  0  0  0  0  0  0  0  # atno 10763 bound_to 10752
  153.1036  135.4816  154.8908 H   0  0  0  0  0  0  0  0  0  0  0  0  # atno 10764 bound_to 10752
  154.7485  135.3179  154.8556 H   0  0  0  0  0  0  0  0  0  0  0  0  # atno 10765 bound_to 10752
  140.7381  133.8693  155.8946 H   0  0  0  0  0  0  0  0  0  0  0  0  # atno 11005 bound_to 11000
  144.9903  140.8540  143.5344 LP  0  0  0  0  0  0  0  0  0  0  0  0  # atno 17320 bound_to 7965
  145.1856  139.2328  143.5269 LP  0  0  0  0  0  0  0  0  0  0  0  0  # atno 17321 bound_to 7965
  139.6265  144.7638  151.2627 LP  0  0  0  0  0  0  0  0  0  0  0  0  # atno 17342 bound_to 10162
  140.7415  143.6554  150.8211 LP  0  0  0  0  0  0  0  0  0  0  0  0  # atno 17343 bound_to 10162
  157.3853  131.0787  151.1441 LP  0  0  0  0  0  0  0  0  0  0  0  0  # atno 17370 bound_to 10713
  157.2150  130.6455  149.5789 LP  0  0  0  0  0  0  0  0  0  0  0  0  # atno 17371 bound_to 10713
  140.9861  134.1341  157.4451 LP  0  0  0  0  0  0  0  0  0  0  0  0  # atno 17394 bound_to 11000
  139.8812  135.0026  156.6136 LP  0  0  0  0  0  0  0  0  0  0  0  0  # atno 17395 bound_to 11000

$$$$
