AV-unprocessed.smi:1047|AV-procd|sdf|4591|dock4
  -GOLD-   22720 3 73D 1   1.00000     0.00000
 Structure written by MMmdl.
 57 59  0  0  0  0  0  0  0  0  3 V2000
  147.6604  132.4619  153.0735 C   0  0  0  0  0  0  0  0  0  0  0  0
  149.1475  132.0927  153.1744 C   0  0  0  0  0  0  0  0  0  0  0  0
  149.8770  132.7595  154.2517 N   0  0  0  0  0  0  0  0  0  0  0  0
  149.4513  132.2638  155.5559 C   0  0  0  0  0  0  0  0  0  0  0  0
  150.2022  132.9553  156.7062 C   0  0  0  0  0  0  0  0  0  0  0  0
  150.0243  134.3648  156.6098 O   0  0  0  0  0  0  0  0  0  0  0  0
  150.4822  134.9006  155.3705 C   0  0  2  0  0  0  0  0  0  0  0  0
  150.2471  136.4170  155.3874 C   0  0  0  0  0  0  0  0  0  0  0  0
  150.7526  137.0478  154.1523 N   0  3  0  0  0  0  0  0  0  0  0  0
  151.1380  138.4643  154.3136 C   0  0  0  0  0  0  0  0  0  0  0  0
  152.3324  138.6149  155.2707 C   0  0  1  0  0  0  0  0  0  0  0  0
  153.2145  139.5915  154.7513 O   0  0  0  0  0  0  0  0  0  0  0  0
  151.8874  139.0201  156.6902 C   0  0  0  0  0  0  0  0  0  0  0  0
  151.3501  140.3876  156.7503 N   0  0  0  0  0  0  0  0  0  0  0  0
  150.5537  141.0446  155.8634 C   0  0  0  0  0  0  0  0  0  0  0  0
  150.3231  142.2905  156.3612 N   0  3  0  0  0  0  0  0  0  0  0  0
  150.9818  142.4333  157.5838 C   0  0  0  0  0  0  0  0  0  0  0  0
  151.0445  143.5088  158.4615 C   0  0  0  0  0  0  0  0  0  0  0  0
  151.8075  143.3375  159.6384 C   0  0  0  0  0  0  0  0  0  0  0  0
  151.8961  144.4937  160.6200 C   0  0  0  0  0  0  0  0  0  0  0  0
  152.4775  142.1149  159.9017 C   0  0  0  0  0  0  0  0  0  0  0  0
  153.2953  141.9422  161.1705 C   0  0  0  0  0  0  0  0  0  0  0  0
  152.4010  141.0321  158.9964 C   0  0  0  0  0  0  0  0  0  0  0  0
  151.6450  141.2169  157.8405 C   0  0  0  0  0  0  0  0  0  0  0  0
  149.7186  134.2113  154.2215 C   0  0  0  0  0  0  0  0  0  0  0  0
  147.2144  132.0124  152.1862 H   0  0  0  0  0  0  0  0  0  0  0  0
  147.5274  133.5416  152.9986 H   0  0  0  0  0  0  0  0  0  0  0  0
  147.0920  132.1091  153.9337 H   0  0  0  0  0  0  0  0  0  0  0  0
  149.2485  131.0108  153.2712 H   0  0  0  0  0  0  0  0  0  0  0  0
  149.6127  132.3524  152.2225 H   0  0  0  0  0  0  0  0  0  0  0  0
  148.3788  132.4222  155.6803 H   0  0  0  0  0  0  0  0  0  0  0  0
  149.6160  131.1873  155.6147 H   0  0  0  0  0  0  0  0  0  0  0  0
  149.8221  132.6124  157.6685 H   0  0  0  0  0  0  0  0  0  0  0  0
  151.2654  132.7119  156.6764 H   0  0  0  0  0  0  0  0  0  0  0  0
  151.5502  134.7018  155.2626 H   0  0  0  0  0  0  0  0  0  0  0  0
  149.1793  136.6236  155.4711 H   0  0  0  0  0  0  0  0  0  0  0  0
  150.7313  136.8648  156.2564 H   0  0  0  0  0  0  0  0  0  0  0  0
  151.5591  136.5279  153.8365 H   0  0  0  0  0  0  0  0  0  0  0  0
  151.3691  138.9007  153.3406 H   0  0  0  0  0  0  0  0  0  0  0  0
  150.2794  139.0077  154.7105 H   0  0  0  0  0  0  0  0  0  0  0  0
  152.8700  137.6673  155.3283 H   0  0  0  0  0  0  0  0  0  0  0  0
  153.6875  139.2179  154.0234 H   0  0  0  0  0  0  0  0  0  0  0  0
  151.1527  138.3221  157.0922 H   0  0  0  0  0  0  0  0  0  0  0  0
  152.7408  138.9855  157.3686 H   0  0  0  0  0  0  0  0  0  0  0  0
  150.1724  140.6497  154.9327 H   0  0  0  0  0  0  0  0  0  0  0  0
  150.5316  144.4368  158.2545 H   0  0  0  0  0  0  0  0  0  0  0  0
  152.9291  144.8257  160.7273 H   0  0  0  0  0  0  0  0  0  0  0  0
  151.5238  144.1946  161.6001 H   0  0  0  0  0  0  0  0  0  0  0  0
  151.3047  145.3468  160.2863 H   0  0  0  0  0  0  0  0  0  0  0  0
  153.7658  140.9596  161.2128 H   0  0  0  0  0  0  0  0  0  0  0  0
  152.6612  142.0460  162.0514 H   0  0  0  0  0  0  0  0  0  0  0  0
  154.0858  142.6914  161.2219 H   0  0  0  0  0  0  0  0  0  0  0  0
  152.9102  140.1030  159.2027 H   0  0  0  0  0  0  0  0  0  0  0  0
  150.0830  134.6082  153.2742 H   0  0  0  0  0  0  0  0  0  0  0  0
  148.6594  134.4678  154.2810 H   0  0  0  0  0  0  0  0  0  0  0  0
  150.0362  136.9898  153.4423 H   0  0  0  0  0  0  0  0  0  0  0  0
  149.7572  142.9906  155.8988 H   0  0  0  0  0  0  0  0  0  0  0  0
  1  2  1  0  0  0  0
  1 26  1  0  0  0  0
  1 27  1  0  0  0  0
  1 28  1  0  0  0  0
  2  3  1  0  0  0  0
  2 29  1  0  0  0  0
  2 30  1  0  0  0  0
  3 25  1  0  0  0  0
  3  4  1  0  0  0  0
  4  5  1  0  0  0  0
  4 31  1  0  0  0  0
  4 32  1  0  0  0  0
  5  6  1  0  0  0  0
  5 33  1  0  0  0  0
  5 34  1  0  0  0  0
  6  7  1  0  0  0  0
  7  8  1  0  0  0  0
  7 25  1  0  0  0  0
  7 35  1  0  0  0  0
  8  9  1  0  0  0  0
  8 36  1  0  0  0  0
  8 37  1  0  0  0  0
  9 10  1  0  0  0  0
  9 38  1  0  0  0  0
  9 56  1  0  0  0  0
 10 11  1  0  0  0  0
 10 39  1  0  0  0  0
 10 40  1  0  0  0  0
 11 12  1  0  0  0  0
 11 13  1  0  0  0  0
 11 41  1  0  0  0  0
 12 42  1  0  0  0  0
 13 14  1  0  0  0  0
 13 43  1  0  0  0  0
 13 44  1  0  0  0  0
 14 24  1  0  0  0  0
 14 15  1  0  0  0  0
 15 16  2  0  0  0  0
 15 45  1  0  0  0  0
 16 17  1  0  0  0  0
 16 57  1  0  0  0  0
 17 24  2  0  0  0  0
 17 18  1  0  0  0  0
 18 19  2  0  0  0  0
 18 46  1  0  0  0  0
 19 20  1  0  0  0  0
 19 21  1  0  0  0  0
 20 47  1  0  0  0  0
 20 48  1  0  0  0  0
 20 49  1  0  0  0  0
 21 22  1  0  0  0  0
 21 23  2  0  0  0  0
 22 50  1  0  0  0  0
 22 51  1  0  0  0  0
 22 52  1  0  0  0  0
 23 24  1  0  0  0  0
 23 53  1  0  0  0  0
 25 54  1  0  0  0  0
 25 55  1  0  0  0  0
M  CHG  1   9   1
M  CHG  1  16   1
M  END
> <s_m_source_file>
AV-unprocessed.smi

> <i_m_source_file_index>
1047

> <i_lp_mmshare_version>
43012

> <i_f3d_flags>
0

> <s_epik_input>
W0NIM11bQ0gyXU4xW0NIMl1bQ0gyXU9bQ0BIXShbQ0gyXTEpW0NIMl1bTkhdW0NIMl1bQ0BIXShbT0hdKVtDSDJdbihbY0hdbjIpYyhjMjMpW2NIXWMoW0NIM10pYyhbY0hdMylbQ0gzXQ==

> <s_epik_cmdline>
J2VwaWtfcHl0aG9uJywgJy1waCcsICc3LjAnLCAnLXRuJywgJzgnLCAnLW1hJywgJzIwMCcsICctbWV0YWxfYmluZGluZycsICctaW1hZScsICc8aW5maWxlLm1hZT4nLCAnLW9tYWUnLCAnPG91dGZpbGUubWFlPic=

> <r_epik_Ionization_Penalty>
1.75732

> <r_epik_Ionization_Penalty_Charging>
1.18089

> <r_epik_Ionization_Penalty_Neutral>
0.576429

> <r_epik_State_Penalty>
1.69377

> <r_epik_Charging_Adjusted_Penalty>
2.87466

> <i_epik_Tot_Q>
2

> <i_epik_Tot_abs_Q>
2

> <r_epik_Metal_State_Penalty>
5.70174

> <b_epik_Metal_Only>
0

> <s_lp_Force_Field>
OPLS_2005

> <r_lp_Energy>
38.6305

> <b_lp_Chiralities_Consistent>
1

> <s_lp_Variant>
AV-unprocessed.smi:1047-32

> <Gold.Version>
5.8.1

> <Gold.Id.Protein>
6NUR|6NUR_protein|mol2

> <Gold.PLP.Fitness>
68.2204

> <Gold.PLP.PLP>
-54.8548

> <Gold.PLP.part.hbond>
-5.0000

> <Gold.PLP.part.metal>
0.0000

> <Gold.PLP.part.buried>
-7.1069

> <Gold.PLP.part.nonpolar>
-44.5341

> <Gold.PLP.part.repulsive>
0.2490

> <Gold.PLP.ligand.clash>
0.0000

> <Gold.PLP.ligand.torsion>
1.0929

> <Gold.PLP.Chemscore.Hbond>
5.1235

> <Gold.PLP.Chemscore.CHOScore>
0.0000

> <Gold.PLP.Chemscore.Metal>
0.0000

> <Gold.Chemscore.Hbonds>
donor molecule, donor type, donor heavy atom, donor atom, acceptor molecule, acceptor atom, score
      L1  H     9    56       P1  7948  1.90
      L1  H    16    57       P1  8028  2.00
      P1  H  7989  7998       L1    12  0.06
      P1  H  7997  8010       L1    12  1.00

> <Gold.PLP.Chemscore.Internal.Correction>
0.1809

> <Gold.Rescore>
     Score         DG    S(hbond)    S(metal)    S(lipo)     H(rot)  DE(clash)    DE(int)     intcor
     21.11     -22.50       2.34        0.00     137.58       2.69       0.30       1.09       ----

> <Gold.Chemscore.Fitness>
21.1122

> <Gold.Chemscore.DG>
-22.4982

> <Gold.Chemscore.ZeroCoef>
-5.4800

> <Gold.Chemscore.Hbond>
2.3389

> <Gold.Chemscore.Metal>
0.0000

> <Gold.Chemscore.Lipo>
137.5802

> <Gold.Chemscore.Internal_Hbond>
0.0000

> <Gold.Chemscore.DEClash>
0.3003

> <Gold.Chemscore.DEInternal>
1.0857

> <Gold.Chemscore.Rot>
2.6917

> <Gold.Chemscore.Internal.Correction>
   9.000000E+99

> <Gold.Chemscore.Hbonds>
donor molecule, donor type, donor heavy atom, donor atom, acceptor molecule, acceptor atom, score
      L1  H     9    38       P1  7949  0.01
      L1  H     9    56       P1  7948  0.20
      L1  H    16    57       P1  8028  0.98
      P1  H  7997  8010       L1    12  0.25

> <Gold.Chemscore.Hbond.Weighted>
-7.8120

> <Gold.Chemscore.Metal.Weighted>
-0.0000

> <Gold.Chemscore.Lipo.Weighted>
-16.0969

> <Gold.Chemscore.Internal_Hbond.Weighted>
0.0000

> <Gold.Chemscore.DEClash.Weighted>
0.3003

> <Gold.Chemscore.DEInternal.Weighted>
1.0857

> <Gold.Chemscore.Rot.Weighted>
6.8907

> <Gold.Chemscore.Internal.Correction.Weighted>
   9.000000E+99

> <Gold.Protein.RotatedTorsions>
[ 6907 6896 6895 6894 ] final  134.00 input  -60.11 | X-H torsion
[ 7974 7965 7964 7962 ] final -144.37 input  175.53 | X-H torsion
[ 8008 7997 7996 7995 ] final  116.70 input   59.86 | X-H torsion
[ 10167 10162 10161 10158 ] final -179.91 input  -65.29 | X-H torsion
[ 10718 10713 10712 10709 ] final   36.81 input   66.30 | X-H torsion
[ 10763 10752 10751 10750 ] final -125.15 input  -60.55 | X-H torsion
[ 11005 11000 10999 10996 ] final -148.97 input  -57.11 | X-H torsion

> <Gold.Protein.ActiveResidues>
 VAL166  LYS551  ARG553  GLY616  TRP617  ASP618  TYR619  PRO620  LYS621  CYS622 
 ASP623  PHE694  ASN695  SER759  ASP760  ASP761  ALA762  ILE779  LEU786  VAL792 
 PHE793  MET794  SER795  GLU796  ALA797  LYS798  CYS799  TRP800  GLU811  SER814 

> <Gold.Protein.RotatedAtoms>
  152.3160  133.5803  159.5712 H   0  0  0  0  0  0  0  0  0  0  0  0  # atno 6907 bound_to 6896
  150.7347  134.0082  159.3669 H   0  0  0  0  0  0  0  0  0  0  0  0  # atno 6908 bound_to 6896
  151.7970  135.0720  160.0446 H   0  0  0  0  0  0  0  0  0  0  0  0  # atno 6909 bound_to 6896
  144.8302  140.5718  143.5520 H   0  0  0  0  0  0  0  0  0  0  0  0  # atno 7974 bound_to 7965
  156.2453  140.2912  156.0563 H   0  0  0  0  0  0  0  0  0  0  0  0  # atno 8008 bound_to 7997
  155.1825  140.0404  157.2902 H   0  0  0  0  0  0  0  0  0  0  0  0  # atno 8009 bound_to 7997
  154.6250  140.2485  155.7510 H   0  0  0  0  0  0  0  0  0  0  0  0  # atno 8010 bound_to 7997
  139.5365  144.2482  152.0805 H   0  0  0  0  0  0  0  0  0  0  0  0  # atno 10167 bound_to 10162
  157.3394  130.7540  149.6901 H   0  0  0  0  0  0  0  0  0  0  0  0  # atno 10718 bound_to 10713
  154.8732  135.4039  154.3221 H   0  0  0  0  0  0  0  0  0  0  0  0  # atno 10763 bound_to 10752
  153.4048  135.7019  153.6406 H   0  0  0  0  0  0  0  0  0  0  0  0  # atno 10764 bound_to 10752
  153.5133  135.3702  155.2568 H   0  0  0  0  0  0  0  0  0  0  0  0  # atno 10765 bound_to 10752
  140.7556  134.3356  157.5115 H   0  0  0  0  0  0  0  0  0  0  0  0  # atno 11005 bound_to 11000
  145.4912  139.1488  143.3708 LP  0  0  0  0  0  0  0  0  0  0  0  0  # atno 17320 bound_to 7965
  146.2605  140.5050  142.8855 LP  0  0  0  0  0  0  0  0  0  0  0  0  # atno 17321 bound_to 7965
  140.1954  144.4711  150.6458 LP  0  0  0  0  0  0  0  0  0  0  0  0  # atno 17342 bound_to 10162
  140.6574  143.2242  151.5936 LP  0  0  0  0  0  0  0  0  0  0  0  0  # atno 17343 bound_to 10162
  155.9705  130.4172  150.4267 LP  0  0  0  0  0  0  0  0  0  0  0  0  # atno 17370 bound_to 10713
  157.2313  131.0504  151.2491 LP  0  0  0  0  0  0  0  0  0  0  0  0  # atno 17371 bound_to 10713
  139.8779  134.9170  156.3168 LP  0  0  0  0  0  0  0  0  0  0  0  0  # atno 17394 bound_to 11000
  140.9710  133.7327  156.0535 LP  0  0  0  0  0  0  0  0  0  0  0  0  # atno 17395 bound_to 11000

$$$$
