#       Name:                AV-unprocessed.smi:1242
#       Creating user name   scv26
#       Creation time:       Fri Mar 27 04:31:11 2020


#       File generated by GOLD software.
#

@<TRIPOS>MOLECULE
AV-unprocessed.smi:1242
    45    46     1
SMALL
NO_CHARGES


@<TRIPOS>ATOM
      1 ****        -0.1671   0.8553   0.4886 O.2            1 S1                 0.0000
      2 ****         0.5051   0.0145  -0.1106 C.2            1 S1                 0.0000
      3 ****         2.0179   0.1959  -0.3018 C.3            1 S1                 0.0000
      4 ****         2.5785   1.3351   0.4445 N.am           1 S1                 0.0000
      5 ****         2.7611   2.5384  -0.2651 C.2            1 S1                 0.0000
      6 ****         3.2576   3.6552   0.3005 C.2            1 S1                 0.0000
      7 ****         3.4939   4.9211  -0.5085 C.3            1 S1                 0.0000
      8 ****         4.4550   5.6683   0.0355 F              1 S1                 0.0000
      9 ****         3.8487   4.6298  -1.7605 F              1 S1                 0.0000
     10 ****         2.3773   5.6467  -0.5525 F              1 S1                 0.0000
     11 ****         3.6351   3.5579   1.6971 C.2            1 S1                 0.0000
     12 ****         3.4721   2.4133   2.3891 C.2            1 S1                 0.0000
     13 ****         2.9099   1.2134   1.7652 C.2            1 S1                 0.0000
     14 ****         2.7484   0.1645   2.3895 O.2            1 S1                 0.0000
     15 ****        -0.0161  -1.1023  -0.6408 N.am           1 S1                 0.0000
     16 ****        -1.4238  -1.4983  -0.5964 C.3            1 S1                 0.0000
     17 ****        -1.7611  -2.1564   0.7676 C.3            1 S1                 0.0000
     18 ****        -2.9256  -3.1690   0.7673 C.3            1 S1                 0.0000
     19 ****        -4.2638  -2.6442   0.2091 C.3            1 S1                 0.0000
     20 ****        -4.2252  -2.0154  -1.2034 C.3            1 S1                 0.0000
     21 ****        -3.1450  -2.5167  -2.0517 N.am           1 S1                 0.0000
     22 ****        -1.8337  -2.3050  -1.8449 C.2            1 S1                 0.0000
     23 ****        -0.9833  -2.7542  -2.6124 O.2            1 S1                 0.0000
     24 ****         2.5248  -0.7272  -0.0140 H              1 S1                 0.0000
     25 ****         2.2149   0.3053  -1.3692 H              1 S1                 0.0000
     26 ****         2.4683   2.4971  -1.3043 H              1 S1                 0.0000
     27 ****         4.0521   4.4184   2.1994 H              1 S1                 0.0000
     28 ****         3.7625   2.3779   3.4288 H              1 S1                 0.0000
     29 ****         0.6089  -1.7314  -1.1243 H              1 S1                 0.0000
     30 ****        -1.9984  -0.5735  -0.6615 H              1 S1                 0.0000
     31 ****        -0.8797  -2.6781   1.1436 H              1 S1                 0.0000
     32 ****        -1.9675  -1.3713   1.4961 H              1 S1                 0.0000
     33 ****        -2.6286  -4.0600   0.2122 H              1 S1                 0.0000
     34 ****        -3.0861  -3.5157   1.7886 H              1 S1                 0.0000
     35 ****        -4.9627  -3.4811   0.1929 H              1 S1                 0.0000
     36 ****        -4.6912  -1.9217   0.9050 H              1 S1                 0.0000
     37 ****        -5.1736  -2.1993  -1.7087 H              1 S1                 0.0000
     38 ****        -4.1475  -0.9303  -1.1278 H              1 S1                 0.0000
     39 ****        -3.4133  -3.0561  -2.8622 H              1 S1                 0.0000
     40 ****         0.2714   1.6735   0.8605 LP             1 S1                 0.0000
     41 ****        -1.1512   0.7196   0.6031 LP             1 S1                 0.0000
     42 ****         2.3628  -0.6361   1.9308 LP             1 S1                 0.0000
     43 ****         3.0029   0.1132   3.3552 LP             1 S1                 0.0000
     44 ****        -0.0126  -2.5978  -2.4300 LP             1 S1                 0.0000
     45 ****        -1.2628  -3.2757  -3.4185 LP             1 S1                 0.0000
@<TRIPOS>BOND
    1    1    2 2     
    2    2    3 1     
    3    2   15 am    
    4    3    4 1     
    5    3   24 1     
    6    3   25 1     
    7    4   13 am    
    8    4    5 1     
    9    5    6 2     
   10    5   26 1     
   11    6    7 1     
   12    6   11 1     
   13    7    8 1     
   14    7    9 1     
   15    7   10 1     
   16   11   12 2     
   17   11   27 1     
   18   12   13 1     
   19   12   28 1     
   20   13   14 2     
   21   15   16 1     
   22   15   29 1     
   23   16   22 1     
   24   16   17 1     
   25   16   30 1     
   26   17   18 1     
   27   17   31 1     
   28   17   32 1     
   29   18   19 1     
   30   18   33 1     
   31   18   34 1     
   32   19   20 1     
   33   19   35 1     
   34   19   36 1     
   35   20   21 1     
   36   20   37 1     
   37   20   38 1     
   38   21   22 am    
   39   21   39 1     
   40   22   23 2     
   41    1   40 1     
   42    1   41 1     
   43   14   42 1     
   44   14   43 1     
   45   23   44 1     
   46   23   45 1     
@<TRIPOS>SUBSTRUCTURE
      1 S1             1
@<TRIPOS>SET
LONE_PAIRS      STATIC     ATOMS    <user>   **** ""
6 40 41 42 43 44 45
DONOR_HYDROGENS      STATIC     ATOMS    <user>   **** ""
2 29 39
ATOM$BLUE        STATIC     ATOMS    COLORGROUP SYSTEM
6 40 41 42 43 44 45
ATOM$RED        STATIC     ATOMS    COLORGROUP SYSTEM
2 29 39
