AV-unprocessed.smi:308|AV-procd|sdf|2287|dock7
  -GOLD-   2262022183D 1   1.00000     0.00000
 Structure written by MMmdl.
 50 51  0  0  0  0  0  0  0  0  2 V2000
  146.1328  132.2095  151.5445 C   0  0  0  0  0  0  0  0  0  0  0  0
  145.6977  133.6164  151.9774 C   0  0  2  0  0  0  0  0  0  0  0  0
  145.6963  134.6025  150.7975 C   0  0  0  0  0  0  0  0  0  0  0  0
  145.2862  136.0140  151.2505 C   0  0  0  0  0  0  0  0  0  0  0  0
  146.1682  136.5090  152.3385 N   0  3  1  0  0  0  0  0  0  0  0  0
  145.8712  137.9179  152.7046 C   0  0  0  0  0  0  0  0  0  0  0  0
  146.9277  138.9207  152.1919 C   0  0  0  0  0  0  0  0  0  0  0  0
  148.1535  138.9193  152.9867 N   0  0  0  0  0  0  0  0  0  0  0  0
  148.4823  139.8497  153.8942 C   0  0  0  0  0  0  0  0  0  0  0  0
  147.7799  140.8297  154.1372 O   0  0  0  0  0  0  0  0  0  0  0  0
  149.6564  139.5593  154.4804 N   0  0  0  0  0  0  0  0  0  0  0  0
  150.3612  140.2690  155.4919 C   0  0  0  0  0  0  0  0  0  0  0  0
  151.3165  139.7031  156.3685 C   0  0  0  0  0  0  0  0  0  0  0  0
  151.9366  140.5261  157.3284 C   0  0  0  0  0  0  0  0  0  0  0  0
  151.5883  141.8976  157.3996 C   0  0  0  0  0  0  0  0  0  0  0  0
  152.1846  142.7630  158.3453 N   0  0  0  0  0  0  0  0  0  0  0  0
  152.8458  142.2084  159.5222 C   0  0  0  0  0  0  0  0  0  0  0  0
  152.0460  144.2072  158.2052 C   0  0  0  0  0  0  0  0  0  0  0  0
  150.6649  142.4310  156.5634 N   0  0  0  0  0  0  0  0  0  0  0  0
  150.0752  141.6400  155.6440 C   0  0  0  0  0  0  0  0  0  0  0  0
  146.1673  135.5890  153.5062 C   0  0  0  0  0  0  0  0  0  0  0  0
  146.5953  134.1699  153.0961 C   0  0  0  0  0  0  0  0  0  0  0  0
  147.1487  132.2113  151.1484 H   0  0  0  0  0  0  0  0  0  0  0  0
  145.4743  131.8156  150.7699 H   0  0  0  0  0  0  0  0  0  0  0  0
  146.1042  131.5149  152.3845 H   0  0  0  0  0  0  0  0  0  0  0  0
  144.6790  133.5440  152.3619 H   0  0  0  0  0  0  0  0  0  0  0  0
  146.6876  134.6396  150.3431 H   0  0  0  0  0  0  0  0  0  0  0  0
  145.0143  134.2552  150.0206 H   0  0  0  0  0  0  0  0  0  0  0  0
  145.3400  136.6911  150.3969 H   0  0  0  0  0  0  0  0  0  0  0  0
  144.2498  136.0144  151.5921 H   0  0  0  0  0  0  0  0  0  0  0  0
  144.9081  138.1958  152.2747 H   0  0  0  0  0  0  0  0  0  0  0  0
  145.7534  138.0067  153.7854 H   0  0  0  0  0  0  0  0  0  0  0  0
  147.1654  138.7103  151.1480 H   0  0  0  0  0  0  0  0  0  0  0  0
  146.5235  139.9326  152.2057 H   0  0  0  0  0  0  0  0  0  0  0  0
  148.7819  138.1395  152.8567 H   0  0  0  0  0  0  0  0  0  0  0  0
  150.0900  138.6954  154.1890 H   0  0  0  0  0  0  0  0  0  0  0  0
  151.5879  138.6603  156.3379 H   0  0  0  0  0  0  0  0  0  0  0  0
  152.6639  140.0863  157.9938 H   0  0  0  0  0  0  0  0  0  0  0  0
  152.1296  141.6742  160.1472 H   0  0  0  0  0  0  0  0  0  0  0  0
  153.3014  142.9915  160.1281 H   0  0  0  0  0  0  0  0  0  0  0  0
  153.6353  141.5156  159.2291 H   0  0  0  0  0  0  0  0  0  0  0  0
  152.5481  144.5542  157.3017 H   0  0  0  0  0  0  0  0  0  0  0  0
  152.4860  144.7320  159.0535 H   0  0  0  0  0  0  0  0  0  0  0  0
  150.9939  144.4889  158.1512 H   0  0  0  0  0  0  0  0  0  0  0  0
  149.3492  142.1226  155.0059 H   0  0  0  0  0  0  0  0  0  0  0  0
  146.8500  135.9538  154.2730 H   0  0  0  0  0  0  0  0  0  0  0  0
  145.1721  135.5663  153.9535 H   0  0  0  0  0  0  0  0  0  0  0  0
  146.5591  133.5109  153.9644 H   0  0  0  0  0  0  0  0  0  0  0  0
  147.6346  134.1855  152.7640 H   0  0  0  0  0  0  0  0  0  0  0  0
  147.1057  136.5070  151.9624 H   0  0  0  0  0  0  0  0  0  0  0  0
  1  2  1  0  0  0  0
  1 23  1  0  0  0  0
  1 24  1  0  0  0  0
  1 25  1  0  0  0  0
  2 22  1  0  0  0  0
  2  3  1  0  0  0  0
  2 26  1  0  0  0  0
  3  4  1  0  0  0  0
  3 27  1  0  0  0  0
  3 28  1  0  0  0  0
  4  5  1  0  0  0  0
  4 29  1  0  0  0  0
  4 30  1  0  0  0  0
  5  6  1  0  0  0  0
  5 21  1  0  0  0  0
  5 50  1  0  0  0  0
  6  7  1  0  0  0  0
  6 31  1  0  0  0  0
  6 32  1  0  0  0  0
  7  8  1  0  0  0  0
  7 33  1  0  0  0  0
  7 34  1  0  0  0  0
  8  9  1  0  0  0  0
  8 35  1  0  0  0  0
  9 10  2  0  0  0  0
  9 11  1  0  0  0  0
 11 12  1  0  0  0  0
 11 36  1  0  0  0  0
 12 20  1  0  0  0  0
 12 13  2  0  0  0  0
 13 14  1  0  0  0  0
 13 37  1  0  0  0  0
 14 15  2  0  0  0  0
 14 38  1  0  0  0  0
 15 16  1  0  0  0  0
 15 19  1  0  0  0  0
 16 17  1  0  0  0  0
 16 18  1  0  0  0  0
 17 39  1  0  0  0  0
 17 40  1  0  0  0  0
 17 41  1  0  0  0  0
 18 42  1  0  0  0  0
 18 43  1  0  0  0  0
 18 44  1  0  0  0  0
 19 20  2  0  0  0  0
 20 45  1  0  0  0  0
 21 22  1  0  0  0  0
 21 46  1  0  0  0  0
 21 47  1  0  0  0  0
 22 48  1  0  0  0  0
 22 49  1  0  0  0  0
M  CHG  1   5   1
M  END
> <s_m_source_file>
AV-unprocessed.smi

> <i_m_source_file_index>
308

> <i_lp_mmshare_version>
43012

> <i_f3d_flags>
0

> <s_epik_input>
W0NIM11bQ0hdMVtDSDJdW0NIMl1OKFtDSDJdW0NIMl0xKVtDSDJdW0NIMl1bTkhdQyg9TylbTkhdYzJbY0hdW2NIXWMoTihbQ0gzXSlbQ0gzXSluW2NIXTI=

> <s_epik_cmdline>
J2VwaWtfcHl0aG9uJywgJy1waCcsICc3LjAnLCAnLXRuJywgJzgnLCAnLW1hJywgJzIwMCcsICctbWV0YWxfYmluZGluZycsICctaW1hZScsICc8aW5maWxlLm1hZT4nLCAnLW9tYWUnLCAnPG91dGZpbGUubWFlPic=

> <r_lp_tautomer_probability>
1

> <r_epik_Ionization_Penalty>
0.536661

> <r_epik_Ionization_Penalty_Charging>
0.00139388

> <r_epik_Ionization_Penalty_Neutral>
0.535267

> <r_epik_State_Penalty>
0.543381

> <r_epik_Charging_Adjusted_Penalty>
0.544775

> <i_epik_Tot_Q>
1

> <i_epik_Tot_abs_Q>
1

> <r_epik_Metal_State_Penalty>
0.284523

> <b_epik_Metal_Only>
0

> <s_lp_Force_Field>
OPLS_2005

> <r_lp_Energy>
27.2838

> <b_lp_Chiralities_Consistent>
1

> <s_lp_Variant>
AV-unprocessed.smi:308-3

> <Gold.Version>
5.8.1

> <Gold.Id.Protein>
6NUR|6NUR_protein|mol2

> <Gold.PLP.Fitness>
48.6930

> <Gold.PLP.PLP>
-41.8124

> <Gold.PLP.part.hbond>
-3.0000

> <Gold.PLP.part.metal>
0.0000

> <Gold.PLP.part.buried>
-2.6088

> <Gold.PLP.part.nonpolar>
-36.4654

> <Gold.PLP.part.repulsive>
1.0629

> <Gold.PLP.ligand.clash>
0.0000

> <Gold.PLP.ligand.torsion>
1.1082

> <Gold.PLP.Chemscore.Hbond>
2.6339

> <Gold.PLP.Chemscore.CHOScore>
0.3855

> <Gold.PLP.Chemscore.Metal>
0.0000

> <Gold.Chemscore.Hbonds>
donor molecule, donor type, donor heavy atom, donor atom, acceptor molecule, acceptor atom, score
      L1  H     5    50       P1  7948  2.00
      L1  H     8    35       P1  7948  0.65
      L1  C    20    45       P1  8028  0.38

> <Gold.PLP.Chemscore.Internal.Correction>
0.0388

> <Gold.Rescore>
     Score         DG    S(hbond)    S(metal)    S(lipo)     H(rot)  DE(clash)    DE(int)     intcor
     16.38     -18.89       1.83        0.00      93.45       1.42       0.15       2.36       ----

> <Gold.Chemscore.Fitness>
16.3824

> <Gold.Chemscore.DG>
-18.8886

> <Gold.Chemscore.ZeroCoef>
-5.4800

> <Gold.Chemscore.Hbond>
1.8324

> <Gold.Chemscore.Metal>
0.0000

> <Gold.Chemscore.Lipo>
93.4542

> <Gold.Chemscore.Internal_Hbond>
0.0000

> <Gold.Chemscore.DEClash>
0.1458

> <Gold.Chemscore.DEInternal>
2.3604

> <Gold.Chemscore.Rot>
1.4241

> <Gold.Chemscore.Internal.Correction>
   9.000000E+99

> <Gold.Chemscore.Hbonds>
donor molecule, donor type, donor heavy atom, donor atom, acceptor molecule, acceptor atom, score
      L1  H     5    50       P1  7948  1.00
      L1  H     8    35       P1  7948  0.63

> <Gold.Chemscore.Hbond.Weighted>
-6.1201

> <Gold.Chemscore.Metal.Weighted>
-0.0000

> <Gold.Chemscore.Lipo.Weighted>
-10.9341

> <Gold.Chemscore.Internal_Hbond.Weighted>
0.0000

> <Gold.Chemscore.DEClash.Weighted>
0.1458

> <Gold.Chemscore.DEInternal.Weighted>
2.3604

> <Gold.Chemscore.Rot.Weighted>
3.6456

> <Gold.Chemscore.Internal.Correction.Weighted>
   9.000000E+99

> <Gold.Protein.RotatedTorsions>
[ 6907 6896 6895 6894 ] final   97.86 input  -60.11 | X-H torsion
[ 7974 7965 7964 7962 ] final  -13.18 input  175.53 | X-H torsion
[ 8008 7997 7996 7995 ] final   11.73 input   59.86 | X-H torsion
[ 10167 10162 10161 10158 ] final   52.08 input  -65.29 | X-H torsion
[ 10718 10713 10712 10709 ] final  172.31 input   66.30 | X-H torsion
[ 10763 10752 10751 10750 ] final   92.98 input  -60.55 | X-H torsion
[ 11005 11000 10999 10996 ] final  -73.01 input  -57.11 | X-H torsion

> <Gold.Protein.ActiveResidues>
 VAL166  LYS551  ARG553  GLY616  TRP617  ASP618  TYR619  PRO620  LYS621  CYS622 
 ASP623  PHE694  ASN695  SER759  ASP760  ASP761  ALA762  ILE779  LEU786  VAL792 
 PHE793  MET794  SER795  GLU796  ALA797  LYS798  CYS799  TRP800  GLU811  SER814 

> <Gold.Protein.RotatedAtoms>
  152.5418  134.0669  159.8176 H   0  0  0  0  0  0  0  0  0  0  0  0  # atno 6907 bound_to 6896
  151.0789  133.5398  159.2629 H   0  0  0  0  0  0  0  0  0  0  0  0  # atno 6908 bound_to 6896
  151.2233  135.0535  159.9012 H   0  0  0  0  0  0  0  0  0  0  0  0  # atno 6909 bound_to 6896
  146.2124  140.3166  142.8387 H   0  0  0  0  0  0  0  0  0  0  0  0  # atno 7974 bound_to 7965
  154.8109  140.2868  155.5854 H   0  0  0  0  0  0  0  0  0  0  0  0  # atno 8008 bound_to 7997
  156.2988  140.2568  156.2926 H   0  0  0  0  0  0  0  0  0  0  0  0  # atno 8009 bound_to 7997
  154.9449  140.0380  157.2105 H   0  0  0  0  0  0  0  0  0  0  0  0  # atno 8010 bound_to 7997
  140.2552  144.3435  150.6335 H   0  0  0  0  0  0  0  0  0  0  0  0  # atno 10167 bound_to 10162
  156.9807  131.0118  151.2882 H   0  0  0  0  0  0  0  0  0  0  0  0  # atno 10718 bound_to 10713
  153.2252  135.4342  155.0534 H   0  0  0  0  0  0  0  0  0  0  0  0  # atno 10763 bound_to 10752
  154.8270  135.3366  154.6868 H   0  0  0  0  0  0  0  0  0  0  0  0  # atno 10764 bound_to 10752
  153.7298  135.7011  153.5048 H   0  0  0  0  0  0  0  0  0  0  0  0  # atno 10765 bound_to 10752
  141.1617  133.6865  156.7147 H   0  0  0  0  0  0  0  0  0  0  0  0  # atno 11005 bound_to 11000
  144.8950  140.7571  143.5903 LP  0  0  0  0  0  0  0  0  0  0  0  0  # atno 17320 bound_to 7965
  145.3090  139.1825  143.4649 LP  0  0  0  0  0  0  0  0  0  0  0  0  # atno 17321 bound_to 7965
  140.6009  143.2167  151.7073 LP  0  0  0  0  0  0  0  0  0  0  0  0  # atno 17342 bound_to 10162
  139.5034  144.3794  152.0391 LP  0  0  0  0  0  0  0  0  0  0  0  0  # atno 17343 bound_to 10162
  157.5528  130.8193  149.8166 LP  0  0  0  0  0  0  0  0  0  0  0  0  # atno 17370 bound_to 10713
  156.0245  130.3784  150.1863 LP  0  0  0  0  0  0  0  0  0  0  0  0  # atno 17371 bound_to 10713
  140.2861  134.8278  157.3976 LP  0  0  0  0  0  0  0  0  0  0  0  0  # atno 17394 bound_to 11000
  140.1389  134.4998  155.8047 LP  0  0  0  0  0  0  0  0  0  0  0  0  # atno 17395 bound_to 11000

$$$$
