AV-unprocessed.smi:2065|AV-procd|sdf|8417|dock1
  -GOLD-   2272011113D 1   1.00000     0.00000
 Structure written by MMmdl.
 38 39  0  0  0  0  0  0  0  0  1 V2000
  153.7641  141.6159  161.5629 C   0  0  0  0  0  0  0  0  0  0  0  0
  152.9473  142.2926  160.5023 C   0  0  0  0  0  0  0  0  0  0  0  0
  152.1127  141.6873  159.5183 C   0  0  0  0  0  0  0  0  0  0  0  0
  151.6228  142.7661  158.8345 C   0  0  0  0  0  0  0  0  0  0  0  0
  150.7611  142.7931  157.7837 N   0  0  0  0  0  0  0  0  0  0  0  0
  150.0721  141.7772  157.2360 C   0  0  0  0  0  0  0  0  0  0  0  0
  150.1121  140.6039  157.6075 O   0  0  0  0  0  0  0  0  0  0  0  0
  149.3226  142.2029  156.2091 N   0  0  0  0  0  0  0  0  0  0  0  0
  148.4337  141.3721  155.3975 C   0  0  2  0  0  0  0  0  0  0  0  0
  147.4167  140.6200  156.2941 C   0  0  0  0  0  0  0  0  0  0  0  0
  146.8298  139.3187  155.7084 C   0  0  0  0  0  0  0  0  0  0  0  0
  146.1955  139.4467  154.3086 C   0  0  0  0  0  0  0  0  0  0  0  0
  147.0902  140.0323  153.1893 C   0  0  0  0  0  0  0  0  0  0  0  0
  148.5262  139.8869  153.4246 N   0  0  0  0  0  0  0  0  0  0  0  0
  149.2178  140.4906  154.4065 C   0  0  0  0  0  0  0  0  0  0  0  0
  150.4320  140.3317  154.5283 O   0  0  0  0  0  0  0  0  0  0  0  0
  152.1389  143.9163  159.3883 N   0  0  0  0  0  0  0  0  0  0  0  0
  151.9131  145.2991  159.0154 C   0  0  0  0  0  0  0  0  0  0  0  0
  152.9591  143.6184  160.4191 N   0  0  0  0  0  0  0  0  0  0  0  0
  153.6087  140.5369  161.5510 H   0  0  0  0  0  0  0  0  0  0  0  0
  153.4965  141.9777  162.5560 H   0  0  0  0  0  0  0  0  0  0  0  0
  154.8284  141.7991  161.4150 H   0  0  0  0  0  0  0  0  0  0  0  0
  151.9178  140.6371  159.3613 H   0  0  0  0  0  0  0  0  0  0  0  0
  150.6327  143.6984  157.3563 H   0  0  0  0  0  0  0  0  0  0  0  0
  149.3484  143.1853  155.9771 H   0  0  0  0  0  0  0  0  0  0  0  0
  147.8663  142.0632  154.7728 H   0  0  0  0  0  0  0  0  0  0  0  0
  147.8911  140.3657  157.2431 H   0  0  0  0  0  0  0  0  0  0  0  0
  146.6012  141.2986  156.5475 H   0  0  0  0  0  0  0  0  0  0  0  0
  147.6044  138.5509  155.6833 H   0  0  0  0  0  0  0  0  0  0  0  0
  146.0774  138.9355  156.3984 H   0  0  0  0  0  0  0  0  0  0  0  0
  145.8738  138.4505  154.0031 H   0  0  0  0  0  0  0  0  0  0  0  0
  145.2818  140.0385  154.3755 H   0  0  0  0  0  0  0  0  0  0  0  0
  146.8472  139.5517  152.2414 H   0  0  0  0  0  0  0  0  0  0  0  0
  146.8595  141.0878  153.0410 H   0  0  0  0  0  0  0  0  0  0  0  0
  149.0368  139.2980  152.7823 H   0  0  0  0  0  0  0  0  0  0  0  0
  152.1342  145.4338  157.9562 H   0  0  0  0  0  0  0  0  0  0  0  0
  152.5535  145.9640  159.5966 H   0  0  0  0  0  0  0  0  0  0  0  0
  150.8707  145.5611  159.1983 H   0  0  0  0  0  0  0  0  0  0  0  0
  1  2  1  0  0  0  0
  1 20  1  0  0  0  0
  1 21  1  0  0  0  0
  1 22  1  0  0  0  0
  2 19  2  0  0  0  0
  2  3  1  0  0  0  0
  3  4  2  0  0  0  0
  3 23  1  0  0  0  0
  4  5  1  0  0  0  0
  4 17  1  0  0  0  0
  5  6  1  0  0  0  0
  5 24  1  0  0  0  0
  6  7  2  0  0  0  0
  6  8  1  0  0  0  0
  8  9  1  0  0  0  0
  8 25  1  0  0  0  0
  9 15  1  0  0  0  0
  9 10  1  0  0  0  0
  9 26  1  0  0  0  0
 10 11  1  0  0  0  0
 10 27  1  0  0  0  0
 10 28  1  0  0  0  0
 11 12  1  0  0  0  0
 11 29  1  0  0  0  0
 11 30  1  0  0  0  0
 12 13  1  0  0  0  0
 12 31  1  0  0  0  0
 12 32  1  0  0  0  0
 13 14  1  0  0  0  0
 13 33  1  0  0  0  0
 13 34  1  0  0  0  0
 14 15  1  0  0  0  0
 14 35  1  0  0  0  0
 15 16  2  0  0  0  0
 17 18  1  0  0  0  0
 17 19  1  0  0  0  0
 18 36  1  0  0  0  0
 18 37  1  0  0  0  0
 18 38  1  0  0  0  0
M  END
> <s_m_source_file>
AV-unprocessed.smi

> <i_m_source_file_index>
2065

> <i_lp_mmshare_version>
43012

> <i_f3d_flags>
0

> <s_epik_input>
W0NIM11jMVtjSF1jKG4objEpW0NIM10pW05IXUMoPU8pW05IXVtDQEBIXTJbQ0gyXVtDSDJdW0NIMl1bQ0gyXVtOSF1DMj1P

> <s_epik_cmdline>
J2VwaWtfcHl0aG9uJywgJy1waCcsICc3LjAnLCAnLXRuJywgJzgnLCAnLW1hJywgJzIwMCcsICctbWV0YWxfYmluZGluZycsICctaW1hZScsICc8aW5maWxlLm1hZT4nLCAnLW9tYWUnLCAnPG91dGZpbGUubWFlPic=

> <r_lp_tautomer_probability>
1

> <r_epik_Ionization_Penalty>
8.1752e-05

> <r_epik_Ionization_Penalty_Charging>
0

> <r_epik_Ionization_Penalty_Neutral>
8.1752e-05

> <r_epik_State_Penalty>
-0

> <r_epik_Charging_Adjusted_Penalty>
0

> <i_epik_Tot_Q>
0

> <i_epik_Tot_abs_Q>
0

> <r_epik_Metal_State_Penalty>
-0

> <b_epik_Metal_Only>
0

> <s_lp_Force_Field>
OPLS_2005

> <r_lp_Energy>
15.6016

> <b_lp_Chiralities_Consistent>
1

> <s_lp_Variant>
AV-unprocessed.smi:2065-1

> <Gold.Version>
5.8.1

> <Gold.Id.Protein>
6NUR|6NUR_protein|mol2

> <Gold.PLP.Fitness>
42.4930

> <Gold.PLP.PLP>
-35.5353

> <Gold.PLP.part.hbond>
-2.9357

> <Gold.PLP.part.metal>
0.0000

> <Gold.PLP.part.buried>
-4.8152

> <Gold.PLP.part.nonpolar>
-28.5648

> <Gold.PLP.part.repulsive>
0.3525

> <Gold.PLP.ligand.clash>
0.0000

> <Gold.PLP.ligand.torsion>
0.1232

> <Gold.PLP.Chemscore.Hbond>
2.3840

> <Gold.PLP.Chemscore.CHOScore>
0.0000

> <Gold.PLP.Chemscore.Metal>
0.0000

> <Gold.Chemscore.Hbonds>
donor molecule, donor type, donor heavy atom, donor atom, acceptor molecule, acceptor atom, score
      L1  H     8    25       P1  8028  1.00
      L1  H    14    35       P1  7957  0.38
      P1  H  7989  7998       L1    16  1.00

> <Gold.PLP.Chemscore.Internal.Correction>
0.0520

> <Gold.Rescore>
     Score         DG    S(hbond)    S(metal)    S(lipo)     H(rot)  DE(clash)    DE(int)     intcor
     17.74     -20.40       3.19        0.00      58.29       1.00       0.22       2.44       ----

> <Gold.Chemscore.Fitness>
17.7430

> <Gold.Chemscore.DG>
-20.4046

> <Gold.Chemscore.ZeroCoef>
-5.4800

> <Gold.Chemscore.Hbond>
3.1929

> <Gold.Chemscore.Metal>
0.0000

> <Gold.Chemscore.Lipo>
58.2945

> <Gold.Chemscore.Internal_Hbond>
0.0000

> <Gold.Chemscore.DEClash>
0.2176

> <Gold.Chemscore.DEInternal>
2.4440

> <Gold.Chemscore.Rot>
1.0000

> <Gold.Chemscore.Internal.Correction>
   9.000000E+99

> <Gold.Chemscore.Hbonds>
donor molecule, donor type, donor heavy atom, donor atom, acceptor molecule, acceptor atom, score
      L1  H     8    25       P1  8028  0.99
      L1  H    14    35       P1  7957  0.38
      P1  H  7989  7998       L1    16  0.97

> <Gold.Chemscore.Hbond.Weighted>
-10.6641

> <Gold.Chemscore.Metal.Weighted>
-0.0000

> <Gold.Chemscore.Lipo.Weighted>
-6.8205

> <Gold.Chemscore.Internal_Hbond.Weighted>
0.0000

> <Gold.Chemscore.DEClash.Weighted>
0.2176

> <Gold.Chemscore.DEInternal.Weighted>
2.4440

> <Gold.Chemscore.Rot.Weighted>
2.5600

> <Gold.Chemscore.Internal.Correction.Weighted>
   9.000000E+99

> <Gold.Protein.RotatedTorsions>
[ 6907 6896 6895 6894 ] final  114.98 input  -60.11 | X-H torsion
[ 7974 7965 7964 7962 ] final  176.36 input  175.53 | X-H torsion
[ 8008 7997 7996 7995 ] final   96.58 input   59.86 | X-H torsion
[ 10167 10162 10161 10158 ] final  145.16 input  -65.29 | X-H torsion
[ 10718 10713 10712 10709 ] final -100.07 input   66.30 | X-H torsion
[ 10763 10752 10751 10750 ] final   84.21 input  -60.55 | X-H torsion
[ 11005 11000 10999 10996 ] final -177.89 input  -57.11 | X-H torsion

> <Gold.Protein.ActiveResidues>
 VAL166  LYS551  ARG553  GLY616  TRP617  ASP618  TYR619  PRO620  LYS621  CYS622 
 ASP623  PHE694  ASN695  SER759  ASP760  ASP761  ALA762  ILE779  LEU786  VAL792 
 PHE793  MET794  SER795  GLU796  ALA797  LYS798  CYS799  TRP800  GLU811  SER814 

> <Gold.Protein.RotatedAtoms>
  152.4769  133.8161  159.7028 H   0  0  0  0  0  0  0  0  0  0  0  0  # atno 6907 bound_to 6896
  150.8793  133.7386  159.2943 H   0  0  0  0  0  0  0  0  0  0  0  0  # atno 6908 bound_to 6896
  151.4895  135.1060  159.9852 H   0  0  0  0  0  0  0  0  0  0  0  0  # atno 6909 bound_to 6896
  144.7185  140.0084  143.6440 H   0  0  0  0  0  0  0  0  0  0  0  0  # atno 7974 bound_to 7965
  156.0811  140.3270  155.7695 H   0  0  0  0  0  0  0  0  0  0  0  0  # atno 8008 bound_to 7997
  155.5151  140.0580  157.2934 H   0  0  0  0  0  0  0  0  0  0  0  0  # atno 8009 bound_to 7997
  154.4583  140.1953  156.0334 H   0  0  0  0  0  0  0  0  0  0  0  0  # atno 8010 bound_to 7997
  139.4932  144.5921  151.6658 H   0  0  0  0  0  0  0  0  0  0  0  0  # atno 10167 bound_to 10162
  156.0152  130.5311  150.6763 H   0  0  0  0  0  0  0  0  0  0  0  0  # atno 10718 bound_to 10713
  153.1361  135.4662  154.9424 H   0  0  0  0  0  0  0  0  0  0  0  0  # atno 10763 bound_to 10752
  154.7707  135.3158  154.8198 H   0  0  0  0  0  0  0  0  0  0  0  0  # atno 10764 bound_to 10752
  153.8730  135.6901  153.4827 H   0  0  0  0  0  0  0  0  0  0  0  0  # atno 10765 bound_to 10752
  140.4359  134.6476  157.4734 H   0  0  0  0  0  0  0  0  0  0  0  0  # atno 11005 bound_to 11000
  146.0278  139.3308  143.0773 LP  0  0  0  0  0  0  0  0  0  0  0  0  # atno 17320 bound_to 7965
  145.8490  140.9539  143.0760 LP  0  0  0  0  0  0  0  0  0  0  0  0  # atno 17321 bound_to 7965
  140.5551  144.0362  150.6144 LP  0  0  0  0  0  0  0  0  0  0  0  0  # atno 17342 bound_to 10162
  140.3429  143.3009  152.0569 LP  0  0  0  0  0  0  0  0  0  0  0  0  # atno 17343 bound_to 10162
  157.4475  131.0868  151.0880 LP  0  0  0  0  0  0  0  0  0  0  0  0  # atno 17370 bound_to 10713
  157.1406  130.6141  149.5554 LP  0  0  0  0  0  0  0  0  0  0  0  0  # atno 17371 bound_to 10713
  140.0103  134.6701  155.9391 LP  0  0  0  0  0  0  0  0  0  0  0  0  # atno 17394 bound_to 11000
  141.1726  133.6538  156.4709 LP  0  0  0  0  0  0  0  0  0  0  0  0  # atno 17395 bound_to 11000

$$$$
