AV-unprocessed.smi:287|AV-procd|sdf|2193|dock9
  -GOLD-   2262021593D 1   1.00000     0.00000
 Structure written by MMmdl.
 55 58  0  0  0  0  0  0  0  0  1 V2000
  155.9197  129.9791  153.2225 C   0  0  0  0  0  0  0  0  0  0  0  0
  155.4066  130.4311  154.5464 C   0  0  0  0  0  0  0  0  0  0  0  0
  154.1800  130.4028  155.1434 C   0  0  0  0  0  0  0  0  0  0  0  0
  154.3186  131.0020  156.4312 C   0  0  0  0  0  0  0  0  0  0  0  0
  153.2094  131.1877  157.4580 C   0  0  1  0  0  0  0  0  0  0  0  0
  153.5675  130.4366  158.7509 C   0  0  0  0  0  0  0  0  0  0  0  0
  153.0382  132.5381  157.8424 O   0  0  0  0  0  0  0  0  0  0  0  0
  151.8318  130.7194  156.9359 C   0  0  0  0  0  0  0  0  0  0  0  0
  151.0847  131.7810  156.2737 N   0  0  0  0  0  0  0  0  0  0  0  0
  150.2082  131.4991  155.2877 C   0  0  0  0  0  0  0  0  0  0  0  0
  150.0703  130.1851  154.9886 N   0  0  0  0  0  0  0  0  0  0  0  0
  149.2201  129.7980  154.0336 C   0  0  0  0  0  0  0  0  0  0  0  0
  148.4266  130.5499  153.2686 N   0  0  0  0  0  0  0  0  0  0  0  0
  148.5664  131.8751  153.5595 C   0  0  0  0  0  0  0  0  0  0  0  0
  149.4263  132.4347  154.5468 C   0  0  0  0  0  0  0  0  0  0  0  0
  149.2835  133.8193  154.5433 N   0  0  0  0  0  0  0  0  0  0  0  0
  148.3931  134.0539  153.6173 C   0  0  0  0  0  0  0  0  0  0  0  0
  147.9091  132.9349  152.9776 N   0  0  0  0  0  0  0  0  0  0  0  0
  146.8859  132.8353  151.8941 C   0  0  2  0  0  0  0  0  0  0  0  0
  146.5930  134.1092  151.4318 O   0  0  0  0  0  0  0  0  0  0  0  0
  145.3561  134.0333  150.7380 C   0  0  2  0  0  0  0  0  0  0  0  0
  144.7094  135.4257  150.6905 C   0  0  0  0  0  0  0  0  0  0  0  0
  145.4665  136.2895  149.8694 O   0  0  0  0  0  0  0  0  0  0  0  0
  144.5350  132.9717  151.5001 C   0  0  1  0  0  0  0  0  0  0  0  0
  143.9633  132.0643  150.5782 O   0  0  0  0  0  0  0  0  0  0  0  0
  145.5542  132.2505  152.3840 C   0  0  2  0  0  0  0  0  0  0  0  0
  145.3039  132.5074  153.7546 O   0  0  0  0  0  0  0  0  0  0  0  0
  155.6484  131.3375  156.5201 C   0  0  0  0  0  0  0  0  0  0  0  0
  156.4892  131.9726  157.5781 C   0  0  0  0  0  0  0  0  0  0  0  0
  156.3136  130.9991  155.3802 O   0  0  0  0  0  0  0  0  0  0  0  0
  147.3516  132.2464  151.1018 H   0  0  0  0  0  0  0  0  0  0  0  0
  145.5863  133.6925  149.7260 H   0  0  0  0  0  0  0  0  0  0  0  0
  143.7409  133.4244  152.0963 H   0  0  0  0  0  0  0  0  0  0  0  0
  145.5659  131.1697  152.2346 H   0  0  0  0  0  0  0  0  0  0  0  0
  155.0979  129.7208  152.5544 H   0  0  0  0  0  0  0  0  0  0  0  0
  156.5549  129.1001  153.3337 H   0  0  0  0  0  0  0  0  0  0  0  0
  156.5074  130.7642  152.7461 H   0  0  0  0  0  0  0  0  0  0  0  0
  153.2791  130.0021  154.7031 H   0  0  0  0  0  0  0  0  0  0  0  0
  153.6873  129.3682  158.5665 H   0  0  0  0  0  0  0  0  0  0  0  0
  152.7921  130.5520  159.5094 H   0  0  0  0  0  0  0  0  0  0  0  0
  154.5030  130.8025  159.1762 H   0  0  0  0  0  0  0  0  0  0  0  0
  153.7811  133.0335  157.5329 H   0  0  0  0  0  0  0  0  0  0  0  0
  151.9911  129.9304  156.1996 H   0  0  0  0  0  0  0  0  0  0  0  0
  151.2406  130.2851  157.7431 H   0  0  0  0  0  0  0  0  0  0  0  0
  151.3529  132.7223  156.5224 H   0  0  0  0  0  0  0  0  0  0  0  0
  149.1674  128.7334  153.8586 H   0  0  0  0  0  0  0  0  0  0  0  0
  148.0600  135.0542  153.3809 H   0  0  0  0  0  0  0  0  0  0  0  0
  143.6838  135.3709  150.3242 H   0  0  0  0  0  0  0  0  0  0  0  0
  144.6716  135.8556  151.6917 H   0  0  0  0  0  0  0  0  0  0  0  0
  145.8269  135.7865  149.1550 H   0  0  0  0  0  0  0  0  0  0  0  0
  143.1896  132.4614  150.2078 H   0  0  0  0  0  0  0  0  0  0  0  0
  144.3871  132.3499  153.9233 H   0  0  0  0  0  0  0  0  0  0  0  0
  156.3992  131.4300  158.5190 H   0  0  0  0  0  0  0  0  0  0  0  0
  156.1804  133.0037  157.7496 H   0  0  0  0  0  0  0  0  0  0  0  0
  157.5422  131.9803  157.2955 H   0  0  0  0  0  0  0  0  0  0  0  0
  1  2  1  0  0  0  0
  1 35  1  0  0  0  0
  1 36  1  0  0  0  0
  1 37  1  0  0  0  0
  2 30  1  0  0  0  0
  2  3  2  0  0  0  0
  3  4  1  0  0  0  0
  3 38  1  0  0  0  0
  4  5  1  0  0  0  0
  4 28  2  0  0  0  0
  5  6  1  0  0  0  0
  5  7  1  0  0  0  0
  5  8  1  0  0  0  0
  6 39  1  0  0  0  0
  6 40  1  0  0  0  0
  6 41  1  0  0  0  0
  7 42  1  0  0  0  0
  8  9  1  0  0  0  0
  8 43  1  0  0  0  0
  8 44  1  0  0  0  0
  9 10  1  0  0  0  0
  9 45  1  0  0  0  0
 10 15  1  0  0  0  0
 10 11  2  0  0  0  0
 11 12  1  0  0  0  0
 12 13  2  0  0  0  0
 12 46  1  0  0  0  0
 13 14  1  0  0  0  0
 14 18  1  0  0  0  0
 14 15  2  0  0  0  0
 15 16  1  0  0  0  0
 16 17  2  0  0  0  0
 17 18  1  0  0  0  0
 17 47  1  0  0  0  0
 18 19  1  0  0  0  0
 19 31  1  0  0  0  0
 19 26  1  0  0  0  0
 19 20  1  0  0  0  0
 20 21  1  0  0  0  0
 21 32  1  0  0  0  0
 21 22  1  0  0  0  0
 21 24  1  0  0  0  0
 22 23  1  0  0  0  0
 22 48  1  0  0  0  0
 22 49  1  0  0  0  0
 23 50  1  0  0  0  0
 24 33  1  0  0  0  0
 24 25  1  0  0  0  0
 24 26  1  0  0  0  0
 25 51  1  0  0  0  0
 26 34  1  0  0  0  0
 26 27  1  0  0  0  0
 27 52  1  0  0  0  0
 28 29  1  0  0  0  0
 28 30  1  0  0  0  0
 29 53  1  0  0  0  0
 29 54  1  0  0  0  0
 29 55  1  0  0  0  0
M  END
> <s_m_source_file>
AV-unprocessed.smi

> <i_m_source_file_index>
287

> <i_lp_mmshare_version>
43012

> <i_f3d_flags>
0

> <s_epik_input>
W0NIM11jMVtjSF1jKGMobzEpW0NIM10pW0NAQF0oW0NIM10pKFtPSF0pW0NIMl1bTkhdYyhuW2NIXW4yKWMoYzIzKW5bY0hdbjNbQ0BASF00T1tDQEhdKFtDSDJdW09IXSlbQ0BASF0oW09IXSlbQ0BIXTRbT0hd

> <s_epik_cmdline>
J2VwaWtfcHl0aG9uJywgJy1waCcsICc3LjAnLCAnLXRuJywgJzgnLCAnLW1hJywgJzIwMCcsICctbWV0YWxfYmluZGluZycsICctaW1hZScsICc8aW5maWxlLm1hZT4nLCAnLW9tYWUnLCAnPG91dGZpbGUubWFlPic=

> <r_lp_tautomer_probability>
1

> <r_epik_Ionization_Penalty>
0.000992612

> <r_epik_Ionization_Penalty_Charging>
0

> <r_epik_Ionization_Penalty_Neutral>
0.000992612

> <r_epik_State_Penalty>
-0

> <r_epik_Charging_Adjusted_Penalty>
0

> <i_epik_Tot_Q>
0

> <i_epik_Tot_abs_Q>
0

> <r_epik_Metal_State_Penalty>
-0

> <b_epik_Metal_Only>
0

> <s_epik_Chemistry_Notes>
This compound contains an acetal/aminal-like group ( X-CH(R)-Y where X, Y are N, S, or O) that may be acid/base labile, releasing an aldehyde.

> <s_lp_Force_Field>
OPLS_2005

> <r_lp_Energy>
41.001

> <b_lp_Chiralities_Consistent>
1

> <s_lp_Variant>
AV-unprocessed.smi:287-17

> <Gold.Version>
5.8.1

> <Gold.Id.Protein>
6NUR|6NUR_protein|mol2

> <Gold.PLP.Fitness>
48.3928

> <Gold.PLP.PLP>
-39.5761

> <Gold.PLP.part.hbond>
-4.0000

> <Gold.PLP.part.metal>
0.0000

> <Gold.PLP.part.buried>
-5.0134

> <Gold.PLP.part.nonpolar>
-32.6897

> <Gold.PLP.part.repulsive>
0.9317

> <Gold.PLP.ligand.clash>
0.0000

> <Gold.PLP.ligand.torsion>
0.9869

> <Gold.PLP.Chemscore.Hbond>
2.8160

> <Gold.PLP.Chemscore.CHOScore>
0.7655

> <Gold.PLP.Chemscore.Metal>
0.0000

> <Gold.Chemscore.Hbonds>
donor molecule, donor type, donor heavy atom, donor atom, acceptor molecule, acceptor atom, score
      L1  H    23    50       P1  7921  1.00
      L1  H    27    52       P1 10957  1.00
      P1  H  6896  6907       L1     7  0.68
      L1  C    17    47       P1  7948  0.83

> <Gold.PLP.Chemscore.Internal.Correction>
0.0458

> <Gold.Rescore>
     Score         DG    S(hbond)    S(metal)    S(lipo)     H(rot)  DE(clash)    DE(int)     intcor
      6.75      -7.88       2.51        0.00      64.16       5.27       0.06       1.06       ----

> <Gold.Chemscore.Fitness>
6.7505

> <Gold.Chemscore.DG>
-7.8774

> <Gold.Chemscore.ZeroCoef>
-5.4800

> <Gold.Chemscore.Hbond>
2.5074

> <Gold.Chemscore.Metal>
0.0000

> <Gold.Chemscore.Lipo>
64.1596

> <Gold.Chemscore.Internal_Hbond>
0.0000

> <Gold.Chemscore.DEClash>
0.0630

> <Gold.Chemscore.DEInternal>
1.0639

> <Gold.Chemscore.Rot>
5.2672

> <Gold.Chemscore.Internal.Correction>
   9.000000E+99

> <Gold.Chemscore.Hbonds>
donor molecule, donor type, donor heavy atom, donor atom, acceptor molecule, acceptor atom, score
      L1  H    23    50       P1  7921  1.00
      L1  H    27    52       P1 10957  0.34
      P1  H  6896  6907       L1     7  0.29

> <Gold.Chemscore.Hbond.Weighted>
-8.3746

> <Gold.Chemscore.Metal.Weighted>
-0.0000

> <Gold.Chemscore.Lipo.Weighted>
-7.5067

> <Gold.Chemscore.Internal_Hbond.Weighted>
0.0000

> <Gold.Chemscore.DEClash.Weighted>
0.0630

> <Gold.Chemscore.DEInternal.Weighted>
1.0639

> <Gold.Chemscore.Rot.Weighted>
13.4839

> <Gold.Chemscore.Internal.Correction.Weighted>
   9.000000E+99

> <Gold.Protein.RotatedTorsions>
[ 6907 6896 6895 6894 ] final  130.19 input  -60.11 | X-H torsion
[ 7974 7965 7964 7962 ] final  177.55 input  175.53 | X-H torsion
[ 8008 7997 7996 7995 ] final   94.62 input   59.86 | X-H torsion
[ 10167 10162 10161 10158 ] final  -45.67 input  -65.29 | X-H torsion
[ 10718 10713 10712 10709 ] final  -33.74 input   66.30 | X-H torsion
[ 10763 10752 10751 10750 ] final  -40.88 input  -60.55 | X-H torsion
[ 11005 11000 10999 10996 ] final  -51.23 input  -57.11 | X-H torsion

> <Gold.Protein.ActiveResidues>
 VAL166  LYS551  ARG553  GLY616  TRP617  ASP618  TYR619  PRO620  LYS621  CYS622 
 ASP623  PHE694  ASN695  SER759  ASP760  ASP761  ALA762  ILE779  LEU786  VAL792 
 PHE793  MET794  SER795  GLU796  ALA797  LYS798  CYS799  TRP800  GLU811  SER814 

> <Gold.Protein.RotatedAtoms>
  152.3550  133.6226  159.5972 H   0  0  0  0  0  0  0  0  0  0  0  0  # atno 6907 bound_to 6896
  150.7563  133.9513  159.3495 H   0  0  0  0  0  0  0  0  0  0  0  0  # atno 6908 bound_to 6896
  151.7360  135.0865  160.0359 H   0  0  0  0  0  0  0  0  0  0  0  0  # atno 6909 bound_to 6896
  144.7167  140.0265  143.6439 H   0  0  0  0  0  0  0  0  0  0  0  0  # atno 7974 bound_to 7965
  156.0599  140.3297  155.7450 H   0  0  0  0  0  0  0  0  0  0  0  0  # atno 8008 bound_to 7997
  155.5470  140.0607  157.2875 H   0  0  0  0  0  0  0  0  0  0  0  0  # atno 8009 bound_to 7997
  154.4476  140.1901  156.0636 H   0  0  0  0  0  0  0  0  0  0  0  0  # atno 8010 bound_to 7997
  140.6849  143.2868  151.3672 H   0  0  0  0  0  0  0  0  0  0  0  0  # atno 10167 bound_to 10162
  156.3590  130.4320  149.7640 H   0  0  0  0  0  0  0  0  0  0  0  0  # atno 10718 bound_to 10713
  153.9533  135.6748  153.4744 H   0  0  0  0  0  0  0  0  0  0  0  0  # atno 10763 bound_to 10752
  153.0873  135.4892  154.8619 H   0  0  0  0  0  0  0  0  0  0  0  0  # atno 10764 bound_to 10752
  154.7313  135.3139  154.8846 H   0  0  0  0  0  0  0  0  0  0  0  0  # atno 10765 bound_to 10752
  141.0859  133.6642  156.3846 H   0  0  0  0  0  0  0  0  0  0  0  0  # atno 11005 bound_to 11000
  146.0138  139.3192  143.0854 LP  0  0  0  0  0  0  0  0  0  0  0  0  # atno 17320 bound_to 7965
  145.8650  140.9453  143.0680 LP  0  0  0  0  0  0  0  0  0  0  0  0  # atno 17321 bound_to 7965
  139.6199  144.0928  152.2381 LP  0  0  0  0  0  0  0  0  0  0  0  0  # atno 17342 bound_to 10162
  140.0369  144.6037  150.7442 LP  0  0  0  0  0  0  0  0  0  0  0  0  # atno 17343 bound_to 10162
  156.4811  130.8041  151.3056 LP  0  0  0  0  0  0  0  0  0  0  0  0  # atno 17370 bound_to 10713
  157.7471  131.0005  150.2930 LP  0  0  0  0  0  0  0  0  0  0  0  0  # atno 17371 bound_to 10713
  140.5363  134.6164  157.5366 LP  0  0  0  0  0  0  0  0  0  0  0  0  # atno 17394 bound_to 11000
  139.9678  134.7344  156.0103 LP  0  0  0  0  0  0  0  0  0  0  0  0  # atno 17395 bound_to 11000

$$$$
