AV-unprocessed.smi:1829|AV-procd|sdf|7430|dock10
  -GOLD-   22720 9113D 1   1.00000     0.00000
 Structure written by MMmdl.
 46 48  0  0  0  0  0  0  0  0  2 V2000
  150.5806  132.5749  155.9800 C   0  0  0  0  0  0  0  0  0  0  0  0
  149.5132  133.4495  155.3045 C   0  0  0  0  0  0  0  0  0  0  0  0
  149.2364  132.9980  153.8615 C   0  0  0  0  0  0  0  0  0  0  0  0
  149.8795  134.9262  155.3768 C   0  0  0  0  0  0  0  0  0  0  0  0
  151.1268  135.3178  155.9076 C   0  0  0  0  0  0  0  0  0  0  0  0
  151.4808  136.6791  155.9605 C   0  0  0  0  0  0  0  0  0  0  0  0
  150.5926  137.6660  155.4841 C   0  0  0  0  0  0  0  0  0  0  0  0
  151.0090  139.1299  155.5041 C   0  0  2  0  0  0  0  0  0  0  0  0
  152.1406  139.3803  154.6968 O   0  0  0  0  0  0  0  0  0  0  0  0
  151.3171  139.6281  156.9318 C   0  0  0  0  0  0  0  0  0  0  0  0
  151.0004  141.0533  157.1197 N   0  0  0  0  0  0  0  0  0  0  0  0
  150.0735  141.8454  156.5051 C   0  0  0  0  0  0  0  0  0  0  0  0
  149.0933  141.4395  155.4547 C   0  0  0  0  0  0  0  0  0  0  0  0
  149.0179  142.3742  154.4018 O   0  0  0  0  0  0  0  0  0  0  0  0
  150.1985  143.0956  157.0325 N   0  3  0  0  0  0  0  0  0  0  0  0
  151.2096  143.1047  157.9938 C   0  0  0  0  0  0  0  0  0  0  0  0
  151.6993  144.1339  158.7919 C   0  0  0  0  0  0  0  0  0  0  0  0
  152.7443  143.8034  159.6794 C   0  0  0  0  0  0  0  0  0  0  0  0
  153.2608  142.4931  159.7506 C   0  0  0  0  0  0  0  0  0  0  0  0
  152.7562  141.4579  158.9360 C   0  0  0  0  0  0  0  0  0  0  0  0
  151.7252  141.7942  158.0595 C   0  0  0  0  0  0  0  0  0  0  0  0
  149.3408  137.2765  154.9610 C   0  0  0  0  0  0  0  0  0  0  0  0
  148.9880  135.9147  154.9056 C   0  0  0  0  0  0  0  0  0  0  0  0
  150.7248  132.8680  157.0205 H   0  0  0  0  0  0  0  0  0  0  0  0
  151.5439  132.6545  155.4754 H   0  0  0  0  0  0  0  0  0  0  0  0
  150.2893  131.5243  155.9723 H   0  0  0  0  0  0  0  0  0  0  0  0
  148.5862  133.3118  155.8629 H   0  0  0  0  0  0  0  0  0  0  0  0
  148.4478  133.5995  153.4082 H   0  0  0  0  0  0  0  0  0  0  0  0
  148.9129  131.9573  153.8332 H   0  0  0  0  0  0  0  0  0  0  0  0
  150.1234  133.0829  153.2332 H   0  0  0  0  0  0  0  0  0  0  0  0
  151.8227  134.5754  156.2702 H   0  0  0  0  0  0  0  0  0  0  0  0
  152.4451  136.9624  156.3561 H   0  0  0  0  0  0  0  0  0  0  0  0
  150.1975  139.7231  155.0816 H   0  0  0  0  0  0  0  0  0  0  0  0
  152.3790  138.5778  154.2577 H   0  0  0  0  0  0  0  0  0  0  0  0
  150.7486  139.0571  157.6668 H   0  0  0  0  0  0  0  0  0  0  0  0
  152.3698  139.4809  157.1777 H   0  0  0  0  0  0  0  0  0  0  0  0
  149.3810  140.4701  155.0471 H   0  0  0  0  0  0  0  0  0  0  0  0
  148.1058  141.3175  155.8972 H   0  0  0  0  0  0  0  0  0  0  0  0
  148.9610  143.2413  154.7734 H   0  0  0  0  0  0  0  0  0  0  0  0
  151.3047  145.1381  158.7399 H   0  0  0  0  0  0  0  0  0  0  0  0
  153.1575  144.5702  160.3188 H   0  0  0  0  0  0  0  0  0  0  0  0
  154.0608  142.2772  160.4439 H   0  0  0  0  0  0  0  0  0  0  0  0
  153.1586  140.4575  158.9975 H   0  0  0  0  0  0  0  0  0  0  0  0
  148.6529  138.0190  154.5836 H   0  0  0  0  0  0  0  0  0  0  0  0
  148.0314  135.6329  154.4909 H   0  0  0  0  0  0  0  0  0  0  0  0
  149.6278  143.8833  156.7534 H   0  0  0  0  0  0  0  0  0  0  0  0
  1  2  1  0  0  0  0
  1 24  1  0  0  0  0
  1 25  1  0  0  0  0
  1 26  1  0  0  0  0
  2  3  1  0  0  0  0
  2  4  1  0  0  0  0
  2 27  1  0  0  0  0
  3 28  1  0  0  0  0
  3 29  1  0  0  0  0
  3 30  1  0  0  0  0
  4 23  1  0  0  0  0
  4  5  2  0  0  0  0
  5  6  1  0  0  0  0
  5 31  1  0  0  0  0
  6  7  2  0  0  0  0
  6 32  1  0  0  0  0
  7  8  1  0  0  0  0
  7 22  1  0  0  0  0
  8  9  1  0  0  0  0
  8 10  1  0  0  0  0
  8 33  1  0  0  0  0
  9 34  1  0  0  0  0
 10 11  1  0  0  0  0
 10 35  1  0  0  0  0
 10 36  1  0  0  0  0
 11 21  1  0  0  0  0
 11 12  1  0  0  0  0
 12 13  1  0  0  0  0
 12 15  2  0  0  0  0
 13 14  1  0  0  0  0
 13 37  1  0  0  0  0
 13 38  1  0  0  0  0
 14 39  1  0  0  0  0
 15 16  1  0  0  0  0
 15 46  1  0  0  0  0
 16 21  2  0  0  0  0
 16 17  1  0  0  0  0
 17 18  2  0  0  0  0
 17 40  1  0  0  0  0
 18 19  1  0  0  0  0
 18 41  1  0  0  0  0
 19 20  2  0  0  0  0
 19 42  1  0  0  0  0
 20 21  1  0  0  0  0
 20 43  1  0  0  0  0
 22 23  2  0  0  0  0
 22 44  1  0  0  0  0
 23 45  1  0  0  0  0
M  CHG  1  15   1
M  END
> <s_m_source_file>
AV-unprocessed.smi

> <i_m_source_file_index>
1829

> <i_lp_mmshare_version>
43012

> <i_f3d_flags>
0

> <s_epik_input>
W0NIM11bQ0hdKFtDSDNdKWMxW2NIXVtjSF1jKFtjSF1bY0hdMSlbQ0BIXShbT0hdKVtDSDJdbihjKG4yKVtDSDJdW09IXSljKGMyMylbY0hdW2NIXVtjSF1bY0hdMw==

> <s_epik_cmdline>
J2VwaWtfcHl0aG9uJywgJy1waCcsICc3LjAnLCAnLXRuJywgJzgnLCAnLW1hJywgJzIwMCcsICctbWV0YWxfYmluZGluZycsICctaW1hZScsICc8aW5maWxlLm1hZT4nLCAnLW9tYWUnLCAnPG91dGZpbGUubWFlPic=

> <r_epik_Ionization_Penalty>
1.35642

> <r_epik_Ionization_Penalty_Charging>
1.35557

> <r_epik_Ionization_Penalty_Neutral>
0.000856322

> <r_epik_State_Penalty>
1.43401

> <r_epik_Charging_Adjusted_Penalty>
2.78958

> <i_epik_Tot_Q>
1

> <i_epik_Tot_abs_Q>
1

> <r_epik_Metal_State_Penalty>
5.47166

> <b_epik_Metal_Only>
0

> <s_lp_Force_Field>
OPLS_2005

> <r_lp_Energy>
15.3194

> <b_lp_Chiralities_Consistent>
1

> <s_lp_Variant>
AV-unprocessed.smi:1829-3

> <Gold.Version>
5.8.1

> <Gold.Id.Protein>
6NUR|6NUR_protein|mol2

> <Gold.PLP.Fitness>
54.9981

> <Gold.PLP.PLP>
-44.8134

> <Gold.PLP.part.hbond>
-3.8917

> <Gold.PLP.part.metal>
0.0000

> <Gold.PLP.part.buried>
-2.7427

> <Gold.PLP.part.nonpolar>
-36.8424

> <Gold.PLP.part.repulsive>
0.0173

> <Gold.PLP.ligand.clash>
0.0000

> <Gold.PLP.ligand.torsion>
0.9669

> <Gold.PLP.Chemscore.Hbond>
3.9994

> <Gold.PLP.Chemscore.CHOScore>
0.0000

> <Gold.PLP.Chemscore.Metal>
0.0000

> <Gold.Chemscore.Hbonds>
donor molecule, donor type, donor heavy atom, donor atom, acceptor molecule, acceptor atom, score
      L1  H    14    39       P1  8028  1.00
      L1  H    15    46       P1  8028  2.00
      P1  H  7989  7998       L1     9  0.85
      P1  H  8011  8017       L1    14  0.10

> <Gold.PLP.Chemscore.Internal.Correction>
0.1201

> <Gold.Rescore>
     Score         DG    S(hbond)    S(metal)    S(lipo)     H(rot)  DE(clash)    DE(int)     intcor
     19.83     -22.20       2.83        0.00     122.51       2.75       0.19       2.18       ----

> <Gold.Chemscore.Fitness>
19.8296

> <Gold.Chemscore.DG>
-22.2011

> <Gold.Chemscore.ZeroCoef>
-5.4800

> <Gold.Chemscore.Hbond>
2.8262

> <Gold.Chemscore.Metal>
0.0000

> <Gold.Chemscore.Lipo>
122.5143

> <Gold.Chemscore.Internal_Hbond>
0.0000

> <Gold.Chemscore.DEClash>
0.1944

> <Gold.Chemscore.DEInternal>
2.1772

> <Gold.Chemscore.Rot>
2.7550

> <Gold.Chemscore.Internal.Correction>
   9.000000E+99

> <Gold.Chemscore.Hbonds>
donor molecule, donor type, donor heavy atom, donor atom, acceptor molecule, acceptor atom, score
      L1  H    14    39       P1  8028  1.00
      L1  H    15    46       P1  8028  0.89
      P1  H  7989  7998       L1     9  0.44
      P1  H  8011  8017       L1    14  0.09

> <Gold.Chemscore.Hbond.Weighted>
-9.4396

> <Gold.Chemscore.Metal.Weighted>
-0.0000

> <Gold.Chemscore.Lipo.Weighted>
-14.3342

> <Gold.Chemscore.Internal_Hbond.Weighted>
0.0000

> <Gold.Chemscore.DEClash.Weighted>
0.1944

> <Gold.Chemscore.DEInternal.Weighted>
2.1772

> <Gold.Chemscore.Rot.Weighted>
7.0527

> <Gold.Chemscore.Internal.Correction.Weighted>
   9.000000E+99

> <Gold.Protein.RotatedTorsions>
[ 6907 6896 6895 6894 ] final    7.29 input  -60.11 | X-H torsion
[ 7974 7965 7964 7962 ] final -139.22 input  175.53 | X-H torsion
[ 8008 7997 7996 7995 ] final  132.65 input   59.86 | X-H torsion
[ 10167 10162 10161 10158 ] final  -91.52 input  -65.29 | X-H torsion
[ 10718 10713 10712 10709 ] final    1.99 input   66.30 | X-H torsion
[ 10763 10752 10751 10750 ] final  -33.98 input  -60.55 | X-H torsion
[ 11005 11000 10999 10996 ] final  -58.61 input  -57.11 | X-H torsion

> <Gold.Protein.ActiveResidues>
 VAL166  LYS551  ARG553  GLY616  TRP617  ASP618  TYR619  PRO620  LYS621  CYS622 
 ASP623  PHE694  ASN695  SER759  ASP760  ASP761  ALA762  ILE779  LEU786  VAL792 
 PHE793  MET794  SER795  GLU796  ALA797  LYS798  CYS799  TRP800  GLU811  SER814 

> <Gold.Protein.RotatedAtoms>
  151.6874  135.0952  160.0227 H   0  0  0  0  0  0  0  0  0  0  0  0  # atno 6907 bound_to 6896
  152.3799  133.6527  159.6161 H   0  0  0  0  0  0  0  0  0  0  0  0  # atno 6908 bound_to 6896
  150.7738  133.9048  159.3393 H   0  0  0  0  0  0  0  0  0  0  0  0  # atno 6909 bound_to 6896
  144.8695  140.6344  143.5276 H   0  0  0  0  0  0  0  0  0  0  0  0  # atno 7974 bound_to 7965
  156.2985  140.2541  156.3123 H   0  0  0  0  0  0  0  0  0  0  0  0  # atno 8008 bound_to 7997
  154.9314  140.0398  157.2069 H   0  0  0  0  0  0  0  0  0  0  0  0  # atno 8009 bound_to 7997
  154.8214  140.2861  155.5788 H   0  0  0  0  0  0  0  0  0  0  0  0  # atno 8010 bound_to 7997
  140.3440  143.2926  151.9802 H   0  0  0  0  0  0  0  0  0  0  0  0  # atno 10167 bound_to 10162
  156.8563  130.5571  149.5666 H   0  0  0  0  0  0  0  0  0  0  0  0  # atno 10718 bound_to 10713
  153.8391  135.6859  153.4805 H   0  0  0  0  0  0  0  0  0  0  0  0  # atno 10763 bound_to 10752
  153.1464  135.4636  154.9571 H   0  0  0  0  0  0  0  0  0  0  0  0  # atno 10764 bound_to 10752
  154.7853  135.3282  154.7847 H   0  0  0  0  0  0  0  0  0  0  0  0  # atno 10765 bound_to 10752
  141.1214  133.6613  156.4946 H   0  0  0  0  0  0  0  0  0  0  0  0  # atno 11005 bound_to 11000
  145.4158  139.1572  143.4101 LP  0  0  0  0  0  0  0  0  0  0  0  0  # atno 17320 bound_to 7965
  146.2920  140.4265  142.8736 LP  0  0  0  0  0  0  0  0  0  0  0  0  # atno 17321 bound_to 7965
  139.4836  144.6132  151.7394 LP  0  0  0  0  0  0  0  0  0  0  0  0  # atno 17342 bound_to 10162
  140.5282  144.0772  150.6044 LP  0  0  0  0  0  0  0  0  0  0  0  0  # atno 17343 bound_to 10162
  156.0801  130.5813  150.9546 LP  0  0  0  0  0  0  0  0  0  0  0  0  # atno 17370 bound_to 10713
  157.6275  131.0924  150.8506 LP  0  0  0  0  0  0  0  0  0  0  0  0  # atno 17371 bound_to 10713
  140.4495  134.6941  157.5032 LP  0  0  0  0  0  0  0  0  0  0  0  0  # atno 17394 bound_to 11000
  140.0175  134.6597  155.9288 LP  0  0  0  0  0  0  0  0  0  0  0  0  # atno 17395 bound_to 11000

$$$$
