#       Name:                AV-unprocessed.smi:101
#       Creating user name   scv26
#       Creation time:       Thu Mar 26 17:42:14 2020


#       File generated by GOLD software.
#

@<TRIPOS>MOLECULE
AV-unprocessed.smi:101
    56    58     1
SMALL
NO_CHARGES


@<TRIPOS>ATOM
      1 ****        -1.6392   3.5604  -2.8977 C.3            1 S1                 0.0000
      2 ****        -2.5086   2.6113  -2.0897 C.2            1 S1                 0.0000
      3 ****        -2.0354   1.4439  -1.5836 C.2            1 S1                 0.0000
      4 ****        -2.8058   0.5564  -0.8444 N.am           1 S1                 0.0000
      5 ****        -2.2270  -0.7370  -0.3202 C.3            1 S1                 0.0000
      6 ****        -0.8863  -0.5250   0.0017 O.3            1 S1                 0.0000
      7 ****        -0.1090  -1.6278  -0.4439 C.3            1 S1                 0.0000
      8 ****         1.3624  -1.2271  -0.6193 C.3            1 S1                 0.0000
      9 ****         1.9509  -1.0576   0.6594 O.3            1 S1                 0.0000
     10 ****         3.2234  -0.6286   0.7649 C.2            1 S1                 0.0000
     11 ****         3.9424  -0.3816  -0.2055 O.2            1 S1                 0.0000
     12 ****         3.6709  -0.4825   2.1802 C.ar           1 S1                 0.0000
     13 ****         4.9886  -0.0442   2.4486 C.ar           1 S1                 0.0000
     14 ****         5.4391   0.1053   3.7747 C.ar           1 S1                 0.0000
     15 ****         4.5764  -0.1799   4.8490 C.ar           1 S1                 0.0000
     16 ****         3.2628  -0.6159   4.5956 C.ar           1 S1                 0.0000
     17 ****         2.8113  -0.7678   3.2700 C.ar           1 S1                 0.0000
     18 ****        -0.8281  -2.0968  -1.7152 C.3            1 S1                 0.0000
     19 ****        -0.4246  -1.3429  -2.8439 O.3            1 S1                 0.0000
     20 ****        -2.2962  -1.8382  -1.3951 C.3            1 S1                 0.0000
     21 ****        -2.8944  -3.0145  -0.8866 O.3            1 S1                 0.0000
     22 ****        -4.1668   0.8455  -0.6170 C.2            1 S1                 0.0000
     23 ****        -4.9191   0.0900  -0.0029 O.2            1 S1                 0.0000
     24 ****        -4.6517   2.0469  -1.1307 N.am           1 S1                 0.0000
     25 ****        -3.9092   2.9776  -1.8618 C.2            1 S1                 0.0000
     26 ****        -4.4502   4.0078  -2.2601 O.2            1 S1                 0.0000
     27 ****        -5.6242   2.2607  -0.9645 H              1 S1                 0.0000
     28 ****        -0.6217   3.1838  -3.0064 H              1 S1                 0.0000
     29 ****        -1.5847   4.5350  -2.4113 H              1 S1                 0.0000
     30 ****        -2.0526   3.6985  -3.8974 H              1 S1                 0.0000
     31 ****        -1.0019   1.1944  -1.7746 H              1 S1                 0.0000
     32 ****        -2.7621  -0.9789   0.6003 H              1 S1                 0.0000
     33 ****        -0.1885  -2.4184   0.3046 H              1 S1                 0.0000
     34 ****         1.9007  -2.0095  -1.1559 H              1 S1                 0.0000
     35 ****         1.4427  -0.3084  -1.2024 H              1 S1                 0.0000
     36 ****         5.6684   0.1832   1.6400 H              1 S1                 0.0000
     37 ****         6.4476   0.4405   3.9671 H              1 S1                 0.0000
     38 ****         4.9216  -0.0638   5.8659 H              1 S1                 0.0000
     39 ****         2.5992  -0.8338   5.4193 H              1 S1                 0.0000
     40 ****         1.7971  -1.1043   3.1111 H              1 S1                 0.0000
     41 ****        -0.6249  -3.1470  -1.9301 H              1 S1                 0.0000
     42 ****         0.4895  -1.5150  -3.0111 H              1 S1                 0.0000
     43 ****        -2.8637  -1.5086  -2.2673 H              1 S1                 0.0000
     44 ****        -2.4195  -3.2846  -0.1156 H              1 S1                 0.0000
     45 ****        -0.7929  -0.4309   0.9929 LP             1 S1                 0.0000
     46 ****        -0.5650   0.3104  -0.4442 LP             1 S1                 0.0000
     47 ****         3.5874  -0.4973  -1.1331 LP             1 S1                 0.0000
     48 ****         4.8807  -0.0656  -0.0650 LP             1 S1                 0.0000
     49 ****        -0.5561  -0.3684  -2.6624 LP             1 S1                 0.0000
     50 ****        -0.9685  -1.6102  -3.6393 LP             1 S1                 0.0000
     51 ****        -2.8561  -3.7374  -1.5765 LP             1 S1                 0.0000
     52 ****        -3.8481  -2.8316  -0.6481 LP             1 S1                 0.0000
     53 ****        -4.5719  -0.7744   0.3610 LP             1 S1                 0.0000
     54 ****        -5.8778   0.3403   0.1324 LP             1 S1                 0.0000
     55 ****        -3.9255   4.6767  -2.7866 LP             1 S1                 0.0000
     56 ****        -5.4148   4.1765  -2.0574 LP             1 S1                 0.0000
@<TRIPOS>BOND
    1    1    2 1     
    2    1   28 1     
    3    1   29 1     
    4    1   30 1     
    5    2   25 1     
    6    2    3 2     
    7    3    4 1     
    8    3   31 1     
    9    4    5 1     
   10    4   22 1     
   11    5   20 1     
   12    5    6 1     
   13    5   32 1     
   14    6    7 1     
   15    7    8 1     
   16    7   18 1     
   17    7   33 1     
   18    8    9 1     
   19    8   34 1     
   20    8   35 1     
   21    9   10 1     
   22   10   11 2     
   23   10   12 1     
   24   12   17 ar    
   25   12   13 ar    
   26   13   14 ar    
   27   13   36 1     
   28   14   15 ar    
   29   14   37 1     
   30   15   16 ar    
   31   15   38 1     
   32   16   17 ar    
   33   16   39 1     
   34   17   40 1     
   35   18   19 1     
   36   18   20 1     
   37   18   41 1     
   38   19   42 1     
   39   20   21 1     
   40   20   43 1     
   41   21   44 1     
   42   22   23 2     
   43   22   24 1     
   44   24   27 1     
   45   24   25 1     
   46   25   26 2     
   47    6   45 1     
   48    6   46 1     
   49   11   47 1     
   50   11   48 1     
   51   19   49 1     
   52   19   50 1     
   53   21   51 1     
   54   21   52 1     
   55   23   53 1     
   56   23   54 1     
   57   26   55 1     
   58   26   56 1     
@<TRIPOS>SUBSTRUCTURE
      1 S1             1
@<TRIPOS>SET
LONE_PAIRS      STATIC     ATOMS    <user>   **** ""
12 45 46 47 48 49 50 51 52 53 54 55 56
DONOR_HYDROGENS      STATIC     ATOMS    <user>   **** ""
3 42 44 27
ATOM$BLUE        STATIC     ATOMS    COLORGROUP SYSTEM
12 45 46 47 48 49 50 51 52 53 54 55 56
ATOM$RED        STATIC     ATOMS    COLORGROUP SYSTEM
3 42 44 27
