AV-unprocessed.smi:1766|AV-procd|sdf|7135|dock9
  -GOLD-   22720 8373D 1   1.00000     0.00000
 Structure written by MMmdl.
 39 41  0  0  0  0  0  0  0  0  1 V2000
  150.7876  138.8786  154.4247 N   0  0  0  0  0  0  0  0  0  0  0  0
  151.7865  139.2784  155.2168 C   0  0  0  0  0  0  0  0  0  0  0  0
  152.8106  139.7922  154.7719 O   0  0  0  0  0  0  0  0  0  0  0  0
  151.6057  139.0868  156.7258 C   0  0  0  0  0  0  0  0  0  0  0  0
  151.7487  140.4212  157.4038 C   0  0  0  0  0  0  0  0  0  0  0  0
  151.3668  141.5529  156.8076 N   0  0  0  0  0  0  0  0  0  0  0  0
  151.6742  142.5147  157.7494 C   0  0  0  0  0  0  0  0  0  0  0  0
  151.5070  143.9179  157.7181 C   0  0  0  0  0  0  0  0  0  0  0  0
  151.9036  144.7084  158.8167 C   0  0  0  0  0  0  0  0  0  0  0  0
  152.4714  144.1088  159.9596 C   0  0  0  0  0  0  0  0  0  0  0  0
  152.6465  142.7125  160.0110 C   0  0  0  0  0  0  0  0  0  0  0  0
  152.2487  141.9282  158.9118 C   0  0  0  0  0  0  0  0  0  0  0  0
  152.2833  140.5634  158.6451 N   0  0  0  0  0  0  0  0  0  0  0  0
  152.7967  139.5362  159.5425 C   0  0  0  0  0  0  0  0  0  0  0  0
  154.2931  139.7225  159.8630 C   0  0  2  0  0  0  0  0  0  0  0  0
  155.0839  139.0591  158.8956 O   0  0  0  0  0  0  0  0  0  0  0  0
  154.6162  139.2646  161.2765 C   0  0  0  0  0  0  0  0  0  0  0  0
  154.3474  137.9354  161.6678 C   0  0  0  0  0  0  0  0  0  0  0  0
  154.6494  137.5050  162.9747 C   0  0  0  0  0  0  0  0  0  0  0  0
  155.2246  138.4004  163.8968 C   0  0  0  0  0  0  0  0  0  0  0  0
  155.5142  137.9862  165.1530 F   0  0  0  0  0  0  0  0  0  0  0  0
  155.4998  139.7262  163.5106 C   0  0  0  0  0  0  0  0  0  0  0  0
  155.1975  140.1572  162.2042 C   0  0  0  0  0  0  0  0  0  0  0  0
  150.8708  138.9779  153.4233 H   0  0  0  0  0  0  0  0  0  0  0  0
  149.9573  138.4696  154.8287 H   0  0  0  0  0  0  0  0  0  0  0  0
  150.6360  138.6404  156.9456 H   0  0  0  0  0  0  0  0  0  0  0  0
  152.3622  138.3996  157.1075 H   0  0  0  0  0  0  0  0  0  0  0  0
  151.0735  144.3866  156.8473 H   0  0  0  0  0  0  0  0  0  0  0  0
  151.7717  145.7798  158.7819 H   0  0  0  0  0  0  0  0  0  0  0  0
  152.7727  144.7215  160.7966 H   0  0  0  0  0  0  0  0  0  0  0  0
  153.0819  142.2496  160.8842 H   0  0  0  0  0  0  0  0  0  0  0  0
  152.2146  139.5764  160.4640 H   0  0  0  0  0  0  0  0  0  0  0  0
  152.6133  138.5499  159.1190 H   0  0  0  0  0  0  0  0  0  0  0  0
  154.5363  140.7830  159.7846 H   0  0  0  0  0  0  0  0  0  0  0  0
  154.5781  138.3488  158.5313 H   0  0  0  0  0  0  0  0  0  0  0  0
  153.9092  137.2394  160.9676 H   0  0  0  0  0  0  0  0  0  0  0  0
  154.4405  136.4873  163.2698 H   0  0  0  0  0  0  0  0  0  0  0  0
  155.9441  140.4128  164.2159 H   0  0  0  0  0  0  0  0  0  0  0  0
  155.4151  141.1752  161.9150 H   0  0  0  0  0  0  0  0  0  0  0  0
  1  2  1  0  0  0  0
  1 24  1  0  0  0  0
  1 25  1  0  0  0  0
  2  3  2  0  0  0  0
  2  4  1  0  0  0  0
  4  5  1  0  0  0  0
  4 26  1  0  0  0  0
  4 27  1  0  0  0  0
  5 13  1  0  0  0  0
  5  6  2  0  0  0  0
  6  7  1  0  0  0  0
  7 12  2  0  0  0  0
  7  8  1  0  0  0  0
  8  9  2  0  0  0  0
  8 28  1  0  0  0  0
  9 10  1  0  0  0  0
  9 29  1  0  0  0  0
 10 11  2  0  0  0  0
 10 30  1  0  0  0  0
 11 12  1  0  0  0  0
 11 31  1  0  0  0  0
 12 13  1  0  0  0  0
 13 14  1  0  0  0  0
 14 15  1  0  0  0  0
 14 32  1  0  0  0  0
 14 33  1  0  0  0  0
 15 16  1  0  0  0  0
 15 17  1  0  0  0  0
 15 34  1  0  0  0  0
 16 35  1  0  0  0  0
 17 23  1  0  0  0  0
 17 18  2  0  0  0  0
 18 19  1  0  0  0  0
 18 36  1  0  0  0  0
 19 20  2  0  0  0  0
 19 37  1  0  0  0  0
 20 21  1  0  0  0  0
 20 22  1  0  0  0  0
 22 23  2  0  0  0  0
 22 38  1  0  0  0  0
 23 39  1  0  0  0  0
M  END
> <s_m_source_file>
AV-unprocessed.smi

> <i_m_source_file_index>
1766

> <i_lp_mmshare_version>
43012

> <i_f3d_flags>
0

> <s_epik_input>
W2NIXTFbY0hdW2NIXVtjSF1jKGMxMiluKGMobjIpW0NIMl1DKD1PKVtOSDJdKVtDSDJdW0NASF0oW09IXSljM1tjSF1bY0hdYyhGKVtjSF1bY0hdMw==

> <s_epik_cmdline>
J2VwaWtfcHl0aG9uJywgJy1waCcsICc3LjAnLCAnLXRuJywgJzgnLCAnLW1hJywgJzIwMCcsICctbWV0YWxfYmluZGluZycsICctaW1hZScsICc8aW5maWxlLm1hZT4nLCAnLW9tYWUnLCAnPG91dGZpbGUubWFlPic=

> <r_epik_Ionization_Penalty>
0.0366901

> <r_epik_Ionization_Penalty_Charging>
0

> <r_epik_Ionization_Penalty_Neutral>
0.0366901

> <r_epik_State_Penalty>
0.0306642

> <r_epik_Charging_Adjusted_Penalty>
0.0306642

> <i_epik_Tot_Q>
0

> <i_epik_Tot_abs_Q>
0

> <r_epik_Metal_State_Penalty>
0.028853

> <b_epik_Metal_Only>
0

> <s_lp_Force_Field>
OPLS_2005

> <r_lp_Energy>
12.4574

> <b_lp_Chiralities_Consistent>
1

> <s_lp_Variant>
AV-unprocessed.smi:1766-1

> <Gold.Version>
5.8.1

> <Gold.Id.Protein>
6NUR|6NUR_protein|mol2

> <Gold.PLP.Fitness>
53.2274

> <Gold.PLP.PLP>
-48.1211

> <Gold.PLP.part.hbond>
-3.0000

> <Gold.PLP.part.metal>
0.0000

> <Gold.PLP.part.buried>
-4.1679

> <Gold.PLP.part.nonpolar>
-40.5719

> <Gold.PLP.part.repulsive>
0.1747

> <Gold.PLP.ligand.clash>
0.0000

> <Gold.PLP.ligand.torsion>
0.8069

> <Gold.PLP.Chemscore.Hbond>
2.2240

> <Gold.PLP.Chemscore.CHOScore>
0.0000

> <Gold.PLP.Chemscore.Metal>
0.0000

> <Gold.Chemscore.Hbonds>
donor molecule, donor type, donor heavy atom, donor atom, acceptor molecule, acceptor atom, score
      P1  H  7989  7998       L1     3  0.22
      P1  H  7997  8008       L1    16  1.00
      P1  H  7997  8009       L1     3  1.00

> <Gold.PLP.Chemscore.Internal.Correction>
0.0480

> <Gold.Rescore>
     Score         DG    S(hbond)    S(metal)    S(lipo)     H(rot)  DE(clash)    DE(int)     intcor
     16.33     -16.98       1.47        0.00     121.68       2.99       0.00       0.64       ----

> <Gold.Chemscore.Fitness>
16.3341

> <Gold.Chemscore.DG>
-16.9790

> <Gold.Chemscore.ZeroCoef>
-5.4800

> <Gold.Chemscore.Hbond>
1.4693

> <Gold.Chemscore.Metal>
0.0000

> <Gold.Chemscore.Lipo>
121.6801

> <Gold.Chemscore.Internal_Hbond>
0.0000

> <Gold.Chemscore.DEClash>
0.0000

> <Gold.Chemscore.DEInternal>
0.6449

> <Gold.Chemscore.Rot>
2.9864

> <Gold.Chemscore.Internal.Correction>
   9.000000E+99

> <Gold.Chemscore.Hbonds>
donor molecule, donor type, donor heavy atom, donor atom, acceptor molecule, acceptor atom, score
      P1  H  7989  7998       L1     3  0.01
      P1  H  7997  8008       L1    16  0.24
      P1  H  7997  8009       L1     3  0.92

> <Gold.Chemscore.Hbond.Weighted>
-4.9075

> <Gold.Chemscore.Metal.Weighted>
-0.0000

> <Gold.Chemscore.Lipo.Weighted>
-14.2366

> <Gold.Chemscore.Internal_Hbond.Weighted>
0.0000

> <Gold.Chemscore.DEClash.Weighted>
0.0000

> <Gold.Chemscore.DEInternal.Weighted>
0.6449

> <Gold.Chemscore.Rot.Weighted>
7.6451

> <Gold.Chemscore.Internal.Correction.Weighted>
   9.000000E+99

> <Gold.Protein.RotatedTorsions>
[ 6907 6896 6895 6894 ] final -124.15 input  -60.11 | X-H torsion
[ 7974 7965 7964 7962 ] final  177.43 input  175.53 | X-H torsion
[ 8008 7997 7996 7995 ] final -139.71 input   59.86 | X-H torsion
[ 10167 10162 10161 10158 ] final -118.31 input  -65.29 | X-H torsion
[ 10718 10713 10712 10709 ] final  179.31 input   66.30 | X-H torsion
[ 10763 10752 10751 10750 ] final  -46.93 input  -60.55 | X-H torsion
[ 11005 11000 10999 10996 ] final  -95.98 input  -57.11 | X-H torsion

> <Gold.Protein.ActiveResidues>
 VAL166  LYS551  ARG553  GLY616  TRP617  ASP618  TYR619  PRO620  LYS621  CYS622 
 ASP623  PHE694  ASN695  SER759  ASP760  ASP761  ALA762  ILE779  LEU786  VAL792 
 PHE793  MET794  SER795  GLU796  ALA797  LYS798  CYS799  TRP800  GLU811  SER814 

> <Gold.Protein.RotatedAtoms>
  150.8739  133.7466  159.2952 H   0  0  0  0  0  0  0  0  0  0  0  0  # atno 6907 bound_to 6896
  151.5069  135.1062  159.9853 H   0  0  0  0  0  0  0  0  0  0  0  0  # atno 6908 bound_to 6896
  152.4714  133.7994  159.7000 H   0  0  0  0  0  0  0  0  0  0  0  0  # atno 6909 bound_to 6896
  144.7169  140.0245  143.6439 H   0  0  0  0  0  0  0  0  0  0  0  0  # atno 7974 bound_to 7965
  155.4493  140.0537  157.3003 H   0  0  0  0  0  0  0  0  0  0  0  0  # atno 8008 bound_to 7997
  154.4784  140.2071  155.9778 H   0  0  0  0  0  0  0  0  0  0  0  0  # atno 8009 bound_to 7997
  156.1168  140.3195  155.8155 H   0  0  0  0  0  0  0  0  0  0  0  0  # atno 8010 bound_to 7997
  140.0589  143.4987  152.2042 H   0  0  0  0  0  0  0  0  0  0  0  0  # atno 10167 bound_to 10162
  156.8776  130.9805  151.3066 H   0  0  0  0  0  0  0  0  0  0  0  0  # atno 10718 bound_to 10713
  154.0531  135.6628  153.4803 H   0  0  0  0  0  0  0  0  0  0  0  0  # atno 10763 bound_to 10752
  153.0456  135.5117  154.7731 H   0  0  0  0  0  0  0  0  0  0  0  0  # atno 10764 bound_to 10752
  154.6744  135.3034  154.9665 H   0  0  0  0  0  0  0  0  0  0  0  0  # atno 10765 bound_to 10752
  141.1425  133.8065  157.0509 H   0  0  0  0  0  0  0  0  0  0  0  0  # atno 11005 bound_to 11000
  146.0153  139.3204  143.0845 LP  0  0  0  0  0  0  0  0  0  0  0  0  # atno 17320 bound_to 7965
  145.8633  140.9462  143.0688 LP  0  0  0  0  0  0  0  0  0  0  0  0  # atno 17321 bound_to 7965
  139.5906  144.7548  151.3410 LP  0  0  0  0  0  0  0  0  0  0  0  0  # atno 17342 bound_to 10162
  140.7181  143.7210  150.7695 LP  0  0  0  0  0  0  0  0  0  0  0  0  # atno 17343 bound_to 10162
  157.6159  130.8618  149.9028 LP  0  0  0  0  0  0  0  0  0  0  0  0  # atno 17370 bound_to 10713
  156.0694  130.3687  150.0809 LP  0  0  0  0  0  0  0  0  0  0  0  0  # atno 17371 bound_to 10713
  140.0632  134.9743  157.1341 LP  0  0  0  0  0  0  0  0  0  0  0  0  # atno 17394 bound_to 11000
  140.3817  134.2280  155.7170 LP  0  0  0  0  0  0  0  0  0  0  0  0  # atno 17395 bound_to 11000

$$$$
