AV-unprocessed.smi:2822|AV-procd|sdf|10882|dock8
  -GOLD-   2272015323D 1   1.00000     0.00000
 Structure written by MMmdl.
 39 41  0  0  0  0  0  0  0  0  1 V2000
  146.5530  142.8414  154.3935 Cl  0  0  0  0  0  0  0  0  0  0  0  0
  147.4814  141.3875  154.2707 C   0  0  0  0  0  0  0  0  0  0  0  0
  147.0690  140.3680  153.3885 C   0  0  0  0  0  0  0  0  0  0  0  0
  147.7340  139.2037  153.2334 N   0  0  0  0  0  0  0  0  0  0  0  0
  148.8517  139.0173  153.9656 C   0  0  0  0  0  0  0  0  0  0  0  0
  149.3524  139.9706  154.8745 C   0  0  0  0  0  0  0  0  0  0  0  0
  148.6530  141.1897  155.0377 C   0  0  0  0  0  0  0  0  0  0  0  0
  149.0802  142.1927  155.9209 N   0  0  0  0  0  0  0  0  0  0  0  0
  149.8115  141.8604  157.1338 C   0  0  0  0  0  0  0  0  0  0  0  0
  151.2887  142.2856  157.0349 C   0  0  2  0  0  0  0  0  0  0  0  0
  152.1456  141.7560  158.2008 C   0  0  0  0  0  0  0  0  0  0  0  0
  151.8647  142.4322  159.4619 N   0  0  0  0  0  0  0  0  0  0  0  0
  152.7158  141.9174  160.5342 C   0  0  0  0  0  0  0  0  0  0  0  0
  152.4282  142.5859  161.8876 C   0  0  0  0  0  0  0  0  0  0  0  0
  152.5800  144.1091  161.7722 C   0  0  0  0  0  0  0  0  0  0  0  0
  151.7217  144.6368  160.6126 C   0  0  0  0  0  0  0  0  0  0  0  0
  152.0325  143.8797  159.3045 C   0  0  2  0  0  0  0  0  0  0  0  0
  151.1594  144.4157  158.1528 C   0  0  0  0  0  0  0  0  0  0  0  0
  151.4329  143.7048  156.9481 O   0  0  0  0  0  0  0  0  0  0  0  0
  146.1785  140.4903  152.7897 H   0  0  0  0  0  0  0  0  0  0  0  0
  149.3651  138.0777  153.8234 H   0  0  0  0  0  0  0  0  0  0  0  0
  150.2557  139.7524  155.4240 H   0  0  0  0  0  0  0  0  0  0  0  0
  148.6915  143.1212  155.8350 H   0  0  0  0  0  0  0  0  0  0  0  0
  149.3310  142.3192  157.9978 H   0  0  0  0  0  0  0  0  0  0  0  0
  149.7577  140.7811  157.2801 H   0  0  0  0  0  0  0  0  0  0  0  0
  151.6929  141.8682  156.1119 H   0  0  0  0  0  0  0  0  0  0  0  0
  151.9899  140.6823  158.3114 H   0  0  0  0  0  0  0  0  0  0  0  0
  153.1989  141.8879  157.9477 H   0  0  0  0  0  0  0  0  0  0  0  0
  152.5697  140.8412  160.6322 H   0  0  0  0  0  0  0  0  0  0  0  0
  153.7658  142.0629  160.2755 H   0  0  0  0  0  0  0  0  0  0  0  0
  151.4162  142.3390  162.2111 H   0  0  0  0  0  0  0  0  0  0  0  0
  153.1039  142.1977  162.6502 H   0  0  0  0  0  0  0  0  0  0  0  0
  152.2934  144.5913  162.7072 H   0  0  0  0  0  0  0  0  0  0  0  0
  153.6267  144.3611  161.5968 H   0  0  0  0  0  0  0  0  0  0  0  0
  150.6658  144.5234  160.8623 H   0  0  0  0  0  0  0  0  0  0  0  0
  151.8964  145.7052  160.4815 H   0  0  0  0  0  0  0  0  0  0  0  0
  153.0738  144.0794  159.0451 H   0  0  0  0  0  0  0  0  0  0  0  0
  150.0994  144.3457  158.3987 H   0  0  0  0  0  0  0  0  0  0  0  0
  151.3677  145.4723  157.9824 H   0  0  0  0  0  0  0  0  0  0  0  0
  1  2  1  0  0  0  0
  2  7  1  0  0  0  0
  2  3  2  0  0  0  0
  3  4  1  0  0  0  0
  3 20  1  0  0  0  0
  4  5  2  0  0  0  0
  5  6  1  0  0  0  0
  5 21  1  0  0  0  0
  6  7  2  0  0  0  0
  6 22  1  0  0  0  0
  7  8  1  0  0  0  0
  8  9  1  0  0  0  0
  8 23  1  0  0  0  0
  9 10  1  0  0  0  0
  9 24  1  0  0  0  0
  9 25  1  0  0  0  0
 10 19  1  0  0  0  0
 10 11  1  0  0  0  0
 10 26  1  0  0  0  0
 11 12  1  0  0  0  0
 11 27  1  0  0  0  0
 11 28  1  0  0  0  0
 12 17  1  0  0  0  0
 12 13  1  0  0  0  0
 13 14  1  0  0  0  0
 13 29  1  0  0  0  0
 13 30  1  0  0  0  0
 14 15  1  0  0  0  0
 14 31  1  0  0  0  0
 14 32  1  0  0  0  0
 15 16  1  0  0  0  0
 15 33  1  0  0  0  0
 15 34  1  0  0  0  0
 16 17  1  0  0  0  0
 16 35  1  0  0  0  0
 16 36  1  0  0  0  0
 17 18  1  0  0  0  0
 17 37  1  0  0  0  0
 18 19  1  0  0  0  0
 18 38  1  0  0  0  0
 18 39  1  0  0  0  0
M  END
> <s_m_source_file>
AV-unprocessed.smi

> <i_m_source_file_index>
2822

> <i_lp_mmshare_version>
43012

> <i_f3d_flags>
0

> <s_epik_input>
Q2xjMVtjSF1uW2NIXVtjSF1jMVtOSF1bQ0gyXVtDQEhdKFtDSDJdMilPW0NIMl1bQ0BASF0oTjIzKVtDSDJdW0NIMl1bQ0gyXVtDSDJdMw==

> <s_epik_cmdline>
J2VwaWtfcHl0aG9uJywgJy1waCcsICc3LjAnLCAnLXRuJywgJzgnLCAnLW1hJywgJzIwMCcsICctbWV0YWxfYmluZGluZycsICctaW1hZScsICc8aW5maWxlLm1hZT4nLCAnLW9tYWUnLCAnPG91dGZpbGUubWFlPic=

> <r_lp_tautomer_probability>
0.999999

> <r_epik_Ionization_Penalty>
2.10064

> <r_epik_Ionization_Penalty_Charging>
0

> <r_epik_Ionization_Penalty_Neutral>
2.10064

> <r_epik_State_Penalty>
2.1757

> <r_epik_Charging_Adjusted_Penalty>
2.1757

> <i_epik_Tot_Q>
0

> <i_epik_Tot_abs_Q>
0

> <r_epik_Metal_State_Penalty>
1.25425

> <b_epik_Metal_Only>
0

> <s_lp_Force_Field>
OPLS_2005

> <r_lp_Energy>
40.8538

> <b_lp_Chiralities_Consistent>
1

> <s_lp_Variant>
AV-unprocessed.smi:2822-23

> <Gold.Version>
5.8.1

> <Gold.Id.Protein>
6NUR|6NUR_protein|mol2

> <Gold.PLP.Fitness>
47.8146

> <Gold.PLP.PLP>
-40.6703

> <Gold.PLP.part.hbond>
-0.9924

> <Gold.PLP.part.metal>
0.0000

> <Gold.PLP.part.buried>
-5.4173

> <Gold.PLP.part.nonpolar>
-36.1260

> <Gold.PLP.part.repulsive>
2.7669

> <Gold.PLP.ligand.clash>
0.0000

> <Gold.PLP.ligand.torsion>
0.2682

> <Gold.PLP.Chemscore.Hbond>
1.0000

> <Gold.PLP.Chemscore.CHOScore>
1.5587

> <Gold.PLP.Chemscore.Metal>
0.0000

> <Gold.Chemscore.Hbonds>
donor molecule, donor type, donor heavy atom, donor atom, acceptor molecule, acceptor atom, score
      L1  H     8    23       P1  8028  1.00
      L1  C     3    20       P1 10175  1.00
      L1  C     5    21       P1  7948  0.56

> <Gold.PLP.Chemscore.Internal.Correction>
0.0045

> <Gold.Rescore>
     Score         DG    S(hbond)    S(metal)    S(lipo)     H(rot)  DE(clash)    DE(int)     intcor
     20.15     -20.59       0.98        0.00     126.38       1.15       0.19       0.25       ----

> <Gold.Chemscore.Fitness>
20.1459

> <Gold.Chemscore.DG>
-20.5892

> <Gold.Chemscore.ZeroCoef>
-5.4800

> <Gold.Chemscore.Hbond>
0.9796

> <Gold.Chemscore.Metal>
0.0000

> <Gold.Chemscore.Lipo>
126.3756

> <Gold.Chemscore.Internal_Hbond>
0.0000

> <Gold.Chemscore.DEClash>
0.1893

> <Gold.Chemscore.DEInternal>
0.2540

> <Gold.Chemscore.Rot>
1.1519

> <Gold.Chemscore.Internal.Correction>
   9.000000E+99

> <Gold.Chemscore.Hbonds>
donor molecule, donor type, donor heavy atom, donor atom, acceptor molecule, acceptor atom, score
      L1  H     8    23       P1  8028  0.94

> <Gold.Chemscore.Hbond.Weighted>
-3.2720

> <Gold.Chemscore.Metal.Weighted>
-0.0000

> <Gold.Chemscore.Lipo.Weighted>
-14.7859

> <Gold.Chemscore.Internal_Hbond.Weighted>
0.0000

> <Gold.Chemscore.DEClash.Weighted>
0.1893

> <Gold.Chemscore.DEInternal.Weighted>
0.2540

> <Gold.Chemscore.Rot.Weighted>
2.9487

> <Gold.Chemscore.Internal.Correction.Weighted>
   9.000000E+99

> <Gold.Protein.RotatedTorsions>
[ 6907 6896 6895 6894 ] final  107.85 input  -60.11 | X-H torsion
[ 7974 7965 7964 7962 ] final -114.74 input  175.53 | X-H torsion
[ 8008 7997 7996 7995 ] final -168.94 input   59.86 | X-H torsion
[ 10167 10162 10161 10158 ] final  105.15 input  -65.29 | X-H torsion
[ 10718 10713 10712 10709 ] final  159.33 input   66.30 | X-H torsion
[ 10763 10752 10751 10750 ] final  129.38 input  -60.55 | X-H torsion
[ 11005 11000 10999 10996 ] final   61.66 input  -57.11 | X-H torsion

> <Gold.Protein.ActiveResidues>
 VAL166  LYS551  ARG553  GLY616  TRP617  ASP618  TYR619  PRO620  LYS621  CYS622 
 ASP623  PHE694  ASN695  SER759  ASP760  ASP761  ALA762  ILE779  LEU786  VAL792 
 PHE793  MET794  SER795  GLU796  ALA797  LYS798  CYS799  TRP800  GLU811  SER814 

> <Gold.Protein.RotatedAtoms>
  152.5137  133.9174  159.7517 H   0  0  0  0  0  0  0  0  0  0  0  0  # atno 6907 bound_to 6896
  150.9554  133.6495  159.2771 H   0  0  0  0  0  0  0  0  0  0  0  0  # atno 6908 bound_to 6896
  151.3759  135.0936  159.9533 H   0  0  0  0  0  0  0  0  0  0  0  0  # atno 6909 bound_to 6896
  145.1166  140.8644  143.3839 H   0  0  0  0  0  0  0  0  0  0  0  0  # atno 7974 bound_to 7965
  155.8983  140.1036  157.1369 H   0  0  0  0  0  0  0  0  0  0  0  0  # atno 8008 bound_to 7997
  154.4023  140.1297  156.4467 H   0  0  0  0  0  0  0  0  0  0  0  0  # atno 8009 bound_to 7997
  155.7453  140.3466  155.5126 H   0  0  0  0  0  0  0  0  0  0  0  0  # atno 8010 bound_to 7997
  139.7116  144.7076  151.1017 H   0  0  0  0  0  0  0  0  0  0  0  0  # atno 10167 bound_to 10162
  157.1657  131.0598  151.2209 H   0  0  0  0  0  0  0  0  0  0  0  0  # atno 10718 bound_to 10713
  153.7408  135.3224  155.3303 H   0  0  0  0  0  0  0  0  0  0  0  0  # atno 10763 bound_to 10752
  154.8296  135.4544  154.1029 H   0  0  0  0  0  0  0  0  0  0  0  0  # atno 10764 bound_to 10752
  153.2203  135.6947  153.8090 H   0  0  0  0  0  0  0  0  0  0  0  0  # atno 10765 bound_to 10752
  140.0146  134.6245  155.9729 H   0  0  0  0  0  0  0  0  0  0  0  0  # atno 11005 bound_to 11000
  145.0787  139.2976  143.5794 LP  0  0  0  0  0  0  0  0  0  0  0  0  # atno 17320 bound_to 7965
  146.3523  140.0287  142.8652 LP  0  0  0  0  0  0  0  0  0  0  0  0  # atno 17321 bound_to 7965
  140.7734  143.5285  150.9452 LP  0  0  0  0  0  0  0  0  0  0  0  0  # atno 17342 bound_to 10162
  139.8970  143.6883  152.3137 LP  0  0  0  0  0  0  0  0  0  0  0  0  # atno 17343 bound_to 10162
  157.4091  130.7375  149.6825 LP  0  0  0  0  0  0  0  0  0  0  0  0  # atno 17370 bound_to 10713
  155.9746  130.4100  150.3908 LP  0  0  0  0  0  0  0  0  0  0  0  0  # atno 17371 bound_to 10713
  141.1734  133.6538  156.4736 LP  0  0  0  0  0  0  0  0  0  0  0  0  # atno 17394 bound_to 11000
  140.4494  134.6942  157.5032 LP  0  0  0  0  0  0  0  0  0  0  0  0  # atno 17395 bound_to 11000

$$$$
