#       Name:                AV-unprocessed.smi:2798
#       Creating user name   scv26
#       Creation time:       Fri Mar 27 15:22:09 2020


#       File generated by GOLD software.
#

@<TRIPOS>MOLECULE
AV-unprocessed.smi:2798
    33    35     1
SMALL
NO_CHARGES


@<TRIPOS>ATOM
      1 ****        -6.6587  -1.5042   0.5522 N.1            1 S1                 0.0000
      2 ****        -5.5054  -1.4116   0.5255 C.1            1 S1                 0.0000
      3 ****        -4.0575  -1.2946   0.4921 C.ar           1 S1                 0.0000
      4 ****        -3.4590  -0.0231   0.6142 C.ar           1 S1                 0.0000
      5 ****        -2.0544   0.0695   0.5782 C.ar           1 S1                 0.0000
      6 ****        -1.2920  -1.1114   0.4210 C.ar           1 S1                 0.0000
      7 ****         0.1100  -1.1275   0.3708 N.pl3          1 S1                 0.0000
      8 ****         0.8837   0.1040   0.2672 C.3            1 S1                 0.0000
      9 ****         0.7587   0.7824  -1.1037 C.3            1 S1                 0.0000
     10 ****         2.2243   0.8833  -1.5439 C.3            1 S1                 0.0000
     11 ****         3.0193   1.8876  -0.6986 C.3            1 S1                 0.0000
     12 ****         3.1714   1.1326   0.6216 C.3            1 S1                 0.0000
     13 ****         2.3977  -0.1620   0.3367 C.3            1 S1                 0.0000
     14 ****         2.7195  -0.3413  -1.0333 O.3            1 S1                 0.0000
     15 ****        -1.9922  -2.3313   0.3110 C.ar           1 S1                 0.0000
     16 ****        -3.3384  -2.4282   0.3434 N.ar           1 S1                 0.0000
     17 ****        -4.0595   0.8673   0.7335 H              1 S1                 0.0000
     18 ****        -1.5884   1.0388   0.6713 H              1 S1                 0.0000
     19 ****         0.5859  -2.0023   0.2009 H              1 S1                 0.0000
     20 ****         0.5955   0.7751   1.0770 H              1 S1                 0.0000
     21 ****         0.1987   0.1664  -1.8093 H              1 S1                 0.0000
     22 ****         0.2729   1.7569  -1.0477 H              1 S1                 0.0000
     23 ****         2.3548   1.0073  -2.6192 H              1 S1                 0.0000
     24 ****         3.9966   2.0832  -1.1415 H              1 S1                 0.0000
     25 ****         2.4973   2.8385  -0.5867 H              1 S1                 0.0000
     26 ****         4.2222   0.9177   0.8190 H              1 S1                 0.0000
     27 ****         2.7700   1.6814   1.4740 H              1 S1                 0.0000
     28 ****         2.6845  -0.9915   0.9842 H              1 S1                 0.0000
     29 ****        -1.4567  -3.2617   0.1903 H              1 S1                 0.0000
     30 ****        -7.6553  -1.5843   0.5753 LP             1 S1                 0.0000
     31 ****         3.7046  -0.4358  -1.1771 LP             1 S1                 0.0000
     32 ****         2.2479  -1.1296  -1.4285 LP             1 S1                 0.0000
     33 ****        -3.7912  -3.3159   0.2595 LP             1 S1                 0.0000
@<TRIPOS>BOND
    1    1    2 3     
    2    2    3 1     
    3    3   16 ar    
    4    3    4 ar    
    5    4    5 ar    
    6    4   17 1     
    7    5    6 ar    
    8    5   18 1     
    9    6    7 1     
   10    6   15 ar    
   11    7    8 1     
   12    7   19 1     
   13    8   13 1     
   14    8    9 1     
   15    8   20 1     
   16    9   10 1     
   17    9   21 1     
   18    9   22 1     
   19   10   14 1     
   20   10   11 1     
   21   10   23 1     
   22   11   12 1     
   23   11   24 1     
   24   11   25 1     
   25   12   13 1     
   26   12   26 1     
   27   12   27 1     
   28   13   14 1     
   29   13   28 1     
   30   15   16 ar    
   31   15   29 1     
   32    1   30 1     
   33   14   31 1     
   34   14   32 1     
   35   16   33 1     
@<TRIPOS>SUBSTRUCTURE
      1 S1             1
@<TRIPOS>SET
LONE_PAIRS      STATIC     ATOMS    <user>   **** ""
4 30 31 32 33
DONOR_HYDROGENS      STATIC     ATOMS    <user>   **** ""
1 19
ATOM$BLUE        STATIC     ATOMS    COLORGROUP SYSTEM
4 30 31 32 33
ATOM$RED        STATIC     ATOMS    COLORGROUP SYSTEM
1 19
