AV-unprocessed.smi:2093|AV-procd|sdf|8546|dock1
  -GOLD-   2272011273D 1   1.00000     0.00000
 Structure written by MMmdl.
 31 32  0  0  0  0  0  0  0  0  1 V2000
  153.1407  138.7001  154.3959 C   0  0  0  0  0  0  0  0  0  0  0  0
  151.6420  138.7634  154.7252 C   0  0  2  0  0  0  0  0  0  0  0  0
  151.3809  139.9508  155.5377 N   0  0  0  0  0  0  0  0  0  0  0  0
  151.9749  140.2574  156.7006 C   0  0  0  0  0  0  0  0  0  0  0  0
  152.8276  139.5516  157.2398 O   0  0  0  0  0  0  0  0  0  0  0  0
  151.5176  141.4265  157.1824 N   0  0  0  0  0  0  0  0  0  0  0  0
  151.8994  142.0957  158.3748 C   0  0  0  0  0  0  0  0  0  0  0  0
  152.4112  141.4880  159.4517 N   0  0  0  0  0  0  0  0  0  0  0  0
  152.6969  142.3924  160.4778 C   0  0  0  0  0  0  0  0  0  0  0  0
  152.3943  143.6939  160.1629 C   0  0  0  0  0  0  0  0  0  0  0  0
  151.7323  143.8360  158.5562 S   0  0  0  0  0  0  0  0  0  0  0  0
  151.1602  137.5016  155.4674 C   0  0  1  0  0  0  0  0  0  0  0  0
  149.6448  137.4171  155.6668 C   0  0  0  0  0  0  0  0  0  0  0  0
  149.4365  135.9267  155.8026 C   0  0  0  0  0  0  0  0  0  0  0  0
  150.4269  135.3847  154.7776 C   0  0  0  0  0  0  0  0  0  0  0  0
  151.4961  136.3261  154.7320 O   0  0  0  0  0  0  0  0  0  0  0  0
  153.3688  137.8433  153.7612 H   0  0  0  0  0  0  0  0  0  0  0  0
  153.7439  138.6131  155.3003 H   0  0  0  0  0  0  0  0  0  0  0  0
  153.4637  139.5953  153.8636 H   0  0  0  0  0  0  0  0  0  0  0  0
  151.0971  138.8259  153.7816 H   0  0  0  0  0  0  0  0  0  0  0  0
  150.6937  140.5962  155.1769 H   0  0  0  0  0  0  0  0  0  0  0  0
  150.8166  141.8958  156.6285 H   0  0  0  0  0  0  0  0  0  0  0  0
  153.1161  142.0224  161.4019 H   0  0  0  0  0  0  0  0  0  0  0  0
  152.5200  144.5737  160.7764 H   0  0  0  0  0  0  0  0  0  0  0  0
  151.6474  137.4301  156.4415 H   0  0  0  0  0  0  0  0  0  0  0  0
  149.2963  137.9781  156.5344 H   0  0  0  0  0  0  0  0  0  0  0  0
  149.1185  137.7884  154.7858 H   0  0  0  0  0  0  0  0  0  0  0  0
  149.7139  135.5995  156.8055 H   0  0  0  0  0  0  0  0  0  0  0  0
  148.4096  135.6149  155.6109 H   0  0  0  0  0  0  0  0  0  0  0  0
  150.7841  134.3865  155.0313 H   0  0  0  0  0  0  0  0  0  0  0  0
  149.9656  135.3394  153.7903 H   0  0  0  0  0  0  0  0  0  0  0  0
  1  2  1  0  0  0  0
  1 17  1  0  0  0  0
  1 18  1  0  0  0  0
  1 19  1  0  0  0  0
  2  3  1  0  0  0  0
  2 12  1  0  0  0  0
  2 20  1  0  0  0  0
  3  4  1  0  0  0  0
  3 21  1  0  0  0  0
  4  5  2  0  0  0  0
  4  6  1  0  0  0  0
  6  7  1  0  0  0  0
  6 22  1  0  0  0  0
  7 11  1  0  0  0  0
  7  8  2  0  0  0  0
  8  9  1  0  0  0  0
  9 10  2  0  0  0  0
  9 23  1  0  0  0  0
 10 11  1  0  0  0  0
 10 24  1  0  0  0  0
 12 16  1  0  0  0  0
 12 13  1  0  0  0  0
 12 25  1  0  0  0  0
 13 14  1  0  0  0  0
 13 26  1  0  0  0  0
 13 27  1  0  0  0  0
 14 15  1  0  0  0  0
 14 28  1  0  0  0  0
 14 29  1  0  0  0  0
 15 16  1  0  0  0  0
 15 30  1  0  0  0  0
 15 31  1  0  0  0  0
M  END
> <s_m_source_file>
AV-unprocessed.smi

> <i_m_source_file_index>
2093

> <i_lp_mmshare_version>
43012

> <i_f3d_flags>
0

> <s_epik_input>
TzFbQ0gyXVtDSDJdW0NIMl1bQ0BIXTFbQ0BIXShbQ0gzXSlbTkhdQyg9TylbTkhdYzJuW2NIXVtjSF1zMg==

> <s_epik_cmdline>
J2VwaWtfcHl0aG9uJywgJy1waCcsICc3LjAnLCAnLXRuJywgJzgnLCAnLW1hJywgJzIwMCcsICctbWV0YWxfYmluZGluZycsICctaW1hZScsICc8aW5maWxlLm1hZT4nLCAnLW9tYWUnLCAnPG91dGZpbGUubWFlPic=

> <r_lp_tautomer_probability>
0.999

> <r_epik_Ionization_Penalty>
0.000334433

> <r_epik_Ionization_Penalty_Charging>
0

> <r_epik_Ionization_Penalty_Neutral>
0.000334433

> <r_epik_State_Penalty>
0.000177984

> <r_epik_Charging_Adjusted_Penalty>
0.000177984

> <i_epik_Tot_Q>
0

> <i_epik_Tot_abs_Q>
0

> <r_epik_Metal_State_Penalty>
0.00767616

> <b_epik_Metal_Only>
0

> <s_lp_Force_Field>
OPLS_2005

> <r_lp_Energy>
15.9736

> <b_lp_Chiralities_Consistent>
1

> <s_lp_Variant>
AV-unprocessed.smi:2093-3

> <Gold.Version>
5.8.1

> <Gold.Id.Protein>
6NUR|6NUR_protein|mol2

> <Gold.PLP.Fitness>
35.3643

> <Gold.PLP.PLP>
-29.7659

> <Gold.PLP.part.hbond>
-2.0000

> <Gold.PLP.part.metal>
0.0000

> <Gold.PLP.part.buried>
-5.0546

> <Gold.PLP.part.nonpolar>
-22.5070

> <Gold.PLP.part.repulsive>
0.3915

> <Gold.PLP.ligand.clash>
0.0000

> <Gold.PLP.ligand.torsion>
0.2082

> <Gold.PLP.Chemscore.Hbond>
2.0000

> <Gold.PLP.Chemscore.CHOScore>
0.0000

> <Gold.PLP.Chemscore.Metal>
0.0000

> <Gold.Chemscore.Hbonds>
donor molecule, donor type, donor heavy atom, donor atom, acceptor molecule, acceptor atom, score
      P1  H  7997  8010       L1     5  1.00
      P1  H 10752 10763       L1    16  1.00

> <Gold.PLP.Chemscore.Internal.Correction>
0.0147

> <Gold.Rescore>
     Score         DG    S(hbond)    S(metal)    S(lipo)     H(rot)  DE(clash)    DE(int)     intcor
     14.04     -16.70       1.87        0.00      70.80       1.29       0.02       2.64       ----

> <Gold.Chemscore.Fitness>
14.0395

> <Gold.Chemscore.DG>
-16.6951

> <Gold.Chemscore.ZeroCoef>
-5.4800

> <Gold.Chemscore.Hbond>
1.8693

> <Gold.Chemscore.Metal>
0.0000

> <Gold.Chemscore.Lipo>
70.8017

> <Gold.Chemscore.Internal_Hbond>
0.0000

> <Gold.Chemscore.DEClash>
0.0199

> <Gold.Chemscore.DEInternal>
2.6356

> <Gold.Chemscore.Rot>
1.2938

> <Gold.Chemscore.Internal.Correction>
   9.000000E+99

> <Gold.Chemscore.Hbonds>
donor molecule, donor type, donor heavy atom, donor atom, acceptor molecule, acceptor atom, score
      P1  H  7997  8010       L1     5  0.88
      P1  H 10752 10763       L1    16  0.85

> <Gold.Chemscore.Hbond.Weighted>
-6.2435

> <Gold.Chemscore.Metal.Weighted>
-0.0000

> <Gold.Chemscore.Lipo.Weighted>
-8.2838

> <Gold.Chemscore.Internal_Hbond.Weighted>
0.0000

> <Gold.Chemscore.DEClash.Weighted>
0.0199

> <Gold.Chemscore.DEInternal.Weighted>
2.6356

> <Gold.Chemscore.Rot.Weighted>
3.3122

> <Gold.Chemscore.Internal.Correction.Weighted>
   9.000000E+99

> <Gold.Protein.RotatedTorsions>
[ 6907 6896 6895 6894 ] final  -10.97 input  -60.11 | X-H torsion
[ 7974 7965 7964 7962 ] final  167.91 input  175.53 | X-H torsion
[ 8008 7997 7996 7995 ] final   36.84 input   59.86 | X-H torsion
[ 10167 10162 10161 10158 ] final   67.03 input  -65.29 | X-H torsion
[ 10718 10713 10712 10709 ] final  169.94 input   66.30 | X-H torsion
[ 10763 10752 10751 10750 ] final   41.25 input  -60.55 | X-H torsion
[ 11005 11000 10999 10996 ] final -107.44 input  -57.11 | X-H torsion

> <Gold.Protein.ActiveResidues>
 VAL166  LYS551  ARG553  GLY616  TRP617  ASP618  TYR619  PRO620  LYS621  CYS622 
 ASP623  PHE694  ASN695  SER759  ASP760  ASP761  ALA762  ILE779  LEU786  VAL792 
 PHE793  MET794  SER795  GLU796  ALA797  LYS798  CYS799  TRP800  GLU811  SER814 

> <Gold.Protein.RotatedAtoms>
  151.3935  135.0960  159.9533 H   0  0  0  0  0  0  0  0  0  0  0  0  # atno 6907 bound_to 6896
  152.5072  133.8957  159.7426 H   0  0  0  0  0  0  0  0  0  0  0  0  # atno 6908 bound_to 6896
  150.9415  133.6595  159.2818 H   0  0  0  0  0  0  0  0  0  0  0  0  # atno 6909 bound_to 6896
  144.7407  139.8831  143.6397 H   0  0  0  0  0  0  0  0  0  0  0  0  # atno 7974 bound_to 7965
  155.1940  140.3310  155.4354 H   0  0  0  0  0  0  0  0  0  0  0  0  # atno 8008 bound_to 7997
  156.2432  140.1905  156.6981 H   0  0  0  0  0  0  0  0  0  0  0  0  # atno 8009 bound_to 7997
  154.6187  140.0598  156.9573 H   0  0  0  0  0  0  0  0  0  0  0  0  # atno 8010 bound_to 7997
  140.0940  144.4963  150.7080 H   0  0  0  0  0  0  0  0  0  0  0  0  # atno 10167 bound_to 10162
  157.0153  131.0216  151.2791 H   0  0  0  0  0  0  0  0  0  0  0  0  # atno 10718 bound_to 10713
  152.9913  135.6167  154.2758 H   0  0  0  0  0  0  0  0  0  0  0  0  # atno 10763 bound_to 10752
  154.2489  135.2786  155.2826 H   0  0  0  0  0  0  0  0  0  0  0  0  # atno 10764 bound_to 10752
  154.5305  135.5789  153.6813 H   0  0  0  0  0  0  0  0  0  0  0  0  # atno 10765 bound_to 10752
  141.0954  133.8980  157.1976 H   0  0  0  0  0  0  0  0  0  0  0  0  # atno 11005 bound_to 11000
  146.1197  139.4213  143.0236 LP  0  0  0  0  0  0  0  0  0  0  0  0  # atno 17320 bound_to 7965
  145.7323  141.0038  143.1345 LP  0  0  0  0  0  0  0  0  0  0  0  0  # atno 17321 bound_to 7965
  140.7013  143.2437  151.4855 LP  0  0  0  0  0  0  0  0  0  0  0  0  # atno 17342 bound_to 10162
  139.5708  144.1932  152.1834 LP  0  0  0  0  0  0  0  0  0  0  0  0  # atno 17343 bound_to 10162
  157.5290  130.8046  149.7895 LP  0  0  0  0  0  0  0  0  0  0  0  0  # atno 17370 bound_to 10713
  156.0121  130.3829  150.2229 LP  0  0  0  0  0  0  0  0  0  0  0  0  # atno 17371 bound_to 10713
  139.9789  135.0104  156.9701 LP  0  0  0  0  0  0  0  0  0  0  0  0  # atno 17394 bound_to 11000
  140.5153  134.0962  155.7279 LP  0  0  0  0  0  0  0  0  0  0  0  0  # atno 17395 bound_to 11000

$$$$
