AV-unprocessed.smi:1803|AV-procd|sdf|7281|dock6
  -GOLD-   22720 8543D 1   1.00000     0.00000
 Structure written by MMmdl.
 36 38  0  0  0  0  0  0  0  0  2 V2000
  145.8811  138.8020  153.5045 O   0  0  0  0  0  0  0  0  0  0  0  0
  146.7308  138.0770  152.9907 C   0  0  0  0  0  0  0  0  0  0  0  0
  148.0479  138.3355  153.1390 N   0  0  0  0  0  0  0  0  0  0  0  0
  148.7390  139.3737  153.8307 C   0  0  0  0  0  0  0  0  0  0  0  0
  149.9612  139.2459  154.3732 N   0  0  0  0  0  0  0  0  0  0  0  0
  150.3928  140.4204  154.9745 N   0  0  0  0  0  0  0  0  0  0  0  0
  149.4842  141.3924  154.8577 C   0  0  0  0  0  0  0  0  0  0  0  0
  148.0124  140.9659  154.0025 S   0  0  0  0  0  0  0  0  0  0  0  0
  146.4130  136.9949  152.2612 N   0  0  0  0  0  0  0  0  0  0  0  0
  145.0601  136.5363  151.9636 C   0  0  2  0  0  0  0  0  0  0  0  0
  144.0972  136.7083  153.1516 C   0  0  0  0  0  0  0  0  0  0  0  0
  143.1918  135.4610  153.1292 C   0  0  0  0  0  0  0  0  0  0  0  0
  143.5846  134.7149  151.9189 N   0  3  2  0  0  0  0  0  0  0  0  0
  143.3088  133.2617  151.9040 C   0  0  0  0  0  0  0  0  0  0  0  0
  143.7106  132.6826  150.5325 C   0  0  0  0  0  0  0  0  0  0  0  0
  145.1661  133.0374  150.1661 C   0  0  0  0  0  0  0  0  0  0  0  0
  145.4183  134.5523  150.2912 C   0  0  0  0  0  0  0  0  0  0  0  0
  145.0031  135.0305  151.6930 C   0  0  1  0  0  0  0  0  0  0  0  0
  148.6547  137.6558  152.7031 H   0  0  0  0  0  0  0  0  0  0  0  0
  149.6825  142.3677  155.2772 H   0  0  0  0  0  0  0  0  0  0  0  0
  147.1733  136.4512  151.8777 H   0  0  0  0  0  0  0  0  0  0  0  0
  144.6497  137.0771  151.1081 H   0  0  0  0  0  0  0  0  0  0  0  0
  144.6363  136.7542  154.0993 H   0  0  0  0  0  0  0  0  0  0  0  0
  143.5215  137.6297  153.0586 H   0  0  0  0  0  0  0  0  0  0  0  0
  143.3701  134.8540  154.0184 H   0  0  0  0  0  0  0  0  0  0  0  0
  142.1321  135.7159  153.0997 H   0  0  0  0  0  0  0  0  0  0  0  0
  143.8630  132.7695  152.7047 H   0  0  0  0  0  0  0  0  0  0  0  0
  142.2485  133.0879  152.0902 H   0  0  0  0  0  0  0  0  0  0  0  0
  143.5770  131.6005  150.5296 H   0  0  0  0  0  0  0  0  0  0  0  0
  143.0420  133.0767  149.7657 H   0  0  0  0  0  0  0  0  0  0  0  0
  145.8472  132.5008  150.8279 H   0  0  0  0  0  0  0  0  0  0  0  0
  145.3912  132.7014  149.1533 H   0  0  0  0  0  0  0  0  0  0  0  0
  146.4717  134.7681  150.1118 H   0  0  0  0  0  0  0  0  0  0  0  0
  144.8531  135.0885  149.5275 H   0  0  0  0  0  0  0  0  0  0  0  0
  145.5991  134.5090  152.4460 H   0  0  0  0  0  0  0  0  0  0  0  0
  143.0754  135.1265  151.1498 H   0  0  0  0  0  0  0  0  0  0  0  0
  1  2  2  0  0  0  0
  2  3  1  0  0  0  0
  2  9  1  0  0  0  0
  3  4  1  0  0  0  0
  3 19  1  0  0  0  0
  4  8  1  0  0  0  0
  4  5  2  0  0  0  0
  5  6  1  0  0  0  0
  6  7  2  0  0  0  0
  7  8  1  0  0  0  0
  7 20  1  0  0  0  0
  9 10  1  0  0  0  0
  9 21  1  0  0  0  0
 10 18  1  0  0  0  0
 10 11  1  0  0  0  0
 10 22  1  0  0  0  0
 11 12  1  0  0  0  0
 11 23  1  0  0  0  0
 11 24  1  0  0  0  0
 12 13  1  0  0  0  0
 12 25  1  0  0  0  0
 12 26  1  0  0  0  0
 13 18  1  0  0  0  0
 13 14  1  0  0  0  0
 13 36  1  0  0  0  0
 14 15  1  0  0  0  0
 14 27  1  0  0  0  0
 14 28  1  0  0  0  0
 15 16  1  0  0  0  0
 15 29  1  0  0  0  0
 15 30  1  0  0  0  0
 16 17  1  0  0  0  0
 16 31  1  0  0  0  0
 16 32  1  0  0  0  0
 17 18  1  0  0  0  0
 17 33  1  0  0  0  0
 17 34  1  0  0  0  0
 18 35  1  0  0  0  0
M  CHG  1  13   1
M  END
> <s_m_source_file>
AV-unprocessed.smi

> <i_m_source_file_index>
1803

> <i_lp_mmshare_version>
43012

> <i_f3d_flags>
0

> <s_epik_input>
czFbY0hdbm5jMVtOSF1DKD1PKVtOSF1bQ0BIXShbQ0gyXVtDSDJdMilbQ0BASF0oTjIzKVtDSDJdW0NIMl1bQ0gyXVtDSDJdMw==

> <s_epik_cmdline>
J2VwaWtfcHl0aG9uJywgJy1waCcsICc3LjAnLCAnLXRuJywgJzgnLCAnLW1hJywgJzIwMCcsICctbWV0YWxfYmluZGluZycsICctaW1hZScsICc8aW5maWxlLm1hZT4nLCAnLW9tYWUnLCAnPG91dGZpbGUubWFlPic=

> <r_lp_tautomer_probability>
1

> <r_epik_Ionization_Penalty>
0.00213286

> <r_epik_Ionization_Penalty_Charging>
0.00107044

> <r_epik_Ionization_Penalty_Neutral>
0.00106242

> <r_epik_State_Penalty>
-0

> <r_epik_Charging_Adjusted_Penalty>
0.00107044

> <i_epik_Tot_Q>
1

> <i_epik_Tot_abs_Q>
1

> <r_epik_Metal_State_Penalty>
0.292783

> <b_epik_Metal_Only>
0

> <s_lp_Force_Field>
OPLS_2005

> <r_lp_Energy>
35.8307

> <b_lp_Chiralities_Consistent>
1

> <s_lp_Variant>
AV-unprocessed.smi:1803-3

> <Gold.Version>
5.8.1

> <Gold.Id.Protein>
6NUR|6NUR_protein|mol2

> <Gold.PLP.Fitness>
36.4554

> <Gold.PLP.PLP>
-26.4518

> <Gold.PLP.part.hbond>
-4.0000

> <Gold.PLP.part.metal>
0.0000

> <Gold.PLP.part.buried>
1.9226

> <Gold.PLP.part.nonpolar>
-26.5311

> <Gold.PLP.part.repulsive>
2.0536

> <Gold.PLP.ligand.clash>
0.0000

> <Gold.PLP.ligand.torsion>
0.5200

> <Gold.PLP.Chemscore.Hbond>
2.6780

> <Gold.PLP.Chemscore.CHOScore>
1.0000

> <Gold.PLP.Chemscore.Metal>
0.0000

> <Gold.Chemscore.Hbonds>
donor molecule, donor type, donor heavy atom, donor atom, acceptor molecule, acceptor atom, score
      L1  H     3    19       P1  7948  1.00
      L1  H     9    21       P1  7948  0.91
      P1  H  7989  7998       L1     6  0.70
      L1  C     7    20       P1  8028  1.00

> <Gold.PLP.Chemscore.Internal.Correction>
0.0096

> <Gold.Rescore>
     Score         DG    S(hbond)    S(metal)    S(lipo)     H(rot)  DE(clash)    DE(int)     intcor
     12.77     -16.03       1.87        0.00      58.64       1.00       0.71       2.56       ----

> <Gold.Chemscore.Fitness>
12.7733

> <Gold.Chemscore.DG>
-16.0346

> <Gold.Chemscore.ZeroCoef>
-5.4800

> <Gold.Chemscore.Hbond>
1.8725

> <Gold.Chemscore.Metal>
0.0000

> <Gold.Chemscore.Lipo>
58.6362

> <Gold.Chemscore.Internal_Hbond>
0.0000

> <Gold.Chemscore.DEClash>
0.7053

> <Gold.Chemscore.DEInternal>
2.5561

> <Gold.Chemscore.Rot>
1.0000

> <Gold.Chemscore.Internal.Correction>
   9.000000E+99

> <Gold.Chemscore.Hbonds>
donor molecule, donor type, donor heavy atom, donor atom, acceptor molecule, acceptor atom, score
      L1  H     3    19       P1  7948  0.97
      L1  H     9    21       P1  7948  0.90
      P1  H  7989  7998       L1     6  0.02

> <Gold.Chemscore.Hbond.Weighted>
-6.2542

> <Gold.Chemscore.Metal.Weighted>
-0.0000

> <Gold.Chemscore.Lipo.Weighted>
-6.8604

> <Gold.Chemscore.Internal_Hbond.Weighted>
0.0000

> <Gold.Chemscore.DEClash.Weighted>
0.7053

> <Gold.Chemscore.DEInternal.Weighted>
2.5561

> <Gold.Chemscore.Rot.Weighted>
2.5600

> <Gold.Chemscore.Internal.Correction.Weighted>
   9.000000E+99

> <Gold.Protein.RotatedTorsions>
[ 6907 6896 6895 6894 ] final  104.98 input  -60.11 | X-H torsion
[ 7974 7965 7964 7962 ] final  167.09 input  175.53 | X-H torsion
[ 8008 7997 7996 7995 ] final  -52.33 input   59.86 | X-H torsion
[ 10167 10162 10161 10158 ] final  168.42 input  -65.29 | X-H torsion
[ 10718 10713 10712 10709 ] final   46.31 input   66.30 | X-H torsion
[ 10763 10752 10751 10750 ] final  -95.70 input  -60.55 | X-H torsion
[ 11005 11000 10999 10996 ] final   44.17 input  -57.11 | X-H torsion

> <Gold.Protein.ActiveResidues>
 VAL166  LYS551  ARG553  GLY616  TRP617  ASP618  TYR619  PRO620  LYS621  CYS622 
 ASP623  PHE694  ASN695  SER759  ASP760  ASP761  ALA762  ILE779  LEU786  VAL792 
 PHE793  MET794  SER795  GLU796  ALA797  LYS798  CYS799  TRP800  GLU811  SER814 

> <Gold.Protein.RotatedAtoms>
  152.5246  133.9597  159.7710 H   0  0  0  0  0  0  0  0  0  0  0  0  # atno 6907 bound_to 6896
  150.9890  133.6160  159.2718 H   0  0  0  0  0  0  0  0  0  0  0  0  # atno 6908 bound_to 6896
  151.3311  135.0848  159.9392 H   0  0  0  0  0  0  0  0  0  0  0  0  # atno 6909 bound_to 6896
  144.7437  139.8711  143.6389 H   0  0  0  0  0  0  0  0  0  0  0  0  # atno 7974 bound_to 7965
  154.4104  140.1226  156.4974 H   0  0  0  0  0  0  0  0  0  0  0  0  # atno 8008 bound_to 7997
  155.6929  140.3495  155.4882 H   0  0  0  0  0  0  0  0  0  0  0  0  # atno 8009 bound_to 7997
  155.9452  140.1094  157.1012 H   0  0  0  0  0  0  0  0  0  0  0  0  # atno 8010 bound_to 7997
  139.4967  144.3817  151.9615 H   0  0  0  0  0  0  0  0  0  0  0  0  # atno 10167 bound_to 10162
  157.4467  130.8114  149.7748 H   0  0  0  0  0  0  0  0  0  0  0  0  # atno 10718 bound_to 10713
  154.7172  135.5111  153.8756 H   0  0  0  0  0  0  0  0  0  0  0  0  # atno 10763 bound_to 10752
  153.0831  135.6637  154.0013 H   0  0  0  0  0  0  0  0  0  0  0  0  # atno 10764 bound_to 10752
  153.9843  135.3026  155.3397 H   0  0  0  0  0  0  0  0  0  0  0  0  # atno 10765 bound_to 10752
  140.1577  134.4381  155.8338 H   0  0  0  0  0  0  0  0  0  0  0  0  # atno 11005 bound_to 11000
  146.1280  139.4309  143.0187 LP  0  0  0  0  0  0  0  0  0  0  0  0  # atno 17320 bound_to 7965
  145.7206  141.0076  143.1404 LP  0  0  0  0  0  0  0  0  0  0  0  0  # atno 17321 bound_to 7965
  140.3253  144.3380  150.6000 LP  0  0  0  0  0  0  0  0  0  0  0  0  # atno 17342 bound_to 10162
  140.5689  143.2183  151.7634 LP  0  0  0  0  0  0  0  0  0  0  0  0  # atno 17343 bound_to 10162
  155.9970  130.3902  150.2756 LP  0  0  0  0  0  0  0  0  0  0  0  0  # atno 17370 bound_to 10713
  157.0925  131.0173  151.3116 LP  0  0  0  0  0  0  0  0  0  0  0  0  # atno 17371 bound_to 10713
  141.2206  133.6899  156.7537 LP  0  0  0  0  0  0  0  0  0  0  0  0  # atno 17394 bound_to 11000
  140.2528  134.8527  157.3683 LP  0  0  0  0  0  0  0  0  0  0  0  0  # atno 17395 bound_to 11000

$$$$
