AV-unprocessed.smi:1641|AV-procd|sdf|6563|dock1
  -GOLD-   22720 7243D 1   1.00000     0.00000
 Structure written by MMmdl.
 40 41  0  0  0  0  0  0  0  0  2 V2000
  147.0346  133.9935  162.5154 C   0  0  0  0  0  0  0  0  0  0  0  0
  147.5259  135.0091  161.5417 C   0  0  0  0  0  0  0  0  0  0  0  0
  147.7301  136.2883  161.8664 N   0  0  0  0  0  0  0  0  0  0  0  0
  148.1896  137.0338  160.7901 N   0  0  0  0  0  0  0  0  0  0  0  0
  148.3369  136.3077  159.6726 C   0  0  0  0  0  0  0  0  0  0  0  0
  148.7704  136.8395  158.5177 N   0  5  0  0  0  0  0  0  0  0  0  0
  149.7443  137.7781  158.5309 C   0  0  0  0  0  0  0  0  0  0  0  0
  150.5445  137.9872  159.4459 O   0  0  0  0  0  0  0  0  0  0  0  0
  149.7990  138.5160  157.4127 N   0  0  0  0  0  0  0  0  0  0  0  0
  150.7533  139.5849  157.1404 C   0  0  0  0  0  0  0  0  0  0  0  0
  150.3681  140.8808  157.8786 C   0  0  0  0  0  0  0  0  0  0  0  0
  151.4935  141.7328  158.2587 N   0  0  0  0  0  0  0  0  0  0  0  0
  151.0268  143.0325  158.7268 C   0  0  0  0  0  0  0  0  0  0  0  0
  152.1935  143.9563  159.1244 C   0  0  1  0  0  0  0  0  0  0  0  0
  151.7068  145.2958  159.6868 C   0  0  0  0  0  0  0  0  0  0  0  0
  152.9780  143.3085  160.1221 O   0  0  0  0  0  0  0  0  0  0  0  0
  153.4972  142.0503  159.6998 C   0  0  1  0  0  0  0  0  0  0  0  0
  154.3256  141.4627  160.8469 C   0  0  0  0  0  0  0  0  0  0  0  0
  152.3299  141.1299  159.2933 C   0  0  0  0  0  0  0  0  0  0  0  0
  147.8863  134.6143  159.8700 S   0  0  0  0  0  0  0  0  0  0  0  0
  147.8657  133.3799  162.8630 H   0  0  0  0  0  0  0  0  0  0  0  0
  146.2956  133.3477  162.0409 H   0  0  0  0  0  0  0  0  0  0  0  0
  146.5720  134.4786  163.3756 H   0  0  0  0  0  0  0  0  0  0  0  0
  149.1239  138.3124  156.6902 H   0  0  0  0  0  0  0  0  0  0  0  0
  151.7323  139.2314  157.4620 H   0  0  0  0  0  0  0  0  0  0  0  0
  150.8215  139.7607  156.0655 H   0  0  0  0  0  0  0  0  0  0  0  0
  149.7064  141.4525  157.2267 H   0  0  0  0  0  0  0  0  0  0  0  0
  149.7763  140.6359  158.7617 H   0  0  0  0  0  0  0  0  0  0  0  0
  150.4375  143.5144  157.9457 H   0  0  0  0  0  0  0  0  0  0  0  0
  150.3609  142.8989  159.5810 H   0  0  0  0  0  0  0  0  0  0  0  0
  152.8200  144.1498  158.2519 H   0  0  0  0  0  0  0  0  0  0  0  0
  151.1069  145.8339  158.9524 H   0  0  0  0  0  0  0  0  0  0  0  0
  152.5487  145.9328  159.9587 H   0  0  0  0  0  0  0  0  0  0  0  0
  151.0962  145.1513  160.5784 H   0  0  0  0  0  0  0  0  0  0  0  0
  154.1516  142.2093  158.8409 H   0  0  0  0  0  0  0  0  0  0  0  0
  154.7607  140.5034  160.5652 H   0  0  0  0  0  0  0  0  0  0  0  0
  153.7133  141.3057  161.7354 H   0  0  0  0  0  0  0  0  0  0  0  0
  155.1426  142.1316  161.1188 H   0  0  0  0  0  0  0  0  0  0  0  0
  151.7230  140.9026  160.1711 H   0  0  0  0  0  0  0  0  0  0  0  0
  152.7396  140.1833  158.9425 H   0  0  0  0  0  0  0  0  0  0  0  0
  1  2  1  0  0  0  0
  1 21  1  0  0  0  0
  1 22  1  0  0  0  0
  1 23  1  0  0  0  0
  2 20  1  0  0  0  0
  2  3  2  0  0  0  0
  3  4  1  0  0  0  0
  4  5  2  0  0  0  0
  5  6  1  0  0  0  0
  5 20  1  0  0  0  0
  6  7  1  0  0  0  0
  7  8  2  0  0  0  0
  7  9  1  0  0  0  0
  9 10  1  0  0  0  0
  9 24  1  0  0  0  0
 10 11  1  0  0  0  0
 10 25  1  0  0  0  0
 10 26  1  0  0  0  0
 11 12  1  0  0  0  0
 11 27  1  0  0  0  0
 11 28  1  0  0  0  0
 12 19  1  0  0  0  0
 12 13  1  0  0  0  0
 13 14  1  0  0  0  0
 13 29  1  0  0  0  0
 13 30  1  0  0  0  0
 14 15  1  0  0  0  0
 14 16  1  0  0  0  0
 14 31  1  0  0  0  0
 15 32  1  0  0  0  0
 15 33  1  0  0  0  0
 15 34  1  0  0  0  0
 16 17  1  0  0  0  0
 17 18  1  0  0  0  0
 17 19  1  0  0  0  0
 17 35  1  0  0  0  0
 18 36  1  0  0  0  0
 18 37  1  0  0  0  0
 18 38  1  0  0  0  0
 19 39  1  0  0  0  0
 19 40  1  0  0  0  0
M  CHG  1   6  -1
M  END
> <s_m_source_file>
AV-unprocessed.smi

> <i_m_source_file_index>
1641

> <i_lp_mmshare_version>
43012

> <i_f3d_flags>
0

> <s_epik_input>
W0NIM11jMW5uYyhzMSlbTkhdQyg9TylbTkhdW0NIMl1bQ0gyXU4yW0NIMl1bQ0BASF0oW0NIM10pT1tDQEBIXShbQ0gzXSlbQ0gyXTI=

> <s_epik_cmdline>
J2VwaWtfcHl0aG9uJywgJy1waCcsICc3LjAnLCAnLXRuJywgJzgnLCAnLW1hJywgJzIwMCcsICctbWV0YWxfYmluZGluZycsICctaW1hZScsICc8aW5maWxlLm1hZT4nLCAnLW9tYWUnLCAnPG91dGZpbGUubWFlPic=

> <r_lp_tautomer_probability>
1

> <r_epik_Ionization_Penalty>
3.81681

> <r_epik_Ionization_Penalty_Charging>
3.36369

> <r_epik_Ionization_Penalty_Neutral>
0.45313

> <r_epik_State_Penalty>
3.571

> <r_epik_Charging_Adjusted_Penalty>
6.93469

> <i_epik_Tot_Q>
-1

> <i_epik_Tot_abs_Q>
1

> <r_epik_Metal_State_Penalty>
0.710322

> <b_epik_Metal_Only>
1

> <s_lp_Force_Field>
OPLS_2005

> <r_lp_Energy>
16.5126

> <b_lp_Chiralities_Consistent>
1

> <s_lp_Variant>
AV-unprocessed.smi:1641-8

> <Gold.Version>
5.8.1

> <Gold.Id.Protein>
6NUR|6NUR_protein|mol2

> <Gold.PLP.Fitness>
41.1089

> <Gold.PLP.PLP>
-38.4953

> <Gold.PLP.part.hbond>
-3.0000

> <Gold.PLP.part.metal>
0.0000

> <Gold.PLP.part.buried>
-6.0995

> <Gold.PLP.part.nonpolar>
-29.4761

> <Gold.PLP.part.repulsive>
0.0598

> <Gold.PLP.ligand.clash>
0.0000

> <Gold.PLP.ligand.torsion>
0.7239

> <Gold.PLP.Chemscore.Hbond>
1.3400

> <Gold.PLP.Chemscore.CHOScore>
0.0000

> <Gold.PLP.Chemscore.Metal>
0.0000

> <Gold.Chemscore.Hbonds>
donor molecule, donor type, donor heavy atom, donor atom, acceptor molecule, acceptor atom, score
      P1  H  6931  6943       L1     4  0.61
      P1  H  6934  6947       L1     4  0.35

> <Gold.PLP.Chemscore.Internal.Correction>
0.0415

> <Gold.Rescore>
     Score         DG    S(hbond)    S(metal)    S(lipo)     H(rot)  DE(clash)    DE(int)     intcor
     11.01     -13.05       0.25        0.00      91.82       1.57       0.00       2.04       ----

> <Gold.Chemscore.Fitness>
11.0135

> <Gold.Chemscore.DG>
-13.0542

> <Gold.Chemscore.ZeroCoef>
-5.4800

> <Gold.Chemscore.Hbond>
0.2536

> <Gold.Chemscore.Metal>
0.0000

> <Gold.Chemscore.Lipo>
91.8181

> <Gold.Chemscore.Internal_Hbond>
0.0000

> <Gold.Chemscore.DEClash>
0.0004

> <Gold.Chemscore.DEInternal>
2.0402

> <Gold.Chemscore.Rot>
1.5686

> <Gold.Chemscore.Internal.Correction>
   9.000000E+99

> <Gold.Chemscore.Hbonds>
donor molecule, donor type, donor heavy atom, donor atom, acceptor molecule, acceptor atom, score
      P1  H  6931  6943       L1     4  0.05
      P1  H  6934  6947       L1     4  0.22

> <Gold.Chemscore.Hbond.Weighted>
-0.8472

> <Gold.Chemscore.Metal.Weighted>
-0.0000

> <Gold.Chemscore.Lipo.Weighted>
-10.7427

> <Gold.Chemscore.Internal_Hbond.Weighted>
0.0000

> <Gold.Chemscore.DEClash.Weighted>
0.0004

> <Gold.Chemscore.DEInternal.Weighted>
2.0402

> <Gold.Chemscore.Rot.Weighted>
4.0157

> <Gold.Chemscore.Internal.Correction.Weighted>
   9.000000E+99

> <Gold.Protein.RotatedTorsions>
[ 6907 6896 6895 6894 ] final   75.11 input  -60.11 | X-H torsion
[ 7974 7965 7964 7962 ] final  114.56 input  175.53 | X-H torsion
[ 8008 7997 7996 7995 ] final   63.65 input   59.86 | X-H torsion
[ 10167 10162 10161 10158 ] final -165.68 input  -65.29 | X-H torsion
[ 10718 10713 10712 10709 ] final  -54.29 input   66.30 | X-H torsion
[ 10763 10752 10751 10750 ] final  -42.48 input  -60.55 | X-H torsion
[ 11005 11000 10999 10996 ] final   49.51 input  -57.11 | X-H torsion

> <Gold.Protein.ActiveResidues>
 VAL166  LYS551  ARG553  GLY616  TRP617  ASP618  TYR619  PRO620  LYS621  CYS622 
 ASP623  PHE694  ASN695  SER759  ASP760  ASP761  ALA762  ILE779  LEU786  VAL792 
 PHE793  MET794  SER795  GLU796  ALA797  LYS798  CYS799  TRP800  GLU811  SER814 

> <Gold.Protein.RotatedAtoms>
  152.5009  134.4170  159.9467 H   0  0  0  0  0  0  0  0  0  0  0  0  # atno 6907 bound_to 6896
  151.4141  133.3712  159.2755 H   0  0  0  0  0  0  0  0  0  0  0  0  # atno 6908 bound_to 6896
  150.9270  134.8708  159.7586 H   0  0  0  0  0  0  0  0  0  0  0  0  # atno 6909 bound_to 6896
  145.2030  139.2943  143.4308 H   0  0  0  0  0  0  0  0  0  0  0  0  # atno 7974 bound_to 7965
  155.6335  140.3496  155.4691 H   0  0  0  0  0  0  0  0  0  0  0  0  # atno 8008 bound_to 7997
  155.9984  140.1208  157.0595 H   0  0  0  0  0  0  0  0  0  0  0  0  # atno 8009 bound_to 7997
  154.4241  140.1105  156.5648 H   0  0  0  0  0  0  0  0  0  0  0  0  # atno 8010 bound_to 7997
  139.6165  144.0708  152.1893 H   0  0  0  0  0  0  0  0  0  0  0  0  # atno 10167 bound_to 10162
  156.1463  130.4152  150.0019 H   0  0  0  0  0  0  0  0  0  0  0  0  # atno 10718 bound_to 10713
  153.9798  135.6718  153.4749 H   0  0  0  0  0  0  0  0  0  0  0  0  # atno 10763 bound_to 10752
  153.0754  135.4951  154.8389 H   0  0  0  0  0  0  0  0  0  0  0  0  # atno 10764 bound_to 10752
  154.7171  135.3109  154.9067 H   0  0  0  0  0  0  0  0  0  0  0  0  # atno 10765 bound_to 10752
  140.1097  134.4971  155.8688 H   0  0  0  0  0  0  0  0  0  0  0  0  # atno 11005 bound_to 11000
  146.3414  140.2280  142.8592 LP  0  0  0  0  0  0  0  0  0  0  0  0  # atno 17320 bound_to 7965
  144.9930  140.8564  143.5328 LP  0  0  0  0  0  0  0  0  0  0  0  0  # atno 17321 bound_to 7965
  140.0340  144.6059  150.7465 LP  0  0  0  0  0  0  0  0  0  0  0  0  # atno 17342 bound_to 10162
  140.7354  143.2741  151.3796 LP  0  0  0  0  0  0  0  0  0  0  0  0  # atno 17343 bound_to 10162
  156.7890  130.9249  151.3646 LP  0  0  0  0  0  0  0  0  0  0  0  0  # atno 17370 bound_to 10713
  157.6619  130.8973  149.9848 LP  0  0  0  0  0  0  0  0  0  0  0  0  # atno 17371 bound_to 10713
  141.2127  133.6723  156.6681 LP  0  0  0  0  0  0  0  0  0  0  0  0  # atno 17394 bound_to 11000
  140.3107  134.8088  157.4174 LP  0  0  0  0  0  0  0  0  0  0  0  0  # atno 17395 bound_to 11000

$$$$
