AV-unprocessed.smi:1762|AV-procd|sdf|7118|dock1
  -GOLD-   22720 8343D 1   1.00000     0.00000
 Structure written by MMmdl.
 53 54  0  0  0  0  0  0  0  0  2 V2000
  146.5672  141.7794  155.4432 C   0  0  0  0  0  0  0  0  0  0  0  0
  147.4902  141.8756  154.2150 C   0  0  1  0  0  0  0  0  0  0  0  0
  148.9762  141.6423  154.5435 C   0  0  0  0  0  0  0  0  0  0  0  0
  149.2547  140.2095  154.8506 N   0  3  2  0  0  0  0  0  0  0  0  0
  150.6716  139.9698  155.2940 C   0  0  1  0  0  0  0  0  0  0  0  0
  150.7464  139.7911  156.8261 C   0  0  0  0  0  0  0  0  0  0  0  0
  149.9889  139.0036  157.3950 O   0  0  0  0  0  0  0  0  0  0  0  0
  151.6610  140.5270  157.4753 N   0  0  0  0  0  0  0  0  0  0  0  0
  151.8886  140.4926  158.9138 C   0  0  0  0  0  0  0  0  0  0  0  0
  153.0421  141.4296  159.2977 C   0  0  0  0  0  0  0  0  0  0  0  0
  152.5644  142.8381  159.5973 C   0  0  0  0  0  0  0  0  0  0  0  0
  152.4908  143.8075  158.5744 C   0  0  0  0  0  0  0  0  0  0  0  0
  152.0364  145.0988  158.9056 C   0  0  0  0  0  0  0  0  0  0  0  0
  151.6734  145.3687  160.2392 C   0  0  0  0  0  0  0  0  0  0  0  0
  151.7819  144.3311  161.1865 C   0  0  0  0  0  0  0  0  0  0  0  0
  152.2179  143.0901  160.8798 N   0  0  0  0  0  0  0  0  0  0  0  0
  151.3852  138.7799  154.5661 C   0  0  0  0  0  0  0  0  0  0  0  0
  150.7851  137.3957  154.8906 C   0  0  0  0  0  0  0  0  0  0  0  0
  152.9110  138.7578  154.7852 C   0  0  0  0  0  0  0  0  0  0  0  0
  148.7910  139.3765  153.7072 C   0  0  0  0  0  0  0  0  0  0  0  0
  147.3013  139.6285  153.4082 C   0  0  2  0  0  0  0  0  0  0  0  0
  146.8238  138.8470  152.1794 C   0  0  0  0  0  0  0  0  0  0  0  0
  147.0851  141.0121  153.1562 O   0  0  0  0  0  0  0  0  0  0  0  0
  146.8178  142.5481  156.1747 H   0  0  0  0  0  0  0  0  0  0  0  0
  146.6465  140.8172  155.9485 H   0  0  0  0  0  0  0  0  0  0  0  0
  145.5249  141.9240  155.1583 H   0  0  0  0  0  0  0  0  0  0  0  0
  147.3922  142.8901  153.8275 H   0  0  0  0  0  0  0  0  0  0  0  0
  149.5885  141.9458  153.6928 H   0  0  0  0  0  0  0  0  0  0  0  0
  149.2525  142.2977  155.3691 H   0  0  0  0  0  0  0  0  0  0  0  0
  151.2262  140.8753  155.0396 H   0  0  0  0  0  0  0  0  0  0  0  0
  152.2461  141.1482  156.9351 H   0  0  0  0  0  0  0  0  0  0  0  0
  150.9715  140.7934  159.4219 H   0  0  0  0  0  0  0  0  0  0  0  0
  152.1184  139.4761  159.2385 H   0  0  0  0  0  0  0  0  0  0  0  0
  153.5627  141.0406  160.1742 H   0  0  0  0  0  0  0  0  0  0  0  0
  153.7789  141.4643  158.4940 H   0  0  0  0  0  0  0  0  0  0  0  0
  152.7743  143.5699  157.5596 H   0  0  0  0  0  0  0  0  0  0  0  0
  151.9666  145.8677  158.1502 H   0  0  0  0  0  0  0  0  0  0  0  0
  151.3201  146.3471  160.5296 H   0  0  0  0  0  0  0  0  0  0  0  0
  151.5117  144.5024  162.2178 H   0  0  0  0  0  0  0  0  0  0  0  0
  151.2846  138.9369  153.4933 H   0  0  0  0  0  0  0  0  0  0  0  0
  150.9673  137.1100  155.9268 H   0  0  0  0  0  0  0  0  0  0  0  0
  151.2289  136.6241  154.2609 H   0  0  0  0  0  0  0  0  0  0  0  0
  149.7084  137.3663  154.7259 H   0  0  0  0  0  0  0  0  0  0  0  0
  153.1764  138.4926  155.8091 H   0  0  0  0  0  0  0  0  0  0  0  0
  153.3557  139.7284  154.5634 H   0  0  0  0  0  0  0  0  0  0  0  0
  153.3862  138.0258  154.1312 H   0  0  0  0  0  0  0  0  0  0  0  0
  149.4016  139.5901  152.8283 H   0  0  0  0  0  0  0  0  0  0  0  0
  148.8922  138.3145  153.9204 H   0  0  0  0  0  0  0  0  0  0  0  0
  146.6999  139.3123  154.2606 H   0  0  0  0  0  0  0  0  0  0  0  0
  146.9503  137.7735  152.3223 H   0  0  0  0  0  0  0  0  0  0  0  0
  147.3813  139.1336  151.2872 H   0  0  0  0  0  0  0  0  0  0  0  0
  145.7671  139.0330  151.9857 H   0  0  0  0  0  0  0  0  0  0  0  0
  148.6733  139.9614  155.6388 H   0  0  0  0  0  0  0  0  0  0  0  0
  1  2  1  0  0  0  0
  1 24  1  0  0  0  0
  1 25  1  0  0  0  0
  1 26  1  0  0  0  0
  2 23  1  0  0  0  0
  2  3  1  0  0  0  0
  2 27  1  0  0  0  0
  3  4  1  0  0  0  0
  3 28  1  0  0  0  0
  3 29  1  0  0  0  0
  4  5  1  0  0  0  0
  4 20  1  0  0  0  0
  4 53  1  0  0  0  0
  5  6  1  0  0  0  0
  5 17  1  0  0  0  0
  5 30  1  0  0  0  0
  6  7  2  0  0  0  0
  6  8  1  0  0  0  0
  8  9  1  0  0  0  0
  8 31  1  0  0  0  0
  9 10  1  0  0  0  0
  9 32  1  0  0  0  0
  9 33  1  0  0  0  0
 10 11  1  0  0  0  0
 10 34  1  0  0  0  0
 10 35  1  0  0  0  0
 11 16  1  0  0  0  0
 11 12  2  0  0  0  0
 12 13  1  0  0  0  0
 12 36  1  0  0  0  0
 13 14  2  0  0  0  0
 13 37  1  0  0  0  0
 14 15  1  0  0  0  0
 14 38  1  0  0  0  0
 15 16  2  0  0  0  0
 15 39  1  0  0  0  0
 17 18  1  0  0  0  0
 17 19  1  0  0  0  0
 17 40  1  0  0  0  0
 18 41  1  0  0  0  0
 18 42  1  0  0  0  0
 18 43  1  0  0  0  0
 19 44  1  0  0  0  0
 19 45  1  0  0  0  0
 19 46  1  0  0  0  0
 20 21  1  0  0  0  0
 20 47  1  0  0  0  0
 20 48  1  0  0  0  0
 21 22  1  0  0  0  0
 21 23  1  0  0  0  0
 21 49  1  0  0  0  0
 22 50  1  0  0  0  0
 22 51  1  0  0  0  0
 22 52  1  0  0  0  0
M  CHG  1   4   1
M  END
> <s_m_source_file>
AV-unprocessed.smi

> <i_m_source_file_index>
1762

> <i_lp_mmshare_version>
43012

> <i_f3d_flags>
0

> <s_epik_input>
W0NIM11bQ0BASF0xW0NIMl1OKFtDSDJdW0NASF0oTzEpW0NIM10pW0NAQEhdKFtDSF0oW0NIM10pW0NIM10pQyg9TylbTkhdW0NIMl1bQ0gyXWMyW2NIXVtjSF1bY0hdW2NIXW4y

> <s_epik_cmdline>
J2VwaWtfcHl0aG9uJywgJy1waCcsICc3LjAnLCAnLXRuJywgJzgnLCAnLW1hJywgJzIwMCcsICctbWV0YWxfYmluZGluZycsICctaW1hZScsICc8aW5maWxlLm1hZT4nLCAnLW9tYWUnLCAnPG91dGZpbGUubWFlPic=

> <r_epik_Ionization_Penalty>
2.27005

> <r_epik_Ionization_Penalty_Charging>
2.24983

> <r_epik_Ionization_Penalty_Neutral>
0.0202209

> <r_epik_State_Penalty>
2.40228

> <r_epik_Charging_Adjusted_Penalty>
4.65211

> <i_epik_Tot_Q>
1

> <i_epik_Tot_abs_Q>
1

> <r_epik_Metal_State_Penalty>
2.40762

> <b_epik_Metal_Only>
0

> <s_lp_Force_Field>
OPLS_2005

> <r_lp_Energy>
25.0813

> <b_lp_Chiralities_Consistent>
1

> <s_lp_Variant>
AV-unprocessed.smi:1762-20

> <Gold.Version>
5.8.1

> <Gold.Id.Protein>
6NUR|6NUR_protein|mol2

> <Gold.PLP.Fitness>
49.7567

> <Gold.PLP.PLP>
-54.0177

> <Gold.PLP.part.hbond>
0.0000

> <Gold.PLP.part.metal>
0.0000

> <Gold.PLP.part.buried>
-2.7366

> <Gold.PLP.part.nonpolar>
-51.7912

> <Gold.PLP.part.repulsive>
0.4328

> <Gold.PLP.ligand.clash>
0.0000

> <Gold.PLP.ligand.torsion>
2.3259

> <Gold.PLP.Chemscore.Hbond>
0.0000

> <Gold.PLP.Chemscore.CHOScore>
0.0000

> <Gold.PLP.Chemscore.Metal>
0.0000

> <Gold.PLP.Chemscore.Internal.Correction>
0.3908

> <Gold.Rescore>
     Score         DG    S(hbond)    S(metal)    S(lipo)     H(rot)  DE(clash)    DE(int)     intcor
     16.34     -18.55       0.00        0.00     148.11       1.66       0.24       1.97       ----

> <Gold.Chemscore.Fitness>
16.3379

> <Gold.Chemscore.DG>
-18.5504

> <Gold.Chemscore.ZeroCoef>
-5.4800

> <Gold.Chemscore.Hbond>
0.0000

> <Gold.Chemscore.Metal>
0.0000

> <Gold.Chemscore.Lipo>
148.1112

> <Gold.Chemscore.Internal_Hbond>
0.0000

> <Gold.Chemscore.DEClash>
0.2420

> <Gold.Chemscore.DEInternal>
1.9705

> <Gold.Chemscore.Rot>
1.6635

> <Gold.Chemscore.Internal.Correction>
   9.000000E+99

> <Gold.Chemscore.Hbond.Weighted>
-0.0000

> <Gold.Chemscore.Metal.Weighted>
-0.0000

> <Gold.Chemscore.Lipo.Weighted>
-17.3290

> <Gold.Chemscore.Internal_Hbond.Weighted>
0.0000

> <Gold.Chemscore.DEClash.Weighted>
0.2420

> <Gold.Chemscore.DEInternal.Weighted>
1.9705

> <Gold.Chemscore.Rot.Weighted>
4.2586

> <Gold.Chemscore.Internal.Correction.Weighted>
   9.000000E+99

> <Gold.Protein.RotatedTorsions>
[ 6907 6896 6895 6894 ] final  100.52 input  -60.11 | X-H torsion
[ 7974 7965 7964 7962 ] final  134.75 input  175.53 | X-H torsion
[ 8008 7997 7996 7995 ] final -121.70 input   59.86 | X-H torsion
[ 10167 10162 10161 10158 ] final  144.96 input  -65.29 | X-H torsion
[ 10718 10713 10712 10709 ] final    1.60 input   66.30 | X-H torsion
[ 10763 10752 10751 10750 ] final -175.09 input  -60.55 | X-H torsion
[ 11005 11000 10999 10996 ] final   63.29 input  -57.11 | X-H torsion

> <Gold.Protein.ActiveResidues>
 VAL166  LYS551  ARG553  GLY616  TRP617  ASP618  TYR619  PRO620  LYS621  CYS622 
 ASP623  PHE694  ASN695  SER759  ASP760  ASP761  ALA762  ILE779  LEU786  VAL792 
 PHE793  MET794  SER795  GLU796  ALA797  LYS798  CYS799  TRP800  GLU811  SER814 

> <Gold.Protein.RotatedAtoms>
  152.5370  134.0264  159.8004 H   0  0  0  0  0  0  0  0  0  0  0  0  # atno 6907 bound_to 6896
  151.0442  133.5672  159.2655 H   0  0  0  0  0  0  0  0  0  0  0  0  # atno 6908 bound_to 6896
  151.2630  135.0668  159.9159 H   0  0  0  0  0  0  0  0  0  0  0  0  # atno 6909 bound_to 6896
  144.9732  139.4583  143.5423 H   0  0  0  0  0  0  0  0  0  0  0  0  # atno 7974 bound_to 7965
  155.1522  140.0404  157.2824 H   0  0  0  0  0  0  0  0  0  0  0  0  # atno 8008 bound_to 7997
  154.6396  140.2543  155.7311 H   0  0  0  0  0  0  0  0  0  0  0  0  # atno 8009 bound_to 7997
  156.2525  140.2858  156.0783 H   0  0  0  0  0  0  0  0  0  0  0  0  # atno 8010 bound_to 7997
  139.4936  144.5935  151.6631 H   0  0  0  0  0  0  0  0  0  0  0  0  # atno 10167 bound_to 10162
  156.8506  130.5552  149.5670 H   0  0  0  0  0  0  0  0  0  0  0  0  # atno 10718 bound_to 10713
  154.5885  135.2843  155.0660 H   0  0  0  0  0  0  0  0  0  0  0  0  # atno 10763 bound_to 10752
  154.1969  135.6431  153.5079 H   0  0  0  0  0  0  0  0  0  0  0  0  # atno 10764 bound_to 10752
  153.0113  135.5459  154.6563 H   0  0  0  0  0  0  0  0  0  0  0  0  # atno 10765 bound_to 10752
  140.0035  134.6406  155.9893 H   0  0  0  0  0  0  0  0  0  0  0  0  # atno 11005 bound_to 11000
  146.3388  139.8957  142.8802 LP  0  0  0  0  0  0  0  0  0  0  0  0  # atno 17320 bound_to 7965
  145.2529  141.0050  143.3871 LP  0  0  0  0  0  0  0  0  0  0  0  0  # atno 17321 bound_to 7965
  140.5568  144.0335  150.6151 LP  0  0  0  0  0  0  0  0  0  0  0  0  # atno 17342 bound_to 10162
  140.3408  143.3021  152.0590 LP  0  0  0  0  0  0  0  0  0  0  0  0  # atno 17343 bound_to 10162
  156.0830  130.5836  150.9598 LP  0  0  0  0  0  0  0  0  0  0  0  0  # atno 17370 bound_to 10713
  157.6306  131.0921  150.8449 LP  0  0  0  0  0  0  0  0  0  0  0  0  # atno 17371 bound_to 10713
  141.1659  133.6537  156.4479 LP  0  0  0  0  0  0  0  0  0  0  0  0  # atno 17394 bound_to 11000
  140.4685  134.6776  157.5118 LP  0  0  0  0  0  0  0  0  0  0  0  0  # atno 17395 bound_to 11000

$$$$
