AV-unprocessed.smi:1815|AV-procd|sdf|7357|dock5
  -GOLD-   22720 9 13D 1   1.00000     0.00000
 Structure written by MMmdl.
 38 39  0  0  0  0  0  0  0  0  2 V2000
  152.6115  138.4392  154.6777 C   0  0  0  0  0  0  0  0  0  0  0  0
  151.5707  139.1705  155.5319 C   0  0  2  0  0  0  0  0  0  0  0  0
  150.2501  138.3863  155.6323 C   0  0  0  0  0  0  0  0  0  0  0  0
  149.2358  139.1215  156.3752 N   0  0  0  0  0  0  0  0  0  0  0  0
  148.0054  138.3393  156.5010 C   0  0  0  0  0  0  0  0  0  0  0  0
  148.1242  137.0456  157.3313 C   0  0  0  0  0  0  0  0  0  0  0  0
  147.7601  137.2570  158.7292 N   0  0  0  0  0  0  0  0  0  0  0  0
  148.5484  137.0265  159.7887 C   0  0  0  0  0  0  0  0  0  0  0  0
  149.6889  136.5874  159.6228 O   0  0  0  0  0  0  0  0  0  0  0  0
  147.9674  137.3201  160.9744 N   0  5  0  0  0  0  0  0  0  0  0  0
  147.2535  136.3846  161.6212 C   0  0  0  0  0  0  0  0  0  0  0  0
  146.0318  136.6131  162.1163 N   0  0  0  0  0  0  0  0  0  0  0  0
  145.4737  135.5029  162.7526 C   0  0  0  0  0  0  0  0  0  0  0  0
  146.2937  134.4059  162.7504 C   0  0  0  0  0  0  0  0  0  0  0  0
  147.8005  134.7366  161.9445 S   0  0  0  0  0  0  0  0  0  0  0  0
  149.0166  140.4149  155.7330 C   0  0  0  0  0  0  0  0  0  0  0  0
  150.3165  141.2290  155.5765 C   0  0  1  0  0  0  0  0  0  0  0  0
  150.8190  141.8301  156.9001 C   0  0  0  0  0  0  0  0  0  0  0  0
  151.3218  140.4420  154.9350 O   0  0  0  0  0  0  0  0  0  0  0  0
  152.8493  137.4625  155.0997 H   0  0  0  0  0  0  0  0  0  0  0  0
  153.5381  139.0104  154.6197 H   0  0  0  0  0  0  0  0  0  0  0  0
  152.2497  138.2860  153.6607 H   0  0  0  0  0  0  0  0  0  0  0  0
  151.9859  139.3136  156.5301 H   0  0  0  0  0  0  0  0  0  0  0  0
  149.8815  138.1598  154.6304 H   0  0  0  0  0  0  0  0  0  0  0  0
  150.4392  137.4286  156.1185 H   0  0  0  0  0  0  0  0  0  0  0  0
  147.2171  138.9638  156.9235 H   0  0  0  0  0  0  0  0  0  0  0  0
  147.6585  138.0640  155.5040 H   0  0  0  0  0  0  0  0  0  0  0  0
  147.4902  136.2593  156.9233 H   0  0  0  0  0  0  0  0  0  0  0  0
  149.1438  136.6620  157.2718 H   0  0  0  0  0  0  0  0  0  0  0  0
  146.8362  137.6207  158.9099 H   0  0  0  0  0  0  0  0  0  0  0  0
  144.4859  135.5837  163.1813 H   0  0  0  0  0  0  0  0  0  0  0  0
  146.1056  133.4300  163.1717 H   0  0  0  0  0  0  0  0  0  0  0  0
  148.5776  140.2580  154.7466 H   0  0  0  0  0  0  0  0  0  0  0  0
  148.2980  141.0058  156.2997 H   0  0  0  0  0  0  0  0  0  0  0  0
  150.1090  142.0645  154.9074 H   0  0  0  0  0  0  0  0  0  0  0  0
  150.0813  142.5154  157.3179 H   0  0  0  0  0  0  0  0  0  0  0  0
  151.7416  142.3902  156.7479 H   0  0  0  0  0  0  0  0  0  0  0  0
  151.0117  141.0644  157.6514 H   0  0  0  0  0  0  0  0  0  0  0  0
  1  2  1  0  0  0  0
  1 20  1  0  0  0  0
  1 21  1  0  0  0  0
  1 22  1  0  0  0  0
  2 19  1  0  0  0  0
  2  3  1  0  0  0  0
  2 23  1  0  0  0  0
  3  4  1  0  0  0  0
  3 24  1  0  0  0  0
  3 25  1  0  0  0  0
  4  5  1  0  0  0  0
  4 16  1  0  0  0  0
  5  6  1  0  0  0  0
  5 26  1  0  0  0  0
  5 27  1  0  0  0  0
  6  7  1  0  0  0  0
  6 28  1  0  0  0  0
  6 29  1  0  0  0  0
  7  8  1  0  0  0  0
  7 30  1  0  0  0  0
  8  9  2  0  0  0  0
  8 10  1  0  0  0  0
 10 11  1  0  0  0  0
 11 15  1  0  0  0  0
 11 12  2  0  0  0  0
 12 13  1  0  0  0  0
 13 14  2  0  0  0  0
 13 31  1  0  0  0  0
 14 15  1  0  0  0  0
 14 32  1  0  0  0  0
 16 17  1  0  0  0  0
 16 33  1  0  0  0  0
 16 34  1  0  0  0  0
 17 18  1  0  0  0  0
 17 19  1  0  0  0  0
 17 35  1  0  0  0  0
 18 36  1  0  0  0  0
 18 37  1  0  0  0  0
 18 38  1  0  0  0  0
M  CHG  1  10  -1
M  END
> <s_m_source_file>
AV-unprocessed.smi

> <i_m_source_file_index>
1815

> <i_lp_mmshare_version>
43012

> <i_f3d_flags>
0

> <s_epik_input>
W0NIM11bQ0BASF0xW0NIMl1OKFtDSDJdW0NASF0oTzEpW0NIM10pW0NIMl1bQ0gyXVtOSF1DKD1PKVtOSF1jMm5bY0hdW2NIXXMy

> <s_epik_cmdline>
J2VwaWtfcHl0aG9uJywgJy1waCcsICc3LjAnLCAnLXRuJywgJzgnLCAnLW1hJywgJzIwMCcsICctbWV0YWxfYmluZGluZycsICctaW1hZScsICc8aW5maWxlLm1hZT4nLCAnLW9tYWUnLCAnPG91dGZpbGUubWFlPic=

> <r_lp_tautomer_probability>
0.999

> <r_epik_Ionization_Penalty>
7.22374

> <r_epik_Ionization_Penalty_Charging>
5.82415

> <r_epik_Ionization_Penalty_Neutral>
1.39959

> <r_epik_State_Penalty>
6.03347

> <r_epik_Charging_Adjusted_Penalty>
11.8576

> <i_epik_Tot_Q>
-1

> <i_epik_Tot_abs_Q>
1

> <r_epik_Metal_State_Penalty>
2.01024

> <b_epik_Metal_Only>
1

> <s_lp_Force_Field>
OPLS_2005

> <r_lp_Energy>
21.2187

> <b_lp_Chiralities_Consistent>
1

> <s_lp_Variant>
AV-unprocessed.smi:1815-8

> <Gold.Version>
5.8.1

> <Gold.Id.Protein>
6NUR|6NUR_protein|mol2

> <Gold.PLP.Fitness>
44.2902

> <Gold.PLP.PLP>
-30.6078

> <Gold.PLP.part.hbond>
-3.8644

> <Gold.PLP.part.metal>
0.0000

> <Gold.PLP.part.buried>
-3.9700

> <Gold.PLP.part.nonpolar>
-22.8472

> <Gold.PLP.part.repulsive>
0.1539

> <Gold.PLP.ligand.clash>
0.0000

> <Gold.PLP.ligand.torsion>
1.4207

> <Gold.PLP.Chemscore.Hbond>
5.4880

> <Gold.PLP.Chemscore.CHOScore>
0.0000

> <Gold.PLP.Chemscore.Metal>
0.0000

> <Gold.Chemscore.Hbonds>
donor molecule, donor type, donor heavy atom, donor atom, acceptor molecule, acceptor atom, score
      P1  H  6896  6907       L1     9  0.94
      P1  H  6931  6943       L1    10  1.73
      P1  H  6934  6947       L1    10  1.44
      P1  H  7989  7998       L1    19  0.99

> <Gold.PLP.Chemscore.Internal.Correction>
0.0597

> <Gold.Rescore>
     Score         DG    S(hbond)    S(metal)    S(lipo)     H(rot)  DE(clash)    DE(int)     intcor
     17.91     -19.27       3.12        0.00      63.08       1.57       0.05       1.31       ----

> <Gold.Chemscore.Fitness>
17.9060

> <Gold.Chemscore.DG>
-19.2652

> <Gold.Chemscore.ZeroCoef>
-5.4800

> <Gold.Chemscore.Hbond>
3.1190

> <Gold.Chemscore.Metal>
0.0000

> <Gold.Chemscore.Lipo>
63.0824

> <Gold.Chemscore.Internal_Hbond>
0.0000

> <Gold.Chemscore.DEClash>
0.0493

> <Gold.Chemscore.DEInternal>
1.3099

> <Gold.Chemscore.Rot>
1.5676

> <Gold.Chemscore.Internal.Correction>
   9.000000E+99

> <Gold.Chemscore.Hbonds>
donor molecule, donor type, donor heavy atom, donor atom, acceptor molecule, acceptor atom, score
      P1  H  6896  6907       L1     9  0.90
      P1  H  6931  6943       L1    10  0.56
      P1  H  6934  6947       L1    10  0.52
      P1  H  7989  7998       L1    19  0.77

> <Gold.Chemscore.Hbond.Weighted>
-10.4176

> <Gold.Chemscore.Metal.Weighted>
-0.0000

> <Gold.Chemscore.Lipo.Weighted>
-7.3806

> <Gold.Chemscore.Internal_Hbond.Weighted>
0.0000

> <Gold.Chemscore.DEClash.Weighted>
0.0493

> <Gold.Chemscore.DEInternal.Weighted>
1.3099

> <Gold.Chemscore.Rot.Weighted>
4.0130

> <Gold.Chemscore.Internal.Correction.Weighted>
   9.000000E+99

> <Gold.Protein.RotatedTorsions>
[ 6907 6896 6895 6894 ] final  -37.72 input  -60.11 | X-H torsion
[ 7974 7965 7964 7962 ] final  147.12 input  175.53 | X-H torsion
[ 8008 7997 7996 7995 ] final   65.47 input   59.86 | X-H torsion
[ 10167 10162 10161 10158 ] final  -93.71 input  -65.29 | X-H torsion
[ 10718 10713 10712 10709 ] final  -10.60 input   66.30 | X-H torsion
[ 10763 10752 10751 10750 ] final   55.85 input  -60.55 | X-H torsion
[ 11005 11000 10999 10996 ] final  -18.34 input  -57.11 | X-H torsion

> <Gold.Protein.ActiveResidues>
 VAL166  LYS551  ARG553  GLY616  TRP617  ASP618  TYR619  PRO620  LYS621  CYS622 
 ASP623  PHE694  ASN695  SER759  ASP760  ASP761  ALA762  ILE779  LEU786  VAL792 
 PHE793  MET794  SER795  GLU796  ALA797  LYS798  CYS799  TRP800  GLU811  SER814 

> <Gold.Protein.RotatedAtoms>
  151.0113  134.9398  159.8008 H   0  0  0  0  0  0  0  0  0  0  0  0  # atno 6907 bound_to 6896
  152.5303  134.3025  159.9093 H   0  0  0  0  0  0  0  0  0  0  0  0  # atno 6908 bound_to 6896
  151.3031  133.4072  159.2675 H   0  0  0  0  0  0  0  0  0  0  0  0  # atno 6909 bound_to 6896
  144.8617  139.5989  143.5927 H   0  0  0  0  0  0  0  0  0  0  0  0  # atno 7974 bound_to 7965
  155.6623  140.3497  155.4787 H   0  0  0  0  0  0  0  0  0  0  0  0  # atno 8008 bound_to 7997
  155.9758  140.1164  157.0794 H   0  0  0  0  0  0  0  0  0  0  0  0  # atno 8009 bound_to 7997
  154.4178  140.1148  156.5354 H   0  0  0  0  0  0  0  0  0  0  0  0  # atno 8010 bound_to 7997
  140.3219  143.3044  152.0037 H   0  0  0  0  0  0  0  0  0  0  0  0  # atno 10167 bound_to 10162
  156.6711  130.5009  149.6000 H   0  0  0  0  0  0  0  0  0  0  0  0  # atno 10718 bound_to 10713
  152.9823  135.5696  154.5134 H   0  0  0  0  0  0  0  0  0  0  0  0  # atno 10763 bound_to 10752
  154.4634  135.2782  155.1698 H   0  0  0  0  0  0  0  0  0  0  0  0  # atno 10764 bound_to 10752
  154.3276  135.6256  153.5590 H   0  0  0  0  0  0  0  0  0  0  0  0  # atno 10765 bound_to 10752
  140.8258  133.8034  155.9707 H   0  0  0  0  0  0  0  0  0  0  0  0  # atno 11005 bound_to 11000
  146.2865  139.7019  142.9192 LP  0  0  0  0  0  0  0  0  0  0  0  0  # atno 17320 bound_to 7965
  145.4300  141.0414  143.2916 LP  0  0  0  0  0  0  0  0  0  0  0  0  # atno 17321 bound_to 7965
  139.4873  144.6304  151.7080 LP  0  0  0  0  0  0  0  0  0  0  0  0  # atno 17342 bound_to 10162
  140.5476  144.0478  150.6113 LP  0  0  0  0  0  0  0  0  0  0  0  0  # atno 17343 bound_to 10162
  156.1938  130.6576  151.1091 LP  0  0  0  0  0  0  0  0  0  0  0  0  # atno 17370 bound_to 10713
  157.7077  131.0749  150.6611 LP  0  0  0  0  0  0  0  0  0  0  0  0  # atno 17371 bound_to 10713
  140.9050  134.2331  157.5019 LP  0  0  0  0  0  0  0  0  0  0  0  0  # atno 17394 bound_to 11000
  139.8706  134.9724  156.4772 LP  0  0  0  0  0  0  0  0  0  0  0  0  # atno 17395 bound_to 11000

$$$$
