AV-unprocessed.smi:1991|AV-procd|sdf|8068|dock6
  -GOLD-   2272010273D 1   1.00000     0.00000
 Structure written by MMmdl.
 44 45  0  0  0  0  0  0  0  0  1 V2000
  147.3051  134.5936  162.9752 C   0  0  0  0  0  0  0  0  0  0  0  0
  146.7294  135.0678  161.6328 C   0  0  1  0  0  0  0  0  0  0  0  0
  145.4207  135.5745  161.8839 O   0  0  0  0  0  0  0  0  0  0  0  0
  144.5208  134.6698  162.5162 C   0  0  0  0  0  0  0  0  0  0  0  0
  143.1636  135.3567  162.7102 C   0  0  0  0  0  0  0  0  0  0  0  0
  142.5019  134.7510  163.6955 F   0  0  0  0  0  0  0  0  0  0  0  0
  143.3375  136.6375  163.0354 F   0  0  0  0  0  0  0  0  0  0  0  0
  142.4404  135.2714  161.5941 F   0  0  0  0  0  0  0  0  0  0  0  0
  147.6140  136.1536  160.9995 C   0  0  0  0  0  0  0  0  0  0  0  0
  147.7707  137.2339  161.5686 O   0  0  0  0  0  0  0  0  0  0  0  0
  148.1654  135.8529  159.8135 N   0  0  0  0  0  0  0  0  0  0  0  0
  149.0464  136.7210  159.0397 C   0  0  0  0  0  0  0  0  0  0  0  0
  149.0670  136.3585  157.5581 C   0  0  0  0  0  0  0  0  0  0  0  0
  148.3519  135.2211  157.1245 C   0  0  0  0  0  0  0  0  0  0  0  0
  148.3372  134.8937  155.7570 C   0  0  0  0  0  0  0  0  0  0  0  0
  149.0424  135.7231  154.8670 C   0  0  0  0  0  0  0  0  0  0  0  0
  149.7328  136.8117  155.2636 N   0  0  0  0  0  0  0  0  0  0  0  0
  149.7514  137.1313  156.5809 C   0  0  0  0  0  0  0  0  0  0  0  0
  150.5113  138.2518  156.9572 N   0  0  0  0  0  0  0  0  0  0  0  0
  151.6032  137.9198  157.8618 C   0  0  0  0  0  0  0  0  0  0  0  0
  152.2268  139.2096  158.4210 C   0  0  0  0  0  0  0  0  0  0  0  0
  152.6494  140.0412  157.3429 O   0  0  0  0  0  0  0  0  0  0  0  0
  151.5665  140.4145  156.4940 C   0  0  0  0  0  0  0  0  0  0  0  0
  150.9259  139.1536  155.8884 C   0  0  0  0  0  0  0  0  0  0  0  0
  148.3174  134.2051  162.8578 H   0  0  0  0  0  0  0  0  0  0  0  0
  146.6936  133.7957  163.3972 H   0  0  0  0  0  0  0  0  0  0  0  0
  147.3388  135.4024  163.7061 H   0  0  0  0  0  0  0  0  0  0  0  0
  146.6627  134.2063  160.9654 H   0  0  0  0  0  0  0  0  0  0  0  0
  144.3878  133.7687  161.9164 H   0  0  0  0  0  0  0  0  0  0  0  0
  144.9198  134.3624  163.4839 H   0  0  0  0  0  0  0  0  0  0  0  0
  147.9705  134.9428  159.4224 H   0  0  0  0  0  0  0  0  0  0  0  0
  148.6605  137.7370  159.1263 H   0  0  0  0  0  0  0  0  0  0  0  0
  150.0475  136.7588  159.4695 H   0  0  0  0  0  0  0  0  0  0  0  0
  147.8134  134.6080  157.8320 H   0  0  0  0  0  0  0  0  0  0  0  0
  147.7959  134.0305  155.3990 H   0  0  0  0  0  0  0  0  0  0  0  0
  149.0541  135.5065  153.8091 H   0  0  0  0  0  0  0  0  0  0  0  0
  151.2469  137.2879  158.6746 H   0  0  0  0  0  0  0  0  0  0  0  0
  152.3565  137.3460  157.3204 H   0  0  0  0  0  0  0  0  0  0  0  0
  151.5137  139.7446  159.0506 H   0  0  0  0  0  0  0  0  0  0  0  0
  153.0876  138.9707  159.0455 H   0  0  0  0  0  0  0  0  0  0  0  0
  150.8315  140.9911  157.0582 H   0  0  0  0  0  0  0  0  0  0  0  0
  151.9417  141.0630  155.7022 H   0  0  0  0  0  0  0  0  0  0  0  0
  151.6439  138.6529  155.2373 H   0  0  0  0  0  0  0  0  0  0  0  0
  150.0643  139.4246  155.2770 H   0  0  0  0  0  0  0  0  0  0  0  0
  1  2  1  0  0  0  0
  1 25  1  0  0  0  0
  1 26  1  0  0  0  0
  1 27  1  0  0  0  0
  2  3  1  0  0  0  0
  2  9  1  0  0  0  0
  2 28  1  0  0  0  0
  3  4  1  0  0  0  0
  4  5  1  0  0  0  0
  4 29  1  0  0  0  0
  4 30  1  0  0  0  0
  5  6  1  0  0  0  0
  5  7  1  0  0  0  0
  5  8  1  0  0  0  0
  9 10  2  0  0  0  0
  9 11  1  0  0  0  0
 11 12  1  0  0  0  0
 11 31  1  0  0  0  0
 12 13  1  0  0  0  0
 12 32  1  0  0  0  0
 12 33  1  0  0  0  0
 13 18  1  0  0  0  0
 13 14  2  0  0  0  0
 14 15  1  0  0  0  0
 14 34  1  0  0  0  0
 15 16  2  0  0  0  0
 15 35  1  0  0  0  0
 16 17  1  0  0  0  0
 16 36  1  0  0  0  0
 17 18  2  0  0  0  0
 18 19  1  0  0  0  0
 19 24  1  0  0  0  0
 19 20  1  0  0  0  0
 20 21  1  0  0  0  0
 20 37  1  0  0  0  0
 20 38  1  0  0  0  0
 21 22  1  0  0  0  0
 21 39  1  0  0  0  0
 21 40  1  0  0  0  0
 22 23  1  0  0  0  0
 23 24  1  0  0  0  0
 23 41  1  0  0  0  0
 23 42  1  0  0  0  0
 24 43  1  0  0  0  0
 24 44  1  0  0  0  0
M  END
> <s_m_source_file>
AV-unprocessed.smi

> <i_m_source_file_index>
1991

> <i_lp_mmshare_version>
43012

> <i_f3d_flags>
0

> <s_epik_input>
RkMoRikoRilbQ0gyXU9bQ0BASF0oW0NIM10pQyg9TylbTkhdW0NIMl1jMVtjSF1bY0hdW2NIXW5jMU4yW0NIMl1bQ0gyXU9bQ0gyXVtDSDJdMg==

> <s_epik_cmdline>
J2VwaWtfcHl0aG9uJywgJy1waCcsICc3LjAnLCAnLXRuJywgJzgnLCAnLW1hJywgJzIwMCcsICctbWV0YWxfYmluZGluZycsICctaW1hZScsICc8aW5maWxlLm1hZT4nLCAnLW9tYWUnLCAnPG91dGZpbGUubWFlPic=

> <r_lp_tautomer_probability>
1

> <r_epik_Ionization_Penalty>
0.00436412

> <r_epik_Ionization_Penalty_Charging>
0

> <r_epik_Ionization_Penalty_Neutral>
0.00436412

> <r_epik_State_Penalty>
0.00314317

> <r_epik_Charging_Adjusted_Penalty>
0.00314317

> <i_epik_Tot_Q>
0

> <i_epik_Tot_abs_Q>
0

> <r_epik_Metal_State_Penalty>
-0

> <b_epik_Metal_Only>
0

> <s_lp_Force_Field>
OPLS_2005

> <r_lp_Energy>
21.3683

> <b_lp_Chiralities_Consistent>
1

> <s_lp_Variant>
AV-unprocessed.smi:1991-2

> <Gold.Version>
5.8.1

> <Gold.Id.Protein>
6NUR|6NUR_protein|mol2

> <Gold.PLP.Fitness>
42.9592

> <Gold.PLP.PLP>
-33.2786

> <Gold.PLP.part.hbond>
-3.0000

> <Gold.PLP.part.metal>
0.0000

> <Gold.PLP.part.buried>
-3.7139

> <Gold.PLP.part.nonpolar>
-26.4164

> <Gold.PLP.part.repulsive>
0.2631

> <Gold.PLP.ligand.clash>
0.0000

> <Gold.PLP.ligand.torsion>
0.7371

> <Gold.PLP.Chemscore.Hbond>
2.7520

> <Gold.PLP.Chemscore.CHOScore>
0.8711

> <Gold.PLP.Chemscore.Metal>
0.0000

> <Gold.Chemscore.Hbonds>
donor molecule, donor type, donor heavy atom, donor atom, acceptor molecule, acceptor atom, score
      P1  H  6931  6943       L1    10  1.00
      P1  H  6934  6947       L1    10  0.70
      P1  H  7997  8009       L1    22  1.00
      L1  C    16    36       P1  7948  1.00

> <Gold.PLP.Chemscore.Internal.Correction>
0.2854

> <Gold.Rescore>
     Score         DG    S(hbond)    S(metal)    S(lipo)     H(rot)  DE(clash)    DE(int)     intcor
     15.12     -15.99       2.75        0.00      65.77       2.49       0.12       0.76       ----

> <Gold.Chemscore.Fitness>
15.1172

> <Gold.Chemscore.DG>
-15.9940

> <Gold.Chemscore.ZeroCoef>
-5.4800

> <Gold.Chemscore.Hbond>
2.7525

> <Gold.Chemscore.Metal>
0.0000

> <Gold.Chemscore.Lipo>
65.7665

> <Gold.Chemscore.Internal_Hbond>
0.0000

> <Gold.Chemscore.DEClash>
0.1151

> <Gold.Chemscore.DEInternal>
0.7618

> <Gold.Chemscore.Rot>
2.4899

> <Gold.Chemscore.Internal.Correction>
   9.000000E+99

> <Gold.Chemscore.Hbonds>
donor molecule, donor type, donor heavy atom, donor atom, acceptor molecule, acceptor atom, score
      P1  H  6931  6943       L1    10  0.95
      P1  H  6934  6947       L1    10  0.70
      P1  H  7997  8009       L1    22  0.95

> <Gold.Chemscore.Hbond.Weighted>
-9.1935

> <Gold.Chemscore.Metal.Weighted>
-0.0000

> <Gold.Chemscore.Lipo.Weighted>
-7.6947

> <Gold.Chemscore.Internal_Hbond.Weighted>
0.0000

> <Gold.Chemscore.DEClash.Weighted>
0.1151

> <Gold.Chemscore.DEInternal.Weighted>
0.7618

> <Gold.Chemscore.Rot.Weighted>
6.3741

> <Gold.Chemscore.Internal.Correction.Weighted>
   9.000000E+99

> <Gold.Protein.RotatedTorsions>
[ 6907 6896 6895 6894 ] final  151.64 input  -60.11 | X-H torsion
[ 7974 7965 7964 7962 ] final  157.55 input  175.53 | X-H torsion
[ 8008 7997 7996 7995 ] final  178.95 input   59.86 | X-H torsion
[ 10167 10162 10161 10158 ] final  101.01 input  -65.29 | X-H torsion
[ 10718 10713 10712 10709 ] final  158.54 input   66.30 | X-H torsion
[ 10763 10752 10751 10750 ] final -140.97 input  -60.55 | X-H torsion
[ 11005 11000 10999 10996 ] final  100.04 input  -57.11 | X-H torsion

> <Gold.Protein.ActiveResidues>
 VAL166  LYS551  ARG553  GLY616  TRP617  ASP618  TYR619  PRO620  LYS621  CYS622 
 ASP623  PHE694  ASN695  SER759  ASP760  ASP761  ALA762  ILE779  LEU786  VAL792 
 PHE793  MET794  SER795  GLU796  ALA797  LYS798  CYS799  TRP800  GLU811  SER814 

> <Gold.Protein.RotatedAtoms>
  152.0978  133.4234  159.4573 H   0  0  0  0  0  0  0  0  0  0  0  0  # atno 6907 bound_to 6896
  150.6863  134.2796  159.4631 H   0  0  0  0  0  0  0  0  0  0  0  0  # atno 6908 bound_to 6896
  152.0653  134.9568  160.0625 H   0  0  0  0  0  0  0  0  0  0  0  0  # atno 6909 bound_to 6896
  144.7897  139.7356  143.6226 H   0  0  0  0  0  0  0  0  0  0  0  0  # atno 7974 bound_to 7965
  156.0489  140.1321  157.0072 H   0  0  0  0  0  0  0  0  0  0  0  0  # atno 8008 bound_to 7997
  154.4425  140.1015  156.6417 H   0  0  0  0  0  0  0  0  0  0  0  0  # atno 8009 bound_to 7997
  155.5554  140.3463  155.4480 H   0  0  0  0  0  0  0  0  0  0  0  0  # atno 8010 bound_to 7997
  139.7476  144.6993  151.0481 H   0  0  0  0  0  0  0  0  0  0  0  0  # atno 10167 bound_to 10162
  157.1765  131.0622  151.2154 H   0  0  0  0  0  0  0  0  0  0  0  0  # atno 10718 bound_to 10713
  154.8561  135.3538  154.5792 H   0  0  0  0  0  0  0  0  0  0  0  0  # atno 10763 bound_to 10752
  153.6403  135.6998  153.5248 H   0  0  0  0  0  0  0  0  0  0  0  0  # atno 10764 bound_to 10752
  153.2976  135.4216  155.1182 H   0  0  0  0  0  0  0  0  0  0  0  0  # atno 10765 bound_to 10752
  139.8771  134.9122  156.4696 H   0  0  0  0  0  0  0  0  0  0  0  0  # atno 11005 bound_to 11000
  146.2144  139.5522  142.9660 LP  0  0  0  0  0  0  0  0  0  0  0  0  # atno 17320 bound_to 7965
  145.5827  141.0380  143.2113 LP  0  0  0  0  0  0  0  0  0  0  0  0  # atno 17321 bound_to 7965
  140.7794  143.4848  150.9970 LP  0  0  0  0  0  0  0  0  0  0  0  0  # atno 17342 bound_to 10162
  139.8536  143.7406  152.3177 LP  0  0  0  0  0  0  0  0  0  0  0  0  # atno 17343 bound_to 10162
  157.3993  130.7324  149.6755 LP  0  0  0  0  0  0  0  0  0  0  0  0  # atno 17370 bound_to 10713
  155.9730  130.4125  150.4035 LP  0  0  0  0  0  0  0  0  0  0  0  0  # atno 17371 bound_to 10713
  140.8805  133.7921  155.9462 LP  0  0  0  0  0  0  0  0  0  0  0  0  # atno 17394 bound_to 11000
  140.8859  134.2555  157.5120 LP  0  0  0  0  0  0  0  0  0  0  0  0  # atno 17395 bound_to 11000

$$$$
