#       Name:                AV-unprocessed.smi:3337
#       Creating user name   scv26
#       Creation time:       Fri Mar 27 19:26:25 2020


#       File generated by GOLD software.
#

@<TRIPOS>MOLECULE
AV-unprocessed.smi:3337
    50    51     1
SMALL
NO_CHARGES


@<TRIPOS>ATOM
      1 ****        -1.0809   2.5815   4.1427 C.3            1 S1                 0.0000
      2 ****        -1.4995   2.3224   2.6883 C.3            1 S1                 0.0000
      3 ****        -3.0314   2.3223   2.5369 C.3            1 S1                 0.0000
      4 ****        -3.4616   2.0001   1.0938 C.3            1 S1                 0.0000
      5 ****        -3.2331   3.1723   0.1235 C.3            1 S1                 0.0000
      6 ****        -2.7911   0.7003   0.6061 C.3            1 S1                 0.0000
      7 ****        -1.3124   0.7534   0.7500 N.4            1 S1                 1.0000
      8 ****        -0.6497  -0.4309   0.1471 C.3            1 S1                 0.0000
      9 ****         0.8302  -0.1700  -0.1927 C.3            1 S1                 0.0000
     10 ****         1.4425  -1.3257  -0.8363 N.am           1 S1                 0.0000
     11 ****         1.3407  -1.6226  -2.1424 C.2            1 S1                 0.0000
     12 ****         0.6698  -0.9496  -2.9261 O.2            1 S1                 0.0000
     13 ****         2.1033  -2.8706  -2.6252 C.3            1 S1                 0.0000
     14 ****         1.8726  -3.1794  -4.1183 C.3            1 S1                 0.0000
     15 ****         3.5256  -2.7659  -2.3192 N.pl3          1 S1                 0.0000
     16 ****         4.2651  -3.4318  -1.4297 C.2            1 S1                 0.0000
     17 ****         5.5371  -3.0598  -1.4010 N.2            1 S1                 0.0000
     18 ****         5.5141  -2.0929  -2.3657 C.2            1 S1                 0.0000
     19 ****         4.3336  -1.8733  -2.9443 N.2            1 S1                 0.0000
     20 ****        -0.9111   0.9997   2.1606 C.3            1 S1                 0.0000
     21 ****        -1.4499   1.8005   4.8084 H              1 S1                 0.0000
     22 ****        -1.4718   3.5351   4.4992 H              1 S1                 0.0000
     23 ****         0.0048   2.6157   4.2398 H              1 S1                 0.0000
     24 ****        -1.0930   3.1367   2.0873 H              1 S1                 0.0000
     25 ****        -3.4584   1.5759   3.2086 H              1 S1                 0.0000
     26 ****        -3.4454   3.2822   2.8484 H              1 S1                 0.0000
     27 ****        -4.5381   1.8245   1.1101 H              1 S1                 0.0000
     28 ****        -2.1756   3.4118   0.0126 H              1 S1                 0.0000
     29 ****        -3.7429   4.0721   0.4691 H              1 S1                 0.0000
     30 ****        -3.6217   2.9384  -0.8681 H              1 S1                 0.0000
     31 ****        -3.1723  -0.1498   1.1742 H              1 S1                 0.0000
     32 ****        -3.0607   0.5229  -0.4360 H              1 S1                 0.0000
     33 ****        -0.7499  -1.2902   0.8121 H              1 S1                 0.0000
     34 ****        -1.1698  -0.6936  -0.7753 H              1 S1                 0.0000
     35 ****         0.9274   0.7093  -0.8322 H              1 S1                 0.0000
     36 ****         1.4084   0.0365   0.7068 H              1 S1                 0.0000
     37 ****         2.0083  -1.9277  -0.2553 H              1 S1                 0.0000
     38 ****         1.7135  -3.7144  -2.0538 H              1 S1                 0.0000
     39 ****         0.8151  -3.3401  -4.3308 H              1 S1                 0.0000
     40 ****         2.4041  -4.0841  -4.4146 H              1 S1                 0.0000
     41 ****         2.2205  -2.3684  -4.7595 H              1 S1                 0.0000
     42 ****         3.8648  -4.2023  -0.7873 H              1 S1                 0.0000
     43 ****         6.3925  -1.5308  -2.6464 H              1 S1                 0.0000
     44 ****         0.1742   1.0436   2.2414 H              1 S1                 0.0000
     45 ****        -1.2380   0.1642   2.7819 H              1 S1                 0.0000
     46 ****        -1.0083   1.5529   0.2127 H              1 S1                 0.0000
     47 ****         0.1734  -0.1462  -2.5972 LP             1 S1                 0.0000
     48 ****         0.6215  -1.2066  -3.8913 LP             1 S1                 0.0000
     49 ****         6.2936  -3.3908  -0.8371 LP             1 S1                 0.0000
     50 ****         4.1015  -1.2150  -3.6604 LP             1 S1                 0.0000
@<TRIPOS>BOND
    1    1    2 1     
    2    1   21 1     
    3    1   22 1     
    4    1   23 1     
    5    2   20 1     
    6    2    3 1     
    7    2   24 1     
    8    3    4 1     
    9    3   25 1     
   10    3   26 1     
   11    4    5 1     
   12    4    6 1     
   13    4   27 1     
   14    5   28 1     
   15    5   29 1     
   16    5   30 1     
   17    6    7 1     
   18    6   31 1     
   19    6   32 1     
   20    7    8 1     
   21    7   20 1     
   22    7   46 1     
   23    8    9 1     
   24    8   33 1     
   25    8   34 1     
   26    9   10 1     
   27    9   35 1     
   28    9   36 1     
   29   10   11 am    
   30   10   37 1     
   31   11   12 2     
   32   11   13 1     
   33   13   14 1     
   34   13   15 1     
   35   13   38 1     
   36   14   39 1     
   37   14   40 1     
   38   14   41 1     
   39   15   19 1     
   40   15   16 1     
   41   16   17 2     
   42   16   42 1     
   43   17   18 1     
   44   18   19 2     
   45   18   43 1     
   46   20   44 1     
   47   20   45 1     
   48   12   47 1     
   49   12   48 1     
   50   17   49 1     
   51   19   50 1     
@<TRIPOS>SUBSTRUCTURE
      1 S1             1
@<TRIPOS>SET
LONE_PAIRS      STATIC     ATOMS    <user>   **** ""
4 47 48 49 50
DONOR_HYDROGENS      STATIC     ATOMS    <user>   **** ""
2 46 37
ATOM$BLUE        STATIC     ATOMS    COLORGROUP SYSTEM
4 47 48 49 50
ATOM$RED        STATIC     ATOMS    COLORGROUP SYSTEM
2 46 37
