AV-unprocessed.smi:187|AV-procd|sdf|1471|dock5
  -GOLD-   2262019293D 1   1.00000     0.00000
 Structure written by MMmdl.
 53 56  0  0  0  0  0  0  0  0  1 V2000
  153.3003  139.5239  159.1706 C   0  0  0  0  0  0  0  0  0  0  0  0
  152.4500  140.8049  159.3048 C   0  0  1  0  0  0  0  0  0  0  0  0
  153.1516  141.7829  160.2709 C   0  0  0  0  0  0  0  0  0  0  0  0
  152.3914  143.1099  160.3918 C   0  0  0  0  0  0  0  0  0  0  0  0
  152.2127  143.7386  158.9985 C   0  0  2  0  0  0  0  0  0  0  0  0
  151.4363  145.0590  159.0822 C   0  0  0  0  0  0  0  0  0  0  0  0
  150.4207  145.2222  158.2307 N   0  0  0  0  0  0  0  0  0  0  0  0
  151.7463  145.9214  159.9023 O   0  0  0  0  0  0  0  0  0  0  0  0
  151.4946  142.7388  158.0726 C   0  0  0  0  0  0  0  0  0  0  0  0
  152.2000  141.4580  158.0092 N   0  0  0  0  0  0  0  0  0  0  0  0
  151.6715  140.6945  157.0229 C   0  0  0  0  0  0  0  0  0  0  0  0
  152.4766  139.9148  156.2528 N   0  0  0  0  0  0  0  0  0  0  0  0
  151.9457  139.1429  155.2994 C   0  0  0  0  0  0  0  0  0  0  0  0
  150.6627  138.9987  154.9599 N   0  0  0  0  0  0  0  0  0  0  0  0
  149.8533  139.7740  155.7376 C   0  0  0  0  0  0  0  0  0  0  0  0
  150.2723  140.6375  156.7877 C   0  0  0  0  0  0  0  0  0  0  0  0
  149.1705  141.2497  157.3713 N   0  0  0  0  0  0  0  0  0  0  0  0
  148.1547  140.7700  156.7059 C   0  0  0  0  0  0  0  0  0  0  0  0
  148.4759  139.8979  155.6891 N   0  0  0  0  0  0  0  0  0  0  0  0
  147.5652  139.1975  154.8317 C   0  0  0  0  0  0  0  0  0  0  0  0
  148.0619  138.4761  153.5779 C   0  0  0  0  0  0  0  0  0  0  0  0
  146.7155  138.7783  152.8805 C   0  0  0  0  0  0  0  0  0  0  0  0
  146.7922  139.2198  151.4082 C   0  0  0  0  0  0  0  0  0  0  0  0
  146.7030  138.1246  150.5205 O   0  0  0  0  0  0  0  0  0  0  0  0
  145.6069  137.7154  153.0363 C   0  0  0  0  0  0  0  0  0  0  0  0
  144.4253  138.0687  152.3474 O   0  0  0  0  0  0  0  0  0  0  0  0
  146.6131  139.9428  153.8921 C   0  0  0  0  0  0  0  0  0  0  0  0
  153.5076  139.0914  160.1497 H   0  0  0  0  0  0  0  0  0  0  0  0
  154.2580  139.7344  158.6933 H   0  0  0  0  0  0  0  0  0  0  0  0
  152.8005  138.7530  158.5848 H   0  0  0  0  0  0  0  0  0  0  0  0
  151.4856  140.5374  159.7397 H   0  0  0  0  0  0  0  0  0  0  0  0
  153.2501  141.3277  161.2570 H   0  0  0  0  0  0  0  0  0  0  0  0
  154.1658  141.9821  159.9214 H   0  0  0  0  0  0  0  0  0  0  0  0
  151.4213  142.9315  160.8586 H   0  0  0  0  0  0  0  0  0  0  0  0
  152.9358  143.7886  161.0496 H   0  0  0  0  0  0  0  0  0  0  0  0
  153.2012  143.9425  158.5822 H   0  0  0  0  0  0  0  0  0  0  0  0
  149.8806  146.0750  158.2478 H   0  0  0  0  0  0  0  0  0  0  0  0
  150.1973  144.4905  157.5718 H   0  0  0  0  0  0  0  0  0  0  0  0
  150.4762  142.5628  158.4238 H   0  0  0  0  0  0  0  0  0  0  0  0
  151.4130  143.1675  157.0721 H   0  0  0  0  0  0  0  0  0  0  0  0
  152.6494  138.5563  154.7278 H   0  0  0  0  0  0  0  0  0  0  0  0
  147.1369  141.0469  156.9392 H   0  0  0  0  0  0  0  0  0  0  0  0
  147.0137  138.5117  155.4771 H   0  0  0  0  0  0  0  0  0  0  0  0
  148.9059  138.9869  153.1101 H   0  0  0  0  0  0  0  0  0  0  0  0
  148.2818  137.4183  153.7242 H   0  0  0  0  0  0  0  0  0  0  0  0
  146.0049  139.9345  151.1674 H   0  0  0  0  0  0  0  0  0  0  0  0
  147.7363  139.7255  151.2044 H   0  0  0  0  0  0  0  0  0  0  0  0
  145.7924  137.9737  150.3190 H   0  0  0  0  0  0  0  0  0  0  0  0
  145.9312  136.7489  152.6506 H   0  0  0  0  0  0  0  0  0  0  0  0
  145.3632  137.5525  154.0864 H   0  0  0  0  0  0  0  0  0  0  0  0
  144.1317  138.9093  152.6635 H   0  0  0  0  0  0  0  0  0  0  0  0
  145.6160  140.1115  154.3004 H   0  0  0  0  0  0  0  0  0  0  0  0
  147.0423  140.8745  153.5184 H   0  0  0  0  0  0  0  0  0  0  0  0
  1  2  1  0  0  0  0
  1 28  1  0  0  0  0
  1 29  1  0  0  0  0
  1 30  1  0  0  0  0
  2 10  1  0  0  0  0
  2  3  1  0  0  0  0
  2 31  1  0  0  0  0
  3  4  1  0  0  0  0
  3 32  1  0  0  0  0
  3 33  1  0  0  0  0
  4  5  1  0  0  0  0
  4 34  1  0  0  0  0
  4 35  1  0  0  0  0
  5  6  1  0  0  0  0
  5  9  1  0  0  0  0
  5 36  1  0  0  0  0
  6  7  1  0  0  0  0
  6  8  2  0  0  0  0
  7 37  1  0  0  0  0
  7 38  1  0  0  0  0
  9 10  1  0  0  0  0
  9 39  1  0  0  0  0
  9 40  1  0  0  0  0
 10 11  1  0  0  0  0
 11 16  1  0  0  0  0
 11 12  2  0  0  0  0
 12 13  1  0  0  0  0
 13 14  2  0  0  0  0
 13 41  1  0  0  0  0
 14 15  1  0  0  0  0
 15 19  1  0  0  0  0
 15 16  2  0  0  0  0
 16 17  1  0  0  0  0
 17 18  2  0  0  0  0
 18 19  1  0  0  0  0
 18 42  1  0  0  0  0
 19 20  1  0  0  0  0
 20 27  1  0  0  0  0
 20 21  1  0  0  0  0
 20 43  1  0  0  0  0
 21 22  1  0  0  0  0
 21 44  1  0  0  0  0
 21 45  1  0  0  0  0
 22 23  1  0  0  0  0
 22 25  1  0  0  0  0
 22 27  1  0  0  0  0
 23 24  1  0  0  0  0
 23 46  1  0  0  0  0
 23 47  1  0  0  0  0
 24 48  1  0  0  0  0
 25 26  1  0  0  0  0
 25 49  1  0  0  0  0
 25 50  1  0  0  0  0
 26 51  1  0  0  0  0
 27 52  1  0  0  0  0
 27 53  1  0  0  0  0
M  END
> <s_m_source_file>
AV-unprocessed.smi

> <i_m_source_file_index>
187

> <i_lp_mmshare_version>
43012

> <i_f3d_flags>
0

> <s_epik_input>
W0NIM11bQ0BASF0xW0NIMl1bQ0gyXVtDQEBIXShDKD1PKVtOSDJdKVtDSDJdTjFjKG5bY0hdbjIpYyhjMjMpbltjSF1uM1tDSF0oW0NIMl00KVtDSDJdQzQoW0NIMl1bT0hdKVtDSDJdW09IXQ==

> <s_epik_cmdline>
J2VwaWtfcHl0aG9uJywgJy1waCcsICc3LjAnLCAnLXRuJywgJzgnLCAnLW1hJywgJzIwMCcsICctbWV0YWxfYmluZGluZycsICctaW1hZScsICc8aW5maWxlLm1hZT4nLCAnLW9tYWUnLCAnPG91dGZpbGUubWFlPic=

> <r_lp_tautomer_probability>
1

> <r_epik_Ionization_Penalty>
0.0017711

> <r_epik_Ionization_Penalty_Charging>
0

> <r_epik_Ionization_Penalty_Neutral>
0.0017711

> <r_epik_State_Penalty>
0.00107211

> <r_epik_Charging_Adjusted_Penalty>
0.00107211

> <i_epik_Tot_Q>
0

> <i_epik_Tot_abs_Q>
0

> <r_epik_Metal_State_Penalty>
-0

> <b_epik_Metal_Only>
0

> <s_lp_Force_Field>
OPLS_2005

> <r_lp_Energy>
43.5948

> <b_lp_Chiralities_Consistent>
1

> <s_lp_Variant>
AV-unprocessed.smi:187-4

> <Gold.Version>
5.8.1

> <Gold.Id.Protein>
6NUR|6NUR_protein|mol2

> <Gold.PLP.Fitness>
57.3341

> <Gold.PLP.PLP>
-48.2926

> <Gold.PLP.part.hbond>
-8.4313

> <Gold.PLP.part.metal>
0.0000

> <Gold.PLP.part.buried>
-1.9114

> <Gold.PLP.part.nonpolar>
-37.8533

> <Gold.PLP.part.repulsive>
0.5639

> <Gold.PLP.ligand.clash>
1.4441

> <Gold.PLP.ligand.torsion>
1.5132

> <Gold.PLP.Chemscore.Hbond>
4.2583

> <Gold.PLP.Chemscore.CHOScore>
0.0000

> <Gold.PLP.Chemscore.Metal>
0.0000

> <Gold.Chemscore.Hbonds>
donor molecule, donor type, donor heavy atom, donor atom, acceptor molecule, acceptor atom, score
      L1  H     7    37       P1  8029  0.20
      L1  H     7    38       P1  8028  0.17
      L1  H    24    48       P1 10171  0.91
      L1  H    26    51       P1 10175  1.00
      P1  H  7954  7966       L1    24  0.94
      P1  H  7997  8009       L1    12  1.00

> <Gold.PLP.Chemscore.Internal.Correction>
0.7371

> <Gold.Rescore>
     Score         DG    S(hbond)    S(metal)    S(lipo)     H(rot)  DE(clash)    DE(int)     intcor
     13.75     -19.00       3.71        0.00      97.04       3.99       0.61       4.65       ----

> <Gold.Chemscore.Fitness>
13.7457

> <Gold.Chemscore.DG>
-19.0034

> <Gold.Chemscore.ZeroCoef>
-5.4800

> <Gold.Chemscore.Hbond>
3.7081

> <Gold.Chemscore.Metal>
0.0000

> <Gold.Chemscore.Lipo>
97.0366

> <Gold.Chemscore.Internal_Hbond>
0.0000

> <Gold.Chemscore.DEClash>
0.6086

> <Gold.Chemscore.DEInternal>
4.6491

> <Gold.Chemscore.Rot>
3.9902

> <Gold.Chemscore.Internal.Correction>
   9.000000E+99

> <Gold.Chemscore.Hbonds>
donor molecule, donor type, donor heavy atom, donor atom, acceptor molecule, acceptor atom, score
      L1  H     7    37       P1  8029  0.13
      L1  H     7    38       P1  8028  0.05
      L1  H    24    48       P1 10171  0.86
      L1  H    26    51       P1 10175  0.96
      P1  H  7954  7966       L1    24  0.59
      P1  H  7997  8009       L1    12  0.93

> <Gold.Chemscore.Hbond.Weighted>
-12.3849

> <Gold.Chemscore.Metal.Weighted>
-0.0000

> <Gold.Chemscore.Lipo.Weighted>
-11.3533

> <Gold.Chemscore.Internal_Hbond.Weighted>
0.0000

> <Gold.Chemscore.DEClash.Weighted>
0.6086

> <Gold.Chemscore.DEInternal.Weighted>
4.6491

> <Gold.Chemscore.Rot.Weighted>
10.2148

> <Gold.Chemscore.Internal.Correction.Weighted>
   9.000000E+99

> <Gold.Protein.RotatedTorsions>
[ 6907 6896 6895 6894 ] final -165.61 input  -60.11 | X-H torsion
[ 7974 7965 7964 7962 ] final   95.28 input  175.53 | X-H torsion
[ 8008 7997 7996 7995 ] final -172.02 input   59.86 | X-H torsion
[ 10167 10162 10161 10158 ] final -112.92 input  -65.29 | X-H torsion
[ 10718 10713 10712 10709 ] final  177.26 input   66.30 | X-H torsion
[ 10763 10752 10751 10750 ] final   -4.61 input  -60.55 | X-H torsion
[ 11005 11000 10999 10996 ] final  -58.29 input  -57.11 | X-H torsion

> <Gold.Protein.ActiveResidues>
 VAL166  LYS551  ARG553  GLY616  TRP617  ASP618  TYR619  PRO620  LYS621  CYS622 
 ASP623  PHE694  ASN695  SER759  ASP760  ASP761  ALA762  ILE779  LEU786  VAL792 
 PHE793  MET794  SER795  GLU796  ALA797  LYS798  CYS799  TRP800  GLU811  SER814 

> <Gold.Protein.RotatedAtoms>
  151.4305  133.3672  159.2767 H   0  0  0  0  0  0  0  0  0  0  0  0  # atno 6907 bound_to 6896
  150.9229  134.8647  159.7511 H   0  0  0  0  0  0  0  0  0  0  0  0  # atno 6908 bound_to 6896
  152.4990  134.4244  159.9543 H   0  0  0  0  0  0  0  0  0  0  0  0  # atno 6909 bound_to 6896
  145.4543  139.2291  143.3022 H   0  0  0  0  0  0  0  0  0  0  0  0  # atno 7974 bound_to 7965
  155.9392  140.1105  157.1070 H   0  0  0  0  0  0  0  0  0  0  0  0  # atno 8008 bound_to 7997
  154.4086  140.1222  156.4970 H   0  0  0  0  0  0  0  0  0  0  0  0  # atno 8009 bound_to 7997
  155.6983  140.3472  155.4925 H   0  0  0  0  0  0  0  0  0  0  0  0  # atno 8010 bound_to 7997
  140.1175  143.4473  152.1713 H   0  0  0  0  0  0  0  0  0  0  0  0  # atno 10167 bound_to 10162
  156.9080  130.9900  151.3025 H   0  0  0  0  0  0  0  0  0  0  0  0  # atno 10718 bound_to 10713
  153.3873  135.7000  153.6521 H   0  0  0  0  0  0  0  0  0  0  0  0  # atno 10763 bound_to 10752
  153.5108  135.3632  155.2586 H   0  0  0  0  0  0  0  0  0  0  0  0  # atno 10764 bound_to 10752
  154.8699  135.4134  154.3182 H   0  0  0  0  0  0  0  0  0  0  0  0  # atno 10765 bound_to 10752
  141.1201  133.6612  156.4898 H   0  0  0  0  0  0  0  0  0  0  0  0  # atno 11005 bound_to 11000
  146.2487  140.5306  142.8903 LP  0  0  0  0  0  0  0  0  0  0  0  0  # atno 17320 bound_to 7965
  144.8042  140.6269  143.6458 LP  0  0  0  0  0  0  0  0  0  0  0  0  # atno 17321 bound_to 7965
  139.5586  144.7390  151.4220 LP  0  0  0  0  0  0  0  0  0  0  0  0  # atno 17342 bound_to 10162
  140.6891  143.7904  150.7229 LP  0  0  0  0  0  0  0  0  0  0  0  0  # atno 17343 bound_to 10162
  157.5985  130.8495  149.8766 LP  0  0  0  0  0  0  0  0  0  0  0  0  # atno 17370 bound_to 10713
  156.0549  130.3710  150.1113 LP  0  0  0  0  0  0  0  0  0  0  0  0  # atno 17371 bound_to 10713
  140.4532  134.6909  157.5050 LP  0  0  0  0  0  0  0  0  0  0  0  0  # atno 17394 bound_to 11000
  140.0152  134.6631  155.9321 LP  0  0  0  0  0  0  0  0  0  0  0  0  # atno 17395 bound_to 11000

$$$$
