AV-unprocessed.smi:2124|AV-procd|sdf|8663|dock8
  -GOLD-   2272011413D 1   1.00000     0.00000
 Structure written by MMmdl.
 47 49  0  0  0  0  0  0  0  0  1 V2000
  156.0831  134.3061  158.2698 C   0  0  0  0  0  0  0  0  0  0  0  0
  154.9675  135.3181  158.4150 C   0  0  0  0  0  0  0  0  0  0  0  0
  154.8328  135.8164  159.7004 N   0  0  0  0  0  0  0  0  0  0  0  0
  153.8389  136.7506  159.9318 C   0  0  0  0  0  0  0  0  0  0  0  0
  153.7573  137.2432  161.3662 C   0  0  0  0  0  0  0  0  0  0  0  0
  153.0186  137.1655  158.9330 C   0  0  0  0  0  0  0  0  0  0  0  0
  151.9034  138.1882  159.1481 C   0  0  0  0  0  0  0  0  0  0  0  0
  152.0355  139.5058  158.3793 C   0  0  0  0  0  0  0  0  0  0  0  0
  153.0521  139.7559  157.7309 O   0  0  0  0  0  0  0  0  0  0  0  0
  150.9892  140.3413  158.4623 N   0  0  0  0  0  0  0  0  0  0  0  0
  150.8981  141.6526  157.8235 C   0  0  1  0  0  0  0  0  0  0  0  0
  149.6117  141.7131  156.9796 C   0  0  0  0  0  0  0  0  0  0  0  0
  150.9476  142.7674  158.8968 C   0  0  2  0  0  0  0  0  0  0  0  0
  150.8147  144.1953  158.3126 C   0  0  0  0  0  0  0  0  0  0  0  0
  152.0507  144.9247  158.8693 C   0  0  1  0  0  0  0  0  0  0  0  0
  151.8884  145.1308  160.3860 C   0  0  0  0  0  0  0  0  0  0  0  0
  152.0747  143.7066  160.9413 C   0  0  0  0  0  0  0  0  0  0  0  0
  152.2910  142.8693  159.6656 C   0  0  2  0  0  0  0  0  0  0  0  0
  153.1072  143.8301  158.8070 C   0  0  0  0  0  0  0  0  0  0  0  0
  153.2081  136.5923  157.5796 C   0  0  0  0  0  0  0  0  0  0  0  0
  152.4895  136.9189  156.6360 O   0  0  0  0  0  0  0  0  0  0  0  0
  154.2350  135.6522  157.3963 N   0  0  0  0  0  0  0  0  0  0  0  0
  155.4184  135.5327  160.4726 H   0  0  0  0  0  0  0  0  0  0  0  0
  156.1149  133.9030  157.2569 H   0  0  0  0  0  0  0  0  0  0  0  0
  155.9361  133.4758  158.9613 H   0  0  0  0  0  0  0  0  0  0  0  0
  157.0464  134.7701  158.4832 H   0  0  0  0  0  0  0  0  0  0  0  0
  152.7654  137.0561  161.7783 H   0  0  0  0  0  0  0  0  0  0  0  0
  153.9538  138.3145  161.4123 H   0  0  0  0  0  0  0  0  0  0  0  0
  154.4853  136.7416  162.0053 H   0  0  0  0  0  0  0  0  0  0  0  0
  151.7943  138.4163  160.2092 H   0  0  0  0  0  0  0  0  0  0  0  0
  150.9557  137.7297  158.8646 H   0  0  0  0  0  0  0  0  0  0  0  0
  150.1976  140.0523  159.0185 H   0  0  0  0  0  0  0  0  0  0  0  0
  151.7532  141.7796  157.1573 H   0  0  0  0  0  0  0  0  0  0  0  0
  149.5212  142.6613  156.4504 H   0  0  0  0  0  0  0  0  0  0  0  0
  148.7240  141.5950  157.6017 H   0  0  0  0  0  0  0  0  0  0  0  0
  149.5963  140.9232  156.2280 H   0  0  0  0  0  0  0  0  0  0  0  0
  150.1397  142.5844  159.6076 H   0  0  0  0  0  0  0  0  0  0  0  0
  150.8535  144.1887  157.2226 H   0  0  0  0  0  0  0  0  0  0  0  0
  149.8815  144.6776  158.6056 H   0  0  0  0  0  0  0  0  0  0  0  0
  152.3000  145.8374  158.3274 H   0  0  0  0  0  0  0  0  0  0  0  0
  152.6602  145.7971  160.7732 H   0  0  0  0  0  0  0  0  0  0  0  0
  150.9177  145.5559  160.6438 H   0  0  0  0  0  0  0  0  0  0  0  0
  152.9521  143.6600  161.5877 H   0  0  0  0  0  0  0  0  0  0  0  0
  151.2158  143.3698  161.5229 H   0  0  0  0  0  0  0  0  0  0  0  0
  152.7771  141.9147  159.8663 H   0  0  0  0  0  0  0  0  0  0  0  0
  153.2939  143.4633  157.7965 H   0  0  0  0  0  0  0  0  0  0  0  0
  154.0562  144.1185  159.2629 H   0  0  0  0  0  0  0  0  0  0  0  0
  1 24  1  0  0  0  0
  1 25  1  0  0  0  0
  1 26  1  0  0  0  0
  1  2  1  0  0  0  0
  2  3  1  0  0  0  0
  2 22  2  0  0  0  0
  3  4  1  0  0  0  0
  3 23  1  0  0  0  0
  4  6  2  0  0  0  0
  4  5  1  0  0  0  0
  5 27  1  0  0  0  0
  5 28  1  0  0  0  0
  5 29  1  0  0  0  0
  6 20  1  0  0  0  0
  6  7  1  0  0  0  0
  7  8  1  0  0  0  0
  7 30  1  0  0  0  0
  7 31  1  0  0  0  0
  8  9  2  0  0  0  0
  8 10  1  0  0  0  0
 10 11  1  0  0  0  0
 10 32  1  0  0  0  0
 11 12  1  0  0  0  0
 11 13  1  0  0  0  0
 11 33  1  0  0  0  0
 12 34  1  0  0  0  0
 12 35  1  0  0  0  0
 12 36  1  0  0  0  0
 13 18  1  0  0  0  0
 13 14  1  0  0  0  0
 13 37  1  0  0  0  0
 14 15  1  0  0  0  0
 14 38  1  0  0  0  0
 14 39  1  0  0  0  0
 15 19  1  0  0  0  0
 15 16  1  0  0  0  0
 15 40  1  0  0  0  0
 16 17  1  0  0  0  0
 16 41  1  0  0  0  0
 16 42  1  0  0  0  0
 17 18  1  0  0  0  0
 17 43  1  0  0  0  0
 17 44  1  0  0  0  0
 18 19  1  0  0  0  0
 18 45  1  0  0  0  0
 19 46  1  0  0  0  0
 19 47  1  0  0  0  0
 20 21  2  0  0  0  0
 20 22  1  0  0  0  0
M  END
> <s_m_source_file>
AV-unprocessed.smi

> <i_m_source_file_index>
2124

> <i_lp_mmshare_version>
43012

> <i_f3d_flags>
0

> <s_epik_input>
W0NIM11jMW5jKFtDSDNdKWMoYyg9TylbbkhdMSlbQ0gyXUMoPU8pW05IXVtDQEhdKFtDSDNdKVtDQEhdKFtDSDJdW0NASF0yMylbQ0BIXShbQ0gyXTMpW0NIMl1bQ0gyXTI=

> <s_epik_cmdline>
J2VwaWtfcHl0aG9uJywgJy1waCcsICc3LjAnLCAnLXRuJywgJzgnLCAnLW1hJywgJzIwMCcsICctbWV0YWxfYmluZGluZycsICctaW1hZScsICc8aW5maWxlLm1hZT4nLCAnLW9tYWUnLCAnPG91dGZpbGUubWFlPic=

> <r_lp_tautomer_probability>
0.156392

> <r_epik_Ionization_Penalty>
0.0139374

> <r_epik_Ionization_Penalty_Charging>
0.0138122

> <r_epik_Ionization_Penalty_Neutral>
0.000125146

> <r_epik_State_Penalty>
1.15342

> <r_epik_Charging_Adjusted_Penalty>
1.16723

> <i_epik_Tot_Q>
0

> <i_epik_Tot_abs_Q>
0

> <r_epik_Metal_State_Penalty>
1.3173

> <b_epik_Metal_Only>
0

> <s_lp_Force_Field>
OPLS_2005

> <r_lp_Energy>
55.952

> <b_lp_Chiralities_Consistent>
1

> <s_lp_Variant>
AV-unprocessed.smi:2124-14

> <Gold.Version>
5.8.1

> <Gold.Id.Protein>
6NUR|6NUR_protein|mol2

> <Gold.PLP.Fitness>
46.6274

> <Gold.PLP.PLP>
-40.8816

> <Gold.PLP.part.hbond>
-2.7385

> <Gold.PLP.part.metal>
0.0000

> <Gold.PLP.part.buried>
-5.0845

> <Gold.PLP.part.nonpolar>
-33.3591

> <Gold.PLP.part.repulsive>
0.2166

> <Gold.PLP.ligand.clash>
0.0000

> <Gold.PLP.ligand.torsion>
0.1375

> <Gold.PLP.Chemscore.Hbond>
2.0000

> <Gold.PLP.Chemscore.CHOScore>
0.0000

> <Gold.PLP.Chemscore.Metal>
0.0000

> <Gold.Chemscore.Hbonds>
donor molecule, donor type, donor heavy atom, donor atom, acceptor molecule, acceptor atom, score
      P1  H  7997  8008       L1     9  1.00
      P1  H 10752 10764       L1    22  0.96

> <Gold.PLP.Chemscore.Internal.Correction>
0.0209

> <Gold.Rescore>
     Score         DG    S(hbond)    S(metal)    S(lipo)     H(rot)  DE(clash)    DE(int)     intcor
     21.06     -21.30       1.94        0.00     116.11       1.65       0.06       0.18       ----

> <Gold.Chemscore.Fitness>
21.0557

> <Gold.Chemscore.DG>
-21.3008

> <Gold.Chemscore.ZeroCoef>
-5.4800

> <Gold.Chemscore.Hbond>
1.9368

> <Gold.Chemscore.Metal>
0.0000

> <Gold.Chemscore.Lipo>
116.1073

> <Gold.Chemscore.Internal_Hbond>
0.0000

> <Gold.Chemscore.DEClash>
0.0633

> <Gold.Chemscore.DEInternal>
0.1819

> <Gold.Chemscore.Rot>
1.6534

> <Gold.Chemscore.Internal.Correction>
   9.000000E+99

> <Gold.Chemscore.Hbonds>
donor molecule, donor type, donor heavy atom, donor atom, acceptor molecule, acceptor atom, score
      P1  H  7997  8008       L1     9  0.99
      P1  H 10752 10764       L1    22  0.32

> <Gold.Chemscore.Hbond.Weighted>
-6.4689

> <Gold.Chemscore.Metal.Weighted>
-0.0000

> <Gold.Chemscore.Lipo.Weighted>
-13.5846

> <Gold.Chemscore.Internal_Hbond.Weighted>
0.0000

> <Gold.Chemscore.DEClash.Weighted>
0.0633

> <Gold.Chemscore.DEInternal.Weighted>
0.1819

> <Gold.Chemscore.Rot.Weighted>
4.2326

> <Gold.Chemscore.Internal.Correction.Weighted>
   9.000000E+99

> <Gold.Protein.RotatedTorsions>
[ 6907 6896 6895 6894 ] final  -85.67 input  -60.11 | X-H torsion
[ 7974 7965 7964 7962 ] final  175.48 input  175.53 | X-H torsion
[ 8008 7997 7996 7995 ] final  -64.17 input   59.86 | X-H torsion
[ 10167 10162 10161 10158 ] final  -60.02 input  -65.29 | X-H torsion
[ 10718 10713 10712 10709 ] final  -37.33 input   66.30 | X-H torsion
[ 10763 10752 10751 10750 ] final   34.87 input  -60.55 | X-H torsion
[ 11005 11000 10999 10996 ] final  -73.24 input  -57.11 | X-H torsion

> <Gold.Protein.ActiveResidues>
 VAL166  LYS551  ARG553  GLY616  TRP617  ASP618  TYR619  PRO620  LYS621  CYS622 
 ASP623  PHE694  ASN695  SER759  ASP760  ASP761  ALA762  ILE779  LEU786  VAL792 
 PHE793  MET794  SER795  GLU796  ALA797  LYS798  CYS799  TRP800  GLU811  SER814 

> <Gold.Protein.RotatedAtoms>
  150.6869  134.3168  159.4769 H   0  0  0  0  0  0  0  0  0  0  0  0  # atno 6907 bound_to 6896
  152.1048  134.9313  160.0578 H   0  0  0  0  0  0  0  0  0  0  0  0  # atno 6908 bound_to 6896
  152.0579  133.4014  159.4442 H   0  0  0  0  0  0  0  0  0  0  0  0  # atno 6909 bound_to 6896
  144.7201  139.9952  143.6440 H   0  0  0  0  0  0  0  0  0  0  0  0  # atno 7974 bound_to 7965
  154.4596  140.0959  156.6855 H   0  0  0  0  0  0  0  0  0  0  0  0  # atno 8008 bound_to 7997
  155.5034  140.3474  155.4357 H   0  0  0  0  0  0  0  0  0  0  0  0  # atno 8009 bound_to 7997
  156.0844  140.1381  156.9660 H   0  0  0  0  0  0  0  0  0  0  0  0  # atno 8010 bound_to 7997
  140.6098  143.2384  151.5737 H   0  0  0  0  0  0  0  0  0  0  0  0  # atno 10167 bound_to 10162
  156.3165  130.4259  149.8001 H   0  0  0  0  0  0  0  0  0  0  0  0  # atno 10718 bound_to 10713
  153.0144  135.6348  154.1738 H   0  0  0  0  0  0  0  0  0  0  0  0  # atno 10763 bound_to 10752
  154.1478  135.2831  155.3145 H   0  0  0  0  0  0  0  0  0  0  0  0  # atno 10764 bound_to 10752
  154.6076  135.5567  153.7501 H   0  0  0  0  0  0  0  0  0  0  0  0  # atno 10765 bound_to 10752
  141.1620  133.6872  156.7182 H   0  0  0  0  0  0  0  0  0  0  0  0  # atno 11005 bound_to 11000
  146.0379  139.3395  143.0715 LP  0  0  0  0  0  0  0  0  0  0  0  0  # atno 17320 bound_to 7965
  145.8371  140.9600  143.0819 LP  0  0  0  0  0  0  0  0  0  0  0  0  # atno 17321 bound_to 7965
  139.5352  144.2801  152.1236 LP  0  0  0  0  0  0  0  0  0  0  0  0  # atno 17342 bound_to 10162
  140.1998  144.4669  150.6437 LP  0  0  0  0  0  0  0  0  0  0  0  0  # atno 17343 bound_to 10162
  156.5325  130.8264  151.3242 LP  0  0  0  0  0  0  0  0  0  0  0  0  # atno 17370 bound_to 10713
  157.7402  130.9847  150.2365 LP  0  0  0  0  0  0  0  0  0  0  0  0  # atno 17371 bound_to 10713
  140.2836  134.8297  157.3955 LP  0  0  0  0  0  0  0  0  0  0  0  0  # atno 17394 bound_to 11000
  140.1411  134.4971  155.8031 LP  0  0  0  0  0  0  0  0  0  0  0  0  # atno 17395 bound_to 11000

$$$$
