AV-unprocessed.smi:1815|AV-procd|sdf|7350|dock1
  -GOLD-   22720 9 13D 1   1.00000     0.00000
 Structure written by MMmdl.
 39 40  0  0  0  0  0  0  0  0  1 V2000
  151.8818  138.1338  154.4520 C   0  0  0  0  0  0  0  0  0  0  0  0
  150.6554  138.8757  154.9938 C   0  0  2  0  0  0  0  0  0  0  0  0
  149.3449  138.1284  154.6870 C   0  0  0  0  0  0  0  0  0  0  0  0
  148.1738  138.8749  155.1290 N   0  0  0  0  0  0  0  0  0  0  0  0
  146.9454  138.1285  154.8605 C   0  0  0  0  0  0  0  0  0  0  0  0
  146.4433  138.1959  153.4036 C   0  0  0  0  0  0  0  0  0  0  0  0
  146.6670  136.9497  152.6774 N   0  0  0  0  0  0  0  0  0  0  0  0
  145.7048  136.1184  152.2531 C   0  0  0  0  0  0  0  0  0  0  0  0
  144.5038  136.3226  152.4332 O   0  0  0  0  0  0  0  0  0  0  0  0
  146.2272  135.0533  151.6204 N   0  0  0  0  0  0  0  0  0  0  0  0
  145.5417  133.9596  151.0297 C   0  0  0  0  0  0  0  0  0  0  0  0
  146.1197  133.0386  150.2496 N   0  0  0  0  0  0  0  0  0  0  0  0
  145.2064  132.0777  149.8081 C   0  0  0  0  0  0  0  0  0  0  0  0
  143.9285  132.2842  150.2648 C   0  0  0  0  0  0  0  0  0  0  0  0
  143.8202  133.7021  151.2736 S   0  0  0  0  0  0  0  0  0  0  0  0
  148.1795  140.1885  154.4891 C   0  0  0  0  0  0  0  0  0  0  0  0
  149.4863  140.9684  154.7369 C   0  0  1  0  0  0  0  0  0  0  0  0
  149.6002  141.5262  156.1659 C   0  0  0  0  0  0  0  0  0  0  0  0
  150.6166  140.1671  154.3890 O   0  0  0  0  0  0  0  0  0  0  0  0
  151.9648  137.1394  154.8914 H   0  0  0  0  0  0  0  0  0  0  0  0
  152.7989  138.6764  154.6828 H   0  0  0  0  0  0  0  0  0  0  0  0
  151.8266  138.0182  153.3692 H   0  0  0  0  0  0  0  0  0  0  0  0
  150.7692  138.9839  156.0728 H   0  0  0  0  0  0  0  0  0  0  0  0
  149.2763  137.9362  153.6149 H   0  0  0  0  0  0  0  0  0  0  0  0
  149.3665  137.1540  155.1767 H   0  0  0  0  0  0  0  0  0  0  0  0
  147.0478  137.0936  155.1908 H   0  0  0  0  0  0  0  0  0  0  0  0
  146.1549  138.5519  155.4815 H   0  0  0  0  0  0  0  0  0  0  0  0
  145.3734  138.4110  153.3983 H   0  0  0  0  0  0  0  0  0  0  0  0
  146.9163  139.0193  152.8673 H   0  0  0  0  0  0  0  0  0  0  0  0
  147.6269  136.7034  152.4861 H   0  0  0  0  0  0  0  0  0  0  0  0
  147.2336  135.0220  151.5506 H   0  0  0  0  0  0  0  0  0  0  0  0
  145.5532  131.2787  149.1694 H   0  0  0  0  0  0  0  0  0  0  0  0
  143.0477  131.6905  150.0697 H   0  0  0  0  0  0  0  0  0  0  0  0
  148.0401  140.0659  153.4136 H   0  0  0  0  0  0  0  0  0  0  0  0
  147.3397  140.7869  154.8414 H   0  0  0  0  0  0  0  0  0  0  0  0
  149.4985  141.8235  154.0607 H   0  0  0  0  0  0  0  0  0  0  0  0
  148.7905  142.2258  156.3739 H   0  0  0  0  0  0  0  0  0  0  0  0
  150.5411  142.0600  156.3007 H   0  0  0  0  0  0  0  0  0  0  0  0
  149.5517  140.7396  156.9186 H   0  0  0  0  0  0  0  0  0  0  0  0
  1  2  1  0  0  0  0
  1 20  1  0  0  0  0
  1 21  1  0  0  0  0
  1 22  1  0  0  0  0
  2 19  1  0  0  0  0
  2  3  1  0  0  0  0
  2 23  1  0  0  0  0
  3  4  1  0  0  0  0
  3 24  1  0  0  0  0
  3 25  1  0  0  0  0
  4  5  1  0  0  0  0
  4 16  1  0  0  0  0
  5  6  1  0  0  0  0
  5 26  1  0  0  0  0
  5 27  1  0  0  0  0
  6  7  1  0  0  0  0
  6 28  1  0  0  0  0
  6 29  1  0  0  0  0
  7  8  1  0  0  0  0
  7 30  1  0  0  0  0
  8  9  2  0  0  0  0
  8 10  1  0  0  0  0
 10 11  1  0  0  0  0
 10 31  1  0  0  0  0
 11 15  1  0  0  0  0
 11 12  2  0  0  0  0
 12 13  1  0  0  0  0
 13 14  2  0  0  0  0
 13 32  1  0  0  0  0
 14 15  1  0  0  0  0
 14 33  1  0  0  0  0
 16 17  1  0  0  0  0
 16 34  1  0  0  0  0
 16 35  1  0  0  0  0
 17 18  1  0  0  0  0
 17 19  1  0  0  0  0
 17 36  1  0  0  0  0
 18 37  1  0  0  0  0
 18 38  1  0  0  0  0
 18 39  1  0  0  0  0
M  END
> <s_m_source_file>
AV-unprocessed.smi

> <i_m_source_file_index>
1815

> <i_lp_mmshare_version>
43012

> <i_f3d_flags>
0

> <s_epik_input>
W0NIM11bQ0BASF0xW0NIMl1OKFtDSDJdW0NASF0oTzEpW0NIM10pW0NIMl1bQ0gyXVtOSF1DKD1PKVtOSF1jMm5bY0hdW2NIXXMy

> <s_epik_cmdline>
J2VwaWtfcHl0aG9uJywgJy1waCcsICc3LjAnLCAnLXRuJywgJzgnLCAnLW1hJywgJzIwMCcsICctbWV0YWxfYmluZGluZycsICctaW1hZScsICc8aW5maWxlLm1hZT4nLCAnLW9tYWUnLCAnPG91dGZpbGUubWFlPic=

> <r_lp_tautomer_probability>
0.999

> <r_epik_Ionization_Penalty>
0.219201

> <r_epik_Ionization_Penalty_Charging>
0

> <r_epik_Ionization_Penalty_Neutral>
0.219201

> <r_epik_State_Penalty>
0.209349

> <r_epik_Charging_Adjusted_Penalty>
0.209349

> <i_epik_Tot_Q>
0

> <i_epik_Tot_abs_Q>
0

> <r_epik_Metal_State_Penalty>
0.247737

> <b_epik_Metal_Only>
0

> <s_lp_Force_Field>
OPLS_2005

> <r_lp_Energy>
26.2235

> <b_lp_Chiralities_Consistent>
1

> <s_lp_Variant>
AV-unprocessed.smi:1815-1

> <Gold.Version>
5.8.1

> <Gold.Id.Protein>
6NUR|6NUR_protein|mol2

> <Gold.PLP.Fitness>
41.1226

> <Gold.PLP.PLP>
-31.7660

> <Gold.PLP.part.hbond>
-2.9050

> <Gold.PLP.part.metal>
0.0000

> <Gold.PLP.part.buried>
-6.8668

> <Gold.PLP.part.nonpolar>
-24.3779

> <Gold.PLP.part.repulsive>
0.8963

> <Gold.PLP.ligand.clash>
0.0000

> <Gold.PLP.ligand.torsion>
0.5442

> <Gold.PLP.Chemscore.Hbond>
2.7635

> <Gold.PLP.Chemscore.CHOScore>
0.7169

> <Gold.PLP.Chemscore.Metal>
0.0000

> <Gold.Chemscore.Hbonds>
donor molecule, donor type, donor heavy atom, donor atom, acceptor molecule, acceptor atom, score
      L1  H     7    30       P1  7948  1.00
      L1  H    10    31       P1  7948  0.76
      P1  H  7989  7998       L1    19  0.98
      L1  C    14    33       P1 10952  0.71

> <Gold.PLP.Chemscore.Internal.Correction>
0.0038

> <Gold.Rescore>
     Score         DG    S(hbond)    S(metal)    S(lipo)     H(rot)  DE(clash)    DE(int)     intcor
     16.91     -18.64       2.73        0.00      69.69       1.60       0.02       1.71       ----

> <Gold.Chemscore.Fitness>
16.9124

> <Gold.Chemscore.DG>
-18.6400

> <Gold.Chemscore.ZeroCoef>
-5.4800

> <Gold.Chemscore.Hbond>
2.7254

> <Gold.Chemscore.Metal>
0.0000

> <Gold.Chemscore.Lipo>
69.6882

> <Gold.Chemscore.Internal_Hbond>
0.0000

> <Gold.Chemscore.DEClash>
0.0186

> <Gold.Chemscore.DEInternal>
1.7090

> <Gold.Chemscore.Rot>
1.6001

> <Gold.Chemscore.Internal.Correction>
   9.000000E+99

> <Gold.Chemscore.Hbonds>
donor molecule, donor type, donor heavy atom, donor atom, acceptor molecule, acceptor atom, score
      L1  H     7    30       P1  7948  0.93
      L1  H    10    31       P1  7948  0.60
      P1  H  7989  7998       L1    19  0.80

> <Gold.Chemscore.Hbond.Weighted>
-9.1027

> <Gold.Chemscore.Metal.Weighted>
-0.0000

> <Gold.Chemscore.Lipo.Weighted>
-8.1535

> <Gold.Chemscore.Internal_Hbond.Weighted>
0.0000

> <Gold.Chemscore.DEClash.Weighted>
0.0186

> <Gold.Chemscore.DEInternal.Weighted>
1.7090

> <Gold.Chemscore.Rot.Weighted>
4.0963

> <Gold.Chemscore.Internal.Correction.Weighted>
   9.000000E+99

> <Gold.Protein.RotatedTorsions>
[ 6907 6896 6895 6894 ] final  -54.60 input  -60.11 | X-H torsion
[ 7974 7965 7964 7962 ] final  -43.61 input  175.53 | X-H torsion
[ 8008 7997 7996 7995 ] final   50.20 input   59.86 | X-H torsion
[ 10167 10162 10161 10158 ] final   57.98 input  -65.29 | X-H torsion
[ 10718 10713 10712 10709 ] final   16.06 input   66.30 | X-H torsion
[ 10763 10752 10751 10750 ] final   64.90 input  -60.55 | X-H torsion
[ 11005 11000 10999 10996 ] final   -4.30 input  -57.11 | X-H torsion

> <Gold.Protein.ActiveResidues>
 VAL166  LYS551  ARG553  GLY616  TRP617  ASP618  TYR619  PRO620  LYS621  CYS622 
 ASP623  PHE694  ASN695  SER759  ASP760  ASP761  ALA762  ILE779  LEU786  VAL792 
 PHE793  MET794  SER795  GLU796  ALA797  LYS798  CYS799  TRP800  GLU811  SER814 

> <Gold.Protein.RotatedAtoms>
  150.8324  134.7582  159.6864 H   0  0  0  0  0  0  0  0  0  0  0  0  # atno 6907 bound_to 6896
  152.4426  134.5556  159.9889 H   0  0  0  0  0  0  0  0  0  0  0  0  # atno 6908 bound_to 6896
  151.5714  133.3352  159.3026 H   0  0  0  0  0  0  0  0  0  0  0  0  # atno 6909 bound_to 6896
  146.0002  140.7083  142.9274 H   0  0  0  0  0  0  0  0  0  0  0  0  # atno 7974 bound_to 7965
  155.4148  140.3444  155.4266 H   0  0  0  0  0  0  0  0  0  0  0  0  # atno 8008 bound_to 7997
  156.1427  140.1547  156.8926 H   0  0  0  0  0  0  0  0  0  0  0  0  # atno 8009 bound_to 7997
  154.4985  140.0821  156.7728 H   0  0  0  0  0  0  0  0  0  0  0  0  # atno 8010 bound_to 7997
  140.1921  144.4075  150.6566 H   0  0  0  0  0  0  0  0  0  0  0  0  # atno 10167 bound_to 10162
  157.0625  130.6315  149.5789 H   0  0  0  0  0  0  0  0  0  0  0  0  # atno 10718 bound_to 10713
  153.0074  135.5376  154.6582 H   0  0  0  0  0  0  0  0  0  0  0  0  # atno 10763 bound_to 10752
  154.5797  135.2849  155.0747 H   0  0  0  0  0  0  0  0  0  0  0  0  # atno 10764 bound_to 10752
  154.1881  135.6505  153.5105 H   0  0  0  0  0  0  0  0  0  0  0  0  # atno 10765 bound_to 10752
  140.6788  133.9172  155.8541 H   0  0  0  0  0  0  0  0  0  0  0  0  # atno 11005 bound_to 11000
  144.6917  140.3219  143.7231 LP  0  0  0  0  0  0  0  0  0  0  0  0  # atno 17320 bound_to 7965
  145.7500  139.1790  143.2327 LP  0  0  0  0  0  0  0  0  0  0  0  0  # atno 17321 bound_to 7965
  140.6449  143.2211  151.6209 LP  0  0  0  0  0  0  0  0  0  0  0  0  # atno 17342 bound_to 10162
  139.5252  144.3083  152.1015 LP  0  0  0  0  0  0  0  0  0  0  0  0  # atno 17343 bound_to 10162
  155.9974  130.5046  150.7533 LP  0  0  0  0  0  0  0  0  0  0  0  0  # atno 17370 bound_to 10713
  157.4943  131.0913  151.0390 LP  0  0  0  0  0  0  0  0  0  0  0  0  # atno 17371 bound_to 10713
  141.0334  134.0723  157.3987 LP  0  0  0  0  0  0  0  0  0  0  0  0  # atno 17394 bound_to 11000
  139.8958  135.0143  156.7021 LP  0  0  0  0  0  0  0  0  0  0  0  0  # atno 17395 bound_to 11000

$$$$
