AV-unprocessed.smi:766|AV-procd|sdf|3653|dock6
  -GOLD-   22720 1 63D 1   1.00000     0.00000
 Structure written by MMmdl.
 48 50  0  0  0  0  0  0  0  0  3 V2000
  152.2632  140.4845  157.9081 C   0  0  0  0  0  0  0  0  0  0  0  0
  151.1799  140.5597  156.8454 C   0  0  0  0  0  0  0  0  0  0  0  0
  150.1058  141.4569  157.0399 C   0  0  0  0  0  0  0  0  0  0  0  0
  149.1324  141.5052  156.0493 C   0  0  0  0  0  0  0  0  0  0  0  0
  147.9692  142.2709  155.9489 N   0  3  0  0  0  0  0  0  0  0  0  0
  147.3277  141.9728  154.7856 C   0  0  0  0  0  0  0  0  0  0  0  0
  148.0625  141.0250  154.1417 N   0  0  0  0  0  0  0  0  0  0  0  0
  147.8193  140.3707  152.8475 C   0  0  0  0  0  0  0  0  0  0  0  0
  146.9657  139.0934  152.9716 C   0  0  2  0  0  0  0  0  0  0  0  0
  147.6590  138.1317  153.7428 O   0  0  0  0  0  0  0  0  0  0  0  0
  146.6459  138.4820  151.5974 C   0  0  0  0  0  0  0  0  0  0  0  0
  146.2642  137.0612  151.7198 N   0  3  0  0  0  0  0  0  0  0  0  0
  145.2125  136.6341  150.7753 C   0  0  0  0  0  0  0  0  0  0  0  0
  144.3904  135.4597  151.3373 C   0  0  0  0  0  0  0  0  0  0  0  0
  143.3945  135.8645  152.3174 N   0  0  0  0  0  0  0  0  0  0  0  0
  142.9982  137.1436  152.6490 C   0  0  0  0  0  0  0  0  0  0  0  0
  142.0182  137.0358  153.5935 C   0  0  0  0  0  0  0  0  0  0  0  0
  141.8681  135.6318  153.7662 C   0  0  0  0  0  0  0  0  0  0  0  0
  142.6861  134.9340  152.9949 N   0  0  0  0  0  0  0  0  0  0  0  0
  149.1991  140.7018  154.8940 C   0  0  0  0  0  0  0  0  0  0  0  0
  150.2496  139.8099  154.6889 C   0  0  0  0  0  0  0  0  0  0  0  0
  151.2500  139.7457  155.6852 C   0  0  0  0  0  0  0  0  0  0  0  0
  152.4080  138.7819  155.4885 C   0  0  0  0  0  0  0  0  0  0  0  0
  152.0564  141.1618  158.7373 H   0  0  0  0  0  0  0  0  0  0  0  0
  153.2309  140.7587  157.4877 H   0  0  0  0  0  0  0  0  0  0  0  0
  152.3344  139.4749  158.3133 H   0  0  0  0  0  0  0  0  0  0  0  0
  150.0453  142.0784  157.9213 H   0  0  0  0  0  0  0  0  0  0  0  0
  146.4043  142.4124  154.4366 H   0  0  0  0  0  0  0  0  0  0  0  0
  147.3057  141.0976  152.2168 H   0  0  0  0  0  0  0  0  0  0  0  0
  148.7728  140.1672  152.3594 H   0  0  0  0  0  0  0  0  0  0  0  0
  146.0354  139.3388  153.4859 H   0  0  0  0  0  0  0  0  0  0  0  0
  148.1022  137.5376  153.1560 H   0  0  0  0  0  0  0  0  0  0  0  0
  145.8167  139.0205  151.1367 H   0  0  0  0  0  0  0  0  0  0  0  0
  147.5019  138.5805  150.9277 H   0  0  0  0  0  0  0  0  0  0  0  0
  147.0867  136.4994  151.5487 H   0  0  0  0  0  0  0  0  0  0  0  0
  144.5509  137.4775  150.5747 H   0  0  0  0  0  0  0  0  0  0  0  0
  145.6673  136.3592  149.8227 H   0  0  0  0  0  0  0  0  0  0  0  0
  143.8839  134.9371  150.5247 H   0  0  0  0  0  0  0  0  0  0  0  0
  145.0532  134.7343  151.8102 H   0  0  0  0  0  0  0  0  0  0  0  0
  143.4420  138.0158  152.1918 H   0  0  0  0  0  0  0  0  0  0  0  0
  141.4843  137.8377  154.0814 H   0  0  0  0  0  0  0  0  0  0  0  0
  141.1913  135.1030  154.4210 H   0  0  0  0  0  0  0  0  0  0  0  0
  150.3039  139.1859  153.8090 H   0  0  0  0  0  0  0  0  0  0  0  0
  152.3161  138.2330  154.5507 H   0  0  0  0  0  0  0  0  0  0  0  0
  152.4416  138.0531  156.2986 H   0  0  0  0  0  0  0  0  0  0  0  0
  153.3553  139.3209  155.4670 H   0  0  0  0  0  0  0  0  0  0  0  0
  145.9460  136.8897  152.6626 H   0  0  0  0  0  0  0  0  0  0  0  0
  147.6374  142.9502  156.6221 H   0  0  0  0  0  0  0  0  0  0  0  0
  1  2  1  0  0  0  0
  1 24  1  0  0  0  0
  1 25  1  0  0  0  0
  1 26  1  0  0  0  0
  2 22  1  0  0  0  0
  2  3  2  0  0  0  0
  3  4  1  0  0  0  0
  3 27  1  0  0  0  0
  4 20  2  0  0  0  0
  4  5  1  0  0  0  0
  5  6  2  0  0  0  0
  5 48  1  0  0  0  0
  6  7  1  0  0  0  0
  6 28  1  0  0  0  0
  7  8  1  0  0  0  0
  7 20  1  0  0  0  0
  8  9  1  0  0  0  0
  8 29  1  0  0  0  0
  8 30  1  0  0  0  0
  9 10  1  0  0  0  0
  9 11  1  0  0  0  0
  9 31  1  0  0  0  0
 10 32  1  0  0  0  0
 11 12  1  0  0  0  0
 11 33  1  0  0  0  0
 11 34  1  0  0  0  0
 12 13  1  0  0  0  0
 12 35  1  0  0  0  0
 12 47  1  0  0  0  0
 13 14  1  0  0  0  0
 13 36  1  0  0  0  0
 13 37  1  0  0  0  0
 14 15  1  0  0  0  0
 14 38  1  0  0  0  0
 14 39  1  0  0  0  0
 15 19  1  0  0  0  0
 15 16  1  0  0  0  0
 16 17  2  0  0  0  0
 16 40  1  0  0  0  0
 17 18  1  0  0  0  0
 17 41  1  0  0  0  0
 18 19  2  0  0  0  0
 18 42  1  0  0  0  0
 20 21  1  0  0  0  0
 21 22  2  0  0  0  0
 21 43  1  0  0  0  0
 22 23  1  0  0  0  0
 23 44  1  0  0  0  0
 23 45  1  0  0  0  0
 23 46  1  0  0  0  0
M  CHG  1   5   1
M  CHG  1  12   1
M  END
> <s_m_source_file>
AV-unprocessed.smi

> <i_m_source_file_index>
766

> <i_lp_mmshare_version>
43012

> <i_f3d_flags>
0

> <s_epik_input>
W0NIM11jKFtjSF0xKWMoW0NIM10pW2NIXWMoYzEyKW4oW2NIXW4yKVtDSDJdW0NASF0oW09IXSlbQ0gyXVtOSF1bQ0gyXVtDSDJdbjNbY0hdW2NIXVtjSF1uMw==

> <s_epik_cmdline>
J2VwaWtfcHl0aG9uJywgJy1waCcsICc3LjAnLCAnLXRuJywgJzgnLCAnLW1hJywgJzIwMCcsICctbWV0YWxfYmluZGluZycsICctaW1hZScsICc8aW5maWxlLm1hZT4nLCAnLW9tYWUnLCAnPG91dGZpbGUubWFlPic=

> <r_lp_tautomer_probability>
1

> <r_epik_Ionization_Penalty>
1.25103

> <r_epik_Ionization_Penalty_Charging>
1.25102

> <r_epik_Ionization_Penalty_Neutral>
6.05394e-06

> <r_epik_State_Penalty>
1.2613

> <r_epik_Charging_Adjusted_Penalty>
2.51232

> <i_epik_Tot_Q>
2

> <i_epik_Tot_abs_Q>
2

> <r_epik_Metal_State_Penalty>
1.33164

> <b_epik_Metal_Only>
0

> <s_lp_Force_Field>
OPLS_2005

> <r_lp_Energy>
19.7351

> <b_lp_Chiralities_Consistent>
1

> <s_lp_Variant>
AV-unprocessed.smi:766-3

> <Gold.Version>
5.8.1

> <Gold.Id.Protein>
6NUR|6NUR_protein|mol2

> <Gold.PLP.Fitness>
58.5191

> <Gold.PLP.PLP>
-42.6812

> <Gold.PLP.part.hbond>
-3.0000

> <Gold.PLP.part.metal>
0.0000

> <Gold.PLP.part.buried>
4.0458

> <Gold.PLP.part.nonpolar>
-45.4762

> <Gold.PLP.part.repulsive>
0.2937

> <Gold.PLP.ligand.clash>
0.0000

> <Gold.PLP.ligand.torsion>
1.1315

> <Gold.PLP.Chemscore.Hbond>
3.0000

> <Gold.PLP.Chemscore.CHOScore>
2.9682

> <Gold.PLP.Chemscore.Metal>
0.0000

> <Gold.Chemscore.Hbonds>
donor molecule, donor type, donor heavy atom, donor atom, acceptor molecule, acceptor atom, score
      L1  H    10    32       P1  7948  1.00
      L1  H    12    35       P1  7948  1.95
      L1  C    16    40       P1 10171  1.00
      L1  C    16    40       P1 10175  1.00
      L1  C    18    42       P1 11000  0.89

> <Gold.PLP.Chemscore.Internal.Correction>
0.1964

> <Gold.Rescore>
     Score         DG    S(hbond)    S(metal)    S(lipo)     H(rot)  DE(clash)    DE(int)     intcor
     12.47     -16.52       1.93        0.00     105.47       3.02       2.96       1.09       ----

> <Gold.Chemscore.Fitness>
12.4721

> <Gold.Chemscore.DG>
-16.5223

> <Gold.Chemscore.ZeroCoef>
-5.4800

> <Gold.Chemscore.Hbond>
1.9285

> <Gold.Chemscore.Metal>
0.0000

> <Gold.Chemscore.Lipo>
105.4668

> <Gold.Chemscore.Internal_Hbond>
0.0000

> <Gold.Chemscore.DEClash>
2.9633

> <Gold.Chemscore.DEInternal>
1.0869

> <Gold.Chemscore.Rot>
3.0229

> <Gold.Chemscore.Internal.Correction>
   9.000000E+99

> <Gold.Chemscore.Hbonds>
donor molecule, donor type, donor heavy atom, donor atom, acceptor molecule, acceptor atom, score
      L1  H    10    32       P1  7948  0.94
      L1  H    12    35       P1  7948  0.93

> <Gold.Chemscore.Hbond.Weighted>
-6.4413

> <Gold.Chemscore.Metal.Weighted>
-0.0000

> <Gold.Chemscore.Lipo.Weighted>
-12.3396

> <Gold.Chemscore.Internal_Hbond.Weighted>
0.0000

> <Gold.Chemscore.DEClash.Weighted>
2.9633

> <Gold.Chemscore.DEInternal.Weighted>
1.0869

> <Gold.Chemscore.Rot.Weighted>
7.7386

> <Gold.Chemscore.Internal.Correction.Weighted>
   9.000000E+99

> <Gold.Protein.RotatedTorsions>
[ 6907 6896 6895 6894 ] final  177.85 input  -60.11 | X-H torsion
[ 7974 7965 7964 7962 ] final  116.14 input  175.53 | X-H torsion
[ 8008 7997 7996 7995 ] final  -77.53 input   59.86 | X-H torsion
[ 10167 10162 10161 10158 ] final  -25.91 input  -65.29 | X-H torsion
[ 10718 10713 10712 10709 ] final  -13.34 input   66.30 | X-H torsion
[ 10763 10752 10751 10750 ] final  -75.87 input  -60.55 | X-H torsion
[ 11005 11000 10999 10996 ] final  153.99 input  -57.11 | X-H torsion

> <Gold.Protein.ActiveResidues>
 VAL166  LYS551  ARG553  GLY616  TRP617  ASP618  TYR619  PRO620  LYS621  CYS622 
 ASP623  PHE694  ASN695  SER759  ASP760  ASP761  ALA762  ILE779  LEU786  VAL792 
 PHE793  MET794  SER795  GLU796  ALA797  LYS798  CYS799  TRP800  GLU811  SER814 

> <Gold.Protein.RotatedAtoms>
  151.6973  133.3311  159.3257 H   0  0  0  0  0  0  0  0  0  0  0  0  # atno 6907 bound_to 6896
  150.7752  134.6646  159.6368 H   0  0  0  0  0  0  0  0  0  0  0  0  # atno 6908 bound_to 6896
  152.3791  134.6621  160.0201 H   0  0  0  0  0  0  0  0  0  0  0  0  # atno 6909 bound_to 6896
  145.1833  139.3038  143.4406 H   0  0  0  0  0  0  0  0  0  0  0  0  # atno 7974 bound_to 7965
  154.5605  140.0709  156.8811 H   0  0  0  0  0  0  0  0  0  0  0  0  # atno 8008 bound_to 7997
  155.2821  140.3372  155.4239 H   0  0  0  0  0  0  0  0  0  0  0  0  # atno 8009 bound_to 7997
  156.2038  140.1732  156.7829 H   0  0  0  0  0  0  0  0  0  0  0  0  # atno 8010 bound_to 7997
  140.7285  143.4224  151.0931 H   0  0  0  0  0  0  0  0  0  0  0  0  # atno 10167 bound_to 10162
  156.6317  130.4903  149.6127 H   0  0  0  0  0  0  0  0  0  0  0  0  # atno 10718 bound_to 10713
  154.4923  135.5817  153.6468 H   0  0  0  0  0  0  0  0  0  0  0  0  # atno 10763 bound_to 10752
  152.9864  135.6115  154.3109 H   0  0  0  0  0  0  0  0  0  0  0  0  # atno 10764 bound_to 10752
  154.3010  135.2847  155.2590 H   0  0  0  0  0  0  0  0  0  0  0  0  # atno 10765 bound_to 10752
  140.1448  134.8715  157.2378 H   0  0  0  0  0  0  0  0  0  0  0  0  # atno 11005 bound_to 11000
  146.3449  140.2020  142.8589 LP  0  0  0  0  0  0  0  0  0  0  0  0  # atno 17320 bound_to 7965
  145.0114  140.8717  143.5222 LP  0  0  0  0  0  0  0  0  0  0  0  0  # atno 17321 bound_to 7965
  139.7871  143.8272  152.3146 LP  0  0  0  0  0  0  0  0  0  0  0  0  # atno 17342 bound_to 10162
  139.8243  144.7282  150.9532 LP  0  0  0  0  0  0  0  0  0  0  0  0  # atno 17343 bound_to 10162
  156.2229  130.6748  151.1387 LP  0  0  0  0  0  0  0  0  0  0  0  0  # atno 17370 bound_to 10713
  157.7198  131.0688  150.6182 LP  0  0  0  0  0  0  0  0  0  0  0  0  # atno 17371 bound_to 10713
  140.2677  134.3496  155.7384 LP  0  0  0  0  0  0  0  0  0  0  0  0  # atno 17394 bound_to 11000
  141.2191  133.7405  156.9176 LP  0  0  0  0  0  0  0  0  0  0  0  0  # atno 17395 bound_to 11000

$$$$
