AV-unprocessed.smi:276|AV-procd|sdf|2085|dock6
  -GOLD-   2262021363D 1   1.00000     0.00000
 Structure written by MMmdl.
 57 61  0  0  0  0  0  0  0  0  1 V2000
  142.0893  137.7785  153.3419 C   0  0  0  0  0  0  0  0  0  0  0  0
  143.1259  136.8205  153.2242 O   0  0  0  0  0  0  0  0  0  0  0  0
  144.3794  137.4077  152.9126 C   0  0  1  0  0  0  0  0  0  0  0  0
  145.2373  137.7618  154.1332 C   0  0  0  0  0  0  0  0  0  0  0  0
  146.4665  137.2251  153.3736 C   0  0  2  0  0  0  0  0  0  0  0  0
  147.1667  138.2974  152.6524 N   0  0  0  0  0  0  0  0  0  0  0  0
  146.5024  138.8099  151.4578 C   0  0  0  0  0  0  0  0  0  0  0  0
  147.6190  139.3248  153.4059 C   0  0  0  0  0  0  0  0  0  0  0  0
  146.8131  140.4109  153.5095 N   0  0  0  0  0  0  0  0  0  0  0  0
  147.2021  141.4662  154.2312 C   0  0  0  0  0  0  0  0  0  0  0  0
  148.3327  141.6364  154.9198 N   0  0  0  0  0  0  0  0  0  0  0  0
  149.1374  140.5392  154.8295 C   0  0  0  0  0  0  0  0  0  0  0  0
  148.8605  139.3457  154.1051 C   0  0  0  0  0  0  0  0  0  0  0  0
  149.9116  138.4484  154.2563 N   0  0  0  0  0  0  0  0  0  0  0  0
  150.7638  139.0786  155.0179 C   0  0  0  0  0  0  0  0  0  0  0  0
  150.3778  140.3406  155.4075 N   0  0  0  0  0  0  0  0  0  0  0  0
  151.1207  141.2607  156.2493 C   0  0  0  0  0  0  0  0  0  0  0  0
  150.3121  141.7102  157.4812 C   0  0  1  0  0  0  0  0  0  0  0  0
  149.7849  140.5899  158.1666 O   0  0  0  0  0  0  0  0  0  0  0  0
  151.1316  142.5965  158.4405 C   0  0  1  0  0  0  0  0  0  0  0  0
  151.7252  143.8774  157.8487 C   0  0  0  0  0  0  0  0  0  0  0  0
  151.9252  144.7096  159.0954 C   0  0  0  0  0  0  0  0  0  0  0  0
  150.6889  144.3481  159.9159 C   0  0  0  0  0  0  0  0  0  0  0  0
  150.3703  143.0009  159.5759 O   0  0  0  0  0  0  0  0  0  0  0  0
  145.4675  136.3886  152.5288 C   0  0  0  0  0  0  0  0  0  0  0  0
  145.2696  134.8964  152.8527 C   0  0  0  0  0  0  0  0  0  0  0  0
  144.8732  134.6878  151.3886 C   0  0  0  0  0  0  0  0  0  0  0  0
  145.6666  135.9558  151.0634 C   0  0  0  0  0  0  0  0  0  0  0  0
  141.1512  137.2752  153.5756 H   0  0  0  0  0  0  0  0  0  0  0  0
  141.9539  138.3277  152.4094 H   0  0  0  0  0  0  0  0  0  0  0  0
  142.2959  138.4912  154.1412 H   0  0  0  0  0  0  0  0  0  0  0  0
  144.3130  138.2226  152.1884 H   0  0  0  0  0  0  0  0  0  0  0  0
  145.2413  138.8221  154.3843 H   0  0  0  0  0  0  0  0  0  0  0  0
  144.9932  137.1543  155.0063 H   0  0  0  0  0  0  0  0  0  0  0  0
  147.1108  136.6230  154.0141 H   0  0  0  0  0  0  0  0  0  0  0  0
  146.8523  139.8060  151.1804 H   0  0  0  0  0  0  0  0  0  0  0  0
  145.4239  138.8631  151.6108 H   0  0  0  0  0  0  0  0  0  0  0  0
  146.6941  138.1536  150.6094 H   0  0  0  0  0  0  0  0  0  0  0  0
  146.5086  142.2936  154.2598 H   0  0  0  0  0  0  0  0  0  0  0  0
  151.7014  138.6364  155.3217 H   0  0  0  0  0  0  0  0  0  0  0  0
  152.0523  140.7810  156.5527 H   0  0  0  0  0  0  0  0  0  0  0  0
  151.3977  142.1252  155.6447 H   0  0  0  0  0  0  0  0  0  0  0  0
  149.4568  142.2942  157.1389 H   0  0  0  0  0  0  0  0  0  0  0  0
  148.8473  140.5828  158.0475 H   0  0  0  0  0  0  0  0  0  0  0  0
  151.9576  142.0009  158.8331 H   0  0  0  0  0  0  0  0  0  0  0  0
  152.6496  143.7025  157.2976 H   0  0  0  0  0  0  0  0  0  0  0  0
  151.0215  144.3793  157.1841 H   0  0  0  0  0  0  0  0  0  0  0  0
  152.8292  144.3917  159.6169 H   0  0  0  0  0  0  0  0  0  0  0  0
  152.0050  145.7776  158.8914 H   0  0  0  0  0  0  0  0  0  0  0  0
  150.8527  144.4607  160.9877 H   0  0  0  0  0  0  0  0  0  0  0  0
  149.8477  144.9822  159.6337 H   0  0  0  0  0  0  0  0  0  0  0  0
  146.2050  134.3950  153.1071 H   0  0  0  0  0  0  0  0  0  0  0  0
  144.4879  134.6695  153.5780 H   0  0  0  0  0  0  0  0  0  0  0  0
  145.2602  133.7751  150.9347 H   0  0  0  0  0  0  0  0  0  0  0  0
  143.8013  134.8043  151.2195 H   0  0  0  0  0  0  0  0  0  0  0  0
  145.2040  136.6089  150.3231 H   0  0  0  0  0  0  0  0  0  0  0  0
  146.6977  135.7178  150.8033 H   0  0  0  0  0  0  0  0  0  0  0  0
  1  2  1  0  0  0  0
  1 29  1  0  0  0  0
  1 30  1  0  0  0  0
  1 31  1  0  0  0  0
  2  3  1  0  0  0  0
  3 25  1  0  0  0  0
  3  4  1  0  0  0  0
  3 32  1  0  0  0  0
  4  5  1  0  0  0  0
  4 33  1  0  0  0  0
  4 34  1  0  0  0  0
  5  6  1  0  0  0  0
  5 25  1  0  0  0  0
  5 35  1  0  0  0  0
  6  7  1  0  0  0  0
  6  8  1  0  0  0  0
  7 36  1  0  0  0  0
  7 37  1  0  0  0  0
  7 38  1  0  0  0  0
  8 13  1  0  0  0  0
  8  9  2  0  0  0  0
  9 10  1  0  0  0  0
 10 11  2  0  0  0  0
 10 39  1  0  0  0  0
 11 12  1  0  0  0  0
 12 16  1  0  0  0  0
 12 13  2  0  0  0  0
 13 14  1  0  0  0  0
 14 15  2  0  0  0  0
 15 16  1  0  0  0  0
 15 40  1  0  0  0  0
 16 17  1  0  0  0  0
 17 18  1  0  0  0  0
 17 41  1  0  0  0  0
 17 42  1  0  0  0  0
 18 19  1  0  0  0  0
 18 20  1  0  0  0  0
 18 43  1  0  0  0  0
 19 44  1  0  0  0  0
 20 24  1  0  0  0  0
 20 21  1  0  0  0  0
 20 45  1  0  0  0  0
 21 22  1  0  0  0  0
 21 46  1  0  0  0  0
 21 47  1  0  0  0  0
 22 23  1  0  0  0  0
 22 48  1  0  0  0  0
 22 49  1  0  0  0  0
 23 24  1  0  0  0  0
 23 50  1  0  0  0  0
 23 51  1  0  0  0  0
 25 28  1  0  0  0  0
 25 26  1  0  0  0  0
 26 27  1  0  0  0  0
 26 52  1  0  0  0  0
 26 53  1  0  0  0  0
 27 28  1  0  0  0  0
 27 54  1  0  0  0  0
 27 55  1  0  0  0  0
 28 56  1  0  0  0  0
 28 57  1  0  0  0  0
M  END
> <s_m_source_file>
AV-unprocessed.smi

> <i_m_source_file_index>
276

> <i_lp_mmshare_version>
43012

> <i_f3d_flags>
0

> <s_epik_input>
W0NIMl0xW0NIMl1bQ0gyXUMxMltDQEhdKE9bQ0gzXSlbQ0gyXVtDQEhdMk4oW0NIM10pYyhuW2NIXW4zKWMoYzM0KW5bY0hdbjRbQ0gyXVtDQEhdKFtPSF0pW0NAQEhdNVtDSDJdW0NIMl1bQ0gyXU81

> <s_epik_cmdline>
J2VwaWtfcHl0aG9uJywgJy1waCcsICc3LjAnLCAnLXRuJywgJzgnLCAnLW1hJywgJzIwMCcsICctbWV0YWxfYmluZGluZycsICctaW1hZScsICc8aW5maWxlLm1hZT4nLCAnLW9tYWUnLCAnPG91dGZpbGUubWFlPic=

> <r_lp_tautomer_probability>
1

> <r_epik_Ionization_Penalty>
0.00204117

> <r_epik_Ionization_Penalty_Charging>
0

> <r_epik_Ionization_Penalty_Neutral>
0.00204117

> <r_epik_State_Penalty>
0.00127401

> <r_epik_Charging_Adjusted_Penalty>
0.00127401

> <i_epik_Tot_Q>
0

> <i_epik_Tot_abs_Q>
0

> <r_epik_Metal_State_Penalty>
-0

> <b_epik_Metal_Only>
0

> <s_lp_Force_Field>
OPLS_2005

> <r_lp_Energy>
58.9981

> <b_lp_Chiralities_Consistent>
1

> <s_lp_Variant>
AV-unprocessed.smi:276-16

> <Gold.Version>
5.8.1

> <Gold.Id.Protein>
6NUR|6NUR_protein|mol2

> <Gold.PLP.Fitness>
42.9480

> <Gold.PLP.PLP>
-47.1164

> <Gold.PLP.part.hbond>
-0.8521

> <Gold.PLP.part.metal>
0.0000

> <Gold.PLP.part.buried>
-1.9433

> <Gold.PLP.part.nonpolar>
-47.4877

> <Gold.PLP.part.repulsive>
2.6879

> <Gold.PLP.ligand.clash>
2.2810

> <Gold.PLP.ligand.torsion>
1.3443

> <Gold.PLP.Chemscore.Hbond>
0.0000

> <Gold.PLP.Chemscore.CHOScore>
0.0000

> <Gold.PLP.Chemscore.Metal>
0.0000

> <Gold.PLP.Chemscore.Internal.Correction>
0.8012

> <Gold.Rescore>
     Score         DG    S(hbond)    S(metal)    S(lipo)     H(rot)  DE(clash)    DE(int)     intcor
      6.84     -10.22       0.00        0.00      99.94       2.72       0.71       2.67       ----

> <Gold.Chemscore.Fitness>
6.8412

> <Gold.Chemscore.DG>
-10.2172

> <Gold.Chemscore.ZeroCoef>
-5.4800

> <Gold.Chemscore.Hbond>
0.0000

> <Gold.Chemscore.Metal>
0.0000

> <Gold.Chemscore.Lipo>
99.9415

> <Gold.Chemscore.Internal_Hbond>
0.0000

> <Gold.Chemscore.DEClash>
0.7080

> <Gold.Chemscore.DEInternal>
2.6680

> <Gold.Chemscore.Rot>
2.7172

> <Gold.Chemscore.Internal.Correction>
   9.000000E+99

> <Gold.Chemscore.Hbond.Weighted>
-0.0000

> <Gold.Chemscore.Metal.Weighted>
-0.0000

> <Gold.Chemscore.Lipo.Weighted>
-11.6932

> <Gold.Chemscore.Internal_Hbond.Weighted>
0.0000

> <Gold.Chemscore.DEClash.Weighted>
0.7080

> <Gold.Chemscore.DEInternal.Weighted>
2.6680

> <Gold.Chemscore.Rot.Weighted>
6.9560

> <Gold.Chemscore.Internal.Correction.Weighted>
   9.000000E+99

> <Gold.Protein.RotatedTorsions>
[ 6907 6896 6895 6894 ] final  104.14 input  -60.11 | X-H torsion
[ 7974 7965 7964 7962 ] final  108.29 input  175.53 | X-H torsion
[ 8008 7997 7996 7995 ] final   86.69 input   59.86 | X-H torsion
[ 10167 10162 10161 10158 ] final -122.28 input  -65.29 | X-H torsion
[ 10718 10713 10712 10709 ] final   -2.61 input   66.30 | X-H torsion
[ 10763 10752 10751 10750 ] final   62.92 input  -60.55 | X-H torsion
[ 11005 11000 10999 10996 ] final -154.45 input  -57.11 | X-H torsion

> <Gold.Protein.ActiveResidues>
 VAL166  LYS551  ARG553  GLY616  TRP617  ASP618  TYR619  PRO620  LYS621  CYS622 
 ASP623  PHE694  ASN695  SER759  ASP760  ASP761  ALA762  ILE779  LEU786  VAL792 
 PHE793  MET794  SER795  GLU796  ALA797  LYS798  CYS799  TRP800  GLU811  SER814 

> <Gold.Protein.RotatedAtoms>
  152.5274  133.9721  159.7766 H   0  0  0  0  0  0  0  0  0  0  0  0  # atno 6907 bound_to 6896
  150.9991  133.6066  159.2704 H   0  0  0  0  0  0  0  0  0  0  0  0  # atno 6908 bound_to 6896
  151.3182  135.0818  159.9349 H   0  0  0  0  0  0  0  0  0  0  0  0  # atno 6909 bound_to 6896
  145.2826  139.2627  143.3907 H   0  0  0  0  0  0  0  0  0  0  0  0  # atno 7974 bound_to 7965
  155.9659  140.3389  155.6532 H   0  0  0  0  0  0  0  0  0  0  0  0  # atno 8008 bound_to 7997
  155.6737  140.0730  157.2528 H   0  0  0  0  0  0  0  0  0  0  0  0  # atno 8009 bound_to 7997
  154.4154  140.1687  156.1895 H   0  0  0  0  0  0  0  0  0  0  0  0  # atno 8010 bound_to 7997
  140.0159  143.5394  152.2242 H   0  0  0  0  0  0  0  0  0  0  0  0  # atno 10167 bound_to 10162
  156.7882  130.5353  149.5740 H   0  0  0  0  0  0  0  0  0  0  0  0  # atno 10718 bound_to 10713
  152.9999  135.5448  154.6269 H   0  0  0  0  0  0  0  0  0  0  0  0  # atno 10763 bound_to 10752
  154.5556  135.2830  155.0970 H   0  0  0  0  0  0  0  0  0  0  0  0  # atno 10764 bound_to 10752
  154.2193  135.6453  153.5192 H   0  0  0  0  0  0  0  0  0  0  0  0  # atno 10765 bound_to 10752
  140.6972  134.3977  157.5213 H   0  0  0  0  0  0  0  0  0  0  0  0  # atno 11005 bound_to 11000
  146.3211  140.3297  142.8639 LP  0  0  0  0  0  0  0  0  0  0  0  0  # atno 17320 bound_to 7965
  144.9240  140.7900  143.5730 LP  0  0  0  0  0  0  0  0  0  0  0  0  # atno 17321 bound_to 7965
  139.6173  144.7622  151.2818 LP  0  0  0  0  0  0  0  0  0  0  0  0  # atno 17342 bound_to 10162
  140.7362  143.6713  150.8079 LP  0  0  0  0  0  0  0  0  0  0  0  0  # atno 17343 bound_to 10162
  156.1175  130.6086  151.0143 LP  0  0  0  0  0  0  0  0  0  0  0  0  # atno 17370 bound_to 10713
  157.6613  131.0880  150.7831 LP  0  0  0  0  0  0  0  0  0  0  0  0  # atno 17371 bound_to 10713
  139.8907  134.8799  156.2358 LP  0  0  0  0  0  0  0  0  0  0  0  0  # atno 17394 bound_to 11000
  141.0193  133.7050  156.1242 LP  0  0  0  0  0  0  0  0  0  0  0  0  # atno 17395 bound_to 11000

$$$$
