AV-unprocessed.smi:1464|AV-procd|sdf|5949|dock8
  -GOLD-   22720 6 33D 1   1.00000     0.00000
 Structure written by MMmdl.
 41 42  0  0  0  0  0  0  0  0  1 V2000
  150.6595  145.3079  159.9342 C   0  0  0  0  0  0  0  0  0  0  0  0
  151.1895  143.8650  159.8904 C   0  0  2  0  0  0  0  0  0  0  0  0
  152.5819  143.7446  160.5431 C   0  0  0  0  0  0  0  0  0  0  0  0
  153.0591  142.2840  160.5860 C   0  0  0  0  0  0  0  0  0  0  0  0
  153.0270  141.6351  159.1936 C   0  0  0  0  0  0  0  0  0  0  0  0
  151.6315  141.7590  158.5519 C   0  0  2  0  0  0  0  0  0  0  0  0
  151.6207  141.0995  157.2480 N   0  0  0  0  0  0  0  0  0  0  0  0
  151.9886  139.8296  157.0182 C   0  0  0  0  0  0  0  0  0  0  0  0
  152.3641  139.0640  157.9072 O   0  0  0  0  0  0  0  0  0  0  0  0
  151.8910  139.3521  155.5622 C   0  0  0  0  0  0  0  0  0  0  0  0
  150.5468  139.5114  154.9883 N   0  0  0  0  0  0  0  0  0  0  0  0
  150.1736  140.8296  154.7716 N   0  0  0  0  0  0  0  0  0  0  0  0
  149.0099  141.0976  154.2830 C   0  0  0  0  0  0  0  0  0  0  0  0
  148.6794  142.4161  154.0874 O   0  0  0  0  0  0  0  0  0  0  0  0
  148.0768  140.0441  153.9488 C   0  0  0  0  0  0  0  0  0  0  0  0
  148.4504  138.7634  154.1602 C   0  0  0  0  0  0  0  0  0  0  0  0
  149.7632  138.4234  154.7125 C   0  0  0  0  0  0  0  0  0  0  0  0
  150.1311  137.2659  154.9118 O   0  0  0  0  0  0  0  0  0  0  0  0
  151.1685  143.2394  158.4703 C   0  0  2  0  0  0  0  0  0  0  0  0
  151.9469  144.0647  157.4192 C   0  0  0  0  0  0  0  0  0  0  0  0
  148.9081  142.8537  154.8929 H   0  0  0  0  0  0  0  0  0  0  0  0
  151.3362  146.0043  159.4390 H   0  0  0  0  0  0  0  0  0  0  0  0
  150.5420  145.6466  160.9637 H   0  0  0  0  0  0  0  0  0  0  0  0
  149.6846  145.3836  159.4517 H   0  0  0  0  0  0  0  0  0  0  0  0
  150.5029  143.2759  160.5006 H   0  0  0  0  0  0  0  0  0  0  0  0
  153.3065  144.3528  160.0010 H   0  0  0  0  0  0  0  0  0  0  0  0
  152.5516  144.1425  161.5580 H   0  0  0  0  0  0  0  0  0  0  0  0
  154.0681  142.2344  160.9961 H   0  0  0  0  0  0  0  0  0  0  0  0
  152.4227  141.7154  161.2652 H   0  0  0  0  0  0  0  0  0  0  0  0
  153.7803  142.0988  158.5558 H   0  0  0  0  0  0  0  0  0  0  0  0
  153.3051  140.5838  159.2786 H   0  0  0  0  0  0  0  0  0  0  0  0
  150.9354  141.2216  159.1995 H   0  0  0  0  0  0  0  0  0  0  0  0
  151.3167  141.6539  156.4609 H   0  0  0  0  0  0  0  0  0  0  0  0
  152.6213  139.9122  154.9757 H   0  0  0  0  0  0  0  0  0  0  0  0
  152.2013  138.3075  155.4952 H   0  0  0  0  0  0  0  0  0  0  0  0
  147.1066  140.2862  153.5408 H   0  0  0  0  0  0  0  0  0  0  0  0
  147.7632  137.9663  153.9168 H   0  0  0  0  0  0  0  0  0  0  0  0
  150.1280  143.2328  158.1423 H   0  0  0  0  0  0  0  0  0  0  0  0
  153.0037  144.1561  157.6675 H   0  0  0  0  0  0  0  0  0  0  0  0
  151.5432  145.0722  157.3247 H   0  0  0  0  0  0  0  0  0  0  0  0
  151.8811  143.6153  156.4285 H   0  0  0  0  0  0  0  0  0  0  0  0
  1  2  1  0  0  0  0
  1 22  1  0  0  0  0
  1 23  1  0  0  0  0
  1 24  1  0  0  0  0
  2 19  1  0  0  0  0
  2  3  1  0  0  0  0
  2 25  1  0  0  0  0
  3  4  1  0  0  0  0
  3 26  1  0  0  0  0
  3 27  1  0  0  0  0
  4  5  1  0  0  0  0
  4 28  1  0  0  0  0
  4 29  1  0  0  0  0
  5  6  1  0  0  0  0
  5 30  1  0  0  0  0
  5 31  1  0  0  0  0
  6  7  1  0  0  0  0
  6 19  1  0  0  0  0
  6 32  1  0  0  0  0
  7  8  1  0  0  0  0
  7 33  1  0  0  0  0
  8  9  2  0  0  0  0
  8 10  1  0  0  0  0
 10 34  1  0  0  0  0
 10 35  1  0  0  0  0
 10 11  1  0  0  0  0
 11 12  1  0  0  0  0
 11 17  1  0  0  0  0
 12 13  2  0  0  0  0
 13 14  1  0  0  0  0
 13 15  1  0  0  0  0
 14 21  1  0  0  0  0
 15 36  1  0  0  0  0
 15 16  2  0  0  0  0
 16 37  1  0  0  0  0
 16 17  1  0  0  0  0
 17 18  2  0  0  0  0
 19 20  1  0  0  0  0
 19 38  1  0  0  0  0
 20 39  1  0  0  0  0
 20 40  1  0  0  0  0
 20 41  1  0  0  0  0
M  END
> <s_m_source_file>
AV-unprocessed.smi

> <i_m_source_file_index>
1464

> <i_lp_mmshare_version>
43012

> <i_f3d_flags>
0

> <s_epik_input>
W0NIM11bQ0BASF0xW0NIMl1bQ0gyXVtDSDJdW0NASF0oW0NASF0xW0NIM10pW05IXUMoPU8pW0NIMl1uMltuSF1jKD1PKVtjSF1bY0hdYzI9Tw==

> <s_epik_cmdline>
J2VwaWtfcHl0aG9uJywgJy1waCcsICc3LjAnLCAnLXRuJywgJzgnLCAnLW1hJywgJzIwMCcsICctbWV0YWxfYmluZGluZycsICctaW1hZScsICc8aW5maWxlLm1hZT4nLCAnLW9tYWUnLCAnPG91dGZpbGUubWFlPic=

> <r_lp_tautomer_probability>
0.9996

> <r_epik_Ionization_Penalty>
2.10335

> <r_epik_Ionization_Penalty_Charging>
3.98079e-08

> <r_epik_Ionization_Penalty_Neutral>
2.10335

> <r_epik_State_Penalty>
1.67957

> <r_epik_Charging_Adjusted_Penalty>
1.67957

> <i_epik_Tot_Q>
0

> <i_epik_Tot_abs_Q>
0

> <r_epik_Metal_State_Penalty>
1.67957

> <b_epik_Metal_Only>
0

> <s_lp_Force_Field>
OPLS_2005

> <r_lp_Energy>
25.7664

> <b_lp_Chiralities_Consistent>
1

> <s_lp_Variant>
AV-unprocessed.smi:1464-15

> <Gold.Version>
5.8.1

> <Gold.Id.Protein>
6NUR|6NUR_protein|mol2

> <Gold.PLP.Fitness>
46.1920

> <Gold.PLP.PLP>
-43.0354

> <Gold.PLP.part.hbond>
-3.0000

> <Gold.PLP.part.metal>
0.0000

> <Gold.PLP.part.buried>
-5.6400

> <Gold.PLP.part.nonpolar>
-35.3576

> <Gold.PLP.part.repulsive>
0.3596

> <Gold.PLP.ligand.clash>
0.0000

> <Gold.PLP.ligand.torsion>
0.1163

> <Gold.PLP.Chemscore.Hbond>
1.1249

> <Gold.PLP.Chemscore.CHOScore>
0.0000

> <Gold.PLP.Chemscore.Metal>
0.0000

> <Gold.Chemscore.Hbonds>
donor molecule, donor type, donor heavy atom, donor atom, acceptor molecule, acceptor atom, score
      L1  H    14    21       P1  8028  0.75
      P1  H  7989  7998       L1    12  0.23
      P1  H  8011  8017       L1    14  0.10

> <Gold.PLP.Chemscore.Internal.Correction>
0.0145

> <Gold.Rescore>
     Score         DG    S(hbond)    S(metal)    S(lipo)     H(rot)  DE(clash)    DE(int)     intcor
     12.31     -14.77       0.86        0.00     103.57       2.22       0.04       2.42       ----

> <Gold.Chemscore.Fitness>
12.3133

> <Gold.Chemscore.DG>
-14.7740

> <Gold.Chemscore.ZeroCoef>
-5.4800

> <Gold.Chemscore.Hbond>
0.8580

> <Gold.Chemscore.Metal>
0.0000

> <Gold.Chemscore.Lipo>
103.5690

> <Gold.Chemscore.Internal_Hbond>
0.0000

> <Gold.Chemscore.DEClash>
0.0402

> <Gold.Chemscore.DEInternal>
2.4205

> <Gold.Chemscore.Rot>
2.2224

> <Gold.Chemscore.Internal.Correction>
   9.000000E+99

> <Gold.Chemscore.Hbonds>
donor molecule, donor type, donor heavy atom, donor atom, acceptor molecule, acceptor atom, score
      L1  H    14    21       P1  8028  0.71
      P1  H  8011  8017       L1    14  0.01

> <Gold.Chemscore.Hbond.Weighted>
-2.8658

> <Gold.Chemscore.Metal.Weighted>
-0.0000

> <Gold.Chemscore.Lipo.Weighted>
-12.1176

> <Gold.Chemscore.Internal_Hbond.Weighted>
0.0000

> <Gold.Chemscore.DEClash.Weighted>
0.0402

> <Gold.Chemscore.DEInternal.Weighted>
2.4205

> <Gold.Chemscore.Rot.Weighted>
5.6893

> <Gold.Chemscore.Internal.Correction.Weighted>
   9.000000E+99

> <Gold.Protein.RotatedTorsions>
[ 6907 6896 6895 6894 ] final    3.63 input  -60.11 | X-H torsion
[ 7974 7965 7964 7962 ] final   60.51 input  175.53 | X-H torsion
[ 8008 7997 7996 7995 ] final  -36.75 input   59.86 | X-H torsion
[ 10167 10162 10161 10158 ] final   12.77 input  -65.29 | X-H torsion
[ 10718 10713 10712 10709 ] final -134.00 input   66.30 | X-H torsion
[ 10763 10752 10751 10750 ] final  176.53 input  -60.55 | X-H torsion
[ 11005 11000 10999 10996 ] final  -32.01 input  -57.11 | X-H torsion

> <Gold.Protein.ActiveResidues>
 VAL166  LYS551  ARG553  GLY616  TRP617  ASP618  TYR619  PRO620  LYS621  CYS622 
 ASP623  PHE694  ASN695  SER759  ASP760  ASP761  ALA762  ILE779  LEU786  VAL792 
 PHE793  MET794  SER795  GLU796  ALA797  LYS798  CYS799  TRP800  GLU811  SER814 

> <Gold.Protein.RotatedAtoms>
  151.6282  135.1025  160.0115 H   0  0  0  0  0  0  0  0  0  0  0  0  # atno 6907 bound_to 6896
  152.4121  133.6976  159.6415 H   0  0  0  0  0  0  0  0  0  0  0  0  # atno 6908 bound_to 6896
  150.8011  133.8523  159.3249 H   0  0  0  0  0  0  0  0  0  0  0  0  # atno 6909 bound_to 6896
  145.8952  139.3540  143.0626 H   0  0  0  0  0  0  0  0  0  0  0  0  # atno 7974 bound_to 7965
  154.4067  140.1622  156.2424 H   0  0  0  0  0  0  0  0  0  0  0  0  # atno 8008 bound_to 7997
  155.9189  140.3422  155.6135 H   0  0  0  0  0  0  0  0  0  0  0  0  # atno 8009 bound_to 7997
  155.7245  140.0772  157.2306 H   0  0  0  0  0  0  0  0  0  0  0  0  # atno 8010 bound_to 7997
  140.6046  143.8534  150.7000 H   0  0  0  0  0  0  0  0  0  0  0  0  # atno 10167 bound_to 10162
  156.2509  130.7152  151.1051 H   0  0  0  0  0  0  0  0  0  0  0  0  # atno 10718 bound_to 10713
  154.4823  135.2775  155.1561 H   0  0  0  0  0  0  0  0  0  0  0  0  # atno 10763 bound_to 10752
  154.3266  135.6199  153.5535 H   0  0  0  0  0  0  0  0  0  0  0  0  # atno 10764 bound_to 10752
  152.9877  135.5755  154.5227 H   0  0  0  0  0  0  0  0  0  0  0  0  # atno 10765 bound_to 10752
  140.9516  133.7217  156.1229 H   0  0  0  0  0  0  0  0  0  0  0  0  # atno 11005 bound_to 11000
  145.8860  140.9334  143.0577 LP  0  0  0  0  0  0  0  0  0  0  0  0  # atno 17320 bound_to 7965
  144.6732  140.0842  143.7468 LP  0  0  0  0  0  0  0  0  0  0  0  0  # atno 17321 bound_to 7965
  140.2088  143.3900  152.1734 LP  0  0  0  0  0  0  0  0  0  0  0  0  # atno 17342 bound_to 10162
  139.5316  144.7164  151.5038 LP  0  0  0  0  0  0  0  0  0  0  0  0  # atno 17343 bound_to 10162
  157.7214  131.0679  150.6120 LP  0  0  0  0  0  0  0  0  0  0  0  0  # atno 17370 bound_to 10713
  156.6200  130.4403  149.5826 LP  0  0  0  0  0  0  0  0  0  0  0  0  # atno 17371 bound_to 10713
  140.7594  134.3956  157.5528 LP  0  0  0  0  0  0  0  0  0  0  0  0  # atno 17394 bound_to 11000
  139.8849  134.8951  156.2674 LP  0  0  0  0  0  0  0  0  0  0  0  0  # atno 17395 bound_to 11000

$$$$
