AV-unprocessed.smi:398|AV-procd|sdf|2489|dock2
  -GOLD-   2262022433D 1   1.00000     0.00000
 Structure written by MMmdl.
 34 36  0  0  0  0  0  0  0  0  1 V2000
  155.2180  140.6325  161.7885 N   0  0  0  0  0  0  0  0  0  0  0  0
  154.4454  141.0121  161.0149 C   0  0  0  0  0  0  0  0  0  0  0  0
  153.5031  141.5072  160.0668 C   0  0  0  0  0  0  0  0  0  0  0  0
  153.3629  142.8271  159.8257 C   0  0  0  0  0  0  0  0  0  0  0  0
  152.4635  143.3210  158.9059 N   0  0  0  0  0  0  0  0  0  0  0  0
  152.2170  144.7297  158.7791 C   0  0  0  0  0  0  0  0  0  0  0  0
  151.7914  145.5390  159.9888 C   0  0  0  0  0  0  0  0  0  0  0  0
  150.7978  145.2431  158.8925 C   0  0  0  0  0  0  0  0  0  0  0  0
  151.5863  142.4451  158.2298 C   0  0  0  0  0  0  0  0  0  0  0  0
  150.7089  142.8763  157.4775 O   0  0  0  0  0  0  0  0  0  0  0  0
  151.7365  141.0548  158.4523 N   0  0  0  0  0  0  0  0  0  0  0  0
  150.8376  140.1196  157.7406 C   0  0  0  0  0  0  0  0  0  0  0  0
  150.7964  140.3432  156.2206 C   0  0  0  0  0  0  0  0  0  0  0  0
  151.8095  140.2102  155.5319 O   0  0  0  0  0  0  0  0  0  0  0  0
  149.6013  140.6802  155.7147 N   0  0  0  0  0  0  0  0  0  0  0  0
  149.3266  140.9377  154.3381 C   0  0  0  0  0  0  0  0  0  0  0  0
  148.0640  141.7032  154.0059 C   0  0  0  0  0  0  0  0  0  0  0  0
  148.1436  140.2306  153.7123 C   0  0  0  0  0  0  0  0  0  0  0  0
  152.6833  140.5226  159.3646 C   0  0  0  0  0  0  0  0  0  0  0  0
  152.7780  139.3071  159.5439 O   0  0  0  0  0  0  0  0  0  0  0  0
  153.9824  143.5259  160.3695 H   0  0  0  0  0  0  0  0  0  0  0  0
  152.8509  145.2485  158.0621 H   0  0  0  0  0  0  0  0  0  0  0  0
  151.6551  145.0186  160.9350 H   0  0  0  0  0  0  0  0  0  0  0  0
  152.1668  146.5572  160.0677 H   0  0  0  0  0  0  0  0  0  0  0  0
  150.5089  146.0659  158.2417 H   0  0  0  0  0  0  0  0  0  0  0  0
  150.0089  144.5275  159.1161 H   0  0  0  0  0  0  0  0  0  0  0  0
  151.1216  139.0825  157.9261 H   0  0  0  0  0  0  0  0  0  0  0  0
  149.8213  140.1884  158.1327 H   0  0  0  0  0  0  0  0  0  0  0  0
  148.8252  140.7637  156.3551 H   0  0  0  0  0  0  0  0  0  0  0  0
  150.1783  141.1142  153.6824 H   0  0  0  0  0  0  0  0  0  0  0  0
  147.4252  142.0162  154.8298 H   0  0  0  0  0  0  0  0  0  0  0  0
  148.0997  142.3868  153.1598 H   0  0  0  0  0  0  0  0  0  0  0  0
  148.2329  139.9309  152.6701 H   0  0  0  0  0  0  0  0  0  0  0  0
  147.5584  139.5615  154.3405 H   0  0  0  0  0  0  0  0  0  0  0  0
  1  2  3  0  0  0  0
  2  3  1  0  0  0  0
  3 19  1  0  0  0  0
  3  4  2  0  0  0  0
  4  5  1  0  0  0  0
  4 21  1  0  0  0  0
  5  6  1  0  0  0  0
  5  9  1  0  0  0  0
  6  8  1  0  0  0  0
  6  7  1  0  0  0  0
  6 22  1  0  0  0  0
  7  8  1  0  0  0  0
  7 23  1  0  0  0  0
  7 24  1  0  0  0  0
  8 25  1  0  0  0  0
  8 26  1  0  0  0  0
  9 10  2  0  0  0  0
  9 11  1  0  0  0  0
 11 12  1  0  0  0  0
 11 19  1  0  0  0  0
 12 13  1  0  0  0  0
 12 27  1  0  0  0  0
 12 28  1  0  0  0  0
 13 14  2  0  0  0  0
 13 15  1  0  0  0  0
 15 16  1  0  0  0  0
 15 29  1  0  0  0  0
 16 18  1  0  0  0  0
 16 17  1  0  0  0  0
 16 30  1  0  0  0  0
 17 18  1  0  0  0  0
 17 31  1  0  0  0  0
 17 32  1  0  0  0  0
 18 33  1  0  0  0  0
 18 34  1  0  0  0  0
 19 20  2  0  0  0  0
M  END
> <s_m_source_file>
AV-unprocessed.smi

> <i_m_source_file_index>
398

> <i_lp_mmshare_version>
43012

> <i_f3d_flags>
0

> <s_epik_input>
TiNDYzFbY0hdbihbQ0hdMltDSDJdW0NIMl0yKWMoPU8pbihjMT1PKVtDSDJdQyg9TylbTkhdW0NIXTNbQ0gyXVtDSDJdMw==

> <s_epik_cmdline>
J2VwaWtfcHl0aG9uJywgJy1waCcsICc3LjAnLCAnLXRuJywgJzgnLCAnLW1hJywgJzIwMCcsICctbWV0YWxfYmluZGluZycsICctaW1hZScsICc8aW5maWxlLm1hZT4nLCAnLW9tYWUnLCAnPG91dGZpbGUubWFlPic=

> <r_lp_tautomer_probability>
1

> <r_epik_Ionization_Penalty>
2.07526e-08

> <r_epik_Ionization_Penalty_Charging>
8.22213e-11

> <r_epik_Ionization_Penalty_Neutral>
2.06703e-08

> <r_epik_State_Penalty>
-0

> <r_epik_Charging_Adjusted_Penalty>
8.22213e-11

> <i_epik_Tot_Q>
0

> <i_epik_Tot_abs_Q>
0

> <r_epik_Metal_State_Penalty>
-0

> <b_epik_Metal_Only>
0

> <s_lp_Force_Field>
OPLS_2005

> <r_lp_Energy>
41.1586

> <b_lp_Chiralities_Consistent>
1

> <s_lp_Variant>
AV-unprocessed.smi:398-1

> <Gold.Version>
5.8.1

> <Gold.Id.Protein>
6NUR|6NUR_protein|mol2

> <Gold.PLP.Fitness>
51.0700

> <Gold.PLP.PLP>
-49.0630

> <Gold.PLP.part.hbond>
-2.0000

> <Gold.PLP.part.metal>
0.0000

> <Gold.PLP.part.buried>
-5.8842

> <Gold.PLP.part.nonpolar>
-42.2499

> <Gold.PLP.part.repulsive>
0.6849

> <Gold.PLP.ligand.clash>
0.0000

> <Gold.PLP.ligand.torsion>
0.4078

> <Gold.PLP.Chemscore.Hbond>
0.8480

> <Gold.PLP.Chemscore.CHOScore>
0.0000

> <Gold.PLP.Chemscore.Metal>
0.0000

> <Gold.Chemscore.Hbonds>
donor molecule, donor type, donor heavy atom, donor atom, acceptor molecule, acceptor atom, score
      P1  H  7989  7998       L1    14  0.62

> <Gold.PLP.Chemscore.Internal.Correction>
0.2785

> <Gold.Rescore>
     Score         DG    S(hbond)    S(metal)    S(lipo)     H(rot)  DE(clash)    DE(int)     intcor
     10.96     -14.25       0.96        0.00      88.47       1.87       0.31       2.98       ----

> <Gold.Chemscore.Fitness>
10.9589

> <Gold.Chemscore.DG>
-14.2489

> <Gold.Chemscore.ZeroCoef>
-5.4800

> <Gold.Chemscore.Hbond>
0.9563

> <Gold.Chemscore.Metal>
0.0000

> <Gold.Chemscore.Lipo>
88.4651

> <Gold.Chemscore.Internal_Hbond>
0.0000

> <Gold.Chemscore.DEClash>
0.3098

> <Gold.Chemscore.DEInternal>
2.9802

> <Gold.Chemscore.Rot>
1.8654

> <Gold.Chemscore.Internal.Correction>
   9.000000E+99

> <Gold.Chemscore.Hbonds>
donor molecule, donor type, donor heavy atom, donor atom, acceptor molecule, acceptor atom, score
      P1  H  7989  7998       L1    14  0.56

> <Gold.Chemscore.Hbond.Weighted>
-3.1939

> <Gold.Chemscore.Metal.Weighted>
-0.0000

> <Gold.Chemscore.Lipo.Weighted>
-10.3504

> <Gold.Chemscore.Internal_Hbond.Weighted>
0.0000

> <Gold.Chemscore.DEClash.Weighted>
0.3098

> <Gold.Chemscore.DEInternal.Weighted>
2.9802

> <Gold.Chemscore.Rot.Weighted>
4.7755

> <Gold.Chemscore.Internal.Correction.Weighted>
   9.000000E+99

> <Gold.Protein.RotatedTorsions>
[ 6907 6896 6895 6894 ] final   24.48 input  -60.11 | X-H torsion
[ 7974 7965 7964 7962 ] final  -45.47 input  175.53 | X-H torsion
[ 8008 7997 7996 7995 ] final  -68.70 input   59.86 | X-H torsion
[ 10167 10162 10161 10158 ] final  153.37 input  -65.29 | X-H torsion
[ 10718 10713 10712 10709 ] final   92.59 input   66.30 | X-H torsion
[ 10763 10752 10751 10750 ] final -162.55 input  -60.55 | X-H torsion
[ 11005 11000 10999 10996 ] final   45.52 input  -57.11 | X-H torsion

> <Gold.Protein.ActiveResidues>
 VAL166  LYS551  ARG553  GLY616  TRP617  ASP618  TYR619  PRO620  LYS621  CYS622 
 ASP623  PHE694  ASN695  SER759  ASP760  ASP761  ALA762  ILE779  LEU786  VAL792 
 PHE793  MET794  SER795  GLU796  ALA797  LYS798  CYS799  TRP800  GLU811  SER814 

> <Gold.Protein.RotatedAtoms>
  151.9581  135.0137  160.0545 H   0  0  0  0  0  0  0  0  0  0  0  0  # atno 6907 bound_to 6896
  152.1893  133.4757  159.5007 H   0  0  0  0  0  0  0  0  0  0  0  0  # atno 6908 bound_to 6896
  150.6932  134.1650  159.4233 H   0  0  0  0  0  0  0  0  0  0  0  0  # atno 6909 bound_to 6896
  145.9817  140.7276  142.9360 H   0  0  0  0  0  0  0  0  0  0  0  0  # atno 7974 bound_to 7965
  154.4886  140.0868  156.7543 H   0  0  0  0  0  0  0  0  0  0  0  0  # atno 8008 bound_to 7997
  155.4287  140.3449  155.4260 H   0  0  0  0  0  0  0  0  0  0  0  0  # atno 8009 bound_to 7997
  156.1297  140.1498  156.9071 H   0  0  0  0  0  0  0  0  0  0  0  0  # atno 8010 bound_to 7997
  139.4827  144.5279  151.7771 H   0  0  0  0  0  0  0  0  0  0  0  0  # atno 10167 bound_to 10162
  157.6958  131.0448  150.3904 H   0  0  0  0  0  0  0  0  0  0  0  0  # atno 10718 bound_to 10713
  154.7204  135.3024  154.9056 H   0  0  0  0  0  0  0  0  0  0  0  0  # atno 10763 bound_to 10752
  153.9930  135.6716  153.4759 H   0  0  0  0  0  0  0  0  0  0  0  0  # atno 10764 bound_to 10752
  153.0829  135.4999  154.8456 H   0  0  0  0  0  0  0  0  0  0  0  0  # atno 10765 bound_to 10752
  140.1452  134.4532  155.8421 H   0  0  0  0  0  0  0  0  0  0  0  0  # atno 11005 bound_to 11000
  144.6863  140.2920  143.7276 LP  0  0  0  0  0  0  0  0  0  0  0  0  # atno 17320 bound_to 7965
  145.7759  139.1874  143.2185 LP  0  0  0  0  0  0  0  0  0  0  0  0  # atno 17321 bound_to 7965
  140.4801  144.1462  150.5931 LP  0  0  0  0  0  0  0  0  0  0  0  0  # atno 17342 bound_to 10162
  140.4287  143.2578  151.9623 LP  0  0  0  0  0  0  0  0  0  0  0  0  # atno 17343 bound_to 10162
  156.4308  130.3971  149.6761 LP  0  0  0  0  0  0  0  0  0  0  0  0  # atno 17370 bound_to 10713
  156.3979  130.7660  151.2666 LP  0  0  0  0  0  0  0  0  0  0  0  0  # atno 17371 bound_to 10713
  141.2191  133.6849  156.7320 LP  0  0  0  0  0  0  0  0  0  0  0  0  # atno 17394 bound_to 11000
  140.2673  134.8420  157.3814 LP  0  0  0  0  0  0  0  0  0  0  0  0  # atno 17395 bound_to 11000

$$$$
