AV-unprocessed.smi:193|AV-procd|sdf|1513|dock10
  -GOLD-   2262019353D 1   1.00000     0.00000
 Structure written by MMmdl.
 61 65  0  0  0  0  0  0  0  0  1 V2000
  148.8905  141.2259  155.4029 C   0  0  0  0  0  0  0  0  0  0  0  0
  149.2506  141.4311  156.8815 C   0  0  1  0  0  0  0  0  0  0  0  0
  149.0551  140.1346  157.6977 C   0  0  0  0  0  0  0  0  0  0  0  0
  150.2353  139.2743  157.7728 N   0  0  0  0  0  0  0  0  0  0  0  0
  149.9186  137.9575  157.6789 C   0  0  0  0  0  0  0  0  0  0  0  0
  149.3436  137.3141  158.7310 N   0  0  0  0  0  0  0  0  0  0  0  0
  149.0005  136.0267  158.6284 C   0  0  0  0  0  0  0  0  0  0  0  0
  149.1361  135.2079  157.5840 N   0  0  0  0  0  0  0  0  0  0  0  0
  149.7146  135.8460  156.5266 C   0  0  0  0  0  0  0  0  0  0  0  0
  150.1289  137.2075  156.4887 C   0  0  0  0  0  0  0  0  0  0  0  0
  150.6686  137.5034  155.2435 N   0  0  0  0  0  0  0  0  0  0  0  0
  150.5767  136.3826  154.5818 C   0  0  0  0  0  0  0  0  0  0  0  0
  150.0236  135.3320  155.2791 N   0  0  0  0  0  0  0  0  0  0  0  0
  149.8066  133.9803  154.7862 C   0  0  0  0  0  0  0  0  0  0  0  0
  148.3514  133.6968  154.3357 C   0  0  0  0  0  0  0  0  0  0  0  0
  147.7953  134.9164  153.8767 O   0  0  0  0  0  0  0  0  0  0  0  0
  148.3382  132.6882  153.1693 C   0  0  0  0  0  0  0  0  0  0  0  0
  146.9110  132.2482  152.7977 C   0  0  0  0  0  0  0  0  0  0  0  0
  146.2491  131.7249  153.9428 O   0  0  0  0  0  0  0  0  0  0  0  0
  146.0884  132.6910  154.9743 C   0  0  0  0  0  0  0  0  0  0  0  0
  147.4644  133.1596  155.4804 C   0  0  0  0  0  0  0  0  0  0  0  0
  151.1920  139.6398  158.8192 C   0  0  0  0  0  0  0  0  0  0  0  0
  152.0187  140.8903  158.4872 C   0  0  0  0  0  0  0  0  0  0  0  0
  151.1990  142.0947  158.3443 N   0  0  0  0  0  0  0  0  0  0  0  0
  152.0782  143.2461  158.4823 C   0  0  2  0  0  0  0  0  0  0  0  0
  153.1376  143.1898  159.5597 C   0  0  0  0  0  0  0  0  0  0  0  0
  151.9334  144.0851  159.7340 C   0  0  1  0  0  0  0  0  0  0  0  0
  152.0754  145.5902  159.6733 C   0  0  0  0  0  0  0  0  0  0  0  0
  150.6240  142.1270  156.9984 C   0  0  0  0  0  0  0  0  0  0  0  0
  149.6022  140.5627  154.9119 H   0  0  0  0  0  0  0  0  0  0  0  0
  148.8978  142.1737  154.8638 H   0  0  0  0  0  0  0  0  0  0  0  0
  147.8959  140.7928  155.2915 H   0  0  0  0  0  0  0  0  0  0  0  0
  148.5125  142.1313  157.2750 H   0  0  0  0  0  0  0  0  0  0  0  0
  148.7853  140.4098  158.7182 H   0  0  0  0  0  0  0  0  0  0  0  0
  148.1875  139.5922  157.3184 H   0  0  0  0  0  0  0  0  0  0  0  0
  148.5496  135.5917  159.5080 H   0  0  0  0  0  0  0  0  0  0  0  0
  150.9186  136.2886  153.5614 H   0  0  0  0  0  0  0  0  0  0  0  0
  150.5024  133.7972  153.9659 H   0  0  0  0  0  0  0  0  0  0  0  0
  150.0894  133.2889  155.5810 H   0  0  0  0  0  0  0  0  0  0  0  0
  148.2526  135.1799  153.0931 H   0  0  0  0  0  0  0  0  0  0  0  0
  148.8411  133.1060  152.2962 H   0  0  0  0  0  0  0  0  0  0  0  0
  148.9065  131.8015  153.4528 H   0  0  0  0  0  0  0  0  0  0  0  0
  146.3387  133.0775  152.3791 H   0  0  0  0  0  0  0  0  0  0  0  0
  146.9485  131.4737  152.0315 H   0  0  0  0  0  0  0  0  0  0  0  0
  145.4950  133.5318  154.6119 H   0  0  0  0  0  0  0  0  0  0  0  0
  145.5261  132.2398  155.7918 H   0  0  0  0  0  0  0  0  0  0  0  0
  147.9652  132.3159  155.9569 H   0  0  0  0  0  0  0  0  0  0  0  0
  147.3285  133.9144  156.2558 H   0  0  0  0  0  0  0  0  0  0  0  0
  150.6660  139.7819  159.7644 H   0  0  0  0  0  0  0  0  0  0  0  0
  151.8936  138.8196  158.9782 H   0  0  0  0  0  0  0  0  0  0  0  0
  152.7086  141.0374  159.3194 H   0  0  0  0  0  0  0  0  0  0  0  0
  152.6455  140.7248  157.6096 H   0  0  0  0  0  0  0  0  0  0  0  0
  152.3612  143.7926  157.5839 H   0  0  0  0  0  0  0  0  0  0  0  0
  153.1899  142.2948  160.1769 H   0  0  0  0  0  0  0  0  0  0  0  0
  154.0945  143.6604  159.3430 H   0  0  0  0  0  0  0  0  0  0  0  0
  151.1926  143.7483  160.4571 H   0  0  0  0  0  0  0  0  0  0  0  0
  152.8345  145.8798  158.9462 H   0  0  0  0  0  0  0  0  0  0  0  0
  152.3632  145.9777  160.6506 H   0  0  0  0  0  0  0  0  0  0  0  0
  151.1269  146.0427  159.3846 H   0  0  0  0  0  0  0  0  0  0  0  0
  151.3279  141.7153  156.2734 H   0  0  0  0  0  0  0  0  0  0  0  0
  150.4751  143.1643  156.6930 H   0  0  0  0  0  0  0  0  0  0  0  0
  1  2  1  0  0  0  0
  1 30  1  0  0  0  0
  1 31  1  0  0  0  0
  1 32  1  0  0  0  0
  2 29  1  0  0  0  0
  2  3  1  0  0  0  0
  2 33  1  0  0  0  0
  3  4  1  0  0  0  0
  3 34  1  0  0  0  0
  3 35  1  0  0  0  0
  4  5  1  0  0  0  0
  4 22  1  0  0  0  0
  5 10  1  0  0  0  0
  5  6  2  0  0  0  0
  6  7  1  0  0  0  0
  7  8  2  0  0  0  0
  7 36  1  0  0  0  0
  8  9  1  0  0  0  0
  9 13  1  0  0  0  0
  9 10  2  0  0  0  0
 10 11  1  0  0  0  0
 11 12  2  0  0  0  0
 12 13  1  0  0  0  0
 12 37  1  0  0  0  0
 13 14  1  0  0  0  0
 14 15  1  0  0  0  0
 14 38  1  0  0  0  0
 14 39  1  0  0  0  0
 15 21  1  0  0  0  0
 15 16  1  0  0  0  0
 15 17  1  0  0  0  0
 16 40  1  0  0  0  0
 17 18  1  0  0  0  0
 17 41  1  0  0  0  0
 17 42  1  0  0  0  0
 18 19  1  0  0  0  0
 18 43  1  0  0  0  0
 18 44  1  0  0  0  0
 19 20  1  0  0  0  0
 20 21  1  0  0  0  0
 20 45  1  0  0  0  0
 20 46  1  0  0  0  0
 21 47  1  0  0  0  0
 21 48  1  0  0  0  0
 22 23  1  0  0  0  0
 22 49  1  0  0  0  0
 22 50  1  0  0  0  0
 23 24  1  0  0  0  0
 23 51  1  0  0  0  0
 23 52  1  0  0  0  0
 24 25  1  0  0  0  0
 24 29  1  0  0  0  0
 25 27  1  0  0  0  0
 25 26  1  0  0  0  0
 25 53  1  0  0  0  0
 26 27  1  0  0  0  0
 26 54  1  0  0  0  0
 26 55  1  0  0  0  0
 27 28  1  0  0  0  0
 27 56  1  0  0  0  0
 28 57  1  0  0  0  0
 28 58  1  0  0  0  0
 28 59  1  0  0  0  0
 29 60  1  0  0  0  0
 29 61  1  0  0  0  0
M  END
> <s_m_source_file>
AV-unprocessed.smi

> <i_m_source_file_index>
193

> <i_lp_mmshare_version>
43012

> <i_f3d_flags>
0

> <s_epik_input>
W0NIM11bQ0BASF0xW0NIMl1bQ0BIXTFOKFtDSDJdMilbQ0gyXVtDSDJdTihbQ0gyXVtDQEhdMltDSDNdKWMobltjSF1uMyljKGMzNCluW2NIXW40W0NIMl1DNShbT0hdKVtDSDJdW0NIMl1PW0NIMl1bQ0gyXTU=

> <s_epik_cmdline>
J2VwaWtfcHl0aG9uJywgJy1waCcsICc3LjAnLCAnLXRuJywgJzgnLCAnLW1hJywgJzIwMCcsICctbWV0YWxfYmluZGluZycsICctaW1hZScsICc8aW5maWxlLm1hZT4nLCAnLW9tYWUnLCAnPG91dGZpbGUubWFlPic=

> <r_lp_tautomer_probability>
1

> <r_epik_Ionization_Penalty>
1.45227

> <r_epik_Ionization_Penalty_Charging>
0

> <r_epik_Ionization_Penalty_Neutral>
1.45227

> <r_epik_State_Penalty>
2.02377

> <r_epik_Charging_Adjusted_Penalty>
2.02377

> <i_epik_Tot_Q>
0

> <i_epik_Tot_abs_Q>
0

> <r_epik_Metal_State_Penalty>
2.01937

> <b_epik_Metal_Only>
0

> <s_lp_Force_Field>
OPLS_2005

> <r_lp_Energy>
55.7491

> <b_lp_Chiralities_Consistent>
1

> <s_lp_Variant>
AV-unprocessed.smi:193-18

> <Gold.Version>
5.8.1

> <Gold.Id.Protein>
6NUR|6NUR_protein|mol2

> <Gold.PLP.Fitness>
46.3910

> <Gold.PLP.PLP>
-42.8493

> <Gold.PLP.part.hbond>
-1.0000

> <Gold.PLP.part.metal>
0.0000

> <Gold.PLP.part.buried>
-6.7849

> <Gold.PLP.part.nonpolar>
-36.9324

> <Gold.PLP.part.repulsive>
0.2638

> <Gold.PLP.ligand.clash>
0.0000

> <Gold.PLP.ligand.torsion>
1.9334

> <Gold.PLP.Chemscore.Hbond>
1.0000

> <Gold.PLP.Chemscore.CHOScore>
1.0000

> <Gold.PLP.Chemscore.Metal>
0.0000

> <Gold.Chemscore.Hbonds>
donor molecule, donor type, donor heavy atom, donor atom, acceptor molecule, acceptor atom, score
      L1  H    16    40       P1  7948  1.00
      L1  C    12    37       P1  7949  0.86

> <Gold.PLP.Chemscore.Internal.Correction>
1.4085

> <Gold.Rescore>
     Score         DG    S(hbond)    S(metal)    S(lipo)     H(rot)  DE(clash)    DE(int)     intcor
     13.62     -15.83       0.98        0.00     107.73       2.17       0.09       2.12       ----

> <Gold.Chemscore.Fitness>
13.6231

> <Gold.Chemscore.DG>
-15.8254

> <Gold.Chemscore.ZeroCoef>
-5.4800

> <Gold.Chemscore.Hbond>
0.9841

> <Gold.Chemscore.Metal>
0.0000

> <Gold.Chemscore.Lipo>
107.7307

> <Gold.Chemscore.Internal_Hbond>
0.0000

> <Gold.Chemscore.DEClash>
0.0870

> <Gold.Chemscore.DEInternal>
2.1153

> <Gold.Chemscore.Rot>
2.1664

> <Gold.Chemscore.Internal.Correction>
   9.000000E+99

> <Gold.Chemscore.Hbonds>
donor molecule, donor type, donor heavy atom, donor atom, acceptor molecule, acceptor atom, score
      L1  H    16    40       P1  7948  0.97

> <Gold.Chemscore.Hbond.Weighted>
-3.2869

> <Gold.Chemscore.Metal.Weighted>
-0.0000

> <Gold.Chemscore.Lipo.Weighted>
-12.6045

> <Gold.Chemscore.Internal_Hbond.Weighted>
0.0000

> <Gold.Chemscore.DEClash.Weighted>
0.0870

> <Gold.Chemscore.DEInternal.Weighted>
2.1153

> <Gold.Chemscore.Rot.Weighted>
5.5459

> <Gold.Chemscore.Internal.Correction.Weighted>
   9.000000E+99

> <Gold.Protein.RotatedTorsions>
[ 6907 6896 6895 6894 ] final  132.26 input  -60.11 | X-H torsion
[ 7974 7965 7964 7962 ] final -162.72 input  175.53 | X-H torsion
[ 8008 7997 7996 7995 ] final   77.17 input   59.86 | X-H torsion
[ 10167 10162 10161 10158 ] final -110.49 input  -65.29 | X-H torsion
[ 10718 10713 10712 10709 ] final -172.92 input   66.30 | X-H torsion
[ 10763 10752 10751 10750 ] final   35.99 input  -60.55 | X-H torsion
[ 11005 11000 10999 10996 ] final -160.91 input  -57.11 | X-H torsion

> <Gold.Protein.ActiveResidues>
 VAL166  LYS551  ARG553  GLY616  TRP617  ASP618  TYR619  PRO620  LYS621  CYS622 
 ASP623  PHE694  ASN695  SER759  ASP760  ASP761  ALA762  ILE779  LEU786  VAL792 
 PHE793  MET794  SER795  GLU796  ALA797  LYS798  CYS799  TRP800  GLU811  SER814 

> <Gold.Protein.RotatedAtoms>
  152.3342  133.5993  159.5830 H   0  0  0  0  0  0  0  0  0  0  0  0  # atno 6907 bound_to 6896
  150.7441  133.9821  159.3588 H   0  0  0  0  0  0  0  0  0  0  0  0  # atno 6908 bound_to 6896
  151.7692  135.0791  160.0408 H   0  0  0  0  0  0  0  0  0  0  0  0  # atno 6909 bound_to 6896
  144.7348  140.3212  143.6170 H   0  0  0  0  0  0  0  0  0  0  0  0  # atno 7974 bound_to 7965
  155.8378  140.3463  155.5612 H   0  0  0  0  0  0  0  0  0  0  0  0  # atno 8008 bound_to 7997
  155.8174  140.0908  157.1889 H   0  0  0  0  0  0  0  0  0  0  0  0  # atno 8009 bound_to 7997
  154.4004  140.1436  156.3446 H   0  0  0  0  0  0  0  0  0  0  0  0  # atno 8010 bound_to 7997
  140.1439  143.4256  152.1542 H   0  0  0  0  0  0  0  0  0  0  0  0  # atno 10167 bound_to 10162
  156.7627  130.9419  151.3118 H   0  0  0  0  0  0  0  0  0  0  0  0  # atno 10718 bound_to 10713
  153.0096  135.6318  154.1914 H   0  0  0  0  0  0  0  0  0  0  0  0  # atno 10763 bound_to 10752
  154.1656  135.2821  155.3097 H   0  0  0  0  0  0  0  0  0  0  0  0  # atno 10764 bound_to 10752
  154.5948  135.5606  153.7374 H   0  0  0  0  0  0  0  0  0  0  0  0  # atno 10765 bound_to 10752
  140.6263  134.4698  157.5227 H   0  0  0  0  0  0  0  0  0  0  0  0  # atno 11005 bound_to 11000
  145.7567  139.1811  143.2290 LP  0  0  0  0  0  0  0  0  0  0  0  0  # atno 17320 bound_to 7965
  146.1018  140.7534  142.9545 LP  0  0  0  0  0  0  0  0  0  0  0  0  # atno 17321 bound_to 7965
  139.5458  144.7297  151.4587 LP  0  0  0  0  0  0  0  0  0  0  0  0  # atno 17342 bound_to 10162
  140.6744  143.8223  150.7039 LP  0  0  0  0  0  0  0  0  0  0  0  0  # atno 17343 bound_to 10162
  157.6727  130.9066  150.0078 LP  0  0  0  0  0  0  0  0  0  0  0  0  # atno 17370 bound_to 10713
  156.1328  130.3643  149.9704 LP  0  0  0  0  0  0  0  0  0  0  0  0  # atno 17371 bound_to 10713
  139.9133  134.8298  156.1451 LP  0  0  0  0  0  0  0  0  0  0  0  0  # atno 17394 bound_to 11000
  141.0707  133.6798  156.2134 LP  0  0  0  0  0  0  0  0  0  0  0  0  # atno 17395 bound_to 11000

$$$$
