#       Name:                AV-unprocessed.smi:1572
#       Creating user name   scv26
#       Creation time:       Fri Mar 27 06:53:51 2020


#       File generated by GOLD software.
#

@<TRIPOS>MOLECULE
AV-unprocessed.smi:1572
    48    49     1
SMALL
NO_CHARGES


@<TRIPOS>ATOM
      1 ****        -2.7933  -3.8418   2.0396 C.3            1 S1                 0.0000
      2 ****        -1.9944  -2.9149   2.8340 N.3            1 S1                 0.0000
      3 ****        -0.5700  -2.9463   2.5077 C.3            1 S1                 0.0000
      4 ****        -0.2772  -2.3247   1.1273 C.3            1 S1                 0.0000
      5 ****        -0.7545  -0.9119   1.0632 N.4            1 S1                 1.0000
      6 ****        -0.3321  -0.1400  -0.1653 C.3            1 S1                 0.0000
      7 ****        -0.7019  -0.8999  -1.4624 C.3            1 S1                 0.0000
      8 ****        -1.0300   1.2459  -0.2137 C.3            1 S1                 0.0000
      9 ****         1.2101   0.0874  -0.1041 C.3            1 S1                 0.0000
     10 ****         1.7492   0.8571  -1.2257 N.am           1 S1                 0.0000
     11 ****         2.1576   2.1336  -1.1677 C.2            1 S1                 0.0000
     12 ****         2.1014   2.8168  -0.1451 O.2            1 S1                 0.0000
     13 ****         2.6210   2.5521  -2.3586 N.am           1 S1                 0.0000
     14 ****         3.1090   3.8389  -2.7090 C.2            1 S1                 0.0000
     15 ****         3.1285   4.8826  -1.8651 N.2            1 S1                 0.0000
     16 ****         3.6519   6.0227  -2.4607 N.2            1 S1                 0.0000
     17 ****         4.0042   5.7951  -3.7292 C.2            1 S1                 0.0000
     18 ****         3.7285   4.1658  -4.3212 S.3            1 S1                 0.0000
     19 ****        -2.2079  -0.8769   1.4009 C.3            1 S1                 0.0000
     20 ****        -2.4775  -1.5374   2.7700 C.3            1 S1                 0.0000
     21 ****        -2.4230  -4.8599   2.1633 H              1 S1                 0.0000
     22 ****        -2.7810  -3.6048   0.9764 H              1 S1                 0.0000
     23 ****        -3.8309  -3.8257   2.3748 H              1 S1                 0.0000
     24 ****        -0.0227  -2.4008   3.2777 H              1 S1                 0.0000
     25 ****        -0.2114  -3.9757   2.5448 H              1 S1                 0.0000
     26 ****         0.7963  -2.3869   0.9676 H              1 S1                 0.0000
     27 ****        -0.7388  -2.9231   0.3423 H              1 S1                 0.0000
     28 ****        -0.4910  -0.2989  -2.3477 H              1 S1                 0.0000
     29 ****        -1.7621  -1.1504  -1.4965 H              1 S1                 0.0000
     30 ****        -0.1366  -1.8251  -1.5729 H              1 S1                 0.0000
     31 ****        -0.6819   1.8540  -1.0479 H              1 S1                 0.0000
     32 ****        -0.8517   1.8157   0.6991 H              1 S1                 0.0000
     33 ****        -2.1067   1.1642  -0.3612 H              1 S1                 0.0000
     34 ****         1.4814   0.5491   0.8471 H              1 S1                 0.0000
     35 ****         1.7485  -0.8576  -0.1353 H              1 S1                 0.0000
     36 ****         1.8290   0.3752  -2.1094 H              1 S1                 0.0000
     37 ****         2.6222   1.8723  -3.1046 H              1 S1                 0.0000
     38 ****         4.4291   6.5928  -4.3204 H              1 S1                 0.0000
     39 ****        -2.5679   0.1458   1.4909 H              1 S1                 0.0000
     40 ****        -2.7951  -1.3508   0.6142 H              1 S1                 0.0000
     41 ****        -3.5434  -1.5138   2.9997 H              1 S1                 0.0000
     42 ****        -1.9823  -0.9620   3.5537 H              1 S1                 0.0000
     43 ****        -0.3015  -0.4377   1.8315 H              1 S1                 0.0000
     44 ****        -2.1057  -3.2451   3.7713 LP             1 S1                 0.0000
     45 ****         1.7368   2.4241   0.6992 LP             1 S1                 0.0000
     46 ****         2.4203   3.7645  -0.1588 LP             1 S1                 0.0000
     47 ****         2.8046   4.8438  -0.9199 LP             1 S1                 0.0000
     48 ****         3.7525   6.9036  -1.9982 LP             1 S1                 0.0000
@<TRIPOS>BOND
    1    1    2 1     
    2    1   21 1     
    3    1   22 1     
    4    1   23 1     
    5    2   20 1     
    6    2    3 1     
    7    3    4 1     
    8    3   24 1     
    9    3   25 1     
   10    4    5 1     
   11    4   26 1     
   12    4   27 1     
   13    5    6 1     
   14    5   19 1     
   15    5   43 1     
   16    6    7 1     
   17    6    8 1     
   18    6    9 1     
   19    7   28 1     
   20    7   29 1     
   21    7   30 1     
   22    8   31 1     
   23    8   32 1     
   24    8   33 1     
   25    9   10 1     
   26    9   34 1     
   27    9   35 1     
   28   10   11 am    
   29   10   36 1     
   30   11   12 2     
   31   11   13 am    
   32   13   14 1     
   33   13   37 1     
   34   14   18 1     
   35   14   15 2     
   36   15   16 1     
   37   16   17 2     
   38   17   18 1     
   39   17   38 1     
   40   19   20 1     
   41   19   39 1     
   42   19   40 1     
   43   20   41 1     
   44   20   42 1     
   45    2   44 1     
   46   12   45 1     
   47   12   46 1     
   48   15   47 1     
   49   16   48 1     
@<TRIPOS>SUBSTRUCTURE
      1 S1             1
@<TRIPOS>SET
LONE_PAIRS      STATIC     ATOMS    <user>   **** ""
5 44 45 46 47 48
DONOR_HYDROGENS      STATIC     ATOMS    <user>   **** ""
3 43 36 37
ATOM$BLUE        STATIC     ATOMS    COLORGROUP SYSTEM
5 44 45 46 47 48
ATOM$RED        STATIC     ATOMS    COLORGROUP SYSTEM
3 43 36 37
