AV-unprocessed.smi:1719|AV-procd|sdf|6930|dock3
  -GOLD-   22720 8143D 1   1.00000     0.00000
 Structure written by MMmdl.
 40 41  0  0  0  0  0  0  0  0  1 V2000
  152.6492  142.9732  159.3865 C   0  0  0  0  0  0  0  0  0  0  0  0
  151.4528  143.5571  158.9019 O   0  0  0  0  0  0  0  0  0  0  0  0
  151.2002  143.2303  157.5455 C   0  0  0  0  0  0  0  0  0  0  0  0
  151.1959  141.7072  157.3854 C   0  0  0  0  0  0  0  0  0  0  0  0
  151.0834  141.3879  156.0015 O   0  0  0  0  0  0  0  0  0  0  0  0
  150.8296  140.0790  155.6465 C   0  0  0  0  0  0  0  0  0  0  0  0
  150.9802  139.0743  156.6229 C   0  0  0  0  0  0  0  0  0  0  0  0
  150.7317  137.7348  156.2667 C   0  0  0  0  0  0  0  0  0  0  0  0
  150.3465  137.4410  154.9369 C   0  0  0  0  0  0  0  0  0  0  0  0
  150.0556  136.1354  154.4575 N   0  0  0  0  0  0  0  0  0  0  0  0
  150.2414  134.9542  155.0755 C   0  0  0  0  0  0  0  0  0  0  0  0
  150.7150  134.8247  156.2045 O   0  0  0  0  0  0  0  0  0  0  0  0
  149.8437  133.7098  154.2696 C   0  0  0  0  0  0  0  0  0  0  0  0
  148.3388  133.7050  153.9465 C   0  0  0  0  0  0  0  0  0  0  0  0
  147.9487  132.4071  153.2200 C   0  0  0  0  0  0  0  0  0  0  0  0
  148.3056  131.2787  154.0117 O   0  0  0  0  0  0  0  0  0  0  0  0
  149.7068  131.1851  154.2472 C   0  0  0  0  0  0  0  0  0  0  0  0
  150.1917  132.4169  155.0292 C   0  0  0  0  0  0  0  0  0  0  0  0
  150.2061  138.5207  154.0408 C   0  0  0  0  0  0  0  0  0  0  0  0
  150.4444  139.8064  154.3751 N   0  0  0  0  0  0  0  0  0  0  0  0
  152.7920  143.2448  160.4322 H   0  0  0  0  0  0  0  0  0  0  0  0
  153.5161  143.3269  158.8266 H   0  0  0  0  0  0  0  0  0  0  0  0
  152.6112  141.8848  159.3234 H   0  0  0  0  0  0  0  0  0  0  0  0
  150.2253  143.6265  157.2571 H   0  0  0  0  0  0  0  0  0  0  0  0
  151.9449  143.6821  156.8882 H   0  0  0  0  0  0  0  0  0  0  0  0
  152.1011  141.2790  157.8197 H   0  0  0  0  0  0  0  0  0  0  0  0
  150.3395  141.2961  157.9224 H   0  0  0  0  0  0  0  0  0  0  0  0
  151.2790  139.3269  157.6295 H   0  0  0  0  0  0  0  0  0  0  0  0
  150.8295  136.9674  157.0185 H   0  0  0  0  0  0  0  0  0  0  0  0
  149.7334  136.0873  153.5017 H   0  0  0  0  0  0  0  0  0  0  0  0
  150.3949  133.7115  153.3272 H   0  0  0  0  0  0  0  0  0  0  0  0
  147.7519  133.7909  154.8624 H   0  0  0  0  0  0  0  0  0  0  0  0
  148.0814  134.5662  153.3286 H   0  0  0  0  0  0  0  0  0  0  0  0
  146.8733  132.3863  153.0428 H   0  0  0  0  0  0  0  0  0  0  0  0
  148.4331  132.3470  152.2442 H   0  0  0  0  0  0  0  0  0  0  0  0
  149.9079  130.2772  154.8160 H   0  0  0  0  0  0  0  0  0  0  0  0
  150.2397  131.0912  153.2996 H   0  0  0  0  0  0  0  0  0  0  0  0
  151.2683  132.3507  155.1911 H   0  0  0  0  0  0  0  0  0  0  0  0
  149.7265  132.4179  156.0164 H   0  0  0  0  0  0  0  0  0  0  0  0
  149.9012  138.3486  153.0188 H   0  0  0  0  0  0  0  0  0  0  0  0
  1  2  1  0  0  0  0
  1 21  1  0  0  0  0
  1 22  1  0  0  0  0
  1 23  1  0  0  0  0
  2  3  1  0  0  0  0
  3  4  1  0  0  0  0
  3 24  1  0  0  0  0
  3 25  1  0  0  0  0
  4  5  1  0  0  0  0
  4 26  1  0  0  0  0
  4 27  1  0  0  0  0
  5  6  1  0  0  0  0
  6 20  1  0  0  0  0
  6  7  2  0  0  0  0
  7  8  1  0  0  0  0
  7 28  1  0  0  0  0
  8  9  2  0  0  0  0
  8 29  1  0  0  0  0
  9 10  1  0  0  0  0
  9 19  1  0  0  0  0
 10 11  1  0  0  0  0
 10 30  1  0  0  0  0
 11 12  2  0  0  0  0
 11 13  1  0  0  0  0
 13 18  1  0  0  0  0
 13 14  1  0  0  0  0
 13 31  1  0  0  0  0
 14 15  1  0  0  0  0
 14 32  1  0  0  0  0
 14 33  1  0  0  0  0
 15 16  1  0  0  0  0
 15 34  1  0  0  0  0
 15 35  1  0  0  0  0
 16 17  1  0  0  0  0
 17 18  1  0  0  0  0
 17 36  1  0  0  0  0
 17 37  1  0  0  0  0
 18 38  1  0  0  0  0
 18 39  1  0  0  0  0
 19 20  2  0  0  0  0
 19 40  1  0  0  0  0
M  END
> <s_m_source_file>
AV-unprocessed.smi

> <i_m_source_file_index>
1719

> <i_lp_mmshare_version>
43012

> <i_f3d_flags>
0

> <s_epik_input>
W0NIM11PW0NIMl1bQ0gyXU9jMVtjSF1bY0hdYyhbY0hdbjEpW05IXUMoPU8pW0NIXTJbQ0gyXVtDSDJdT1tDSDJdW0NIMl0y

> <s_epik_cmdline>
J2VwaWtfcHl0aG9uJywgJy1waCcsICc3LjAnLCAnLXRuJywgJzgnLCAnLW1hJywgJzIwMCcsICctbWV0YWxfYmluZGluZycsICctaW1hZScsICc8aW5maWxlLm1hZT4nLCAnLW9tYWUnLCAnPG91dGZpbGUubWFlPic=

> <r_lp_tautomer_probability>
1

> <r_epik_Ionization_Penalty>
2.13501e-05

> <r_epik_Ionization_Penalty_Charging>
0

> <r_epik_Ionization_Penalty_Neutral>
2.13501e-05

> <r_epik_State_Penalty>
-0

> <r_epik_Charging_Adjusted_Penalty>
0

> <i_epik_Tot_Q>
0

> <i_epik_Tot_abs_Q>
0

> <r_epik_Metal_State_Penalty>
-0

> <b_epik_Metal_Only>
0

> <s_lp_Force_Field>
OPLS_2005

> <r_lp_Energy>
15.3527

> <b_lp_Chiralities_Consistent>
1

> <s_lp_Variant>
AV-unprocessed.smi:1719-1

> <Gold.Version>
5.8.1

> <Gold.Id.Protein>
6NUR|6NUR_protein|mol2

> <Gold.PLP.Fitness>
45.1919

> <Gold.PLP.PLP>
-33.7661

> <Gold.PLP.part.hbond>
-2.7936

> <Gold.PLP.part.metal>
0.0000

> <Gold.PLP.part.buried>
-4.8350

> <Gold.PLP.part.nonpolar>
-27.9245

> <Gold.PLP.part.repulsive>
0.3480

> <Gold.PLP.ligand.clash>
0.0152

> <Gold.PLP.ligand.torsion>
0.2393

> <Gold.PLP.Chemscore.Hbond>
1.9500

> <Gold.PLP.Chemscore.CHOScore>
1.9833

> <Gold.PLP.Chemscore.Metal>
0.0000

> <Gold.Chemscore.Hbonds>
donor molecule, donor type, donor heavy atom, donor atom, acceptor molecule, acceptor atom, score
      L1  H    10    30       P1  7948  0.90
      P1  H  7989  7998       L1    20  0.95
      L1  C    19    40       P1  7948  0.97
      L1  C    19    40       P1  7957  0.98

> <Gold.PLP.Chemscore.Internal.Correction>
0.1196

> <Gold.Rescore>
     Score         DG    S(hbond)    S(metal)    S(lipo)     H(rot)  DE(clash)    DE(int)     intcor
     13.69     -15.21       1.84        0.00      69.73       1.79       0.07       1.45       ----

> <Gold.Chemscore.Fitness>
13.6933

> <Gold.Chemscore.DG>
-15.2077

> <Gold.Chemscore.ZeroCoef>
-5.4800

> <Gold.Chemscore.Hbond>
1.8415

> <Gold.Chemscore.Metal>
0.0000

> <Gold.Chemscore.Lipo>
69.7288

> <Gold.Chemscore.Internal_Hbond>
0.0000

> <Gold.Chemscore.DEClash>
0.0653

> <Gold.Chemscore.DEInternal>
1.4491

> <Gold.Chemscore.Rot>
1.7895

> <Gold.Chemscore.Internal.Correction>
   9.000000E+99

> <Gold.Chemscore.Hbonds>
donor molecule, donor type, donor heavy atom, donor atom, acceptor molecule, acceptor atom, score
      L1  H    10    30       P1  7948  0.18
      P1  H  7989  7998       L1    20  0.21

> <Gold.Chemscore.Hbond.Weighted>
-6.1505

> <Gold.Chemscore.Metal.Weighted>
-0.0000

> <Gold.Chemscore.Lipo.Weighted>
-8.1583

> <Gold.Chemscore.Internal_Hbond.Weighted>
0.0000

> <Gold.Chemscore.DEClash.Weighted>
0.0653

> <Gold.Chemscore.DEInternal.Weighted>
1.4491

> <Gold.Chemscore.Rot.Weighted>
4.5810

> <Gold.Chemscore.Internal.Correction.Weighted>
   9.000000E+99

> <Gold.Protein.RotatedTorsions>
[ 6907 6896 6895 6894 ] final  -41.60 input  -60.11 | X-H torsion
[ 7974 7965 7964 7962 ] final   16.49 input  175.53 | X-H torsion
[ 8008 7997 7996 7995 ] final   -4.05 input   59.86 | X-H torsion
[ 10167 10162 10161 10158 ] final -155.58 input  -65.29 | X-H torsion
[ 10718 10713 10712 10709 ] final   45.42 input   66.30 | X-H torsion
[ 10763 10752 10751 10750 ] final -152.00 input  -60.55 | X-H torsion
[ 11005 11000 10999 10996 ] final  129.47 input  -57.11 | X-H torsion

> <Gold.Protein.ActiveResidues>
 VAL166  LYS551  ARG553  GLY616  TRP617  ASP618  TYR619  PRO620  LYS621  CYS622 
 ASP623  PHE694  ASN695  SER759  ASP760  ASP761  ALA762  ILE779  LEU786  VAL792 
 PHE793  MET794  SER795  GLU796  ALA797  LYS798  CYS799  TRP800  GLU811  SER814 

> <Gold.Protein.RotatedAtoms>
  150.9648  134.9030  159.7752 H   0  0  0  0  0  0  0  0  0  0  0  0  # atno 6907 bound_to 6896
  152.5169  134.3622  159.9299 H   0  0  0  0  0  0  0  0  0  0  0  0  # atno 6908 bound_to 6896
  151.3633  133.3841  159.2726 H   0  0  0  0  0  0  0  0  0  0  0  0  # atno 6909 bound_to 6896
  146.2248  139.8740  142.8582 H   0  0  0  0  0  0  0  0  0  0  0  0  # atno 7974 bound_to 7965
  154.6184  140.2493  155.7581 H   0  0  0  0  0  0  0  0  0  0  0  0  # atno 8008 bound_to 7997
  156.2412  140.2932  156.0399 H   0  0  0  0  0  0  0  0  0  0  0  0  # atno 8009 bound_to 7997
  155.1938  140.0392  157.2895 H   0  0  0  0  0  0  0  0  0  0  0  0  # atno 8010 bound_to 7997
  139.6920  143.9405  152.2389 H   0  0  0  0  0  0  0  0  0  0  0  0  # atno 10167 bound_to 10162
  157.4373  130.8060  149.7660 H   0  0  0  0  0  0  0  0  0  0  0  0  # atno 10718 bound_to 10713
  154.8022  135.3246  154.7522 H   0  0  0  0  0  0  0  0  0  0  0  0  # atno 10763 bound_to 10752
  153.8187  135.6889  153.4834 H   0  0  0  0  0  0  0  0  0  0  0  0  # atno 10764 bound_to 10752
  153.1745  135.4610  154.9891 H   0  0  0  0  0  0  0  0  0  0  0  0  # atno 10765 bound_to 10752
  139.9617  134.9600  156.9153 H   0  0  0  0  0  0  0  0  0  0  0  0  # atno 11005 bound_to 11000
  145.2580  141.0067  143.3843 LP  0  0  0  0  0  0  0  0  0  0  0  0  # atno 17320 bound_to 7965
  144.9321  139.4286  143.6490 LP  0  0  0  0  0  0  0  0  0  0  0  0  # atno 17321 bound_to 7965
  139.9224  144.6791  150.8448 LP  0  0  0  0  0  0  0  0  0  0  0  0  # atno 17342 bound_to 10162
  140.7685  143.3366  151.2297 LP  0  0  0  0  0  0  0  0  0  0  0  0  # atno 17343 bound_to 10162
  155.9935  130.3924  150.2897 LP  0  0  0  0  0  0  0  0  0  0  0  0  # atno 17370 bound_to 10713
  157.1058  131.0208  151.3067 LP  0  0  0  0  0  0  0  0  0  0  0  0  # atno 17371 bound_to 10713
  140.5485  134.0650  155.7362 LP  0  0  0  0  0  0  0  0  0  0  0  0  # atno 17394 bound_to 11000
  141.1295  133.9326  157.2566 LP  0  0  0  0  0  0  0  0  0  0  0  0  # atno 17395 bound_to 11000

$$$$
