AV-unprocessed.smi:3255|AV-procd|sdf|12460|dock9
  -GOLD-   2272018353D 1   1.00000     0.00000
 Structure written by MMmdl.
 39 40  0  0  0  0  0  0  0  0  2 V2000
  147.8180  140.5725  154.0441 C   0  0  0  0  0  0  0  0  0  0  0  0
  148.3704  139.1763  154.3812 C   0  0  1  0  0  0  0  0  0  0  0  0
  147.7952  138.1867  153.4741 N   0  0  0  0  0  0  0  0  0  0  0  0
  146.5088  137.8130  153.4509 C   0  0  0  0  0  0  0  0  0  0  0  0
  145.6376  138.2831  154.1833 O   0  0  0  0  0  0  0  0  0  0  0  0
  146.2830  136.8609  152.5352 N   0  0  0  0  0  0  0  0  0  0  0  0
  144.9845  136.2525  152.2738 C   0  0  0  0  0  0  0  0  0  0  0  0
  144.7453  136.0563  150.7673 C   0  0  0  0  0  0  0  0  0  0  0  0
  145.1232  134.7122  150.3302 N   0  0  0  0  0  0  0  0  0  0  0  0
  144.3419  133.8098  149.6558 C   0  0  0  0  0  0  0  0  0  0  0  0
  145.1162  132.6959  149.4566 C   0  0  0  0  0  0  0  0  0  0  0  0
  146.3365  132.9665  150.0163 N   0  3  0  0  0  0  0  0  0  0  0  0
  146.3384  134.1937  150.5475 C   0  0  0  0  0  0  0  0  0  0  0  0
  149.9062  139.1172  154.2801 C   0  0  1  0  0  0  0  0  0  0  0  0
  150.6519  139.8907  155.3697 C   0  0  0  0  0  0  0  0  0  0  0  0
  151.9852  139.1665  155.4833 C   0  0  0  0  0  0  0  0  0  0  0  0
  151.7725  137.8653  154.7060 C   0  0  0  0  0  0  0  0  0  0  0  0
  150.3709  137.7924  154.4914 O   0  0  0  0  0  0  0  0  0  0  0  0
  148.2059  141.3286  154.7267 H   0  0  0  0  0  0  0  0  0  0  0  0
  146.7306  140.5966  154.1219 H   0  0  0  0  0  0  0  0  0  0  0  0
  148.0857  140.8707  153.0299 H   0  0  0  0  0  0  0  0  0  0  0  0
  148.0863  138.9265  155.4054 H   0  0  0  0  0  0  0  0  0  0  0  0
  148.4331  137.7373  152.8337 H   0  0  0  0  0  0  0  0  0  0  0  0
  147.0625  136.5367  151.9811 H   0  0  0  0  0  0  0  0  0  0  0  0
  144.9096  135.2995  152.8010 H   0  0  0  0  0  0  0  0  0  0  0  0
  144.2146  136.9008  152.6930 H   0  0  0  0  0  0  0  0  0  0  0  0
  143.6964  136.2184  150.5141 H   0  0  0  0  0  0  0  0  0  0  0  0
  145.3299  136.7681  150.1828 H   0  0  0  0  0  0  0  0  0  0  0  0
  143.3202  134.0228  149.3753 H   0  0  0  0  0  0  0  0  0  0  0  0
  144.8960  131.7566  148.9706 H   0  0  0  0  0  0  0  0  0  0  0  0
  147.1603  134.6714  151.0508 H   0  0  0  0  0  0  0  0  0  0  0  0
  150.2375  139.4523  153.2949 H   0  0  0  0  0  0  0  0  0  0  0  0
  150.7653  140.9485  155.1304 H   0  0  0  0  0  0  0  0  0  0  0  0
  150.1179  139.8170  156.3182 H   0  0  0  0  0  0  0  0  0  0  0  0
  152.7987  139.7480  155.0483 H   0  0  0  0  0  0  0  0  0  0  0  0
  152.2310  138.9737  156.5281 H   0  0  0  0  0  0  0  0  0  0  0  0
  152.2805  137.9074  153.7414 H   0  0  0  0  0  0  0  0  0  0  0  0
  152.1361  136.9896  155.2442 H   0  0  0  0  0  0  0  0  0  0  0  0
  147.1253  132.3322  150.0271 H   0  0  0  0  0  0  0  0  0  0  0  0
  1  2  1  0  0  0  0
  1 19  1  0  0  0  0
  1 20  1  0  0  0  0
  1 21  1  0  0  0  0
  2  3  1  0  0  0  0
  2 14  1  0  0  0  0
  2 22  1  0  0  0  0
  3  4  1  0  0  0  0
  3 23  1  0  0  0  0
  4  5  2  0  0  0  0
  4  6  1  0  0  0  0
  6  7  1  0  0  0  0
  6 24  1  0  0  0  0
  7  8  1  0  0  0  0
  7 25  1  0  0  0  0
  7 26  1  0  0  0  0
  8  9  1  0  0  0  0
  8 27  1  0  0  0  0
  8 28  1  0  0  0  0
  9 13  1  0  0  0  0
  9 10  1  0  0  0  0
 10 11  2  0  0  0  0
 10 29  1  0  0  0  0
 11 12  1  0  0  0  0
 11 30  1  0  0  0  0
 12 13  2  0  0  0  0
 12 39  1  0  0  0  0
 13 31  1  0  0  0  0
 14 18  1  0  0  0  0
 14 15  1  0  0  0  0
 14 32  1  0  0  0  0
 15 16  1  0  0  0  0
 15 33  1  0  0  0  0
 15 34  1  0  0  0  0
 16 17  1  0  0  0  0
 16 35  1  0  0  0  0
 16 36  1  0  0  0  0
 17 18  1  0  0  0  0
 17 37  1  0  0  0  0
 17 38  1  0  0  0  0
M  CHG  1  12   1
M  END
> <s_m_source_file>
AV-unprocessed.smi

> <i_m_source_file_index>
3255

> <i_lp_mmshare_version>
43012

> <i_f3d_flags>
0

> <s_epik_input>
TzFbQ0gyXVtDSDJdW0NIMl1bQ0BIXTFbQ0BIXShbQ0gzXSlbTkhdQyg9TylbTkhdW0NIMl1bQ0gyXW4yW2NIXVtjSF1uW2NIXTI=

> <s_epik_cmdline>
J2VwaWtfcHl0aG9uJywgJy1waCcsICc3LjAnLCAnLXRuJywgJzgnLCAnLW1hJywgJzIwMCcsICctbWV0YWxfYmluZGluZycsICctaW1hZScsICc8aW5maWxlLm1hZT4nLCAnLW9tYWUnLCAnPG91dGZpbGUubWFlPic=

> <r_lp_tautomer_probability>
1

> <r_epik_Ionization_Penalty>
0.256241

> <r_epik_Ionization_Penalty_Charging>
0

> <r_epik_Ionization_Penalty_Neutral>
0.256241

> <r_epik_State_Penalty>
0.247735

> <r_epik_Charging_Adjusted_Penalty>
0.247735

> <i_epik_Tot_Q>
1

> <i_epik_Tot_abs_Q>
1

> <r_epik_Metal_State_Penalty>
0.537184

> <b_epik_Metal_Only>
0

> <s_lp_Force_Field>
OPLS_2005

> <r_lp_Energy>
17.8763

> <b_lp_Chiralities_Consistent>
1

> <s_lp_Variant>
AV-unprocessed.smi:3255-4

> <Gold.Version>
5.8.1

> <Gold.Id.Protein>
6NUR|6NUR_protein|mol2

> <Gold.PLP.Fitness>
47.0979

> <Gold.PLP.PLP>
-33.6577

> <Gold.PLP.part.hbond>
-2.9196

> <Gold.PLP.part.metal>
0.0000

> <Gold.PLP.part.buried>
-2.6514

> <Gold.PLP.part.nonpolar>
-28.3528

> <Gold.PLP.part.repulsive>
0.4680

> <Gold.PLP.ligand.clash>
0.0000

> <Gold.PLP.ligand.torsion>
0.5530

> <Gold.PLP.Chemscore.Hbond>
2.9345

> <Gold.PLP.Chemscore.CHOScore>
1.8967

> <Gold.PLP.Chemscore.Metal>
0.0000

> <Gold.Chemscore.Hbonds>
donor molecule, donor type, donor heavy atom, donor atom, acceptor molecule, acceptor atom, score
      L1  H     3    23       P1  7948  1.00
      L1  H     6    24       P1  7948  0.98
      L1  H    12    39       P1 10747  0.16
      L1  C    10    29       P1 10186  1.00
      L1  C    13    31       P1  7948  1.00

> <Gold.PLP.Chemscore.Internal.Correction>
0.0526

> <Gold.Rescore>
     Score         DG    S(hbond)    S(metal)    S(lipo)     H(rot)  DE(clash)    DE(int)     intcor
     16.85     -17.45       2.93        0.00      68.08       2.26       0.03       0.57       ----

> <Gold.Chemscore.Fitness>
16.8493

> <Gold.Chemscore.DG>
-17.4475

> <Gold.Chemscore.ZeroCoef>
-5.4800

> <Gold.Chemscore.Hbond>
2.9335

> <Gold.Chemscore.Metal>
0.0000

> <Gold.Chemscore.Lipo>
68.0798

> <Gold.Chemscore.Internal_Hbond>
0.0000

> <Gold.Chemscore.DEClash>
0.0280

> <Gold.Chemscore.DEInternal>
0.5702

> <Gold.Chemscore.Rot>
2.2640

> <Gold.Chemscore.Internal.Correction>
   9.000000E+99

> <Gold.Chemscore.Hbonds>
donor molecule, donor type, donor heavy atom, donor atom, acceptor molecule, acceptor atom, score
      L1  H     3    23       P1  7948  0.95
      L1  H     6    24       P1  7948  0.93
      L1  H    12    39       P1 10747  0.18

> <Gold.Chemscore.Hbond.Weighted>
-9.7980

> <Gold.Chemscore.Metal.Weighted>
-0.0000

> <Gold.Chemscore.Lipo.Weighted>
-7.9653

> <Gold.Chemscore.Internal_Hbond.Weighted>
0.0000

> <Gold.Chemscore.DEClash.Weighted>
0.0280

> <Gold.Chemscore.DEInternal.Weighted>
0.5702

> <Gold.Chemscore.Rot.Weighted>
5.7958

> <Gold.Chemscore.Internal.Correction.Weighted>
   9.000000E+99

> <Gold.Protein.RotatedTorsions>
[ 6907 6896 6895 6894 ] final  -53.74 input  -60.11 | X-H torsion
[ 7974 7965 7964 7962 ] final  162.47 input  175.53 | X-H torsion
[ 8008 7997 7996 7995 ] final   40.90 input   59.86 | X-H torsion
[ 10167 10162 10161 10158 ] final    8.44 input  -65.29 | X-H torsion
[ 10718 10713 10712 10709 ] final   71.13 input   66.30 | X-H torsion
[ 10763 10752 10751 10750 ] final   11.48 input  -60.55 | X-H torsion
[ 11005 11000 10999 10996 ] final  161.62 input  -57.11 | X-H torsion

> <Gold.Protein.ActiveResidues>
 VAL166  LYS551  ARG553  GLY616  TRP617  ASP618  TYR619  PRO620  LYS621  CYS622 
 ASP623  PHE694  ASN695  SER759  ASP760  ASP761  ALA762  ILE779  LEU786  VAL792 
 PHE793  MET794  SER795  GLU796  ALA797  LYS798  CYS799  TRP800  GLU811  SER814 

> <Gold.Protein.RotatedAtoms>
  150.8400  134.7688  159.6924 H   0  0  0  0  0  0  0  0  0  0  0  0  # atno 6907 bound_to 6896
  152.4489  134.5432  159.9855 H   0  0  0  0  0  0  0  0  0  0  0  0  # atno 6908 bound_to 6896
  151.5574  133.3370  159.3000 H   0  0  0  0  0  0  0  0  0  0  0  0  # atno 6909 bound_to 6896
  144.7635  139.8045  143.6324 H   0  0  0  0  0  0  0  0  0  0  0  0  # atno 7974 bound_to 7965
  155.2608  140.3359  155.4273 H   0  0  0  0  0  0  0  0  0  0  0  0  # atno 8008 bound_to 7997
  156.2175  140.1795  156.7597 H   0  0  0  0  0  0  0  0  0  0  0  0  # atno 8009 bound_to 7997
  154.5776  140.0659  156.9041 H   0  0  0  0  0  0  0  0  0  0  0  0  # atno 8010 bound_to 7997
  140.6314  143.7985  150.7300 H   0  0  0  0  0  0  0  0  0  0  0  0  # atno 10167 bound_to 10162
  157.6436  130.9513  150.0747 H   0  0  0  0  0  0  0  0  0  0  0  0  # atno 10718 bound_to 10713
  153.1921  135.6844  153.8338 H   0  0  0  0  0  0  0  0  0  0  0  0  # atno 10763 bound_to 10752
  153.7634  135.3206  155.3342 H   0  0  0  0  0  0  0  0  0  0  0  0  # atno 10764 bound_to 10752
  154.8123  135.4709  154.0649 H   0  0  0  0  0  0  0  0  0  0  0  0  # atno 10765 bound_to 10752
  140.2176  134.8221  157.3186 H   0  0  0  0  0  0  0  0  0  0  0  0  # atno 11005 bound_to 11000
  146.1721  139.4876  142.9921 LP  0  0  0  0  0  0  0  0  0  0  0  0  # atno 17320 bound_to 7965
  145.6544  141.0255  143.1743 LP  0  0  0  0  0  0  0  0  0  0  0  0  # atno 17321 bound_to 7965
  140.1597  143.4286  152.2075 LP  0  0  0  0  0  0  0  0  0  0  0  0  # atno 17342 bound_to 10162
  139.5528  144.7350  151.4385 LP  0  0  0  0  0  0  0  0  0  0  0  0  # atno 17343 bound_to 10162
  156.1741  130.3647  149.9125 LP  0  0  0  0  0  0  0  0  0  0  0  0  # atno 17370 bound_to 10713
  156.7093  130.8964  151.3608 LP  0  0  0  0  0  0  0  0  0  0  0  0  # atno 17371 bound_to 10713
  140.1884  134.4402  155.7730 LP  0  0  0  0  0  0  0  0  0  0  0  0  # atno 17394 bound_to 11000
  141.2224  133.7016  156.7986 LP  0  0  0  0  0  0  0  0  0  0  0  0  # atno 17395 bound_to 11000

$$$$
