AV-unprocessed.smi:3195|AV-procd|sdf|12217|dock3
  -GOLD-   2272018 53D 1   1.00000     0.00000
 Structure written by MMmdl.
 29 30  0  0  0  0  0  0  0  0  2 V2000
  149.2305  140.7084  154.5307 C   0  0  0  0  0  0  0  0  0  0  0  0
  150.2701  140.0790  155.4730 C   0  0  1  0  0  0  0  0  0  0  0  0
  150.5220  141.0037  156.6903 C   0  0  0  0  0  0  0  0  0  0  0  0
  149.8396  142.0252  156.8123 O   0  0  0  0  0  0  0  0  0  0  0  0
  151.5505  140.5360  157.5077 N   0  0  0  0  0  0  0  0  0  0  0  0
  151.9687  141.1600  158.5751 C   0  0  0  0  0  0  0  0  0  0  0  0
  151.4204  142.3735  159.0255 N   0  0  0  0  0  0  0  0  0  0  0  0
  151.8633  143.0258  160.1565 C   0  0  0  0  0  0  0  0  0  0  0  0
  152.8550  142.5349  160.9014 C   0  0  0  0  0  0  0  0  0  0  0  0
  153.4756  141.2873  160.5061 C   0  0  0  0  0  0  0  0  0  0  0  0
  153.0683  140.5809  159.3681 C   0  0  0  0  0  0  0  0  0  0  0  0
  153.6338  139.5049  159.0646 O   0  5  0  0  0  0  0  0  0  0  0  0
  149.9168  138.6341  155.8624 C   0  0  0  0  0  0  0  0  0  0  0  0
  151.2627  138.0135  156.1983 C   0  0  0  0  0  0  0  0  0  0  0  0
  152.2551  138.8415  155.3765 C   0  0  0  0  0  0  0  0  0  0  0  0
  151.4849  139.8687  154.7536 O   0  0  0  0  0  0  0  0  0  0  0  0
  148.2612  140.8071  155.0206 H   0  0  0  0  0  0  0  0  0  0  0  0
  149.0893  140.0994  153.6375 H   0  0  0  0  0  0  0  0  0  0  0  0
  149.5403  141.7007  154.2004 H   0  0  0  0  0  0  0  0  0  0  0  0
  151.3472  143.9475  160.3799 H   0  0  0  0  0  0  0  0  0  0  0  0
  153.1900  143.0585  161.7847 H   0  0  0  0  0  0  0  0  0  0  0  0
  154.2780  140.8991  161.1168 H   0  0  0  0  0  0  0  0  0  0  0  0
  150.6654  142.8155  158.5223 H   0  0  0  0  0  0  0  0  0  0  0  0
  149.1991  138.5527  156.6795 H   0  0  0  0  0  0  0  0  0  0  0  0
  149.4864  138.1140  155.0055 H   0  0  0  0  0  0  0  0  0  0  0  0
  151.4768  138.1208  157.2624 H   0  0  0  0  0  0  0  0  0  0  0  0
  151.2984  136.9518  155.9535 H   0  0  0  0  0  0  0  0  0  0  0  0
  153.0181  139.2841  156.0182 H   0  0  0  0  0  0  0  0  0  0  0  0
  152.7575  138.2430  154.6164 H   0  0  0  0  0  0  0  0  0  0  0  0
  1  2  1  0  0  0  0
  1 17  1  0  0  0  0
  1 18  1  0  0  0  0
  1 19  1  0  0  0  0
  2 16  1  0  0  0  0
  2  3  1  0  0  0  0
  2 13  1  0  0  0  0
  3  4  2  0  0  0  0
  3  5  1  0  0  0  0
  5  6  2  0  0  0  0
  6 11  1  0  0  0  0
  6  7  1  0  0  0  0
  7 23  1  0  0  0  0
  7  8  1  0  0  0  0
  8 20  1  0  0  0  0
  8  9  2  0  0  0  0
  9 21  1  0  0  0  0
  9 10  1  0  0  0  0
 10 11  2  0  0  0  0
 10 22  1  0  0  0  0
 11 12  1  0  0  0  0
 13 14  1  0  0  0  0
 13 24  1  0  0  0  0
 13 25  1  0  0  0  0
 14 15  1  0  0  0  0
 14 26  1  0  0  0  0
 14 27  1  0  0  0  0
 15 16  1  0  0  0  0
 15 28  1  0  0  0  0
 15 29  1  0  0  0  0
M  CHG  1  12  -1
M  END
> <s_m_source_file>
AV-unprocessed.smi

> <i_m_source_file_index>
3195

> <i_lp_mmshare_version>
43012

> <i_f3d_flags>
0

> <s_epik_input>
TzFbQ0gyXVtDSDJdW0NIMl1bQ0BAXTEoW0NIM10pQyg9TylbTkhdYzJuW2NIXVtjSF1bY0hdYzJbT0hd

> <s_epik_cmdline>
J2VwaWtfcHl0aG9uJywgJy1waCcsICc3LjAnLCAnLXRuJywgJzgnLCAnLW1hJywgJzIwMCcsICctbWV0YWxfYmluZGluZycsICctaW1hZScsICc8aW5maWxlLm1hZT4nLCAnLW9tYWUnLCAnPG91dGZpbGUubWFlPic=

> <r_epik_Ionization_Penalty>
0.780444

> <r_epik_Ionization_Penalty_Charging>
0.780444

> <r_epik_Ionization_Penalty_Neutral>
6.55423e-13

> <r_epik_State_Penalty>
1.40445

> <r_epik_Charging_Adjusted_Penalty>
2.18489

> <i_epik_Tot_Q>
-1

> <i_epik_Tot_abs_Q>
1

> <r_epik_Metal_State_Penalty>
1.36467

> <b_epik_Metal_Only>
0

> <s_lp_Force_Field>
OPLS_2005

> <r_lp_Energy>
50.4099

> <b_lp_Chiralities_Consistent>
1

> <s_lp_Variant>
AV-unprocessed.smi:3195-5

> <Gold.Version>
5.8.1

> <Gold.Id.Protein>
6NUR|6NUR_protein|mol2

> <Gold.PLP.Fitness>
39.0395

> <Gold.PLP.PLP>
-30.0903

> <Gold.PLP.part.hbond>
-1.8343

> <Gold.PLP.part.metal>
0.0000

> <Gold.PLP.part.buried>
-4.9101

> <Gold.PLP.part.nonpolar>
-24.4610

> <Gold.PLP.part.repulsive>
0.2646

> <Gold.PLP.ligand.clash>
0.0000

> <Gold.PLP.ligand.torsion>
0.0662

> <Gold.PLP.Chemscore.Hbond>
3.0000

> <Gold.PLP.Chemscore.CHOScore>
0.0000

> <Gold.PLP.Chemscore.Metal>
0.0000

> <Gold.Chemscore.Hbonds>
donor molecule, donor type, donor heavy atom, donor atom, acceptor molecule, acceptor atom, score
      P1  H  7989  7998       L1    16  1.00
      P1  H  7997  8008       L1    12  0.88

> <Gold.PLP.Chemscore.Internal.Correction>
0.0816

> <Gold.Rescore>
     Score         DG    S(hbond)    S(metal)    S(lipo)     H(rot)  DE(clash)    DE(int)     intcor
     14.83     -17.58       1.94        0.00      70.03       1.00       0.03       2.73       ----

> <Gold.Chemscore.Fitness>
14.8267

> <Gold.Chemscore.DG>
-17.5830

> <Gold.Chemscore.ZeroCoef>
-5.4800

> <Gold.Chemscore.Hbond>
1.9370

> <Gold.Chemscore.Metal>
0.0000

> <Gold.Chemscore.Lipo>
70.0293

> <Gold.Chemscore.Internal_Hbond>
0.0000

> <Gold.Chemscore.DEClash>
0.0256

> <Gold.Chemscore.DEInternal>
2.7306

> <Gold.Chemscore.Rot>
1.0000

> <Gold.Chemscore.Internal.Correction>
   9.000000E+99

> <Gold.Chemscore.Hbonds>
donor molecule, donor type, donor heavy atom, donor atom, acceptor molecule, acceptor atom, score
      P1  H  7989  7998       L1    16  0.84
      P1  H  7997  8008       L1    12  0.19

> <Gold.Chemscore.Hbond.Weighted>
-6.4695

> <Gold.Chemscore.Metal.Weighted>
-0.0000

> <Gold.Chemscore.Lipo.Weighted>
-8.1934

> <Gold.Chemscore.Internal_Hbond.Weighted>
0.0000

> <Gold.Chemscore.DEClash.Weighted>
0.0256

> <Gold.Chemscore.DEInternal.Weighted>
2.7306

> <Gold.Chemscore.Rot.Weighted>
2.5600

> <Gold.Chemscore.Internal.Correction.Weighted>
   9.000000E+99

> <Gold.Protein.RotatedTorsions>
[ 6907 6896 6895 6894 ] final -115.13 input  -60.11 | X-H torsion
[ 7974 7965 7964 7962 ] final  134.58 input  175.53 | X-H torsion
[ 8008 7997 7996 7995 ] final -104.46 input   59.86 | X-H torsion
[ 10167 10162 10161 10158 ] final   52.01 input  -65.29 | X-H torsion
[ 10718 10713 10712 10709 ] final   54.88 input   66.30 | X-H torsion
[ 10763 10752 10751 10750 ] final  -38.43 input  -60.55 | X-H torsion
[ 11005 11000 10999 10996 ] final  -66.04 input  -57.11 | X-H torsion

> <Gold.Protein.ActiveResidues>
 VAL166  LYS551  ARG553  GLY616  TRP617  ASP618  TYR619  PRO620  LYS621  CYS622 
 ASP623  PHE694  ASN695  SER759  ASP760  ASP761  ALA762  ILE779  LEU786  VAL792 
 PHE793  MET794  SER795  GLU796  ALA797  LYS798  CYS799  TRP800  GLU811  SER814 

> <Gold.Protein.RotatedAtoms>
  150.7954  133.8702  159.3256 H   0  0  0  0  0  0  0  0  0  0  0  0  # atno 6907 bound_to 6896
  151.6529  135.0997  160.0173 H   0  0  0  0  0  0  0  0  0  0  0  0  # atno 6908 bound_to 6896
  152.4035  133.6814  159.6372 H   0  0  0  0  0  0  0  0  0  0  0  0  # atno 6909 bound_to 6896
  144.9749  139.4566  143.5415 H   0  0  0  0  0  0  0  0  0  0  0  0  # atno 7974 bound_to 7965
  154.8856  140.0417  157.1808 H   0  0  0  0  0  0  0  0  0  0  0  0  # atno 8008 bound_to 7997
  154.8594  140.2941  155.5528 H   0  0  0  0  0  0  0  0  0  0  0  0  # atno 8009 bound_to 7997
  156.2998  140.2450  156.3565 H   0  0  0  0  0  0  0  0  0  0  0  0  # atno 8010 bound_to 7997
  140.2559  144.3427  150.6333 H   0  0  0  0  0  0  0  0  0  0  0  0  # atno 10167 bound_to 10162
  157.5296  130.8621  149.8669 H   0  0  0  0  0  0  0  0  0  0  0  0  # atno 10718 bound_to 10713
  153.9127  135.6790  153.4750 H   0  0  0  0  0  0  0  0  0  0  0  0  # atno 10763 bound_to 10752
  153.1070  135.4801  154.8966 H   0  0  0  0  0  0  0  0  0  0  0  0  # atno 10764 bound_to 10752
  154.7519  135.3187  154.8498 H   0  0  0  0  0  0  0  0  0  0  0  0  # atno 10765 bound_to 10752
  141.1471  133.6692  156.6078 H   0  0  0  0  0  0  0  0  0  0  0  0  # atno 11005 bound_to 11000
  146.3392  139.8985  142.8798 LP  0  0  0  0  0  0  0  0  0  0  0  0  # atno 17320 bound_to 7965
  145.2505  141.0042  143.3884 LP  0  0  0  0  0  0  0  0  0  0  0  0  # atno 17321 bound_to 7965
  140.6004  143.2167  151.7083 LP  0  0  0  0  0  0  0  0  0  0  0  0  # atno 17342 bound_to 10162
  139.5031  144.3802  152.0384 LP  0  0  0  0  0  0  0  0  0  0  0  0  # atno 17343 bound_to 10162
  156.0412  130.3738  150.1430 LP  0  0  0  0  0  0  0  0  0  0  0  0  # atno 17370 bound_to 10713
  156.9616  130.9806  151.3478 LP  0  0  0  0  0  0  0  0  0  0  0  0  # atno 17371 bound_to 10713
  140.3638  134.7665  157.4552 LP  0  0  0  0  0  0  0  0  0  0  0  0  # atno 17394 bound_to 11000
  140.0764  134.5791  155.8586 LP  0  0  0  0  0  0  0  0  0  0  0  0  # atno 17395 bound_to 11000

$$$$
