AV-unprocessed.smi:685|AV-procd|sdf|3333|dock7
  -GOLD-   22720 0303D 1   1.00000     0.00000
 Structure written by MMmdl.
 50 51  0  0  0  0  0  0  0  0  1 V2000
  153.6057  139.5929  159.6287 C   0  0  0  0  0  0  0  0  0  0  0  0
  152.7836  140.7827  159.2215 C   0  0  0  0  0  0  0  0  0  0  0  0
  153.2313  141.9980  159.4888 N   0  0  0  0  0  0  0  0  0  0  0  0
  152.2898  142.8274  158.9963 N   0  0  0  0  0  0  0  0  0  0  0  0
  152.4697  144.2608  159.1220 C   0  0  0  0  0  0  0  0  0  0  0  0
  151.2438  142.1349  158.4176 C   0  0  0  0  0  0  0  0  0  0  0  0
  150.0794  142.8343  157.7930 C   0  0  0  0  0  0  0  0  0  0  0  0
  151.5295  140.8011  158.5427 C   0  0  0  0  0  0  0  0  0  0  0  0
  150.7298  139.6111  158.0759 C   0  0  0  0  0  0  0  0  0  0  0  0
  151.5575  138.6534  157.1915 C   0  0  2  0  0  0  0  0  0  0  0  0
  151.9897  139.2944  155.8626 C   0  0  0  0  0  0  0  0  0  0  0  0
  150.7959  137.4408  156.9053 N   0  0  0  0  0  0  0  0  0  0  0  0
  151.3122  136.2813  156.4680 C   0  0  0  0  0  0  0  0  0  0  0  0
  152.5138  136.1126  156.2585 O   0  0  0  0  0  0  0  0  0  0  0  0
  150.3177  135.1424  156.2276 C   0  0  0  0  0  0  0  0  0  0  0  0
  151.0055  133.8453  155.7630 C   0  0  0  0  0  0  0  0  0  0  0  0
  150.0443  132.6459  155.6789 C   0  0  0  0  0  0  0  0  0  0  0  0
  150.7340  131.2837  155.5598 C   0  0  0  0  0  0  0  0  0  0  0  0
  149.6548  130.3450  155.0119 C   0  0  0  0  0  0  0  0  0  0  0  0
  148.6622  131.2344  154.2480 C   0  0  0  0  0  0  0  0  0  0  0  0
  149.1351  132.6797  154.4472 C   0  0  0  0  0  0  0  0  0  0  0  0
  152.9747  138.7312  159.8460 H   0  0  0  0  0  0  0  0  0  0  0  0
  154.1961  139.8009  160.5215 H   0  0  0  0  0  0  0  0  0  0  0  0
  154.2939  139.3061  158.8335 H   0  0  0  0  0  0  0  0  0  0  0  0
  152.3286  144.7360  158.1509 H   0  0  0  0  0  0  0  0  0  0  0  0
  153.4725  144.4937  159.4832 H   0  0  0  0  0  0  0  0  0  0  0  0
  151.7381  144.6602  159.8247 H   0  0  0  0  0  0  0  0  0  0  0  0
  149.2975  142.1319  157.5066 H   0  0  0  0  0  0  0  0  0  0  0  0
  150.3895  143.3703  156.8959 H   0  0  0  0  0  0  0  0  0  0  0  0
  149.6414  143.5546  158.4841 H   0  0  0  0  0  0  0  0  0  0  0  0
  150.3489  139.0665  158.9403 H   0  0  0  0  0  0  0  0  0  0  0  0
  149.8409  139.9267  157.5297 H   0  0  0  0  0  0  0  0  0  0  0  0
  152.4627  138.3695  157.7316 H   0  0  0  0  0  0  0  0  0  0  0  0
  152.6265  140.1640  156.0262 H   0  0  0  0  0  0  0  0  0  0  0  0
  151.1270  139.6188  155.2797 H   0  0  0  0  0  0  0  0  0  0  0  0
  152.5572  138.5897  155.2540 H   0  0  0  0  0  0  0  0  0  0  0  0
  149.7973  137.4883  157.0475 H   0  0  0  0  0  0  0  0  0  0  0  0
  149.7528  134.9569  157.1423 H   0  0  0  0  0  0  0  0  0  0  0  0
  149.5970  135.4706  155.4779 H   0  0  0  0  0  0  0  0  0  0  0  0
  151.4479  134.0038  154.7783 H   0  0  0  0  0  0  0  0  0  0  0  0
  151.8334  133.6062  156.4322 H   0  0  0  0  0  0  0  0  0  0  0  0
  149.4092  132.6348  156.5665 H   0  0  0  0  0  0  0  0  0  0  0  0
  151.5588  131.3445  154.8483 H   0  0  0  0  0  0  0  0  0  0  0  0
  151.1413  130.9334  156.5088 H   0  0  0  0  0  0  0  0  0  0  0  0
  150.0818  129.5663  154.3792 H   0  0  0  0  0  0  0  0  0  0  0  0
  149.1411  129.8497  155.8370 H   0  0  0  0  0  0  0  0  0  0  0  0
  148.6223  130.9786  153.1887 H   0  0  0  0  0  0  0  0  0  0  0  0
  147.6580  131.1024  154.6525 H   0  0  0  0  0  0  0  0  0  0  0  0
  148.3037  133.3758  154.5624 H   0  0  0  0  0  0  0  0  0  0  0  0
  149.7068  132.9944  153.5728 H   0  0  0  0  0  0  0  0  0  0  0  0
  1  2  1  0  0  0  0
  1 22  1  0  0  0  0
  1 23  1  0  0  0  0
  1 24  1  0  0  0  0
  2  8  1  0  0  0  0
  2  3  2  0  0  0  0
  3  4  1  0  0  0  0
  4  5  1  0  0  0  0
  4  6  1  0  0  0  0
  5 25  1  0  0  0  0
  5 26  1  0  0  0  0
  5 27  1  0  0  0  0
  6  7  1  0  0  0  0
  6  8  2  0  0  0  0
  7 28  1  0  0  0  0
  7 29  1  0  0  0  0
  7 30  1  0  0  0  0
  8  9  1  0  0  0  0
  9 10  1  0  0  0  0
  9 31  1  0  0  0  0
  9 32  1  0  0  0  0
 10 11  1  0  0  0  0
 10 12  1  0  0  0  0
 10 33  1  0  0  0  0
 11 34  1  0  0  0  0
 11 35  1  0  0  0  0
 11 36  1  0  0  0  0
 12 13  1  0  0  0  0
 12 37  1  0  0  0  0
 13 14  2  0  0  0  0
 13 15  1  0  0  0  0
 15 16  1  0  0  0  0
 15 38  1  0  0  0  0
 15 39  1  0  0  0  0
 16 17  1  0  0  0  0
 16 40  1  0  0  0  0
 16 41  1  0  0  0  0
 17 21  1  0  0  0  0
 17 18  1  0  0  0  0
 17 42  1  0  0  0  0
 18 19  1  0  0  0  0
 18 43  1  0  0  0  0
 18 44  1  0  0  0  0
 19 20  1  0  0  0  0
 19 45  1  0  0  0  0
 19 46  1  0  0  0  0
 20 21  1  0  0  0  0
 20 47  1  0  0  0  0
 20 48  1  0  0  0  0
 21 49  1  0  0  0  0
 21 50  1  0  0  0  0
M  END
> <s_m_source_file>
AV-unprocessed.smi

> <i_m_source_file_index>
685

> <i_lp_mmshare_version>
43012

> <i_f3d_flags>
0

> <s_epik_input>
W0NIM11jMW5uKFtDSDNdKWMoW0NIM10pYzFbQ0gyXVtDQEhdKFtDSDNdKVtOSF1DKD1PKVtDSDJdW0NIMl1bQ0hdMltDSDJdW0NIMl1bQ0gyXVtDSDJdMg==

> <s_epik_cmdline>
J2VwaWtfcHl0aG9uJywgJy1waCcsICc3LjAnLCAnLXRuJywgJzgnLCAnLW1hJywgJzIwMCcsICctbWV0YWxfYmluZGluZycsICctaW1hZScsICc8aW5maWxlLm1hZT4nLCAnLW9tYWUnLCAnPG91dGZpbGUubWFlPic=

> <r_lp_tautomer_probability>
1

> <r_epik_Ionization_Penalty>
0.0131144

> <r_epik_Ionization_Penalty_Charging>
0

> <r_epik_Ionization_Penalty_Neutral>
0.0131144

> <r_epik_State_Penalty>
0.0101889

> <r_epik_Charging_Adjusted_Penalty>
0.0101889

> <i_epik_Tot_Q>
0

> <i_epik_Tot_abs_Q>
0

> <r_epik_Metal_State_Penalty>
0.00996794

> <b_epik_Metal_Only>
0

> <s_lp_Force_Field>
OPLS_2005

> <r_lp_Energy>
16.135

> <b_lp_Chiralities_Consistent>
1

> <s_lp_Variant>
AV-unprocessed.smi:685-1

> <Gold.Version>
5.8.1

> <Gold.Id.Protein>
6NUR|6NUR_protein|mol2

> <Gold.PLP.Fitness>
40.3014

> <Gold.PLP.PLP>
-38.0465

> <Gold.PLP.part.hbond>
-1.0000

> <Gold.PLP.part.metal>
0.0000

> <Gold.PLP.part.buried>
-5.3272

> <Gold.PLP.part.nonpolar>
-32.6179

> <Gold.PLP.part.repulsive>
0.0374

> <Gold.PLP.ligand.clash>
0.0000

> <Gold.PLP.ligand.torsion>
0.3887

> <Gold.PLP.Chemscore.Hbond>
1.0000

> <Gold.PLP.Chemscore.CHOScore>
0.0000

> <Gold.PLP.Chemscore.Metal>
0.0000

> <Gold.Chemscore.Hbonds>
donor molecule, donor type, donor heavy atom, donor atom, acceptor molecule, acceptor atom, score
      P1  H 10752 10765       L1    14  0.69

> <Gold.PLP.Chemscore.Internal.Correction>
0.0322

> <Gold.Rescore>
     Score         DG    S(hbond)    S(metal)    S(lipo)     H(rot)  DE(clash)    DE(int)     intcor
     16.26     -16.55       0.98        0.00     100.18       1.53       0.04       0.25       ----

> <Gold.Chemscore.Fitness>
16.2587

> <Gold.Chemscore.DG>
-16.5541

> <Gold.Chemscore.ZeroCoef>
-5.4800

> <Gold.Chemscore.Hbond>
0.9766

> <Gold.Chemscore.Metal>
0.0000

> <Gold.Chemscore.Lipo>
100.1791

> <Gold.Chemscore.Internal_Hbond>
0.0000

> <Gold.Chemscore.DEClash>
0.0424

> <Gold.Chemscore.DEInternal>
0.2530

> <Gold.Chemscore.Rot>
1.5268

> <Gold.Chemscore.Internal.Correction>
   9.000000E+99

> <Gold.Chemscore.Hbonds>
donor molecule, donor type, donor heavy atom, donor atom, acceptor molecule, acceptor atom, score
      P1  H 10752 10765       L1    14  0.66

> <Gold.Chemscore.Hbond.Weighted>
-3.2617

> <Gold.Chemscore.Metal.Weighted>
-0.0000

> <Gold.Chemscore.Lipo.Weighted>
-11.7209

> <Gold.Chemscore.Internal_Hbond.Weighted>
0.0000

> <Gold.Chemscore.DEClash.Weighted>
0.0424

> <Gold.Chemscore.DEInternal.Weighted>
0.2530

> <Gold.Chemscore.Rot.Weighted>
3.9086

> <Gold.Chemscore.Internal.Correction.Weighted>
   9.000000E+99

> <Gold.Protein.RotatedTorsions>
[ 6907 6896 6895 6894 ] final   46.74 input  -60.11 | X-H torsion
[ 7974 7965 7964 7962 ] final  -69.59 input  175.53 | X-H torsion
[ 8008 7997 7996 7995 ] final  -34.48 input   59.86 | X-H torsion
[ 10167 10162 10161 10158 ] final  152.48 input  -65.29 | X-H torsion
[ 10718 10713 10712 10709 ] final   87.43 input   66.30 | X-H torsion
[ 10763 10752 10751 10750 ] final -171.84 input  -60.55 | X-H torsion
[ 11005 11000 10999 10996 ] final   44.65 input  -57.11 | X-H torsion

> <Gold.Protein.ActiveResidues>
 VAL166  LYS551  ARG553  GLY616  TRP617  ASP618  TYR619  PRO620  LYS621  CYS622 
 ASP623  PHE694  ASN695  SER759  ASP760  ASP761  ALA762  ILE779  LEU786  VAL792 
 PHE793  MET794  SER795  GLU796  ALA797  LYS798  CYS799  TRP800  GLU811  SER814 

> <Gold.Protein.RotatedAtoms>
  152.2599  134.8044  160.0432 H   0  0  0  0  0  0  0  0  0  0  0  0  # atno 6907 bound_to 6896
  151.8694  133.3467  159.3738 H   0  0  0  0  0  0  0  0  0  0  0  0  # atno 6908 bound_to 6896
  150.7113  134.5054  159.5626 H   0  0  0  0  0  0  0  0  0  0  0  0  # atno 6909 bound_to 6896
  145.7018  140.9113  143.0727 H   0  0  0  0  0  0  0  0  0  0  0  0  # atno 7974 bound_to 7965
  154.4120  140.1683  156.2057 H   0  0  0  0  0  0  0  0  0  0  0  0  # atno 8008 bound_to 7997
  155.9487  140.3402  155.6365 H   0  0  0  0  0  0  0  0  0  0  0  0  # atno 8009 bound_to 7997
  155.6898  140.0732  157.2443 H   0  0  0  0  0  0  0  0  0  0  0  0  # atno 8010 bound_to 7997
  139.4833  144.5354  151.7653 H   0  0  0  0  0  0  0  0  0  0  0  0  # atno 10167 bound_to 10162
  157.6940  131.0255  150.3122 H   0  0  0  0  0  0  0  0  0  0  0  0  # atno 10718 bound_to 10713
  154.6260  135.2881  155.0272 H   0  0  0  0  0  0  0  0  0  0  0  0  # atno 10763 bound_to 10752
  154.1449  135.6512  153.4954 H   0  0  0  0  0  0  0  0  0  0  0  0  # atno 10764 bound_to 10752
  153.0257  135.5342  154.7068 H   0  0  0  0  0  0  0  0  0  0  0  0  # atno 10765 bound_to 10752
  140.1532  134.4435  155.8367 H   0  0  0  0  0  0  0  0  0  0  0  0  # atno 11005 bound_to 11000
  144.6966  139.8958  143.7456 LP  0  0  0  0  0  0  0  0  0  0  0  0  # atno 17320 bound_to 7965
  146.0791  139.3779  143.0476 LP  0  0  0  0  0  0  0  0  0  0  0  0  # atno 17321 bound_to 7965
  140.4886  144.1343  150.5946 LP  0  0  0  0  0  0  0  0  0  0  0  0  # atno 17342 bound_to 10162
  140.4196  143.2618  151.9731 LP  0  0  0  0  0  0  0  0  0  0  0  0  # atno 17343 bound_to 10162
  156.3622  130.3849  149.7242 LP  0  0  0  0  0  0  0  0  0  0  0  0  # atno 17370 bound_to 10713
  156.4685  130.7985  151.3004 LP  0  0  0  0  0  0  0  0  0  0  0  0  # atno 17371 bound_to 10713
  141.2201  133.6881  156.7459 LP  0  0  0  0  0  0  0  0  0  0  0  0  # atno 17394 bound_to 11000
  140.2579  134.8489  157.3731 LP  0  0  0  0  0  0  0  0  0  0  0  0  # atno 17395 bound_to 11000

$$$$
