AV-unprocessed.smi:2525|AV-procd|sdf|9931|dock5
  -GOLD-   2272013573D 1   1.00000     0.00000
 Structure written by MMmdl.
 44 45  0  0  0  0  0  0  0  0  1 V2000
  152.3877  138.6016  154.5448 C   0  0  0  0  0  0  0  0  0  0  0  0
  151.7293  138.6468  155.9341 C   0  0  0  0  0  0  0  0  0  0  0  0
  150.1894  138.8034  155.9749 C   0  0  0  0  0  0  0  0  0  0  0  0
  149.5945  137.6639  155.0981 C   0  0  0  0  0  0  0  0  0  0  0  0
  149.9746  136.2254  155.4974 C   0  0  0  0  0  0  0  0  0  0  0  0
  149.5330  138.9836  157.3762 C   0  0  2  0  0  0  0  0  0  0  0  0
  148.9005  137.7772  157.8993 N   0  0  0  0  0  0  0  0  0  0  0  0
  149.2353  137.1749  159.0495 C   0  0  0  0  0  0  0  0  0  0  0  0
  150.1077  137.5962  159.8085 O   0  0  0  0  0  0  0  0  0  0  0  0
  148.4715  135.8964  159.3957 C   0  0  0  0  0  0  0  0  0  0  0  0
  147.8774  135.9843  160.7177 N   0  0  0  0  0  0  0  0  0  0  0  0
  147.3296  134.9756  161.4843 C   0  0  0  0  0  0  0  0  0  0  0  0
  146.9392  135.6193  162.6238 C   0  0  0  0  0  0  0  0  0  0  0  0
  147.2599  136.9707  162.5059 N   0  0  0  0  0  0  0  0  0  0  0  0
  147.8223  137.1780  161.3568 N   0  0  0  0  0  0  0  0  0  0  0  0
  148.5359  139.9802  156.7720 C   0  0  1  0  0  0  0  0  0  0  0  0
  148.0299  141.1271  157.6385 C   0  0  0  0  0  0  0  0  0  0  0  0
  149.6336  140.2351  155.7255 C   0  0  2  0  0  0  0  0  0  0  0  0
  149.1525  140.4371  154.4060 O   0  0  0  0  0  0  0  0  0  0  0  0
  148.3391  141.5889  154.2706 C   0  0  0  0  0  0  0  0  0  0  0  0
  153.4525  138.3878  154.6387 H   0  0  0  0  0  0  0  0  0  0  0  0
  152.3029  139.5576  154.0280 H   0  0  0  0  0  0  0  0  0  0  0  0
  151.9581  137.8281  153.9096 H   0  0  0  0  0  0  0  0  0  0  0  0
  152.0093  137.7279  156.4499 H   0  0  0  0  0  0  0  0  0  0  0  0
  152.2040  139.4550  156.4923 H   0  0  0  0  0  0  0  0  0  0  0  0
  148.5057  137.7282  155.0970 H   0  0  0  0  0  0  0  0  0  0  0  0
  149.8850  137.7991  154.0564 H   0  0  0  0  0  0  0  0  0  0  0  0
  149.5891  135.5164  154.7646 H   0  0  0  0  0  0  0  0  0  0  0  0
  149.5505  135.9460  156.4615 H   0  0  0  0  0  0  0  0  0  0  0  0
  151.0520  136.0785  155.5511 H   0  0  0  0  0  0  0  0  0  0  0  0
  150.1734  139.4845  158.1032 H   0  0  0  0  0  0  0  0  0  0  0  0
  148.1703  137.3632  157.3383 H   0  0  0  0  0  0  0  0  0  0  0  0
  147.6868  135.7160  158.6593 H   0  0  0  0  0  0  0  0  0  0  0  0
  149.1446  135.0384  159.3649 H   0  0  0  0  0  0  0  0  0  0  0  0
  147.2708  133.9440  161.1697 H   0  0  0  0  0  0  0  0  0  0  0  0
  146.4607  135.2279  163.5094 H   0  0  0  0  0  0  0  0  0  0  0  0
  147.7006  139.4510  156.3099 H   0  0  0  0  0  0  0  0  0  0  0  0
  148.8548  141.7033  158.0582 H   0  0  0  0  0  0  0  0  0  0  0  0
  147.4329  140.7553  158.4711 H   0  0  0  0  0  0  0  0  0  0  0  0
  147.4025  141.8127  157.0706 H   0  0  0  0  0  0  0  0  0  0  0  0
  150.3337  141.0130  156.0365 H   0  0  0  0  0  0  0  0  0  0  0  0
  148.0441  141.7042  153.2278 H   0  0  0  0  0  0  0  0  0  0  0  0
  148.8759  142.4903  154.5690 H   0  0  0  0  0  0  0  0  0  0  0  0
  147.4298  141.5072  154.8652 H   0  0  0  0  0  0  0  0  0  0  0  0
  1  2  1  0  0  0  0
  1 21  1  0  0  0  0
  1 22  1  0  0  0  0
  1 23  1  0  0  0  0
  2  3  1  0  0  0  0
  2 24  1  0  0  0  0
  2 25  1  0  0  0  0
  3 18  1  0  0  0  0
  3  4  1  0  0  0  0
  3  6  1  0  0  0  0
  4  5  1  0  0  0  0
  4 26  1  0  0  0  0
  4 27  1  0  0  0  0
  5 28  1  0  0  0  0
  5 29  1  0  0  0  0
  5 30  1  0  0  0  0
  6  7  1  0  0  0  0
  6 16  1  0  0  0  0
  6 31  1  0  0  0  0
  7  8  1  0  0  0  0
  7 32  1  0  0  0  0
  8  9  2  0  0  0  0
  8 10  1  0  0  0  0
 10 11  1  0  0  0  0
 10 33  1  0  0  0  0
 10 34  1  0  0  0  0
 11 15  1  0  0  0  0
 11 12  1  0  0  0  0
 12 13  2  0  0  0  0
 12 35  1  0  0  0  0
 13 14  1  0  0  0  0
 13 36  1  0  0  0  0
 14 15  2  0  0  0  0
 16 17  1  0  0  0  0
 16 18  1  0  0  0  0
 16 37  1  0  0  0  0
 17 38  1  0  0  0  0
 17 39  1  0  0  0  0
 17 40  1  0  0  0  0
 18 19  1  0  0  0  0
 18 41  1  0  0  0  0
 19 20  1  0  0  0  0
 20 42  1  0  0  0  0
 20 43  1  0  0  0  0
 20 44  1  0  0  0  0
M  END
> <s_m_source_file>
AV-unprocessed.smi

> <i_m_source_file_index>
2525

> <i_lp_mmshare_version>
43012

> <i_f3d_flags>
0

> <s_epik_input>
W0NIM11PW0NAQEhdMVtDQEhdKFtDSDNdKVtDQEBIXShDMShbQ0gyXVtDSDNdKVtDSDJdW0NIM10pW05IXUMoPU8pW0NIMl1uMltjSF1bY0hdbm4y

> <s_epik_cmdline>
J2VwaWtfcHl0aG9uJywgJy1waCcsICc3LjAnLCAnLXRuJywgJzgnLCAnLW1hJywgJzIwMCcsICctbWV0YWxfYmluZGluZycsICctaW1hZScsICc8aW5maWxlLm1hZT4nLCAnLW9tYWUnLCAnPG91dGZpbGUubWFlPic=

> <r_lp_tautomer_probability>
1

> <r_epik_Ionization_Penalty>
1.18045e-06

> <r_epik_Ionization_Penalty_Charging>
0

> <r_epik_Ionization_Penalty_Neutral>
1.18045e-06

> <r_epik_State_Penalty>
-0

> <r_epik_Charging_Adjusted_Penalty>
0

> <i_epik_Tot_Q>
0

> <i_epik_Tot_abs_Q>
0

> <r_epik_Metal_State_Penalty>
-0

> <b_epik_Metal_Only>
0

> <s_lp_Force_Field>
OPLS_2005

> <r_lp_Energy>
27.6116

> <b_lp_Chiralities_Consistent>
1

> <s_lp_Variant>
AV-unprocessed.smi:2525-6

> <Gold.Version>
5.8.1

> <Gold.Id.Protein>
6NUR|6NUR_protein|mol2

> <Gold.PLP.Fitness>
35.4706

> <Gold.PLP.PLP>
-31.1397

> <Gold.PLP.part.hbond>
-3.7820

> <Gold.PLP.part.metal>
0.0000

> <Gold.PLP.part.buried>
-5.9229

> <Gold.PLP.part.nonpolar>
-22.4825

> <Gold.PLP.part.repulsive>
0.2006

> <Gold.PLP.ligand.clash>
0.0000

> <Gold.PLP.ligand.torsion>
0.5416

> <Gold.PLP.Chemscore.Hbond>
1.6020

> <Gold.PLP.Chemscore.CHOScore>
0.0000

> <Gold.PLP.Chemscore.Metal>
0.0000

> <Gold.Chemscore.Hbonds>
donor molecule, donor type, donor heavy atom, donor atom, acceptor molecule, acceptor atom, score
      P1  H  6931  6943       L1    15  0.85
      P1  H  6934  6947       L1    15  0.75

> <Gold.PLP.Chemscore.Internal.Correction>
0.6082

> <Gold.Rescore>
     Score         DG    S(hbond)    S(metal)    S(lipo)     H(rot)  DE(clash)    DE(int)     intcor
      9.76     -12.22       1.36        0.00      62.23       1.98       0.46       2.01       ----

> <Gold.Chemscore.Fitness>
9.7575

> <Gold.Chemscore.DG>
-12.2231

> <Gold.Chemscore.ZeroCoef>
-5.4800

> <Gold.Chemscore.Hbond>
1.3580

> <Gold.Chemscore.Metal>
0.0000

> <Gold.Chemscore.Lipo>
62.2268

> <Gold.Chemscore.Internal_Hbond>
0.0000

> <Gold.Chemscore.DEClash>
0.4566

> <Gold.Chemscore.DEInternal>
2.0090

> <Gold.Chemscore.Rot>
1.9817

> <Gold.Chemscore.Internal.Correction>
   9.000000E+99

> <Gold.Chemscore.Hbonds>
donor molecule, donor type, donor heavy atom, donor atom, acceptor molecule, acceptor atom, score
      P1  H  6931  6943       L1    15  0.14
      P1  H  6934  6947       L1    15  0.22

> <Gold.Chemscore.Hbond.Weighted>
-4.5357

> <Gold.Chemscore.Metal.Weighted>
-0.0000

> <Gold.Chemscore.Lipo.Weighted>
-7.2805

> <Gold.Chemscore.Internal_Hbond.Weighted>
0.0000

> <Gold.Chemscore.DEClash.Weighted>
0.4566

> <Gold.Chemscore.DEInternal.Weighted>
2.0090

> <Gold.Chemscore.Rot.Weighted>
5.0731

> <Gold.Chemscore.Internal.Correction.Weighted>
   9.000000E+99

> <Gold.Protein.RotatedTorsions>
[ 6907 6896 6895 6894 ] final  -12.36 input  -60.11 | X-H torsion
[ 7974 7965 7964 7962 ] final  113.54 input  175.53 | X-H torsion
[ 8008 7997 7996 7995 ] final  124.06 input   59.86 | X-H torsion
[ 10167 10162 10161 10158 ] final  174.47 input  -65.29 | X-H torsion
[ 10718 10713 10712 10709 ] final -155.13 input   66.30 | X-H torsion
[ 10763 10752 10751 10750 ] final   -0.15 input  -60.55 | X-H torsion
[ 11005 11000 10999 10996 ] final   73.40 input  -57.11 | X-H torsion

> <Gold.Protein.ActiveResidues>
 VAL166  LYS551  ARG553  GLY616  TRP617  ASP618  TYR619  PRO620  LYS621  CYS622 
 ASP623  PHE694  ASN695  SER759  ASP760  ASP761  ALA762  ILE779  LEU786  VAL792 
 PHE793  MET794  SER795  GLU796  ALA797  LYS798  CYS799  TRP800  GLU811  SER814 

> <Gold.Protein.RotatedAtoms>
  151.3717  135.0923  159.9467 H   0  0  0  0  0  0  0  0  0  0  0  0  # atno 6907 bound_to 6896
  152.5134  133.9158  159.7521 H   0  0  0  0  0  0  0  0  0  0  0  0  # atno 6908 bound_to 6896
  150.9573  133.6428  159.2790 H   0  0  0  0  0  0  0  0  0  0  0  0  # atno 6909 bound_to 6896
  145.2156  139.2886  143.4245 H   0  0  0  0  0  0  0  0  0  0  0  0  # atno 7974 bound_to 7965
  156.2788  140.2748  156.1727 H   0  0  0  0  0  0  0  0  0  0  0  0  # atno 8008 bound_to 7997
  155.0638  140.0387  157.2603 H   0  0  0  0  0  0  0  0  0  0  0  0  # atno 8009 bound_to 7997
  154.7095  140.2666  155.6648 H   0  0  0  0  0  0  0  0  0  0  0  0  # atno 8010 bound_to 7997
  139.5143  144.3142  152.0263 H   0  0  0  0  0  0  0  0  0  0  0  0  # atno 10167 bound_to 10162
  156.5087  130.8425  151.2638 H   0  0  0  0  0  0  0  0  0  0  0  0  # atno 10718 bound_to 10713
  153.3282  135.6973  153.6970 H   0  0  0  0  0  0  0  0  0  0  0  0  # atno 10763 bound_to 10752
  153.5783  135.3503  155.2866 H   0  0  0  0  0  0  0  0  0  0  0  0  # atno 10764 bound_to 10752
  154.8612  135.4289  154.2464 H   0  0  0  0  0  0  0  0  0  0  0  0  # atno 10765 bound_to 10752
  139.9442  134.7343  156.1021 H   0  0  0  0  0  0  0  0  0  0  0  0  # atno 11005 bound_to 11000
  146.3388  140.2446  142.8596 LP  0  0  0  0  0  0  0  0  0  0  0  0  # atno 17320 bound_to 7965
  144.9814  140.8463  143.5395 LP  0  0  0  0  0  0  0  0  0  0  0  0  # atno 17321 bound_to 7965
  140.2586  144.4092  150.6194 LP  0  0  0  0  0  0  0  0  0  0  0  0  # atno 17342 bound_to 10162
  140.6173  143.2173  151.6765 LP  0  0  0  0  0  0  0  0  0  0  0  0  # atno 17343 bound_to 10162
  157.7453  130.9957  150.2753 LP  0  0  0  0  0  0  0  0  0  0  0  0  # atno 17370 bound_to 10713
  156.3261  130.3793  149.7532 LP  0  0  0  0  0  0  0  0  0  0  0  0  # atno 17371 bound_to 10713
  141.1087  133.6651  156.2926 LP  0  0  0  0  0  0  0  0  0  0  0  0  # atno 17394 bound_to 11000
  140.5876  134.5683  157.5493 LP  0  0  0  0  0  0  0  0  0  0  0  0  # atno 17395 bound_to 11000

$$$$
