AV-unprocessed.smi:1762|AV-procd|sdf|7101|dock9
  -GOLD-   22720 8323D 1   1.00000     0.00000
 Structure written by MMmdl.
 52 53  0  0  0  0  0  0  0  0  1 V2000
  145.3429  141.4399  156.4812 C   0  0  0  0  0  0  0  0  0  0  0  0
  146.3209  140.6451  155.6085 C   0  0  2  0  0  0  0  0  0  0  0  0
  147.7009  140.4912  156.2735 C   0  0  0  0  0  0  0  0  0  0  0  0
  148.6740  139.8054  155.4072 N   0  0  0  0  0  0  0  0  0  0  0  0
  150.0085  139.5815  156.0313 C   0  0  1  0  0  0  0  0  0  0  0  0
  149.9870  138.5373  157.1728 C   0  0  0  0  0  0  0  0  0  0  0  0
  150.9900  138.3451  157.8614 O   0  0  0  0  0  0  0  0  0  0  0  0
  148.8389  137.8648  157.3512 N   0  0  0  0  0  0  0  0  0  0  0  0
  148.6108  136.8546  158.3772 C   0  0  0  0  0  0  0  0  0  0  0  0
  147.3465  137.1594  159.1982 C   0  0  0  0  0  0  0  0  0  0  0  0
  147.3238  136.4087  160.5161 C   0  0  0  0  0  0  0  0  0  0  0  0
  147.2091  135.0025  160.5412 C   0  0  0  0  0  0  0  0  0  0  0  0
  147.1837  134.3534  161.7908 C   0  0  0  0  0  0  0  0  0  0  0  0
  147.2723  135.1316  162.9611 C   0  0  0  0  0  0  0  0  0  0  0  0
  147.3817  136.5303  162.8290 C   0  0  0  0  0  0  0  0  0  0  0  0
  147.4058  137.1626  161.6357 N   0  0  0  0  0  0  0  0  0  0  0  0
  151.1632  139.2658  155.0210 C   0  0  0  0  0  0  0  0  0  0  0  0
  150.8821  138.0484  154.1183 C   0  0  0  0  0  0  0  0  0  0  0  0
  152.5484  139.1294  155.6864 C   0  0  0  0  0  0  0  0  0  0  0  0
  148.7526  140.5324  154.1338 C   0  0  0  0  0  0  0  0  0  0  0  0
  147.3822  140.7361  153.4570 C   0  0  1  0  0  0  0  0  0  0  0  0
  146.8181  139.4516  152.8239 C   0  0  0  0  0  0  0  0  0  0  0  0
  146.4606  141.3301  154.3686 O   0  0  0  0  0  0  0  0  0  0  0  0
  145.1867  140.9491  157.4421 H   0  0  0  0  0  0  0  0  0  0  0  0
  144.3719  141.5311  155.9938 H   0  0  0  0  0  0  0  0  0  0  0  0
  145.7141  142.4465  156.6752 H   0  0  0  0  0  0  0  0  0  0  0  0
  145.8918  139.6584  155.4321 H   0  0  0  0  0  0  0  0  0  0  0  0
  148.0868  141.4727  156.5542 H   0  0  0  0  0  0  0  0  0  0  0  0
  147.5364  139.9456  157.2017 H   0  0  0  0  0  0  0  0  0  0  0  0
  150.2870  140.5237  156.5083 H   0  0  0  0  0  0  0  0  0  0  0  0
  148.0643  138.0774  156.7394 H   0  0  0  0  0  0  0  0  0  0  0  0
  148.5100  135.8884  157.8821 H   0  0  0  0  0  0  0  0  0  0  0  0
  149.4829  136.7806  159.0292 H   0  0  0  0  0  0  0  0  0  0  0  0
  147.2741  138.2292  159.3989 H   0  0  0  0  0  0  0  0  0  0  0  0
  146.4565  136.8965  158.6245 H   0  0  0  0  0  0  0  0  0  0  0  0
  147.1397  134.4338  159.6254 H   0  0  0  0  0  0  0  0  0  0  0  0
  147.0960  133.2787  161.8505 H   0  0  0  0  0  0  0  0  0  0  0  0
  147.2564  134.6682  163.9365 H   0  0  0  0  0  0  0  0  0  0  0  0
  147.4503  137.1578  163.7052 H   0  0  0  0  0  0  0  0  0  0  0  0
  151.2742  140.1275  154.3650 H   0  0  0  0  0  0  0  0  0  0  0  0
  150.8358  137.1207  154.6882 H   0  0  0  0  0  0  0  0  0  0  0  0
  151.6670  137.9306  153.3708 H   0  0  0  0  0  0  0  0  0  0  0  0
  149.9397  138.1560  153.5811 H   0  0  0  0  0  0  0  0  0  0  0  0
  152.6276  138.2241  156.2893 H   0  0  0  0  0  0  0  0  0  0  0  0
  152.7618  139.9819  156.3313 H   0  0  0  0  0  0  0  0  0  0  0  0
  153.3370  139.0841  154.9349 H   0  0  0  0  0  0  0  0  0  0  0  0
  149.2126  141.5081  154.2998 H   0  0  0  0  0  0  0  0  0  0  0  0
  149.3875  140.0113  153.4203 H   0  0  0  0  0  0  0  0  0  0  0  0
  147.5129  141.4550  152.6479 H   0  0  0  0  0  0  0  0  0  0  0  0
  147.4793  139.0847  152.0386 H   0  0  0  0  0  0  0  0  0  0  0  0
  145.8424  139.6353  152.3741 H   0  0  0  0  0  0  0  0  0  0  0  0
  146.7060  138.6493  153.5529 H   0  0  0  0  0  0  0  0  0  0  0  0
  1  2  1  0  0  0  0
  1 24  1  0  0  0  0
  1 25  1  0  0  0  0
  1 26  1  0  0  0  0
  2 23  1  0  0  0  0
  2  3  1  0  0  0  0
  2 27  1  0  0  0  0
  3  4  1  0  0  0  0
  3 28  1  0  0  0  0
  3 29  1  0  0  0  0
  4  5  1  0  0  0  0
  4 20  1  0  0  0  0
  5  6  1  0  0  0  0
  5 17  1  0  0  0  0
  5 30  1  0  0  0  0
  6  7  2  0  0  0  0
  6  8  1  0  0  0  0
  8  9  1  0  0  0  0
  8 31  1  0  0  0  0
  9 10  1  0  0  0  0
  9 32  1  0  0  0  0
  9 33  1  0  0  0  0
 10 11  1  0  0  0  0
 10 34  1  0  0  0  0
 10 35  1  0  0  0  0
 11 16  1  0  0  0  0
 11 12  2  0  0  0  0
 12 13  1  0  0  0  0
 12 36  1  0  0  0  0
 13 14  2  0  0  0  0
 13 37  1  0  0  0  0
 14 15  1  0  0  0  0
 14 38  1  0  0  0  0
 15 16  2  0  0  0  0
 15 39  1  0  0  0  0
 17 18  1  0  0  0  0
 17 19  1  0  0  0  0
 17 40  1  0  0  0  0
 18 41  1  0  0  0  0
 18 42  1  0  0  0  0
 18 43  1  0  0  0  0
 19 44  1  0  0  0  0
 19 45  1  0  0  0  0
 19 46  1  0  0  0  0
 20 21  1  0  0  0  0
 20 47  1  0  0  0  0
 20 48  1  0  0  0  0
 21 22  1  0  0  0  0
 21 23  1  0  0  0  0
 21 49  1  0  0  0  0
 22 50  1  0  0  0  0
 22 51  1  0  0  0  0
 22 52  1  0  0  0  0
M  END
> <s_m_source_file>
AV-unprocessed.smi

> <i_m_source_file_index>
1762

> <i_lp_mmshare_version>
43012

> <i_f3d_flags>
0

> <s_epik_input>
W0NIM11bQ0BASF0xW0NIMl1OKFtDSDJdW0NASF0oTzEpW0NIM10pW0NAQEhdKFtDSF0oW0NIM10pW0NIM10pQyg9TylbTkhdW0NIMl1bQ0gyXWMyW2NIXVtjSF1bY0hdW2NIXW4y

> <s_epik_cmdline>
J2VwaWtfcHl0aG9uJywgJy1waCcsICc3LjAnLCAnLXRuJywgJzgnLCAnLW1hJywgJzIwMCcsICctbWV0YWxfYmluZGluZycsICctaW1hZScsICc8aW5maWxlLm1hZT4nLCAnLW9tYWUnLCAnPG91dGZpbGUubWFlPic=

> <r_epik_Ionization_Penalty>
0.0399736

> <r_epik_Ionization_Penalty_Charging>
0

> <r_epik_Ionization_Penalty_Neutral>
0.0399736

> <r_epik_State_Penalty>
0.0317634

> <r_epik_Charging_Adjusted_Penalty>
0.0317634

> <i_epik_Tot_Q>
0

> <i_epik_Tot_abs_Q>
0

> <r_epik_Metal_State_Penalty>
0.0307795

> <b_epik_Metal_Only>
0

> <s_lp_Force_Field>
OPLS_2005

> <r_lp_Energy>
29.8059

> <b_lp_Chiralities_Consistent>
1

> <s_lp_Variant>
AV-unprocessed.smi:1762-3

> <Gold.Version>
5.8.1

> <Gold.Id.Protein>
6NUR|6NUR_protein|mol2

> <Gold.PLP.Fitness>
42.6949

> <Gold.PLP.PLP>
-38.3763

> <Gold.PLP.part.hbond>
-2.0000

> <Gold.PLP.part.metal>
0.0000

> <Gold.PLP.part.buried>
-1.8073

> <Gold.PLP.part.nonpolar>
-34.1339

> <Gold.PLP.part.repulsive>
0.2196

> <Gold.PLP.ligand.clash>
0.0000

> <Gold.PLP.ligand.torsion>
0.5329

> <Gold.PLP.Chemscore.Hbond>
1.7120

> <Gold.PLP.Chemscore.CHOScore>
0.0000

> <Gold.PLP.Chemscore.Metal>
0.0000

> <Gold.Chemscore.Hbonds>
donor molecule, donor type, donor heavy atom, donor atom, acceptor molecule, acceptor atom, score
      P1  H  6931  6943       L1    16  0.88
      P1  H  6934  6947       L1    16  0.85

> <Gold.PLP.Chemscore.Internal.Correction>
0.2483

> <Gold.Rescore>
     Score         DG    S(hbond)    S(metal)    S(lipo)     H(rot)  DE(clash)    DE(int)     intcor
     14.00     -16.30       0.96        0.00     100.04       1.60       0.09       2.21       ----

> <Gold.Chemscore.Fitness>
13.9995

> <Gold.Chemscore.DG>
-16.2953

> <Gold.Chemscore.ZeroCoef>
-5.4800

> <Gold.Chemscore.Hbond>
0.9593

> <Gold.Chemscore.Metal>
0.0000

> <Gold.Chemscore.Lipo>
100.0450

> <Gold.Chemscore.Internal_Hbond>
0.0000

> <Gold.Chemscore.DEClash>
0.0907

> <Gold.Chemscore.DEInternal>
2.2052

> <Gold.Chemscore.Rot>
1.5993

> <Gold.Chemscore.Internal.Correction>
   9.000000E+99

> <Gold.Chemscore.Hbonds>
donor molecule, donor type, donor heavy atom, donor atom, acceptor molecule, acceptor atom, score
      P1  H  6931  6943       L1    16  0.19
      P1  H  6934  6947       L1    16  0.33

> <Gold.Chemscore.Hbond.Weighted>
-3.2042

> <Gold.Chemscore.Metal.Weighted>
-0.0000

> <Gold.Chemscore.Lipo.Weighted>
-11.7053

> <Gold.Chemscore.Internal_Hbond.Weighted>
0.0000

> <Gold.Chemscore.DEClash.Weighted>
0.0907

> <Gold.Chemscore.DEInternal.Weighted>
2.2052

> <Gold.Chemscore.Rot.Weighted>
4.0941

> <Gold.Chemscore.Internal.Correction.Weighted>
   9.000000E+99

> <Gold.Protein.RotatedTorsions>
[ 6907 6896 6895 6894 ] final -148.40 input  -60.11 | X-H torsion
[ 7974 7965 7964 7962 ] final -109.30 input  175.53 | X-H torsion
[ 8008 7997 7996 7995 ] final  -65.88 input   59.86 | X-H torsion
[ 10167 10162 10161 10158 ] final  -70.64 input  -65.29 | X-H torsion
[ 10718 10713 10712 10709 ] final  -28.49 input   66.30 | X-H torsion
[ 10763 10752 10751 10750 ] final  146.54 input  -60.55 | X-H torsion
[ 11005 11000 10999 10996 ] final  115.34 input  -57.11 | X-H torsion

> <Gold.Protein.ActiveResidues>
 VAL166  LYS551  ARG553  GLY616  TRP617  ASP618  TYR619  PRO620  LYS621  CYS622 
 ASP623  PHE694  ASN695  SER759  ASP760  ASP761  ALA762  ILE779  LEU786  VAL792 
 PHE793  MET794  SER795  GLU796  ALA797  LYS798  CYS799  TRP800  GLU811  SER814 

> <Gold.Protein.RotatedAtoms>
  151.1693  133.4795  159.2593 H   0  0  0  0  0  0  0  0  0  0  0  0  # atno 6907 bound_to 6896
  151.1373  135.0161  159.8620 H   0  0  0  0  0  0  0  0  0  0  0  0  # atno 6908 bound_to 6896
  152.5461  134.1590  159.8603 H   0  0  0  0  0  0  0  0  0  0  0  0  # atno 6909 bound_to 6896
  145.1822  140.8976  143.3473 H   0  0  0  0  0  0  0  0  0  0  0  0  # atno 7974 bound_to 7965
  154.4699  140.0924  156.7117 H   0  0  0  0  0  0  0  0  0  0  0  0  # atno 8008 bound_to 7997
  155.4753  140.3466  155.4313 H   0  0  0  0  0  0  0  0  0  0  0  0  # atno 8009 bound_to 7997
  156.1021  140.1425  156.9442 H   0  0  0  0  0  0  0  0  0  0  0  0  # atno 8010 bound_to 7997
  140.5336  143.2319  151.7217 H   0  0  0  0  0  0  0  0  0  0  0  0  # atno 10167 bound_to 10162
  156.4245  130.4433  149.7160 H   0  0  0  0  0  0  0  0  0  0  0  0  # atno 10718 bound_to 10713
  154.0236  135.2904  155.3378 H   0  0  0  0  0  0  0  0  0  0  0  0  # atno 10763 bound_to 10752
  154.7031  135.5180  153.8559 H   0  0  0  0  0  0  0  0  0  0  0  0  # atno 10764 bound_to 10752
  153.0670  135.6634  154.0455 H   0  0  0  0  0  0  0  0  0  0  0  0  # atno 10765 bound_to 10752
  139.9007  134.9582  156.7030 H   0  0  0  0  0  0  0  0  0  0  0  0  # atno 11005 bound_to 11000
  145.0125  139.3497  143.6113 LP  0  0  0  0  0  0  0  0  0  0  0  0  # atno 17320 bound_to 7965
  146.3451  139.9393  142.8743 LP  0  0  0  0  0  0  0  0  0  0  0  0  # atno 17321 bound_to 7965
  139.4963  144.4077  152.0114 LP  0  0  0  0  0  0  0  0  0  0  0  0  # atno 17342 bound_to 10162
  140.3180  144.3460  150.6016 LP  0  0  0  0  0  0  0  0  0  0  0  0  # atno 17343 bound_to 10162
  156.4088  130.7711  151.2723 LP  0  0  0  0  0  0  0  0  0  0  0  0  # atno 17370 bound_to 10713
  157.7508  131.0218  150.3764 LP  0  0  0  0  0  0  0  0  0  0  0  0  # atno 17371 bound_to 10713
  140.7135  133.9202  155.8100 LP  0  0  0  0  0  0  0  0  0  0  0  0  # atno 17394 bound_to 11000
  141.0282  134.0794  157.4044 LP  0  0  0  0  0  0  0  0  0  0  0  0  # atno 17395 bound_to 11000

$$$$
