#       Name:                AV-unprocessed.smi:372
#       Creating user name   scv26
#       Creation time:       Thu Mar 26 22:38:36 2020


#       File generated by GOLD software.
#

@<TRIPOS>MOLECULE
AV-unprocessed.smi:372
    28    29     1
SMALL
NO_CHARGES


@<TRIPOS>ATOM
      1 ****        -2.0155  -0.1455  -1.0165 C.3            1 S1                 0.0000
      2 ****        -0.5115  -0.3685  -0.7665 C.3            1 S1                 0.0000
      3 ****        -0.0097   0.4274   0.4512 C.ar           1 S1                 0.0000
      4 ****         0.4258  -0.2154   1.6366 C.ar           1 S1                 0.0000
      5 ****         0.8650   0.5733   2.7173 C.ar           1 S1                 0.0000
      6 ****         0.8545   1.9739   2.5861 C.ar           1 S1                 0.0000
      7 ****         0.3988   2.5262   1.3743 C.ar           1 S1                 0.0000
      8 ****        -0.0256   1.7782   0.3342 N.ar           1 S1                 0.0000
      9 ****        -0.2353  -1.7970  -0.6718 N.am           1 S1                 0.0000
     10 ****         0.6327  -2.2305  -1.5947 C.2            1 S1                 0.0000
     11 ****         1.0548  -3.3788  -1.7071 O.2            1 S1                 0.0000
     12 ****         0.9461  -1.1961  -2.3785 N.am           1 S1                 0.0000
     13 ****         0.3230  -0.0763  -2.0154 C.2            1 S1                 0.0000
     14 ****         0.3852   1.0099  -2.5899 O.2            1 S1                 0.0000
     15 ****        -2.2446   0.9103  -1.1665 H              1 S1                 0.0000
     16 ****        -2.6073  -0.4923  -0.1688 H              1 S1                 0.0000
     17 ****        -2.3613  -0.6832  -1.9005 H              1 S1                 0.0000
     18 ****         0.4291  -1.2905   1.7343 H              1 S1                 0.0000
     19 ****         1.2033   0.1106   3.6327 H              1 S1                 0.0000
     20 ****         1.1848   2.6089   3.3948 H              1 S1                 0.0000
     21 ****         0.3729   3.5969   1.2365 H              1 S1                 0.0000
     22 ****        -0.6339  -2.3804   0.0494 H              1 S1                 0.0000
     23 ****         1.5689  -1.2603  -3.1704 H              1 S1                 0.0000
     24 ****        -0.3461   2.2124  -0.5077 LP             1 S1                 0.0000
     25 ****         0.7488  -4.0884  -1.0724 LP             1 S1                 0.0000
     26 ****         1.7043  -3.6039  -2.4334 LP             1 S1                 0.0000
     27 ****        -0.1370   1.7893  -2.2437 LP             1 S1                 0.0000
     28 ****         0.9579   1.1133  -3.4031 LP             1 S1                 0.0000
@<TRIPOS>BOND
    1    1    2 1     
    2    1   15 1     
    3    1   16 1     
    4    1   17 1     
    5    2   13 1     
    6    2    3 1     
    7    2    9 1     
    8    3    8 ar    
    9    3    4 ar    
   10    4    5 ar    
   11    4   18 1     
   12    5    6 ar    
   13    5   19 1     
   14    6    7 ar    
   15    6   20 1     
   16    7    8 ar    
   17    7   21 1     
   18    9   10 am    
   19    9   22 1     
   20   10   11 2     
   21   10   12 am    
   22   12   13 am    
   23   12   23 1     
   24   13   14 2     
   25    8   24 1     
   26   11   25 1     
   27   11   26 1     
   28   14   27 1     
   29   14   28 1     
@<TRIPOS>SUBSTRUCTURE
      1 S1             1
@<TRIPOS>SET
LONE_PAIRS      STATIC     ATOMS    <user>   **** ""
5 24 25 26 27 28
DONOR_HYDROGENS      STATIC     ATOMS    <user>   **** ""
2 22 23
ATOM$BLUE        STATIC     ATOMS    COLORGROUP SYSTEM
5 24 25 26 27 28
ATOM$RED        STATIC     ATOMS    COLORGROUP SYSTEM
2 22 23
