AV-unprocessed.smi:2032|AV-procd|sdf|8241|dock3
  -GOLD-   2272010513D 1   1.00000     0.00000
 Structure written by MMmdl.
 43 44  0  0  0  0  0  0  0  0  2 V2000
  148.9155  141.0592  154.4029 C   0  0  0  0  0  0  0  0  0  0  0  0
  149.4045  139.6333  154.1248 C   0  0  2  0  0  0  0  0  0  0  0  0
  148.6502  138.5869  154.9650 C   0  0  0  0  0  0  0  0  0  0  0  0
  149.1793  137.2167  154.7219 N   0  3  2  0  0  0  0  0  0  0  0  0
  148.4081  136.1610  155.4575 C   0  0  2  0  0  0  0  0  0  0  0  0
  148.6886  136.1449  156.9804 C   0  0  0  0  0  0  0  0  0  0  0  0
  148.6863  134.7585  154.8489 C   0  0  0  0  0  0  0  0  0  0  0  0
  148.0825  134.5668  153.5331 N   0  0  0  0  0  0  0  0  0  0  0  0
  146.9225  133.9335  153.3064 C   0  0  0  0  0  0  0  0  0  0  0  0
  146.2343  133.4425  154.2019 O   0  0  0  0  0  0  0  0  0  0  0  0
  146.6240  133.9147  151.9959 N   0  0  0  0  0  0  0  0  0  0  0  0
  145.5248  133.2839  151.3564 C   0  0  0  0  0  0  0  0  0  0  0  0
  144.7687  133.8593  150.4141 N   0  0  0  0  0  0  0  0  0  0  0  0
  143.7491  133.0128  149.9712 C   0  0  0  0  0  0  0  0  0  0  0  0
  143.7437  131.7882  150.5919 C   0  0  0  0  0  0  0  0  0  0  0  0
  145.0249  131.6495  151.7662 S   0  0  0  0  0  0  0  0  0  0  0  0
  150.6501  137.2096  154.9546 C   0  0  0  0  0  0  0  0  0  0  0  0
  151.3531  138.3050  154.1301 C   0  0  2  0  0  0  0  0  0  0  0  0
  152.8564  138.3696  154.4226 C   0  0  0  0  0  0  0  0  0  0  0  0
  150.7873  139.5698  154.4455 O   0  0  0  0  0  0  0  0  0  0  0  0
  147.8570  141.1652  154.1631 H   0  0  0  0  0  0  0  0  0  0  0  0
  149.4659  141.7840  153.8023 H   0  0  0  0  0  0  0  0  0  0  0  0
  149.0494  141.3262  155.4518 H   0  0  0  0  0  0  0  0  0  0  0  0
  149.2679  139.4221  153.0625 H   0  0  0  0  0  0  0  0  0  0  0  0
  148.7405  138.8263  156.0259 H   0  0  0  0  0  0  0  0  0  0  0  0
  147.5924  138.6500  154.7183 H   0  0  0  0  0  0  0  0  0  0  0  0
  147.3493  136.3951  155.3375 H   0  0  0  0  0  0  0  0  0  0  0  0
  148.1444  135.3470  157.4847 H   0  0  0  0  0  0  0  0  0  0  0  0
  148.3669  137.0664  157.4657 H   0  0  0  0  0  0  0  0  0  0  0  0
  149.7490  135.9992  157.1897 H   0  0  0  0  0  0  0  0  0  0  0  0
  149.7516  134.5557  154.7507 H   0  0  0  0  0  0  0  0  0  0  0  0
  148.2928  133.9868  155.5112 H   0  0  0  0  0  0  0  0  0  0  0  0
  148.5825  134.9444  152.7412 H   0  0  0  0  0  0  0  0  0  0  0  0
  147.2650  134.3938  151.3807 H   0  0  0  0  0  0  0  0  0  0  0  0
  143.0690  133.3638  149.2091 H   0  0  0  0  0  0  0  0  0  0  0  0
  143.0655  130.9634  150.4308 H   0  0  0  0  0  0  0  0  0  0  0  0
  150.8509  137.3468  156.0187 H   0  0  0  0  0  0  0  0  0  0  0  0
  151.0832  136.2544  154.6594 H   0  0  0  0  0  0  0  0  0  0  0  0
  151.2177  138.1063  153.0654 H   0  0  0  0  0  0  0  0  0  0  0  0
  153.3432  137.4226  154.1889 H   0  0  0  0  0  0  0  0  0  0  0  0
  153.0455  138.5929  155.4730 H   0  0  0  0  0  0  0  0  0  0  0  0
  153.3366  139.1452  153.8257 H   0  0  0  0  0  0  0  0  0  0  0  0
  149.0558  137.0236  153.7383 H   0  0  0  0  0  0  0  0  0  0  0  0
  1  2  1  0  0  0  0
  1 21  1  0  0  0  0
  1 22  1  0  0  0  0
  1 23  1  0  0  0  0
  2 20  1  0  0  0  0
  2  3  1  0  0  0  0
  2 24  1  0  0  0  0
  3  4  1  0  0  0  0
  3 25  1  0  0  0  0
  3 26  1  0  0  0  0
  4  5  1  0  0  0  0
  4 17  1  0  0  0  0
  4 43  1  0  0  0  0
  5  6  1  0  0  0  0
  5  7  1  0  0  0  0
  5 27  1  0  0  0  0
  6 28  1  0  0  0  0
  6 29  1  0  0  0  0
  6 30  1  0  0  0  0
  7  8  1  0  0  0  0
  7 31  1  0  0  0  0
  7 32  1  0  0  0  0
  8  9  1  0  0  0  0
  8 33  1  0  0  0  0
  9 10  2  0  0  0  0
  9 11  1  0  0  0  0
 11 12  1  0  0  0  0
 11 34  1  0  0  0  0
 12 16  1  0  0  0  0
 12 13  2  0  0  0  0
 13 14  1  0  0  0  0
 14 15  2  0  0  0  0
 14 35  1  0  0  0  0
 15 16  1  0  0  0  0
 15 36  1  0  0  0  0
 17 18  1  0  0  0  0
 17 37  1  0  0  0  0
 17 38  1  0  0  0  0
 18 19  1  0  0  0  0
 18 20  1  0  0  0  0
 18 39  1  0  0  0  0
 19 40  1  0  0  0  0
 19 41  1  0  0  0  0
 19 42  1  0  0  0  0
M  CHG  1   4   1
M  END
> <s_m_source_file>
AV-unprocessed.smi

> <i_m_source_file_index>
2032

> <i_lp_mmshare_version>
43012

> <i_f3d_flags>
0

> <s_epik_input>
W0NIM11bQ0BASF0xW0NIMl1OKFtDSDJdW0NASF0oTzEpW0NIM10pW0NASF0oW0NIM10pW0NIMl1bTkhdQyg9TylbTkhdYzJuW2NIXVtjSF1zMg==

> <s_epik_cmdline>
J2VwaWtfcHl0aG9uJywgJy1waCcsICc3LjAnLCAnLXRuJywgJzgnLCAnLW1hJywgJzIwMCcsICctbWV0YWxfYmluZGluZycsICctaW1hZScsICc8aW5maWxlLm1hZT4nLCAnLW9tYWUnLCAnPG91dGZpbGUubWFlPic=

> <r_lp_tautomer_probability>
0.999

> <r_epik_Ionization_Penalty>
0.695838

> <r_epik_Ionization_Penalty_Charging>
0.695697

> <r_epik_Ionization_Penalty_Neutral>
0.000141198

> <r_epik_State_Penalty>
0.717972

> <r_epik_Charging_Adjusted_Penalty>
1.41367

> <i_epik_Tot_Q>
1

> <i_epik_Tot_abs_Q>
1

> <r_epik_Metal_State_Penalty>
0.756405

> <b_epik_Metal_Only>
0

> <s_lp_Force_Field>
OPLS_2005

> <r_lp_Energy>
16.7575

> <b_lp_Chiralities_Consistent>
1

> <s_lp_Variant>
AV-unprocessed.smi:2032-11

> <Gold.Version>
5.8.1

> <Gold.Id.Protein>
6NUR|6NUR_protein|mol2

> <Gold.PLP.Fitness>
46.9093

> <Gold.PLP.PLP>
-30.7754

> <Gold.PLP.part.hbond>
-3.1819

> <Gold.PLP.part.metal>
0.0000

> <Gold.PLP.part.buried>
-3.3175

> <Gold.PLP.part.nonpolar>
-24.4820

> <Gold.PLP.part.repulsive>
0.3844

> <Gold.PLP.ligand.clash>
0.0000

> <Gold.PLP.ligand.torsion>
0.7930

> <Gold.PLP.Chemscore.Hbond>
3.9920

> <Gold.PLP.Chemscore.CHOScore>
1.8959

> <Gold.PLP.Chemscore.Metal>
0.0000

> <Gold.Chemscore.Hbonds>
donor molecule, donor type, donor heavy atom, donor atom, acceptor molecule, acceptor atom, score
      L1  H     4    43       P1  7948  2.00
      L1  H     8    33       P1  7948  0.99
      P1  H  7989  7998       L1    20  1.00
      L1  C    14    35       P1 10186  0.95
      L1  C    15    36       P1 10952  1.00

> <Gold.PLP.Chemscore.Internal.Correction>
0.0562

> <Gold.Rescore>
     Score         DG    S(hbond)    S(metal)    S(lipo)     H(rot)  DE(clash)    DE(int)     intcor
     16.01     -17.20       2.06        0.00      76.68       1.61       0.46       0.73       ----

> <Gold.Chemscore.Fitness>
16.0075

> <Gold.Chemscore.DG>
-17.1979

> <Gold.Chemscore.ZeroCoef>
-5.4800

> <Gold.Chemscore.Hbond>
2.0569

> <Gold.Chemscore.Metal>
0.0000

> <Gold.Chemscore.Lipo>
76.6843

> <Gold.Chemscore.Internal_Hbond>
0.0000

> <Gold.Chemscore.DEClash>
0.4581

> <Gold.Chemscore.DEInternal>
0.7323

> <Gold.Chemscore.Rot>
1.6110

> <Gold.Chemscore.Internal.Correction>
   9.000000E+99

> <Gold.Chemscore.Hbonds>
donor molecule, donor type, donor heavy atom, donor atom, acceptor molecule, acceptor atom, score
      L1  H     4    43       P1  7948  0.93
      L1  H     8    33       P1  7948  0.31
      P1  H  7989  7998       L1    20  0.46

> <Gold.Chemscore.Hbond.Weighted>
-6.8700

> <Gold.Chemscore.Metal.Weighted>
-0.0000

> <Gold.Chemscore.Lipo.Weighted>
-8.9721

> <Gold.Chemscore.Internal_Hbond.Weighted>
0.0000

> <Gold.Chemscore.DEClash.Weighted>
0.4581

> <Gold.Chemscore.DEInternal.Weighted>
0.7323

> <Gold.Chemscore.Rot.Weighted>
4.1242

> <Gold.Chemscore.Internal.Correction.Weighted>
   9.000000E+99

> <Gold.Protein.RotatedTorsions>
[ 6907 6896 6895 6894 ] final   79.02 input  -60.11 | X-H torsion
[ 7974 7965 7964 7962 ] final   35.60 input  175.53 | X-H torsion
[ 8008 7997 7996 7995 ] final   51.67 input   59.86 | X-H torsion
[ 10167 10162 10161 10158 ] final -175.22 input  -65.29 | X-H torsion
[ 10718 10713 10712 10709 ] final  134.07 input   66.30 | X-H torsion
[ 10763 10752 10751 10750 ] final  110.71 input  -60.55 | X-H torsion
[ 11005 11000 10999 10996 ] final   33.80 input  -57.11 | X-H torsion

> <Gold.Protein.ActiveResidues>
 VAL166  LYS551  ARG553  GLY616  TRP617  ASP618  TYR619  PRO620  LYS621  CYS622 
 ASP623  PHE694  ASN695  SER759  ASP760  ASP761  ALA762  ILE779  LEU786  VAL792 
 PHE793  MET794  SER795  GLU796  ALA797  LYS798  CYS799  TRP800  GLU811  SER814 

> <Gold.Protein.RotatedAtoms>
  152.5182  134.3575  159.9272 H   0  0  0  0  0  0  0  0  0  0  0  0  # atno 6907 bound_to 6896
  151.3527  133.3913  159.2689 H   0  0  0  0  0  0  0  0  0  0  0  0  # atno 6908 bound_to 6896
  150.9714  134.9105  159.7848 H   0  0  0  0  0  0  0  0  0  0  0  0  # atno 6909 bound_to 6896
  146.1271  139.6122  142.9251 H   0  0  0  0  0  0  0  0  0  0  0  0  # atno 7974 bound_to 7965
  155.4391  140.3453  155.4288 H   0  0  0  0  0  0  0  0  0  0  0  0  # atno 8008 bound_to 7997
  156.1290  140.1508  156.9124 H   0  0  0  0  0  0  0  0  0  0  0  0  # atno 8009 bound_to 7997
  154.4880  140.0849  156.7510 H   0  0  0  0  0  0  0  0  0  0  0  0  # atno 8010 bound_to 7997
  139.5592  144.1912  152.1211 H   0  0  0  0  0  0  0  0  0  0  0  0  # atno 10167 bound_to 10162
  157.4710  131.1080  150.9803 H   0  0  0  0  0  0  0  0  0  0  0  0  # atno 10718 bound_to 10713
  153.4528  135.3740  155.2294 H   0  0  0  0  0  0  0  0  0  0  0  0  # atno 10763 bound_to 10752
  154.8756  135.3890  154.4018 H   0  0  0  0  0  0  0  0  0  0  0  0  # atno 10764 bound_to 10752
  153.4580  135.7086  153.6132 H   0  0  0  0  0  0  0  0  0  0  0  0  # atno 10765 bound_to 10752
  140.2594  134.3210  155.7863 H   0  0  0  0  0  0  0  0  0  0  0  0  # atno 11005 bound_to 11000
  145.5341  141.0425  143.2367 LP  0  0  0  0  0  0  0  0  0  0  0  0  # atno 17320 bound_to 7965
  144.7653  139.6859  143.7217 LP  0  0  0  0  0  0  0  0  0  0  0  0  # atno 17321 bound_to 7965
  140.1422  144.5192  150.6737 LP  0  0  0  0  0  0  0  0  0  0  0  0  # atno 17342 bound_to 10162
  140.6870  143.2355  151.5235 LP  0  0  0  0  0  0  0  0  0  0  0  0  # atno 17343 bound_to 10162
  157.0568  130.5809  149.5379 LP  0  0  0  0  0  0  0  0  0  0  0  0  # atno 17370 bound_to 10713
  156.0073  130.5161  150.7873 LP  0  0  0  0  0  0  0  0  0  0  0  0  # atno 17371 bound_to 10713
  141.2192  133.7400  156.9163 LP  0  0  0  0  0  0  0  0  0  0  0  0  # atno 17394 bound_to 11000
  140.1480  134.9249  157.2554 LP  0  0  0  0  0  0  0  0  0  0  0  0  # atno 17395 bound_to 11000

$$$$
