AV-unprocessed.smi:389|AV-procd|sdf|2476|dock10
  -GOLD-   2262022413D 1   1.00000     0.00000
 Structure written by MMmdl.
 34 34  0  0  0  0  0  0  0  0  1 V2000
  152.2220  143.1120  160.0538 C   0  0  0  0  0  0  0  0  0  0  0  0
  152.2295  144.2970  159.0766 C   0  0  0  0  0  0  0  0  0  0  0  0
  151.8734  145.6013  159.8087 C   0  0  0  0  0  0  0  0  0  0  0  0
  151.2933  144.0219  157.8778 C   0  0  0  0  0  0  0  0  0  0  0  0
  151.2664  142.5606  157.3821 C   0  0  0  0  0  0  0  0  0  0  0  0
  150.3089  142.3589  156.3000 N   0  0  0  0  0  0  0  0  0  0  0  0
  150.2185  141.2532  155.5461 C   0  0  0  0  0  0  0  0  0  0  0  0
  150.9009  140.2462  155.7395 O   0  0  0  0  0  0  0  0  0  0  0  0
  149.1940  141.2924  154.4040 C   0  0  0  0  0  0  0  0  0  0  0  0
  147.8511  141.6739  154.8652 N   0  0  0  0  0  0  0  0  0  0  0  0
  147.1045  142.6068  154.1595 C   0  0  0  0  0  0  0  0  0  0  0  0
  145.8678  143.0103  154.5360 C   0  0  0  0  0  0  0  0  0  0  0  0
  145.2465  142.4653  155.7382 C   0  0  0  0  0  0  0  0  0  0  0  0
  144.1322  142.7671  156.1599 O   0  0  0  0  0  0  0  0  0  0  0  0
  146.0294  141.5310  156.4217 N   0  0  0  0  0  0  0  0  0  0  0  0
  147.3044  141.1110  156.0400 C   0  0  0  0  0  0  0  0  0  0  0  0
  147.9113  140.2819  156.7177 O   0  0  0  0  0  0  0  0  0  0  0  0
  145.6414  141.1283  157.2624 H   0  0  0  0  0  0  0  0  0  0  0  0
  151.2282  142.9481  160.4714 H   0  0  0  0  0  0  0  0  0  0  0  0
  152.9085  143.2824  160.8838 H   0  0  0  0  0  0  0  0  0  0  0  0
  152.5317  142.1914  159.5581 H   0  0  0  0  0  0  0  0  0  0  0  0
  153.2512  144.3900  158.7073 H   0  0  0  0  0  0  0  0  0  0  0  0
  150.8486  145.5799  160.1805 H   0  0  0  0  0  0  0  0  0  0  0  0
  151.9748  146.4683  159.1563 H   0  0  0  0  0  0  0  0  0  0  0  0
  152.5323  145.7635  160.6621 H   0  0  0  0  0  0  0  0  0  0  0  0
  150.2774  144.3115  158.1500 H   0  0  0  0  0  0  0  0  0  0  0  0
  151.5682  144.6726  157.0469 H   0  0  0  0  0  0  0  0  0  0  0  0
  152.2625  142.2605  157.0532 H   0  0  0  0  0  0  0  0  0  0  0  0
  151.0057  141.8882  158.1992 H   0  0  0  0  0  0  0  0  0  0  0  0
  149.7020  143.1348  156.0780 H   0  0  0  0  0  0  0  0  0  0  0  0
  149.5552  141.9931  153.6500 H   0  0  0  0  0  0  0  0  0  0  0  0
  149.1497  140.3233  153.9024 H   0  0  0  0  0  0  0  0  0  0  0  0
  147.5254  143.0412  153.2640 H   0  0  0  0  0  0  0  0  0  0  0  0
  145.3359  143.7417  153.9449 H   0  0  0  0  0  0  0  0  0  0  0  0
  1  2  1  0  0  0  0
  1 19  1  0  0  0  0
  1 20  1  0  0  0  0
  1 21  1  0  0  0  0
  2  3  1  0  0  0  0
  2  4  1  0  0  0  0
  2 22  1  0  0  0  0
  3 23  1  0  0  0  0
  3 24  1  0  0  0  0
  3 25  1  0  0  0  0
  4  5  1  0  0  0  0
  4 26  1  0  0  0  0
  4 27  1  0  0  0  0
  5  6  1  0  0  0  0
  5 28  1  0  0  0  0
  5 29  1  0  0  0  0
  6  7  1  0  0  0  0
  6 30  1  0  0  0  0
  7  8  2  0  0  0  0
  7  9  1  0  0  0  0
  9 10  1  0  0  0  0
  9 31  1  0  0  0  0
  9 32  1  0  0  0  0
 10 16  1  0  0  0  0
 10 11  1  0  0  0  0
 11 12  2  0  0  0  0
 11 33  1  0  0  0  0
 12 13  1  0  0  0  0
 12 34  1  0  0  0  0
 13 14  2  0  0  0  0
 13 15  1  0  0  0  0
 15 18  1  0  0  0  0
 15 16  1  0  0  0  0
 16 17  2  0  0  0  0
M  END
> <s_m_source_file>
AV-unprocessed.smi

> <i_m_source_file_index>
389

> <i_lp_mmshare_version>
43012

> <i_f3d_flags>
0

> <s_epik_input>
W0NIM11bQ0hdKFtDSDNdKVtDSDJdW0NIMl1bTkhdQyg9TylbQ0gyXW4xW2NIXVtjSF1jKD1PKVtuSF1jMT1P

> <s_epik_cmdline>
J2VwaWtfcHl0aG9uJywgJy1waCcsICc3LjAnLCAnLXRuJywgJzgnLCAnLW1hJywgJzIwMCcsICctbWV0YWxfYmluZGluZycsICctaW1hZScsICc8aW5maWxlLm1hZT4nLCAnLW9tYWUnLCAnPG91dGZpbGUubWFlPic=

> <r_lp_tautomer_probability>
0.999537

> <r_epik_Ionization_Penalty>
0.00305319

> <r_epik_Ionization_Penalty_Charging>
0.00305317

> <r_epik_Ionization_Penalty_Neutral>
2.06703e-08

> <r_epik_State_Penalty>
0.00214626

> <r_epik_Charging_Adjusted_Penalty>
0.00519944

> <i_epik_Tot_Q>
0

> <i_epik_Tot_abs_Q>
0

> <r_epik_Metal_State_Penalty>
0.361976

> <b_epik_Metal_Only>
0

> <s_lp_Force_Field>
OPLS_2005

> <r_lp_Energy>
4.98151

> <b_lp_Chiralities_Consistent>
1

> <s_lp_Variant>
AV-unprocessed.smi:389-1

> <Gold.Version>
5.8.1

> <Gold.Id.Protein>
6NUR|6NUR_protein|mol2

> <Gold.PLP.Fitness>
40.0258

> <Gold.PLP.PLP>
-38.0051

> <Gold.PLP.part.hbond>
-1.0000

> <Gold.PLP.part.metal>
0.0000

> <Gold.PLP.part.buried>
-2.9955

> <Gold.PLP.part.nonpolar>
-33.6751

> <Gold.PLP.part.repulsive>
0.1852

> <Gold.PLP.ligand.clash>
0.0000

> <Gold.PLP.ligand.torsion>
0.4988

> <Gold.PLP.Chemscore.Hbond>
1.0000

> <Gold.PLP.Chemscore.CHOScore>
0.0000

> <Gold.PLP.Chemscore.Metal>
0.0000

> <Gold.Chemscore.Hbonds>
donor molecule, donor type, donor heavy atom, donor atom, acceptor molecule, acceptor atom, score
      L1  H     6    30       P1  8028  1.00

> <Gold.PLP.Chemscore.Internal.Correction>
0.0183

> <Gold.Rescore>
     Score         DG    S(hbond)    S(metal)    S(lipo)     H(rot)  DE(clash)    DE(int)     intcor
     10.69     -12.39       1.00        0.00      79.53       2.24       0.05       1.65       ----

> <Gold.Chemscore.Fitness>
10.6890

> <Gold.Chemscore.DG>
-12.3875

> <Gold.Chemscore.ZeroCoef>
-5.4800

> <Gold.Chemscore.Hbond>
1.0000

> <Gold.Chemscore.Metal>
0.0000

> <Gold.Chemscore.Lipo>
79.5347

> <Gold.Chemscore.Internal_Hbond>
0.0000

> <Gold.Chemscore.DEClash>
0.0515

> <Gold.Chemscore.DEInternal>
1.6469

> <Gold.Chemscore.Rot>
2.2414

> <Gold.Chemscore.Internal.Correction>
   9.000000E+99

> <Gold.Chemscore.Hbonds>
donor molecule, donor type, donor heavy atom, donor atom, acceptor molecule, acceptor atom, score
      L1  H     6    30       P1  8028  1.00

> <Gold.Chemscore.Hbond.Weighted>
-3.3399

> <Gold.Chemscore.Metal.Weighted>
-0.0000

> <Gold.Chemscore.Lipo.Weighted>
-9.3056

> <Gold.Chemscore.Internal_Hbond.Weighted>
0.0000

> <Gold.Chemscore.DEClash.Weighted>
0.0515

> <Gold.Chemscore.DEInternal.Weighted>
1.6469

> <Gold.Chemscore.Rot.Weighted>
5.7380

> <Gold.Chemscore.Internal.Correction.Weighted>
   9.000000E+99

> <Gold.Protein.RotatedTorsions>
[ 6907 6896 6895 6894 ] final  151.36 input  -60.11 | X-H torsion
[ 7974 7965 7964 7962 ] final -120.79 input  175.53 | X-H torsion
[ 8008 7997 7996 7995 ] final   69.37 input   59.86 | X-H torsion
[ 10167 10162 10161 10158 ] final  177.47 input  -65.29 | X-H torsion
[ 10718 10713 10712 10709 ] final -121.97 input   66.30 | X-H torsion
[ 10763 10752 10751 10750 ] final -162.37 input  -60.55 | X-H torsion
[ 11005 11000 10999 10996 ] final  127.97 input  -57.11 | X-H torsion

> <Gold.Protein.ActiveResidues>
 VAL166  LYS551  ARG553  GLY616  TRP617  ASP618  TYR619  PRO620  LYS621  CYS622 
 ASP623  PHE694  ASN695  SER759  ASP760  ASP761  ALA762  ILE779  LEU786  VAL792 
 PHE793  MET794  SER795  GLU796  ALA797  LYS798  CYS799  TRP800  GLU811  SER814 

> <Gold.Protein.RotatedAtoms>
  152.1017  133.4253  159.4589 H   0  0  0  0  0  0  0  0  0  0  0  0  # atno 6907 bound_to 6896
  150.6864  134.2753  159.4614 H   0  0  0  0  0  0  0  0  0  0  0  0  # atno 6908 bound_to 6896
  152.0614  134.9591  160.0625 H   0  0  0  0  0  0  0  0  0  0  0  0  # atno 6909 bound_to 6896
  145.0474  140.8192  143.4229 H   0  0  0  0  0  0  0  0  0  0  0  0  # atno 7974 bound_to 7965
  155.7226  140.3493  155.5023 H   0  0  0  0  0  0  0  0  0  0  0  0  # atno 8008 bound_to 7997
  155.9255  140.1075  157.1195 H   0  0  0  0  0  0  0  0  0  0  0  0  # atno 8009 bound_to 7997
  154.4076  140.1241  156.4722 H   0  0  0  0  0  0  0  0  0  0  0  0  # atno 8010 bound_to 7997
  139.5254  144.2795  152.0559 H   0  0  0  0  0  0  0  0  0  0  0  0  # atno 10167 bound_to 10162
  156.1380  130.6445  150.9727 H   0  0  0  0  0  0  0  0  0  0  0  0  # atno 10718 bound_to 10713
  154.7220  135.3028  154.9032 H   0  0  0  0  0  0  0  0  0  0  0  0  # atno 10763 bound_to 10752
  153.9901  135.6720  153.4758 H   0  0  0  0  0  0  0  0  0  0  0  0  # atno 10764 bound_to 10752
  153.0842  135.4993  154.8481 H   0  0  0  0  0  0  0  0  0  0  0  0  # atno 10765 bound_to 10752
  139.9535  134.9617  156.8933 H   0  0  0  0  0  0  0  0  0  0  0  0  # atno 11005 bound_to 11000
  145.1570  139.2481  143.5411 LP  0  0  0  0  0  0  0  0  0  0  0  0  # atno 17320 bound_to 7965
  146.3515  140.1287  142.8598 LP  0  0  0  0  0  0  0  0  0  0  0  0  # atno 17321 bound_to 7965
  140.2251  144.4427  150.6325 LP  0  0  0  0  0  0  0  0  0  0  0  0  # atno 17342 bound_to 10162
  140.6393  143.2200  151.6326 LP  0  0  0  0  0  0  0  0  0  0  0  0  # atno 17343 bound_to 10162
  157.6550  131.0891  150.7967 LP  0  0  0  0  0  0  0  0  0  0  0  0  # atno 17370 bound_to 10713
  156.8045  130.4932  149.5365 LP  0  0  0  0  0  0  0  0  0  0  0  0  # atno 17371 bound_to 10713
  140.5662  134.0487  155.7415 LP  0  0  0  0  0  0  0  0  0  0  0  0  # atno 17394 bound_to 11000
  141.1203  133.9472  157.2743 LP  0  0  0  0  0  0  0  0  0  0  0  0  # atno 17395 bound_to 11000

$$$$
