AV-unprocessed.smi:3058|AV-procd|sdf|11670|dock5
  -GOLD-   2272017 73D 1   1.00000     0.00000
 Structure written by MMmdl.
 38 40  0  0  0  0  0  0  0  0  1 V2000
  150.5447  140.3866  155.1715 O   0  0  0  0  0  0  0  0  0  0  0  0
  149.9037  141.4085  155.4209 C   0  0  0  0  0  0  0  0  0  0  0  0
  150.1885  142.2139  156.4557 N   0  0  0  0  0  0  0  0  0  0  0  0
  151.2608  141.9917  157.4180 C   0  0  0  0  0  0  0  0  0  0  0  0
  151.5668  143.2623  158.2273 C   0  0  0  0  0  0  0  0  0  0  0  0
  152.2255  142.9455  159.5553 C   0  0  0  0  0  0  0  0  0  0  0  0
  151.9097  143.6862  160.7127 C   0  0  0  0  0  0  0  0  0  0  0  0
  152.5420  143.3513  161.9255 C   0  0  0  0  0  0  0  0  0  0  0  0
  153.4651  142.2863  161.9287 C   0  0  0  0  0  0  0  0  0  0  0  0
  153.7744  141.5697  160.8264 N   0  0  0  0  0  0  0  0  0  0  0  0
  153.1639  141.8978  159.6674 C   0  0  0  0  0  0  0  0  0  0  0  0
  148.7272  141.8439  154.5296 C   0  0  1  0  0  0  0  0  0  0  0  0
  148.3806  140.8582  153.3862 C   0  0  0  0  0  0  0  0  0  0  0  0
  146.8742  140.6084  153.5894 C   0  0  1  0  0  0  0  0  0  0  0  0
  146.6622  139.7198  154.8296 C   0  0  0  0  0  0  0  0  0  0  0  0
  146.9444  140.6882  155.9927 C   0  0  0  0  0  0  0  0  0  0  0  0
  147.3662  141.9827  155.2627 C   0  0  2  0  0  0  0  0  0  0  0  0
  146.3957  141.9683  154.0852 C   0  0  0  0  0  0  0  0  0  0  0  0
  149.6197  143.0378  156.5869 H   0  0  0  0  0  0  0  0  0  0  0  0
  151.0000  141.1667  158.0834 H   0  0  0  0  0  0  0  0  0  0  0  0
  152.1487  141.6779  156.8684 H   0  0  0  0  0  0  0  0  0  0  0  0
  152.2196  143.9231  157.6553 H   0  0  0  0  0  0  0  0  0  0  0  0
  150.6502  143.8231  158.4151 H   0  0  0  0  0  0  0  0  0  0  0  0
  151.1945  144.4948  160.6743 H   0  0  0  0  0  0  0  0  0  0  0  0
  152.3240  143.8968  162.8317 H   0  0  0  0  0  0  0  0  0  0  0  0
  153.9678  142.0023  162.8414 H   0  0  0  0  0  0  0  0  0  0  0  0
  153.4301  141.3036  158.8054 H   0  0  0  0  0  0  0  0  0  0  0  0
  148.9792  142.8075  154.0820 H   0  0  0  0  0  0  0  0  0  0  0  0
  148.5604  141.3287  152.4187 H   0  0  0  0  0  0  0  0  0  0  0  0
  148.9514  139.9288  153.4013 H   0  0  0  0  0  0  0  0  0  0  0  0
  146.3696  140.2388  152.6964 H   0  0  0  0  0  0  0  0  0  0  0  0
  145.6370  139.3508  154.8779 H   0  0  0  0  0  0  0  0  0  0  0  0
  147.3301  138.8575  154.8363 H   0  0  0  0  0  0  0  0  0  0  0  0
  146.0319  140.8605  156.5649 H   0  0  0  0  0  0  0  0  0  0  0  0
  147.6889  140.3095  156.6919 H   0  0  0  0  0  0  0  0  0  0  0  0
  147.2984  142.8751  155.8855 H   0  0  0  0  0  0  0  0  0  0  0  0
  146.5662  142.7751  153.3700 H   0  0  0  0  0  0  0  0  0  0  0  0
  145.3461  141.9744  154.3852 H   0  0  0  0  0  0  0  0  0  0  0  0
  1  2  2  0  0  0  0
  2  3  1  0  0  0  0
  2 12  1  0  0  0  0
  3  4  1  0  0  0  0
  3 19  1  0  0  0  0
  4  5  1  0  0  0  0
  4 20  1  0  0  0  0
  4 21  1  0  0  0  0
  5  6  1  0  0  0  0
  5 22  1  0  0  0  0
  5 23  1  0  0  0  0
  6 11  1  0  0  0  0
  6  7  2  0  0  0  0
  7  8  1  0  0  0  0
  7 24  1  0  0  0  0
  8  9  2  0  0  0  0
  8 25  1  0  0  0  0
  9 10  1  0  0  0  0
  9 26  1  0  0  0  0
 10 11  2  0  0  0  0
 11 27  1  0  0  0  0
 12 17  1  0  0  0  0
 12 13  1  0  0  0  0
 12 28  1  0  0  0  0
 13 14  1  0  0  0  0
 13 29  1  0  0  0  0
 13 30  1  0  0  0  0
 14 18  1  0  0  0  0
 14 15  1  0  0  0  0
 14 31  1  0  0  0  0
 15 16  1  0  0  0  0
 15 32  1  0  0  0  0
 15 33  1  0  0  0  0
 16 17  1  0  0  0  0
 16 34  1  0  0  0  0
 16 35  1  0  0  0  0
 17 18  1  0  0  0  0
 17 36  1  0  0  0  0
 18 37  1  0  0  0  0
 18 38  1  0  0  0  0
M  END
> <s_m_source_file>
AV-unprocessed.smi

> <i_m_source_file_index>
3058

> <i_lp_mmshare_version>
43012

> <i_f3d_flags>
0

> <s_epik_input>
W0NIMl0xW0NIMl1bQ0BIXShbQ0gyXTIpW0NAQEhdKFtDSDJdW0NAQEhdMTIpQyg9TylbTkhdW0NIMl1bQ0gyXWMzW2NIXVtjSF1bY0hdbltjSF0z

> <s_epik_cmdline>
J2VwaWtfcHl0aG9uJywgJy1waCcsICc3LjAnLCAnLXRuJywgJzgnLCAnLW1hJywgJzIwMCcsICctbWV0YWxfYmluZGluZycsICctaW1hZScsICc8aW5maWxlLm1hZT4nLCAnLW9tYWUnLCAnPG91dGZpbGUubWFlPic=

> <r_epik_Ionization_Penalty>
0.0135821

> <r_epik_Ionization_Penalty_Charging>
0

> <r_epik_Ionization_Penalty_Neutral>
0.0135821

> <r_epik_State_Penalty>
0.0105782

> <r_epik_Charging_Adjusted_Penalty>
0.0105782

> <i_epik_Tot_Q>
0

> <i_epik_Tot_abs_Q>
0

> <r_epik_Metal_State_Penalty>
0.0103407

> <b_epik_Metal_Only>
0

> <s_lp_Force_Field>
OPLS_2005

> <r_lp_Energy>
46.4092

> <b_lp_Chiralities_Consistent>
1

> <s_lp_Variant>
AV-unprocessed.smi:3058-2

> <Gold.Version>
5.8.1

> <Gold.Id.Protein>
6NUR|6NUR_protein|mol2

> <Gold.PLP.Fitness>
45.1815

> <Gold.PLP.PLP>
-40.2813

> <Gold.PLP.part.hbond>
-2.0000

> <Gold.PLP.part.metal>
0.0000

> <Gold.PLP.part.buried>
2.0100

> <Gold.PLP.part.nonpolar>
-39.0745

> <Gold.PLP.part.repulsive>
0.1361

> <Gold.PLP.ligand.clash>
0.0000

> <Gold.PLP.ligand.torsion>
0.5569

> <Gold.PLP.Chemscore.Hbond>
2.0000

> <Gold.PLP.Chemscore.CHOScore>
0.0000

> <Gold.PLP.Chemscore.Metal>
0.0000

> <Gold.Chemscore.Hbonds>
donor molecule, donor type, donor heavy atom, donor atom, acceptor molecule, acceptor atom, score
      L1  H     3    19       P1  8028  0.84
      P1  H  7989  7998       L1     1  0.94

> <Gold.PLP.Chemscore.Internal.Correction>
0.0141

> <Gold.Rescore>
     Score         DG    S(hbond)    S(metal)    S(lipo)     H(rot)  DE(clash)    DE(int)     intcor
     18.83     -20.78       1.50        0.00     117.76       1.37       1.52       0.43       ----

> <Gold.Chemscore.Fitness>
18.8297

> <Gold.Chemscore.DG>
-20.7757

> <Gold.Chemscore.ZeroCoef>
-5.4800

> <Gold.Chemscore.Hbond>
1.5008

> <Gold.Chemscore.Metal>
0.0000

> <Gold.Chemscore.Lipo>
117.7614

> <Gold.Chemscore.Internal_Hbond>
0.0000

> <Gold.Chemscore.DEClash>
1.5168

> <Gold.Chemscore.DEInternal>
0.4293

> <Gold.Chemscore.Rot>
1.3653

> <Gold.Chemscore.Internal.Correction>
   9.000000E+99

> <Gold.Chemscore.Hbonds>
donor molecule, donor type, donor heavy atom, donor atom, acceptor molecule, acceptor atom, score
      L1  H     3    19       P1  8028  0.78
      P1  H  7989  7998       L1     1  0.39

> <Gold.Chemscore.Hbond.Weighted>
-5.0128

> <Gold.Chemscore.Metal.Weighted>
-0.0000

> <Gold.Chemscore.Lipo.Weighted>
-13.7781

> <Gold.Chemscore.Internal_Hbond.Weighted>
0.0000

> <Gold.Chemscore.DEClash.Weighted>
1.5168

> <Gold.Chemscore.DEInternal.Weighted>
0.4293

> <Gold.Chemscore.Rot.Weighted>
3.4951

> <Gold.Chemscore.Internal.Correction.Weighted>
   9.000000E+99

> <Gold.Protein.RotatedTorsions>
[ 6907 6896 6895 6894 ] final  148.87 input  -60.11 | X-H torsion
[ 7974 7965 7964 7962 ] final  109.95 input  175.53 | X-H torsion
[ 8008 7997 7996 7995 ] final   38.61 input   59.86 | X-H torsion
[ 10167 10162 10161 10158 ] final  -80.91 input  -65.29 | X-H torsion
[ 10718 10713 10712 10709 ] final -102.29 input   66.30 | X-H torsion
[ 10763 10752 10751 10750 ] final -141.79 input  -60.55 | X-H torsion
[ 11005 11000 10999 10996 ] final  -22.86 input  -57.11 | X-H torsion

> <Gold.Protein.ActiveResidues>
 VAL166  LYS551  ARG553  GLY616  TRP617  ASP618  TYR619  PRO620  LYS621  CYS622 
 ASP623  PHE694  ASN695  SER759  ASP760  ASP761  ALA762  ILE779  LEU786  VAL792 
 PHE793  MET794  SER795  GLU796  ALA797  LYS798  CYS799  TRP800  GLU811  SER814 

> <Gold.Protein.RotatedAtoms>
  152.1357  133.4434  159.4741 H   0  0  0  0  0  0  0  0  0  0  0  0  # atno 6907 bound_to 6896
  150.6881  134.2367  159.4465 H   0  0  0  0  0  0  0  0  0  0  0  0  # atno 6908 bound_to 6896
  152.0254  134.9798  160.0622 H   0  0  0  0  0  0  0  0  0  0  0  0  # atno 6909 bound_to 6896
  145.2612  139.2702  143.4016 H   0  0  0  0  0  0  0  0  0  0  0  0  # atno 7974 bound_to 7965
  155.2229  140.3332  155.4313 H   0  0  0  0  0  0  0  0  0  0  0  0  # atno 8008 bound_to 7997
  156.2326  140.1857  156.7251 H   0  0  0  0  0  0  0  0  0  0  0  0  # atno 8009 bound_to 7997
  154.6003  140.0624  156.9345 H   0  0  0  0  0  0  0  0  0  0  0  0  # atno 8010 bound_to 7997
  140.4460  143.2498  151.8557 H   0  0  0  0  0  0  0  0  0  0  0  0  # atno 10167 bound_to 10162
  156.0224  130.5413  150.7088 H   0  0  0  0  0  0  0  0  0  0  0  0  # atno 10718 bound_to 10713
  154.8533  135.3514  154.5924 H   0  0  0  0  0  0  0  0  0  0  0  0  # atno 10763 bound_to 10752
  153.6533  135.6993  153.5206 H   0  0  0  0  0  0  0  0  0  0  0  0  # atno 10764 bound_to 10752
  153.2876  135.4244  155.1095 H   0  0  0  0  0  0  0  0  0  0  0  0  # atno 10765 bound_to 10752
  140.8697  133.7729  156.0172 H   0  0  0  0  0  0  0  0  0  0  0  0  # atno 11005 bound_to 11000
  146.3275  140.3029  142.8622 LP  0  0  0  0  0  0  0  0  0  0  0  0  # atno 17320 bound_to 7965
  144.9417  140.8085  143.5626 LP  0  0  0  0  0  0  0  0  0  0  0  0  # atno 17321 bound_to 7965
  139.4793  144.5174  151.8848 LP  0  0  0  0  0  0  0  0  0  0  0  0  # atno 17342 bound_to 10162
  140.4263  144.2176  150.5887 LP  0  0  0  0  0  0  0  0  0  0  0  0  # atno 17343 bound_to 10162
  157.4731  131.0895  151.0621 LP  0  0  0  0  0  0  0  0  0  0  0  0  # atno 17370 bound_to 10713
  157.1075  130.6008  149.5474 LP  0  0  0  0  0  0  0  0  0  0  0  0  # atno 17371 bound_to 10713
  140.8587  134.2867  157.5244 LP  0  0  0  0  0  0  0  0  0  0  0  0  # atno 17394 bound_to 11000
  139.8711  134.9506  156.4062 LP  0  0  0  0  0  0  0  0  0  0  0  0  # atno 17395 bound_to 11000

$$$$
