AV-unprocessed.smi:703|AV-procd|sdf|3433|dock4
  -GOLD-   22720 0423D 1   1.00000     0.00000
 Structure written by MMmdl.
 38 39  0  0  0  0  0  0  0  0  2 V2000
  147.4355  140.0091  153.5475 C   0  0  0  0  0  0  0  0  0  0  0  0
  147.4052  138.8234  154.5214 C   0  0  0  0  0  0  0  0  0  0  0  0
  148.5234  137.8783  154.2903 N   0  3  2  0  0  0  0  0  0  0  0  0
  148.5528  136.7125  155.2007 C   0  0  0  0  0  0  0  0  0  0  0  0
  150.0209  136.2962  155.2739 C   0  0  2  0  0  0  0  0  0  0  0  0
  150.3741  135.3634  156.4444 C   0  0  0  0  0  0  0  0  0  0  0  0
  150.7621  137.6377  155.2163 C   0  0  2  0  0  0  0  0  0  0  0  0
  150.8871  138.2401  156.5495 N   0  0  0  0  0  0  0  0  0  0  0  0
  151.7320  139.7201  156.8230 S   0  0  0  0  0  0  0  0  0  0  0  0
  153.0315  139.3910  157.4291 O   0  0  0  0  0  0  0  0  0  0  0  0
  151.6684  140.4787  155.5649 O   0  0  0  0  0  0  0  0  0  0  0  0
  150.6596  140.5807  158.0602 C   0  0  0  0  0  0  0  0  0  0  0  0
  151.1901  141.9495  158.3854 C   0  0  0  0  0  0  0  0  0  0  0  0
  151.3244  143.0700  157.5192 C   0  0  0  0  0  0  0  0  0  0  0  0
  151.8612  144.0336  158.3235 C   0  0  0  0  0  0  0  0  0  0  0  0
  152.0522  143.5530  159.5775 O   0  0  0  0  0  0  0  0  0  0  0  0
  151.6286  142.2195  159.6050 N   0  0  0  0  0  0  0  0  0  0  0  0
  149.8660  138.5086  154.3178 C   0  0  0  0  0  0  0  0  0  0  0  0
  146.6408  140.7181  153.7803 H   0  0  0  0  0  0  0  0  0  0  0  0
  147.2937  139.6871  152.5156 H   0  0  0  0  0  0  0  0  0  0  0  0
  148.3834  140.5444  153.6067 H   0  0  0  0  0  0  0  0  0  0  0  0
  147.4787  139.2077  155.5397 H   0  0  0  0  0  0  0  0  0  0  0  0
  146.4521  138.2968  154.4523 H   0  0  0  0  0  0  0  0  0  0  0  0
  148.2016  137.0060  156.1915 H   0  0  0  0  0  0  0  0  0  0  0  0
  147.9103  135.9080  154.8413 H   0  0  0  0  0  0  0  0  0  0  0  0
  150.2539  135.7627  154.3505 H   0  0  0  0  0  0  0  0  0  0  0  0
  150.1145  135.8012  157.4085 H   0  0  0  0  0  0  0  0  0  0  0  0
  151.4397  135.1362  156.4556 H   0  0  0  0  0  0  0  0  0  0  0  0
  149.8368  134.4185  156.3606 H   0  0  0  0  0  0  0  0  0  0  0  0
  151.7570  137.5208  154.7868 H   0  0  0  0  0  0  0  0  0  0  0  0
  150.2261  137.9515  157.2705 H   0  0  0  0  0  0  0  0  0  0  0  0
  149.6584  140.6553  157.6350 H   0  0  0  0  0  0  0  0  0  0  0  0
  150.5873  139.9565  158.9505 H   0  0  0  0  0  0  0  0  0  0  0  0
  151.0683  143.1542  156.4739 H   0  0  0  0  0  0  0  0  0  0  0  0
  152.1535  145.0602  158.1594 H   0  0  0  0  0  0  0  0  0  0  0  0
  150.2521  138.5219  153.2982 H   0  0  0  0  0  0  0  0  0  0  0  0
  149.8286  139.5456  154.6565 H   0  0  0  0  0  0  0  0  0  0  0  0
  148.4142  137.5108  153.3559 H   0  0  0  0  0  0  0  0  0  0  0  0
  1  2  1  0  0  0  0
  1 19  1  0  0  0  0
  1 20  1  0  0  0  0
  1 21  1  0  0  0  0
  2  3  1  0  0  0  0
  2 22  1  0  0  0  0
  2 23  1  0  0  0  0
  3 18  1  0  0  0  0
  3  4  1  0  0  0  0
  3 38  1  0  0  0  0
  4  5  1  0  0  0  0
  4 24  1  0  0  0  0
  4 25  1  0  0  0  0
  5  6  1  0  0  0  0
  5  7  1  0  0  0  0
  5 26  1  0  0  0  0
  6 27  1  0  0  0  0
  6 28  1  0  0  0  0
  6 29  1  0  0  0  0
  7  8  1  0  0  0  0
  7 18  1  0  0  0  0
  7 30  1  0  0  0  0
  8  9  1  0  0  0  0
  8 31  1  0  0  0  0
  9 10  2  0  0  0  0
  9 11  2  0  0  0  0
  9 12  1  0  0  0  0
 12 13  1  0  0  0  0
 12 32  1  0  0  0  0
 12 33  1  0  0  0  0
 13 17  2  0  0  0  0
 13 14  1  0  0  0  0
 14 15  2  0  0  0  0
 14 34  1  0  0  0  0
 15 16  1  0  0  0  0
 15 35  1  0  0  0  0
 16 17  1  0  0  0  0
 18 36  1  0  0  0  0
 18 37  1  0  0  0  0
M  CHG  1   3   1
M  END
> <s_m_source_file>
AV-unprocessed.smi

> <i_m_source_file_index>
703

> <i_lp_mmshare_version>
43012

> <i_f3d_flags>
0

> <s_epik_input>
W0NIM11bQ0gyXU4xW0NIMl1bQ0BASF0oW0NIM10pW0NASF0oW0NIMl0xKVtOSF1TKD1PKSg9TylbQ0gyXWMyW2NIXVtjSF1vbjI=

> <s_epik_cmdline>
J2VwaWtfcHl0aG9uJywgJy1waCcsICc3LjAnLCAnLXRuJywgJzgnLCAnLW1hJywgJzIwMCcsICctbWV0YWxfYmluZGluZycsICctaW1hZScsICc8aW5maWxlLm1hZT4nLCAnLW9tYWUnLCAnPG91dGZpbGUubWFlPic=

> <r_epik_Ionization_Penalty>
0.00324529

> <r_epik_Ionization_Penalty_Charging>
0.0019384

> <r_epik_Ionization_Penalty_Neutral>
0.00130689

> <r_epik_State_Penalty>
0.00218682

> <r_epik_Charging_Adjusted_Penalty>
0.00412522

> <i_epik_Tot_Q>
1

> <i_epik_Tot_abs_Q>
1

> <r_epik_Metal_State_Penalty>
0.310831

> <b_epik_Metal_Only>
0

> <s_lp_Force_Field>
OPLS_2005

> <r_lp_Energy>
18.8873

> <b_lp_Chiralities_Consistent>
1

> <s_lp_Variant>
AV-unprocessed.smi:703-8

> <Gold.Version>
5.8.1

> <Gold.Id.Protein>
6NUR|6NUR_protein|mol2

> <Gold.PLP.Fitness>
37.8394

> <Gold.PLP.PLP>
-26.7400

> <Gold.PLP.part.hbond>
-3.0000

> <Gold.PLP.part.metal>
0.0000

> <Gold.PLP.part.buried>
-4.7481

> <Gold.PLP.part.nonpolar>
-19.8423

> <Gold.PLP.part.repulsive>
0.0225

> <Gold.PLP.ligand.clash>
0.0000

> <Gold.PLP.ligand.torsion>
0.6989

> <Gold.PLP.Chemscore.Hbond>
3.7840

> <Gold.PLP.Chemscore.CHOScore>
0.0000

> <Gold.PLP.Chemscore.Metal>
0.0000

> <Gold.Chemscore.Hbonds>
donor molecule, donor type, donor heavy atom, donor atom, acceptor molecule, acceptor atom, score
      L1  H     3    38       P1  7948  2.00
      P1  H  7989  7998       L1    11  0.65
      P1  H  7997  8010       L1    10  1.00

> <Gold.PLP.Chemscore.Internal.Correction>
1.1453

> <Gold.Rescore>
     Score         DG    S(hbond)    S(metal)    S(lipo)     H(rot)  DE(clash)    DE(int)     intcor
     16.51     -18.44       2.76        0.00      68.82       1.68       0.09       1.85       ----

> <Gold.Chemscore.Fitness>
16.5092

> <Gold.Chemscore.DG>
-18.4443

> <Gold.Chemscore.ZeroCoef>
-5.4800

> <Gold.Chemscore.Hbond>
2.7561

> <Gold.Chemscore.Metal>
0.0000

> <Gold.Chemscore.Lipo>
68.8223

> <Gold.Chemscore.Internal_Hbond>
0.0000

> <Gold.Chemscore.DEClash>
0.0873

> <Gold.Chemscore.DEInternal>
1.8478

> <Gold.Chemscore.Rot>
1.6770

> <Gold.Chemscore.Internal.Correction>
   9.000000E+99

> <Gold.Chemscore.Hbonds>
donor molecule, donor type, donor heavy atom, donor atom, acceptor molecule, acceptor atom, score
      L1  H     3    38       P1  7948  0.89
      P1  H  7989  7998       L1    11  0.65
      P1  H  7997  8010       L1    10  0.94

> <Gold.Chemscore.Hbond.Weighted>
-9.2053

> <Gold.Chemscore.Metal.Weighted>
-0.0000

> <Gold.Chemscore.Lipo.Weighted>
-8.0522

> <Gold.Chemscore.Internal_Hbond.Weighted>
0.0000

> <Gold.Chemscore.DEClash.Weighted>
0.0873

> <Gold.Chemscore.DEInternal.Weighted>
1.8478

> <Gold.Chemscore.Rot.Weighted>
4.2932

> <Gold.Chemscore.Internal.Correction.Weighted>
   9.000000E+99

> <Gold.Protein.RotatedTorsions>
[ 6907 6896 6895 6894 ] final -141.45 input  -60.11 | X-H torsion
[ 7974 7965 7964 7962 ] final  -82.33 input  175.53 | X-H torsion
[ 8008 7997 7996 7995 ] final   56.49 input   59.86 | X-H torsion
[ 10167 10162 10161 10158 ] final  167.65 input  -65.29 | X-H torsion
[ 10718 10713 10712 10709 ] final -164.55 input   66.30 | X-H torsion
[ 10763 10752 10751 10750 ] final -179.94 input  -60.55 | X-H torsion
[ 11005 11000 10999 10996 ] final  149.86 input  -57.11 | X-H torsion

> <Gold.Protein.ActiveResidues>
 VAL166  LYS551  ARG553  GLY616  TRP617  ASP618  TYR619  PRO620  LYS621  CYS622 
 ASP623  PHE694  ASN695  SER759  ASP760  ASP761  ALA762  ILE779  LEU786  VAL792 
 PHE793  MET794  SER795  GLU796  ALA797  LYS798  CYS799  TRP800  GLU811  SER814 

> <Gold.Protein.RotatedAtoms>
  151.0740  133.5443  159.2624 H   0  0  0  0  0  0  0  0  0  0  0  0  # atno 6907 bound_to 6896
  151.2372  135.0575  159.9020 H   0  0  0  0  0  0  0  0  0  0  0  0  # atno 6908 bound_to 6896
  152.5415  134.0520  159.8168 H   0  0  0  0  0  0  0  0  0  0  0  0  # atno 6909 bound_to 6896
  145.5348  140.9517  143.1583 H   0  0  0  0  0  0  0  0  0  0  0  0  # atno 7974 bound_to 7965
  155.5182  140.3479  155.4401 H   0  0  0  0  0  0  0  0  0  0  0  0  # atno 8008 bound_to 7997
  156.0802  140.1385  156.9748 H   0  0  0  0  0  0  0  0  0  0  0  0  # atno 8009 bound_to 7997
  154.4576  140.0947  156.6777 H   0  0  0  0  0  0  0  0  0  0  0  0  # atno 8010 bound_to 7997
  139.4950  144.3899  151.9529 H   0  0  0  0  0  0  0  0  0  0  0  0  # atno 10167 bound_to 10162
  156.6407  130.8967  151.2995 H   0  0  0  0  0  0  0  0  0  0  0  0  # atno 10718 bound_to 10713
  154.5286  135.2798  155.1200 H   0  0  0  0  0  0  0  0  0  0  0  0  # atno 10763 bound_to 10752
  154.2728  135.6300  153.5320 H   0  0  0  0  0  0  0  0  0  0  0  0  # atno 10764 bound_to 10752
  152.9952  135.5632  154.5794 H   0  0  0  0  0  0  0  0  0  0  0  0  # atno 10765 bound_to 10752
  140.1081  134.8941  157.1896 H   0  0  0  0  0  0  0  0  0  0  0  0  # atno 11005 bound_to 11000
  144.7607  139.6963  143.7235 LP  0  0  0  0  0  0  0  0  0  0  0  0  # atno 17320 bound_to 7965
  146.2020  139.5321  142.9737 LP  0  0  0  0  0  0  0  0  0  0  0  0  # atno 17321 bound_to 7965
  140.3336  144.3286  150.5982 LP  0  0  0  0  0  0  0  0  0  0  0  0  # atno 17342 bound_to 10162
  140.5624  143.2190  151.7742 LP  0  0  0  0  0  0  0  0  0  0  0  0  # atno 17343 bound_to 10162
  157.7172  130.9512  150.1299 LP  0  0  0  0  0  0  0  0  0  0  0  0  # atno 17370 bound_to 10713
  156.2161  130.3670  149.8611 LP  0  0  0  0  0  0  0  0  0  0  0  0  # atno 17371 bound_to 10713
  140.3128  134.3004  155.7263 LP  0  0  0  0  0  0  0  0  0  0  0  0  # atno 17394 bound_to 11000
  141.2123  133.7661  156.9800 LP  0  0  0  0  0  0  0  0  0  0  0  0  # atno 17395 bound_to 11000

$$$$
