#       Name:                AV-unprocessed.smi:2886
#       Creating user name   scv26
#       Creation time:       Fri Mar 27 15:56:31 2020


#       File generated by GOLD software.
#

@<TRIPOS>MOLECULE
AV-unprocessed.smi:2886
    33    35     1
SMALL
NO_CHARGES


@<TRIPOS>ATOM
      1 ****        -4.2052  -3.5367  -0.9235 O.2            1 S1                 0.0000
      2 ****        -3.6886  -2.4244  -0.8375 C.2            1 S1                 0.0000
      3 ****        -4.3456  -1.2676  -1.1493 N.pl3          1 S1                -1.0000
      4 ****        -3.7681  -0.0911  -1.0480 N.pl3          1 S1                 1.0000
      5 ****        -2.5145   0.0808  -0.6404 C.2            1 S1                 0.0000
      6 ****        -1.7166  -1.0440  -0.2903 C.2            1 S1                 0.0000
      7 ****        -0.4032  -0.9133   0.1435 N.pl3          1 S1                 0.0000
      8 ****         0.3799   0.3019   0.3204 C.3            1 S1                 0.0000
      9 ****         0.5746   0.6687   1.7938 C.3            1 S1                 0.0000
     10 ****         2.1033   0.7452   1.8968 C.3            1 S1                 0.0000
     11 ****         2.6807   1.9397   1.1239 C.3            1 S1                 0.0000
     12 ****         2.5261   1.4792  -0.3256 C.3            1 S1                 0.0000
     13 ****         1.8316   0.1219  -0.1529 C.3            1 S1                 0.0000
     14 ****         2.4621  -0.3225   1.0377 O.3            1 S1                 0.0000
     15 ****        -2.2941  -2.2767  -0.3812 C.2            1 S1                 0.0000
     16 ****        -1.4047  -3.7061   0.0292 Cl             1 S1                 0.0000
     17 ****        -4.2862   0.7699  -1.2835 H              1 S1                 0.0000
     18 ****        -2.1498   1.0987  -0.5880 H              1 S1                 0.0000
     19 ****         0.1339  -1.7669   0.2105 H              1 S1                 0.0000
     20 ****        -0.0772   1.1217  -0.2335 H              1 S1                 0.0000
     21 ****         0.0905   1.6084   2.0611 H              1 S1                 0.0000
     22 ****         0.1904  -0.1101   2.4545 H              1 S1                 0.0000
     23 ****         2.4827   0.6501   2.9146 H              1 S1                 0.0000
     24 ****         2.1443   2.8658   1.3338 H              1 S1                 0.0000
     25 ****         3.7332   2.0905   1.3670 H              1 S1                 0.0000
     26 ****         1.9448   2.1734  -0.9332 H              1 S1                 0.0000
     27 ****         3.5038   1.3540  -0.7923 H              1 S1                 0.0000
     28 ****         1.9509  -0.5433  -1.0091 H              1 S1                 0.0000
     29 ****        -5.1514  -3.6259  -1.2344 LP             1 S1                 0.0000
     30 ****        -3.6791  -4.3523  -0.6825 LP             1 S1                 0.0000
     31 ****        -5.2935  -1.3175  -1.4637 LP             1 S1                 0.0000
     32 ****         2.0926  -1.1967   1.3529 LP             1 S1                 0.0000
     33 ****         3.4533  -0.3991   0.9300 LP             1 S1                 0.0000
@<TRIPOS>BOND
    1    1    2 2     
    2    2    3 1     
    3    2   15 1     
    4    3    4 1     
    5    4    5 2     
    6    4   17 1     
    7    5    6 1     
    8    5   18 1     
    9    6   15 2     
   10    6    7 1     
   11    7    8 1     
   12    7   19 1     
   13    8   13 1     
   14    8    9 1     
   15    8   20 1     
   16    9   10 1     
   17    9   21 1     
   18    9   22 1     
   19   10   14 1     
   20   10   11 1     
   21   10   23 1     
   22   11   12 1     
   23   11   24 1     
   24   11   25 1     
   25   12   13 1     
   26   12   26 1     
   27   12   27 1     
   28   13   14 1     
   29   13   28 1     
   30   15   16 1     
   31    1   29 1     
   32    1   30 1     
   33    3   31 1     
   34   14   32 1     
   35   14   33 1     
@<TRIPOS>SUBSTRUCTURE
      1 S1             1
@<TRIPOS>SET
LONE_PAIRS      STATIC     ATOMS    <user>   **** ""
5 29 30 31 32 33
DONOR_HYDROGENS      STATIC     ATOMS    <user>   **** ""
2 17 19
ATOM$BLUE        STATIC     ATOMS    COLORGROUP SYSTEM
5 29 30 31 32 33
ATOM$RED        STATIC     ATOMS    COLORGROUP SYSTEM
2 17 19
