AV-unprocessed.smi:867|AV-procd|sdf|3997|dock1
  -GOLD-   22720 1473D 1   1.00000     0.00000
 Structure written by MMmdl.
 53 56  0  0  0  0  0  0  0  0  2 V2000
  148.4672  141.2716  155.4084 O   0  0  0  0  0  0  0  0  0  0  0  0
  149.4517  140.5615  155.2010 C   0  0  0  0  0  0  0  0  0  0  0  0
  150.6727  140.8658  155.6745 N   0  0  0  0  0  0  0  0  0  0  0  0
  151.0108  142.0438  156.4700 C   0  0  0  0  0  0  0  0  0  0  0  0
  150.7526  141.8245  157.9730 C   0  0  0  0  0  0  0  0  0  0  0  0
  151.1638  143.0024  158.8390 C   0  0  0  0  0  0  0  0  0  0  0  0
  152.1115  142.8496  159.8723 C   0  0  0  0  0  0  0  0  0  0  0  0
  152.4775  143.9787  160.6296 C   0  0  0  0  0  0  0  0  0  0  0  0
  151.8742  145.2150  160.3240 C   0  0  0  0  0  0  0  0  0  0  0  0
  150.9632  145.3725  159.3401 N   0  0  0  0  0  0  0  0  0  0  0  0
  150.6195  144.2852  158.6169 C   0  0  0  0  0  0  0  0  0  0  0  0
  149.4162  139.4646  154.4051 N   0  0  0  0  0  0  0  0  0  0  0  0
  150.4545  138.4296  154.3212 C   0  0  0  0  0  0  0  0  0  0  0  0
  149.9754  137.1747  155.0753 C   0  0  0  0  0  0  0  0  0  0  0  0
  148.6589  136.6905  154.5674 N   0  3  0  0  0  0  0  0  0  0  0  0
  148.1596  135.4823  155.2846 C   0  0  1  0  0  0  0  0  0  0  0  0
  146.9978  134.7493  154.5696 C   0  0  0  0  0  0  0  0  0  0  0  0
  147.4616  133.2803  154.5633 C   0  0  1  0  0  0  0  0  0  0  0  0
  148.5491  133.1094  153.4893 C   0  0  0  0  0  0  0  0  0  0  0  0
  149.7451  133.8571  154.1043 C   0  0  0  0  0  0  0  0  0  0  0  0
  149.1920  134.3405  155.4633 C   0  0  2  0  0  0  0  0  0  0  0  0
  148.2767  133.1829  155.8473 C   0  0  0  0  0  0  0  0  0  0  0  0
  147.6439  137.7813  154.5097 C   0  0  0  0  0  0  0  0  0  0  0  0
  148.1807  139.0139  153.7619 C   0  0  0  0  0  0  0  0  0  0  0  0
  151.4359  140.2495  155.4363 H   0  0  0  0  0  0  0  0  0  0  0  0
  152.0492  142.3363  156.3058 H   0  0  0  0  0  0  0  0  0  0  0  0
  150.4036  142.8768  156.1152 H   0  0  0  0  0  0  0  0  0  0  0  0
  149.6928  141.6258  158.1364 H   0  0  0  0  0  0  0  0  0  0  0  0
  151.2823  140.9325  158.3098 H   0  0  0  0  0  0  0  0  0  0  0  0
  152.5583  141.8877  160.0765 H   0  0  0  0  0  0  0  0  0  0  0  0
  153.2030  143.8998  161.4254 H   0  0  0  0  0  0  0  0  0  0  0  0
  152.1309  146.1013  160.8851 H   0  0  0  0  0  0  0  0  0  0  0  0
  149.8948  144.4454  157.8322 H   0  0  0  0  0  0  0  0  0  0  0  0
  150.6322  138.1890  153.2720 H   0  0  0  0  0  0  0  0  0  0  0  0
  151.4212  138.7425  154.7156 H   0  0  0  0  0  0  0  0  0  0  0  0
  150.7334  136.3993  154.9694 H   0  0  0  0  0  0  0  0  0  0  0  0
  149.8919  137.3933  156.1413 H   0  0  0  0  0  0  0  0  0  0  0  0
  147.8232  135.7964  156.2748 H   0  0  0  0  0  0  0  0  0  0  0  0
  146.0699  134.8669  155.1305 H   0  0  0  0  0  0  0  0  0  0  0  0
  146.8185  135.1022  153.5534 H   0  0  0  0  0  0  0  0  0  0  0  0
  146.6457  132.5622  154.4764 H   0  0  0  0  0  0  0  0  0  0  0  0
  148.7895  132.0549  153.3457 H   0  0  0  0  0  0  0  0  0  0  0  0
  148.2517  133.5183  152.5229 H   0  0  0  0  0  0  0  0  0  0  0  0
  150.5826  133.1740  154.2514 H   0  0  0  0  0  0  0  0  0  0  0  0
  150.0944  134.6726  153.4710 H   0  0  0  0  0  0  0  0  0  0  0  0
  149.9655  134.5550  156.2015 H   0  0  0  0  0  0  0  0  0  0  0  0
  147.6901  133.3705  156.7485 H   0  0  0  0  0  0  0  0  0  0  0  0
  148.8017  132.2319  155.9549 H   0  0  0  0  0  0  0  0  0  0  0  0
  146.7367  137.4378  154.0141 H   0  0  0  0  0  0  0  0  0  0  0  0
  147.3583  138.0632  155.5247 H   0  0  0  0  0  0  0  0  0  0  0  0
  147.4187  139.7941  153.7266 H   0  0  0  0  0  0  0  0  0  0  0  0
  148.3887  138.7600  152.7212 H   0  0  0  0  0  0  0  0  0  0  0  0
  148.8199  136.4058  153.6117 H   0  0  0  0  0  0  0  0  0  0  0  0
  1  2  2  0  0  0  0
  2  3  1  0  0  0  0
  2 12  1  0  0  0  0
  3  4  1  0  0  0  0
  3 25  1  0  0  0  0
  4  5  1  0  0  0  0
  4 26  1  0  0  0  0
  4 27  1  0  0  0  0
  5  6  1  0  0  0  0
  5 28  1  0  0  0  0
  5 29  1  0  0  0  0
  6 11  1  0  0  0  0
  6  7  2  0  0  0  0
  7  8  1  0  0  0  0
  7 30  1  0  0  0  0
  8  9  2  0  0  0  0
  8 31  1  0  0  0  0
  9 10  1  0  0  0  0
  9 32  1  0  0  0  0
 10 11  2  0  0  0  0
 11 33  1  0  0  0  0
 12 24  1  0  0  0  0
 12 13  1  0  0  0  0
 13 14  1  0  0  0  0
 13 34  1  0  0  0  0
 13 35  1  0  0  0  0
 14 15  1  0  0  0  0
 14 36  1  0  0  0  0
 14 37  1  0  0  0  0
 15 16  1  0  0  0  0
 15 23  1  0  0  0  0
 15 53  1  0  0  0  0
 16 21  1  0  0  0  0
 16 17  1  0  0  0  0
 16 38  1  0  0  0  0
 17 18  1  0  0  0  0
 17 39  1  0  0  0  0
 17 40  1  0  0  0  0
 18 22  1  0  0  0  0
 18 19  1  0  0  0  0
 18 41  1  0  0  0  0
 19 20  1  0  0  0  0
 19 42  1  0  0  0  0
 19 43  1  0  0  0  0
 20 21  1  0  0  0  0
 20 44  1  0  0  0  0
 20 45  1  0  0  0  0
 21 22  1  0  0  0  0
 21 46  1  0  0  0  0
 22 47  1  0  0  0  0
 22 48  1  0  0  0  0
 23 24  1  0  0  0  0
 23 49  1  0  0  0  0
 23 50  1  0  0  0  0
 24 51  1  0  0  0  0
 24 52  1  0  0  0  0
M  CHG  1  15   1
M  END
> <s_m_source_file>
AV-unprocessed.smi

> <i_m_source_file_index>
867

> <i_lp_mmshare_version>
43012

> <i_f3d_flags>
0

> <s_epik_input>
W0NIMl0xW0NIMl1bQ0BASF0oW0NIMl0yKVtDQEBIXShbQ0gyXVtDQEhdMTIpTihbQ0gyXVtDSDJdMylbQ0gyXVtDSDJdTjNDKD1PKVtOSF1bQ0gyXVtDSDJdYzRbY0hdW2NIXVtjSF1uW2NIXTQ=

> <s_epik_cmdline>
J2VwaWtfcHl0aG9uJywgJy1waCcsICc3LjAnLCAnLXRuJywgJzgnLCAnLW1hJywgJzIwMCcsICctbWV0YWxfYmluZGluZycsICctaW1hZScsICc8aW5maWxlLm1hZT4nLCAnLW9tYWUnLCAnPG91dGZpbGUubWFlPic=

> <r_epik_Ionization_Penalty>
0.0161279

> <r_epik_Ionization_Penalty_Charging>
0.00262064

> <r_epik_Ionization_Penalty_Neutral>
0.0135072

> <r_epik_State_Penalty>
0.0104914

> <r_epik_Charging_Adjusted_Penalty>
0.013112

> <i_epik_Tot_Q>
1

> <i_epik_Tot_abs_Q>
1

> <r_epik_Metal_State_Penalty>
0.0102536

> <b_epik_Metal_Only>
0

> <s_lp_Force_Field>
OPLS_2005

> <r_lp_Energy>
96.5484

> <b_lp_Chiralities_Consistent>
1

> <s_lp_Variant>
AV-unprocessed.smi:867-4

> <Gold.Version>
5.8.1

> <Gold.Id.Protein>
6NUR|6NUR_protein|mol2

> <Gold.PLP.Fitness>
49.6131

> <Gold.PLP.PLP>
-40.8356

> <Gold.PLP.part.hbond>
-1.2789

> <Gold.PLP.part.metal>
0.0000

> <Gold.PLP.part.buried>
-7.0524

> <Gold.PLP.part.nonpolar>
-32.9259

> <Gold.PLP.part.repulsive>
0.4135

> <Gold.PLP.ligand.clash>
0.0000

> <Gold.PLP.ligand.torsion>
0.3379

> <Gold.PLP.Chemscore.Hbond>
2.0000

> <Gold.PLP.Chemscore.CHOScore>
1.1136

> <Gold.PLP.Chemscore.Metal>
0.0000

> <Gold.Chemscore.Hbonds>
donor molecule, donor type, donor heavy atom, donor atom, acceptor molecule, acceptor atom, score
      L1  H    15    53       P1  7948  2.00
      L1  C    11    33       P1  8028  0.76
      L1  C    11    33       P1  8029  0.36

> <Gold.PLP.Chemscore.Internal.Correction>
0.1125

> <Gold.Rescore>
     Score         DG    S(hbond)    S(metal)    S(lipo)     H(rot)  DE(clash)    DE(int)     intcor
     18.47     -18.95       1.00        0.00     116.67       1.37       0.12       0.36       ----

> <Gold.Chemscore.Fitness>
18.4710

> <Gold.Chemscore.DG>
-18.9495

> <Gold.Chemscore.ZeroCoef>
-5.4800

> <Gold.Chemscore.Hbond>
0.9982

> <Gold.Chemscore.Metal>
0.0000

> <Gold.Chemscore.Lipo>
116.6718

> <Gold.Chemscore.Internal_Hbond>
0.0000

> <Gold.Chemscore.DEClash>
0.1202

> <Gold.Chemscore.DEInternal>
0.3584

> <Gold.Chemscore.Rot>
1.3731

> <Gold.Chemscore.Internal.Correction>
   9.000000E+99

> <Gold.Chemscore.Hbonds>
donor molecule, donor type, donor heavy atom, donor atom, acceptor molecule, acceptor atom, score
      L1  H    15    53       P1  7948  1.00

> <Gold.Chemscore.Hbond.Weighted>
-3.3341

> <Gold.Chemscore.Metal.Weighted>
-0.0000

> <Gold.Chemscore.Lipo.Weighted>
-13.6506

> <Gold.Chemscore.Internal_Hbond.Weighted>
0.0000

> <Gold.Chemscore.DEClash.Weighted>
0.1202

> <Gold.Chemscore.DEInternal.Weighted>
0.3584

> <Gold.Chemscore.Rot.Weighted>
3.5152

> <Gold.Chemscore.Internal.Correction.Weighted>
   9.000000E+99

> <Gold.Protein.RotatedTorsions>
[ 6907 6896 6895 6894 ] final   92.52 input  -60.11 | X-H torsion
[ 7974 7965 7964 7962 ] final   52.12 input  175.53 | X-H torsion
[ 8008 7997 7996 7995 ] final  152.95 input   59.86 | X-H torsion
[ 10167 10162 10161 10158 ] final -147.80 input  -65.29 | X-H torsion
[ 10718 10713 10712 10709 ] final   84.71 input   66.30 | X-H torsion
[ 10763 10752 10751 10750 ] final  -88.70 input  -60.55 | X-H torsion
[ 11005 11000 10999 10996 ] final  153.53 input  -57.11 | X-H torsion

> <Gold.Protein.ActiveResidues>
 VAL166  LYS551  ARG553  GLY616  TRP617  ASP618  TYR619  PRO620  LYS621  CYS622 
 ASP623  PHE694  ASN695  SER759  ASP760  ASP761  ALA762  ILE779  LEU786  VAL792 
 PHE793  MET794  SER795  GLU796  ALA797  LYS798  CYS799  TRP800  GLU811  SER814 

> <Gold.Protein.RotatedAtoms>
  152.5452  134.1489  159.8509 H   0  0  0  0  0  0  0  0  0  0  0  0  # atno 6907 bound_to 6896
  151.1518  133.4895  159.2602 H   0  0  0  0  0  0  0  0  0  0  0  0  # atno 6908 bound_to 6896
  151.1465  135.0216  159.8704 H   0  0  0  0  0  0  0  0  0  0  0  0  # atno 6909 bound_to 6896
  145.9845  139.4276  143.0111 H   0  0  0  0  0  0  0  0  0  0  0  0  # atno 7974 bound_to 7965
  156.2605  140.2007  156.6414 H   0  0  0  0  0  0  0  0  0  0  0  0  # atno 8008 bound_to 7997
  154.6607  140.0561  157.0083 H   0  0  0  0  0  0  0  0  0  0  0  0  # atno 8009 bound_to 7997
  155.1281  140.3231  155.4483 H   0  0  0  0  0  0  0  0  0  0  0  0  # atno 8010 bound_to 7997
  139.7589  143.8406  152.2603 H   0  0  0  0  0  0  0  0  0  0  0  0  # atno 10167 bound_to 10162
  157.6903  131.0144  150.2713 H   0  0  0  0  0  0  0  0  0  0  0  0  # atno 10718 bound_to 10713
  154.6474  135.5367  153.7861 H   0  0  0  0  0  0  0  0  0  0  0  0  # atno 10763 bound_to 10752
  153.0367  135.6474  154.1068 H   0  0  0  0  0  0  0  0  0  0  0  0  # atno 10764 bound_to 10752
  154.0988  135.2934  155.3236 H   0  0  0  0  0  0  0  0  0  0  0  0  # atno 10765 bound_to 10752
  140.1406  134.8741  157.2326 H   0  0  0  0  0  0  0  0  0  0  0  0  # atno 11005 bound_to 11000
  145.7720  140.9892  143.1144 LP  0  0  0  0  0  0  0  0  0  0  0  0  # atno 17320 bound_to 7965
  144.6871  139.9459  143.7476 LP  0  0  0  0  0  0  0  0  0  0  0  0  # atno 17321 bound_to 7965
  139.8407  144.7211  150.9335 LP  0  0  0  0  0  0  0  0  0  0  0  0  # atno 17342 bound_to 10162
  140.7805  143.3986  151.1187 LP  0  0  0  0  0  0  0  0  0  0  0  0  # atno 17343 bound_to 10162
  156.3276  130.3795  149.7520 LP  0  0  0  0  0  0  0  0  0  0  0  0  # atno 17370 bound_to 10713
  156.5070  130.8154  151.3154 LP  0  0  0  0  0  0  0  0  0  0  0  0  # atno 17371 bound_to 10713
  140.2726  134.3442  155.7368 LP  0  0  0  0  0  0  0  0  0  0  0  0  # atno 17394 bound_to 11000
  141.2185  133.7432  156.9246 LP  0  0  0  0  0  0  0  0  0  0  0  0  # atno 17395 bound_to 11000

$$$$
