AV-unprocessed.smi:2188|AV-procd|sdf|8880|dock10
  -GOLD-   2272012 83D 1   1.00000     0.00000
 Structure written by MMmdl.
 39 41  0  0  0  0  0  0  0  0  1 V2000
  151.1729  141.1987  155.6993 O   0  0  0  0  0  0  0  0  0  0  0  0
  150.6663  141.4701  156.7892 C   0  0  0  0  0  0  0  0  0  0  0  0
  149.3948  141.1350  157.0826 N   0  0  0  0  0  0  0  0  0  0  0  0
  148.4778  140.4008  156.2146 C   0  0  0  0  0  0  0  0  0  0  0  0
  148.2443  141.1248  154.8753 C   0  0  0  0  0  0  0  0  0  0  0  0
  147.0674  142.0844  154.9011 C   0  0  0  0  0  0  0  0  0  0  0  0
  146.6618  142.7708  153.7375 C   0  0  0  0  0  0  0  0  0  0  0  0
  145.5769  143.6644  153.8205 C   0  0  0  0  0  0  0  0  0  0  0  0
  144.9399  143.8313  155.0665 C   0  0  0  0  0  0  0  0  0  0  0  0
  145.3169  143.1771  156.1860 N   0  0  0  0  0  0  0  0  0  0  0  0
  146.3604  142.3247  156.0984 C   0  0  0  0  0  0  0  0  0  0  0  0
  151.3541  142.1669  157.8886 C   0  0  0  0  0  0  0  0  0  0  0  0
  151.0317  143.4611  158.1484 C   0  0  0  0  0  0  0  0  0  0  0  0
  151.6741  144.2052  159.2033 C   0  0  0  0  0  0  0  0  0  0  0  0
  152.5887  143.5764  159.9494 C   0  0  0  0  0  0  0  0  0  0  0  0
  152.9454  142.2424  159.7580 N   0  0  0  0  0  0  0  0  0  0  0  0
  153.8944  141.6710  160.7084 C   0  0  0  0  0  0  0  0  0  0  0  0
  154.8655  140.7433  160.0007 C   0  0  0  0  0  0  0  0  0  0  0  0
  153.8501  139.3827  159.3218 S   0  0  0  0  0  0  0  0  0  0  0  0
  154.6986  138.5806  158.4274 O   0  0  0  0  0  0  0  0  0  0  0  0
  153.1572  138.7262  160.4416 O   0  0  0  0  0  0  0  0  0  0  0  0
  152.7405  140.2572  158.4227 N   0  0  0  0  0  0  0  0  0  0  0  0
  152.3758  141.4769  158.7011 C   0  0  0  0  0  0  0  0  0  0  0  0
  149.0418  141.3967  157.9914 H   0  0  0  0  0  0  0  0  0  0  0  0
  148.9090  139.4176  156.0256 H   0  0  0  0  0  0  0  0  0  0  0  0
  147.5255  140.2208  156.7162 H   0  0  0  0  0  0  0  0  0  0  0  0
  149.1441  141.6721  154.5909 H   0  0  0  0  0  0  0  0  0  0  0  0
  148.0769  140.3900  154.0869 H   0  0  0  0  0  0  0  0  0  0  0  0
  147.1776  142.6241  152.7999 H   0  0  0  0  0  0  0  0  0  0  0  0
  145.2422  144.2109  152.9515 H   0  0  0  0  0  0  0  0  0  0  0  0
  144.1048  144.5088  155.1663 H   0  0  0  0  0  0  0  0  0  0  0  0
  146.6429  141.8224  157.0121 H   0  0  0  0  0  0  0  0  0  0  0  0
  150.2717  143.9736  157.5759 H   0  0  0  0  0  0  0  0  0  0  0  0
  151.4246  145.2402  159.3853 H   0  0  0  0  0  0  0  0  0  0  0  0
  153.1027  144.0803  160.7553 H   0  0  0  0  0  0  0  0  0  0  0  0
  154.4623  142.4589  161.2043 H   0  0  0  0  0  0  0  0  0  0  0  0
  153.3486  141.1414  161.4899 H   0  0  0  0  0  0  0  0  0  0  0  0
  155.3945  141.2426  159.1882 H   0  0  0  0  0  0  0  0  0  0  0  0
  155.5998  140.3237  160.6880 H   0  0  0  0  0  0  0  0  0  0  0  0
  1  2  2  0  0  0  0
  2  3  1  0  0  0  0
  2 12  1  0  0  0  0
  3  4  1  0  0  0  0
  3 24  1  0  0  0  0
  4  5  1  0  0  0  0
  4 25  1  0  0  0  0
  4 26  1  0  0  0  0
  5  6  1  0  0  0  0
  5 27  1  0  0  0  0
  5 28  1  0  0  0  0
  6 11  1  0  0  0  0
  6  7  2  0  0  0  0
  7  8  1  0  0  0  0
  7 29  1  0  0  0  0
  8  9  2  0  0  0  0
  8 30  1  0  0  0  0
  9 10  1  0  0  0  0
  9 31  1  0  0  0  0
 10 11  2  0  0  0  0
 11 32  1  0  0  0  0
 12 23  1  0  0  0  0
 12 13  2  0  0  0  0
 13 14  1  0  0  0  0
 13 33  1  0  0  0  0
 14 15  2  0  0  0  0
 14 34  1  0  0  0  0
 15 16  1  0  0  0  0
 15 35  1  0  0  0  0
 16 23  1  0  0  0  0
 16 17  1  0  0  0  0
 17 18  1  0  0  0  0
 17 36  1  0  0  0  0
 17 37  1  0  0  0  0
 18 19  1  0  0  0  0
 18 38  1  0  0  0  0
 18 39  1  0  0  0  0
 19 20  2  0  0  0  0
 19 21  2  0  0  0  0
 19 22  1  0  0  0  0
 22 23  2  0  0  0  0
M  END
> <s_m_source_file>
AV-unprocessed.smi

> <i_m_source_file_index>
2188

> <i_lp_mmshare_version>
43012

> <i_f3d_flags>
0

> <s_epik_input>
W0NIMl0xW0NIMl1TKD1PKSg9TylOPUMoTjEyKUMoPVtDSF1bQ0hdPVtDSF0yKUMoPU8pW05IXVtDSDJdW0NIMl1jM1tjSF1bY0hdW2NIXW5bY0hdMw==

> <s_epik_cmdline>
J2VwaWtfcHl0aG9uJywgJy1waCcsICc3LjAnLCAnLXRuJywgJzgnLCAnLW1hJywgJzIwMCcsICctbWV0YWxfYmluZGluZycsICctaW1hZScsICc8aW5maWxlLm1hZT4nLCAnLW9tYWUnLCAnPG91dGZpbGUubWFlPic=

> <r_epik_Ionization_Penalty>
0.00945125

> <r_epik_Ionization_Penalty_Charging>
8.06468e-09

> <r_epik_Ionization_Penalty_Neutral>
0.00945124

> <r_epik_State_Penalty>
0.0071398

> <r_epik_Charging_Adjusted_Penalty>
0.0071398

> <i_epik_Tot_Q>
0

> <i_epik_Tot_abs_Q>
0

> <r_epik_Metal_State_Penalty>
0.0479458

> <b_epik_Metal_Only>
0

> <s_lp_Force_Field>
OPLS_2005

> <r_lp_Energy>
29.0495

> <b_lp_Chiralities_Consistent>
1

> <s_lp_Variant>
AV-unprocessed.smi:2188-1

> <Gold.Version>
5.8.1

> <Gold.Id.Protein>
6NUR|6NUR_protein|mol2

> <Gold.PLP.Fitness>
44.9880

> <Gold.PLP.PLP>
-44.2096

> <Gold.PLP.part.hbond>
-3.0000

> <Gold.PLP.part.metal>
0.0000

> <Gold.PLP.part.buried>
-3.1481

> <Gold.PLP.part.nonpolar>
-37.0170

> <Gold.PLP.part.repulsive>
0.1962

> <Gold.PLP.ligand.clash>
0.0000

> <Gold.PLP.ligand.torsion>
1.5989

> <Gold.PLP.Chemscore.Hbond>
1.2379

> <Gold.PLP.Chemscore.CHOScore>
0.0000

> <Gold.PLP.Chemscore.Metal>
0.0000

> <Gold.Chemscore.Hbonds>
donor molecule, donor type, donor heavy atom, donor atom, acceptor molecule, acceptor atom, score
      P1  H  7989  7998       L1     1  0.25
      P1  H  7997  8008       L1    20  0.84

> <Gold.PLP.Chemscore.Internal.Correction>
0.2625

> <Gold.Rescore>
     Score         DG    S(hbond)    S(metal)    S(lipo)     H(rot)  DE(clash)    DE(int)     intcor
     14.23     -16.32       0.92        0.00      98.56       1.47       0.48       1.61       ----

> <Gold.Chemscore.Fitness>
14.2285

> <Gold.Chemscore.DG>
-16.3203

> <Gold.Chemscore.ZeroCoef>
-5.4800

> <Gold.Chemscore.Hbond>
0.9183

> <Gold.Chemscore.Metal>
0.0000

> <Gold.Chemscore.Lipo>
98.5559

> <Gold.Chemscore.Internal_Hbond>
0.0000

> <Gold.Chemscore.DEClash>
0.4829

> <Gold.Chemscore.DEInternal>
1.6090

> <Gold.Chemscore.Rot>
1.4679

> <Gold.Chemscore.Internal.Correction>
   9.000000E+99

> <Gold.Chemscore.Hbonds>
donor molecule, donor type, donor heavy atom, donor atom, acceptor molecule, acceptor atom, score
      P1  H  7989  7998       L1     1  0.24
      P1  H  7997  8008       L1    20  0.19

> <Gold.Chemscore.Hbond.Weighted>
-3.0671

> <Gold.Chemscore.Metal.Weighted>
-0.0000

> <Gold.Chemscore.Lipo.Weighted>
-11.5310

> <Gold.Chemscore.Internal_Hbond.Weighted>
0.0000

> <Gold.Chemscore.DEClash.Weighted>
0.4829

> <Gold.Chemscore.DEInternal.Weighted>
1.6090

> <Gold.Chemscore.Rot.Weighted>
3.7578

> <Gold.Chemscore.Internal.Correction.Weighted>
   9.000000E+99

> <Gold.Protein.RotatedTorsions>
[ 6907 6896 6895 6894 ] final  114.45 input  -60.11 | X-H torsion
[ 7974 7965 7964 7962 ] final   29.76 input  175.53 | X-H torsion
[ 8008 7997 7996 7995 ] final -138.47 input   59.86 | X-H torsion
[ 10167 10162 10161 10158 ] final  178.50 input  -65.29 | X-H torsion
[ 10718 10713 10712 10709 ] final -123.44 input   66.30 | X-H torsion
[ 10763 10752 10751 10750 ] final    0.82 input  -60.55 | X-H torsion
[ 11005 11000 10999 10996 ] final -107.15 input  -57.11 | X-H torsion

> <Gold.Protein.ActiveResidues>
 VAL166  LYS551  ARG553  GLY616  TRP617  ASP618  TYR619  PRO620  LYS621  CYS622 
 ASP623  PHE694  ASN695  SER759  ASP760  ASP761  ALA762  ILE779  LEU786  VAL792 
 PHE793  MET794  SER795  GLU796  ALA797  LYS798  CYS799  TRP800  GLU811  SER814 

> <Gold.Protein.RotatedAtoms>
  152.4801  133.8234  159.7065 H   0  0  0  0  0  0  0  0  0  0  0  0  # atno 6907 bound_to 6896
  150.8845  133.7317  159.2929 H   0  0  0  0  0  0  0  0  0  0  0  0  # atno 6908 bound_to 6896
  151.4810  135.1056  159.9830 H   0  0  0  0  0  0  0  0  0  0  0  0  # atno 6909 bound_to 6896
  146.1652  139.6879  142.9006 H   0  0  0  0  0  0  0  0  0  0  0  0  # atno 7974 bound_to 7965
  155.4288  140.0523  157.3020 H   0  0  0  0  0  0  0  0  0  0  0  0  # atno 8008 bound_to 7997
  154.4869  140.2104  155.9593 H   0  0  0  0  0  0  0  0  0  0  0  0  # atno 8009 bound_to 7997
  156.1288  140.3175  155.8322 H   0  0  0  0  0  0  0  0  0  0  0  0  # atno 8010 bound_to 7997
  139.5296  144.2673  152.0657 H   0  0  0  0  0  0  0  0  0  0  0  0  # atno 10167 bound_to 10162
  156.1502  130.6529  150.9902 H   0  0  0  0  0  0  0  0  0  0  0  0  # atno 10718 bound_to 10713
  153.3159  135.6966  153.7074 H   0  0  0  0  0  0  0  0  0  0  0  0  # atno 10763 bound_to 10752
  153.5933  135.3476  155.2919 H   0  0  0  0  0  0  0  0  0  0  0  0  # atno 10764 bound_to 10752
  154.8586  135.4323  154.2309 H   0  0  0  0  0  0  0  0  0  0  0  0  # atno 10765 bound_to 10752
  141.0969  133.8955  157.1941 H   0  0  0  0  0  0  0  0  0  0  0  0  # atno 11005 bound_to 11000
  145.4484  141.0427  143.2818 LP  0  0  0  0  0  0  0  0  0  0  0  0  # atno 17320 bound_to 7965
  144.8083  139.6010  143.7041 LP  0  0  0  0  0  0  0  0  0  0  0  0  # atno 17321 bound_to 7965
  140.2134  144.4539  150.6375 LP  0  0  0  0  0  0  0  0  0  0  0  0  # atno 17342 bound_to 10162
  140.6465  143.2215  151.6173 LP  0  0  0  0  0  0  0  0  0  0  0  0  # atno 17343 bound_to 10162
  157.6651  131.0873  150.7748 LP  0  0  0  0  0  0  0  0  0  0  0  0  # atno 17370 bound_to 10713
  156.7817  130.4861  149.5400 LP  0  0  0  0  0  0  0  0  0  0  0  0  # atno 17371 bound_to 10713
  139.9808  135.0099  156.9745 LP  0  0  0  0  0  0  0  0  0  0  0  0  # atno 17394 bound_to 11000
  140.5118  134.0994  155.7272 LP  0  0  0  0  0  0  0  0  0  0  0  0  # atno 17395 bound_to 11000

$$$$
