#       Name:                AV-unprocessed.smi:148
#       Creating user name   scv26
#       Creation time:       Thu Mar 26 18:42:25 2020


#       File generated by GOLD software.
#

@<TRIPOS>MOLECULE
AV-unprocessed.smi:148
    73    77     1
SMALL
NO_CHARGES


@<TRIPOS>ATOM
      1 ****        -3.1473  -3.1679   1.0648 O.3            1 S1                 0.0000
      2 ****        -3.6532  -1.8590   1.2297 C.3            1 S1                 0.0000
      3 ****        -3.1132  -1.2029   2.5242 C.3            1 S1                 0.0000
      4 ****        -1.5747  -1.0239   2.5069 C.3            1 S1                 0.0000
      5 ****        -1.0889  -0.3432   1.3189 N.pl3          1 S1                 0.0000
      6 ****        -1.2374   0.9925   1.0193 C.2            1 S1                 0.0000
      7 ****        -0.7082   1.3723  -0.1121 N.2            1 S1                 0.0000
      8 ****        -0.1466   0.2103  -0.6247 C.ar           1 S1                 0.0000
      9 ****         0.5884  -0.0944  -1.7999 C.ar           1 S1                 0.0000
     10 ****         0.8800   0.8468  -2.7239 N.3            1 S1                 0.0000
     11 ****         0.1778   0.5504  -3.9750 C.3            1 S1                 0.0000
     12 ****         0.2447   1.7307  -4.9486 C.3            1 S1                 0.0000
     13 ****         1.7044   2.1111  -5.1998 C.3            1 S1                 0.0000
     14 ****         2.4012   2.4119  -3.8667 C.3            1 S1                 0.0000
     15 ****         2.2994   1.2378  -2.8549 C.3            1 S1                 0.0000
     16 ****         2.9767   1.6298  -1.4940 C.3            1 S1                 0.0000
     17 ****         4.3069   2.3965  -1.6218 C.3            1 S1                 0.0000
     18 ****         4.9967   2.3003  -0.2570 C.3            1 S1                 0.0000
     19 ****         4.3308   1.1305   0.4758 C.3            1 S1                 0.0000
     20 ****         3.3701   0.4859  -0.5299 C.3            1 S1                 0.0000
     21 ****         4.0507  -0.5511  -1.2117 O.3            1 S1                 0.0000
     22 ****         0.9976  -1.3778  -1.9838 N.ar           1 S1                 0.0000
     23 ****         0.7104  -2.3052  -1.0650 C.ar           1 S1                 0.0000
     24 ****         0.0409  -2.1653   0.0817 N.ar           1 S1                 0.0000
     25 ****        -0.3733  -0.8781   0.2623 C.ar           1 S1                 0.0000
     26 ****        -3.5876  -1.9470   3.7980 C.3            1 S1                 0.0000
     27 ****        -3.2064  -1.2809   5.1083 C.3            1 S1                 0.0000
     28 ****        -4.1639  -1.9437   6.0914 C.3            1 S1                 0.0000
     29 ****        -5.3599  -2.1753   5.3567 O.3            1 S1                 0.0000
     30 ****        -5.1093  -2.0349   3.9612 C.3            1 S1                 0.0000
     31 ****        -3.4761  -3.5183   0.2510 H              1 S1                 0.0000
     32 ****        -3.3902  -1.2693   0.3515 H              1 S1                 0.0000
     33 ****        -4.7420  -1.9052   1.2428 H              1 S1                 0.0000
     34 ****        -3.5444  -0.2014   2.5605 H              1 S1                 0.0000
     35 ****        -1.2454  -0.4469   3.3711 H              1 S1                 0.0000
     36 ****        -1.0820  -1.9942   2.5807 H              1 S1                 0.0000
     37 ****        -1.7572   1.6801   1.6708 H              1 S1                 0.0000
     38 ****         0.6202  -0.3309  -4.4424 H              1 S1                 0.0000
     39 ****        -0.8668   0.3104  -3.7693 H              1 S1                 0.0000
     40 ****        -0.2447   1.4708  -5.8874 H              1 S1                 0.0000
     41 ****        -0.2969   2.5829  -4.5361 H              1 S1                 0.0000
     42 ****         2.2185   1.2955  -5.7101 H              1 S1                 0.0000
     43 ****         1.7599   2.9782  -5.8583 H              1 S1                 0.0000
     44 ****         3.4422   2.6480  -4.0847 H              1 S1                 0.0000
     45 ****         1.9645   3.3108  -3.4286 H              1 S1                 0.0000
     46 ****         2.8367   0.3939  -3.2889 H              1 S1                 0.0000
     47 ****         2.2902   2.2898  -0.9602 H              1 S1                 0.0000
     48 ****         4.9385   1.9190  -2.3727 H              1 S1                 0.0000
     49 ****         4.1647   3.4349  -1.9232 H              1 S1                 0.0000
     50 ****         6.0695   2.1434  -0.3744 H              1 S1                 0.0000
     51 ****         4.8610   3.2226   0.3094 H              1 S1                 0.0000
     52 ****         5.0559   0.4234   0.8813 H              1 S1                 0.0000
     53 ****         3.7597   1.5196   1.3198 H              1 S1                 0.0000
     54 ****         2.5219   0.0565  -0.0011 H              1 S1                 0.0000
     55 ****         3.4493  -0.9526  -1.8208 H              1 S1                 0.0000
     56 ****         1.0709  -3.3008  -1.2774 H              1 S1                 0.0000
     57 ****        -3.1802  -2.9595   3.8020 H              1 S1                 0.0000
     58 ****        -2.1616  -1.4313   5.3813 H              1 S1                 0.0000
     59 ****        -3.3989  -0.2078   5.0637 H              1 S1                 0.0000
     60 ****        -3.7659  -2.9049   6.4194 H              1 S1                 0.0000
     61 ****        -4.3473  -1.3324   6.9753 H              1 S1                 0.0000
     62 ****        -5.5902  -1.1167   3.6213 H              1 S1                 0.0000
     63 ****        -5.5391  -2.8664   3.4019 H              1 S1                 0.0000
     64 ****        -3.4480  -3.7434   1.8253 LP             1 S1                 0.0000
     65 ****        -2.1479  -3.1422   1.0411 LP             1 S1                 0.0000
     66 ****        -0.7075   2.2873  -0.5157 LP             1 S1                 0.0000
     67 ****         0.5192   1.7105  -2.3719 LP             1 S1                 0.0000
     68 ****         4.3717  -1.2332  -0.5548 LP             1 S1                 0.0000
     69 ****         4.8320  -0.1728  -1.7082 LP             1 S1                 0.0000
     70 ****         1.5120  -1.6273  -2.8042 LP             1 S1                 0.0000
     71 ****        -0.1346  -2.9094   0.7262 LP             1 S1                 0.0000
     72 ****        -6.0543  -1.5124   5.6368 LP             1 S1                 0.0000
     73 ****        -5.6888  -3.1012   5.5426 LP             1 S1                 0.0000
@<TRIPOS>BOND
    1    1    2 1     
    2    1   31 1     
    3    2    3 1     
    4    2   32 1     
    5    2   33 1     
    6    3    4 1     
    7    3   26 1     
    8    3   34 1     
    9    4    5 1     
   10    4   35 1     
   11    4   36 1     
   12    5   25 1     
   13    5    6 1     
   14    6    7 2     
   15    6   37 1     
   16    7    8 1     
   17    8   25 ar    
   18    8    9 ar    
   19    9   10 1     
   20    9   22 ar    
   21   10   15 1     
   22   10   11 1     
   23   11   12 1     
   24   11   38 1     
   25   11   39 1     
   26   12   13 1     
   27   12   40 1     
   28   12   41 1     
   29   13   14 1     
   30   13   42 1     
   31   13   43 1     
   32   14   15 1     
   33   14   44 1     
   34   14   45 1     
   35   15   16 1     
   36   15   46 1     
   37   16   20 1     
   38   16   17 1     
   39   16   47 1     
   40   17   18 1     
   41   17   48 1     
   42   17   49 1     
   43   18   19 1     
   44   18   50 1     
   45   18   51 1     
   46   19   20 1     
   47   19   52 1     
   48   19   53 1     
   49   20   21 1     
   50   20   54 1     
   51   21   55 1     
   52   22   23 ar    
   53   23   24 ar    
   54   23   56 1     
   55   24   25 ar    
   56   26   30 1     
   57   26   27 1     
   58   26   57 1     
   59   27   28 1     
   60   27   58 1     
   61   27   59 1     
   62   28   29 1     
   63   28   60 1     
   64   28   61 1     
   65   29   30 1     
   66   30   62 1     
   67   30   63 1     
   68    1   64 1     
   69    1   65 1     
   70    7   66 1     
   71   10   67 1     
   72   21   68 1     
   73   21   69 1     
   74   22   70 1     
   75   24   71 1     
   76   29   72 1     
   77   29   73 1     
@<TRIPOS>SUBSTRUCTURE
      1 S1             1
@<TRIPOS>SET
LONE_PAIRS      STATIC     ATOMS    <user>   **** ""
10 64 65 66 67 68 69 70 71 72 73
DONOR_HYDROGENS      STATIC     ATOMS    <user>   **** ""
2 31 55
ATOM$BLUE        STATIC     ATOMS    COLORGROUP SYSTEM
10 64 65 66 67 68 69 70 71 72 73
ATOM$RED        STATIC     ATOMS    COLORGROUP SYSTEM
2 31 55
