#       Name:                AV-unprocessed.smi:470
#       Creating user name   scv26
#       Creation time:       Thu Mar 26 23:06:51 2020


#       File generated by GOLD software.
#

@<TRIPOS>MOLECULE
AV-unprocessed.smi:470
    38    39     1
SMALL
NO_CHARGES


@<TRIPOS>ATOM
      1 ****        -3.1621  -0.6477  -1.6581 N.am           1 S1                 0.0000
      2 ****        -2.8839  -0.5227  -2.9593 C.2            1 S1                 0.0000
      3 ****        -3.5132   0.2352  -3.6951 O.2            1 S1                 0.0000
      4 ****        -1.7444  -1.3786  -3.5191 C.3            1 S1                 0.0000
      5 ****        -0.4276  -0.9417  -2.9461 C.2            1 S1                 0.0000
      6 ****         0.3967   0.0426  -3.4267 C.2            1 S1                 0.0000
      7 ****         1.8196   0.2275  -2.4420 S.3            1 S1                 0.0000
      8 ****         1.2347  -1.0496  -1.3741 C.2            1 S1                 0.0000
      9 ****         1.8777  -1.4988  -0.2825 N.pl3          1 S1                -1.0000
     10 ****         1.6700  -1.0378   0.9840 C.2            1 S1                 0.0000
     11 ****         2.2692  -1.4468   1.9765 O.2            1 S1                 0.0000
     12 ****         0.6033   0.0843   1.1652 C.3            1 S1                 0.0000
     13 ****         1.2114   1.4980   0.9858 C.3            1 S1                 0.0000
     14 ****         1.8560   2.0432   2.2477 C.2            1 S1                 0.0000
     15 ****         1.6114   1.5599   3.4766 C.2            1 S1                 0.0000
     16 ****         0.6682   0.4043   3.7534 C.3            1 S1                 0.0000
     17 ****        -0.1573  -0.0051   2.5130 C.3            1 S1                 0.0000
     18 ****         0.0756  -1.5640  -1.8003 N.2            1 S1                 0.0000
     19 ****        -3.8910  -0.0863  -1.2428 H              1 S1                 0.0000
     20 ****        -2.6259  -1.2889  -1.0904 H              1 S1                 0.0000
     21 ****        -1.9409  -2.4271  -3.2911 H              1 S1                 0.0000
     22 ****        -1.7325  -1.2975  -4.6067 H              1 S1                 0.0000
     23 ****         0.2526   0.6697  -4.2935 H              1 S1                 0.0000
     24 ****        -0.1741  -0.0350   0.4120 H              1 S1                 0.0000
     25 ****         1.9638   1.4970   0.1976 H              1 S1                 0.0000
     26 ****         0.4393   2.1997   0.6695 H              1 S1                 0.0000
     27 ****         2.5278   2.8800   2.1262 H              1 S1                 0.0000
     28 ****         2.1089   1.9945   4.3309 H              1 S1                 0.0000
     29 ****         1.2597  -0.4351   4.1183 H              1 S1                 0.0000
     30 ****        -0.0035   0.6802   4.5665 H              1 S1                 0.0000
     31 ****        -1.0246   0.6533   2.4496 H              1 S1                 0.0000
     32 ****        -0.5631  -1.0075   2.6556 H              1 S1                 0.0000
     33 ****        -4.2621   0.7846  -3.3244 LP             1 S1                 0.0000
     34 ****        -3.2762   0.3023  -4.6643 LP             1 S1                 0.0000
     35 ****         2.5564  -2.2223  -0.4080 LP             1 S1                 0.0000
     36 ****         2.9601  -2.1637   1.8833 LP             1 S1                 0.0000
     37 ****         2.0656  -1.0626   2.8770 LP             1 S1                 0.0000
     38 ****        -0.3874  -2.3227  -1.3420 LP             1 S1                 0.0000
@<TRIPOS>BOND
    1    1    2 am    
    2    1   19 1     
    3    1   20 1     
    4    2    3 2     
    5    2    4 1     
    6    4    5 1     
    7    4   21 1     
    8    4   22 1     
    9    5   18 1     
   10    5    6 2     
   11    6    7 1     
   12    6   23 1     
   13    7    8 1     
   14    8    9 1     
   15    8   18 2     
   16    9   10 1     
   17   10   11 2     
   18   10   12 1     
   19   12   17 1     
   20   12   13 1     
   21   12   24 1     
   22   13   14 1     
   23   13   25 1     
   24   13   26 1     
   25   14   15 2     
   26   14   27 1     
   27   15   16 1     
   28   15   28 1     
   29   16   17 1     
   30   16   29 1     
   31   16   30 1     
   32   17   31 1     
   33   17   32 1     
   34    3   33 1     
   35    3   34 1     
   36    9   35 1     
   37   11   36 1     
   38   11   37 1     
   39   18   38 1     
@<TRIPOS>SUBSTRUCTURE
      1 S1             1
@<TRIPOS>SET
LONE_PAIRS      STATIC     ATOMS    <user>   **** ""
6 33 34 35 36 37 38
DONOR_HYDROGENS      STATIC     ATOMS    <user>   **** ""
2 19 20
ATOM$BLUE        STATIC     ATOMS    COLORGROUP SYSTEM
6 33 34 35 36 37 38
ATOM$RED        STATIC     ATOMS    COLORGROUP SYSTEM
2 19 20
