AV-unprocessed.smi:2714|AV-procd|sdf|10480|dock4
  -GOLD-   2272014523D 1   1.00000     0.00000
 Structure written by MMmdl.
 46 47  0  0  0  0  0  0  0  0  1 V2000
  152.8594  143.3270  162.3055 C   0  0  0  0  0  0  0  0  0  0  0  0
  152.5685  142.1745  161.3383 C   0  0  0  0  0  0  0  0  0  0  0  0
  153.3349  142.3133  160.0102 C   0  0  0  0  0  0  0  0  0  0  0  0
  152.6404  143.2176  158.9683 C   0  0  2  0  0  0  0  0  0  0  0  0
  152.3402  144.6062  159.5588 C   0  0  0  0  0  0  0  0  0  0  0  0
  151.3499  142.5837  158.4277 C   0  0  0  0  0  0  0  0  0  0  0  0
  150.4094  142.3435  159.1854 O   0  0  0  0  0  0  0  0  0  0  0  0
  151.3172  142.3291  157.1114 N   0  0  0  0  0  0  0  0  0  0  0  0
  150.1643  141.8090  156.3843 C   0  0  0  0  0  0  0  0  0  0  0  0
  150.4702  140.5506  155.5782 C   0  0  0  0  0  0  0  0  0  0  0  0
  151.7831  140.0332  155.5701 C   0  0  0  0  0  0  0  0  0  0  0  0
  152.0584  138.8704  154.8277 C   0  0  0  0  0  0  0  0  0  0  0  0
  151.0047  138.2668  154.1174 C   0  0  0  0  0  0  0  0  0  0  0  0
  149.7450  138.7499  154.1115 N   0  0  0  0  0  0  0  0  0  0  0  0
  149.4772  139.8696  154.8265 C   0  0  0  0  0  0  0  0  0  0  0  0
  148.1579  140.3479  154.8014 N   0  0  0  0  0  0  0  0  0  0  0  0
  147.4685  140.2755  156.0819 C   0  0  0  0  0  0  0  0  0  0  0  0
  145.9889  140.6547  155.8961 C   0  0  0  0  0  0  0  0  0  0  0  0
  145.8949  141.9430  155.2926 O   0  0  0  0  0  0  0  0  0  0  0  0
  146.5159  141.9840  154.0103 C   0  0  0  0  0  0  0  0  0  0  0  0
  148.0088  141.6434  154.1518 C   0  0  0  0  0  0  0  0  0  0  0  0
  152.3024  143.2045  163.2343 H   0  0  0  0  0  0  0  0  0  0  0  0
  152.5760  144.2860  161.8711 H   0  0  0  0  0  0  0  0  0  0  0  0
  153.9193  143.3727  162.5572 H   0  0  0  0  0  0  0  0  0  0  0  0
  152.8333  141.2310  161.8167 H   0  0  0  0  0  0  0  0  0  0  0  0
  151.4950  142.1354  161.1514 H   0  0  0  0  0  0  0  0  0  0  0  0
  154.3428  142.6815  160.2083 H   0  0  0  0  0  0  0  0  0  0  0  0
  153.4620  141.3193  159.5796 H   0  0  0  0  0  0  0  0  0  0  0  0
  153.3278  143.3632  158.1328 H   0  0  0  0  0  0  0  0  0  0  0  0
  151.8339  145.2468  158.8358 H   0  0  0  0  0  0  0  0  0  0  0  0
  153.2604  145.1122  159.8515 H   0  0  0  0  0  0  0  0  0  0  0  0
  151.7061  144.5377  160.4438 H   0  0  0  0  0  0  0  0  0  0  0  0
  152.1364  142.5516  156.5647 H   0  0  0  0  0  0  0  0  0  0  0  0
  149.3817  141.5748  157.1063 H   0  0  0  0  0  0  0  0  0  0  0  0
  149.7576  142.5874  155.7366 H   0  0  0  0  0  0  0  0  0  0  0  0
  152.5711  140.5173  156.1283 H   0  0  0  0  0  0  0  0  0  0  0  0
  153.0532  138.4507  154.8051 H   0  0  0  0  0  0  0  0  0  0  0  0
  151.1777  137.3721  153.5378 H   0  0  0  0  0  0  0  0  0  0  0  0
  147.5506  139.2674  156.4903 H   0  0  0  0  0  0  0  0  0  0  0  0
  147.9404  140.9545  156.7932 H   0  0  0  0  0  0  0  0  0  0  0  0
  145.4740  139.9162  155.2795 H   0  0  0  0  0  0  0  0  0  0  0  0
  145.4814  140.6751  156.8607 H   0  0  0  0  0  0  0  0  0  0  0  0
  146.0211  141.2875  153.3312 H   0  0  0  0  0  0  0  0  0  0  0  0
  146.3955  142.9812  153.5874 H   0  0  0  0  0  0  0  0  0  0  0  0
  148.5115  142.4122  154.7402 H   0  0  0  0  0  0  0  0  0  0  0  0
  148.4849  141.6232  153.1711 H   0  0  0  0  0  0  0  0  0  0  0  0
  1  2  1  0  0  0  0
  1 22  1  0  0  0  0
  1 23  1  0  0  0  0
  1 24  1  0  0  0  0
  2  3  1  0  0  0  0
  2 25  1  0  0  0  0
  2 26  1  0  0  0  0
  3  4  1  0  0  0  0
  3 27  1  0  0  0  0
  3 28  1  0  0  0  0
  4  5  1  0  0  0  0
  4  6  1  0  0  0  0
  4 29  1  0  0  0  0
  5 30  1  0  0  0  0
  5 31  1  0  0  0  0
  5 32  1  0  0  0  0
  6  7  2  0  0  0  0
  6  8  1  0  0  0  0
  8  9  1  0  0  0  0
  8 33  1  0  0  0  0
  9 10  1  0  0  0  0
  9 34  1  0  0  0  0
  9 35  1  0  0  0  0
 10 15  1  0  0  0  0
 10 11  2  0  0  0  0
 11 12  1  0  0  0  0
 11 36  1  0  0  0  0
 12 13  2  0  0  0  0
 12 37  1  0  0  0  0
 13 14  1  0  0  0  0
 13 38  1  0  0  0  0
 14 15  2  0  0  0  0
 15 16  1  0  0  0  0
 16 21  1  0  0  0  0
 16 17  1  0  0  0  0
 17 18  1  0  0  0  0
 17 39  1  0  0  0  0
 17 40  1  0  0  0  0
 18 19  1  0  0  0  0
 18 41  1  0  0  0  0
 18 42  1  0  0  0  0
 19 20  1  0  0  0  0
 20 21  1  0  0  0  0
 20 43  1  0  0  0  0
 20 44  1  0  0  0  0
 21 45  1  0  0  0  0
 21 46  1  0  0  0  0
M  END
> <s_m_source_file>
AV-unprocessed.smi

> <i_m_source_file_index>
2714

> <i_lp_mmshare_version>
43012

> <i_f3d_flags>
0

> <s_epik_input>
W0NIM11bQ0gyXVtDSDJdW0NASF0oW0NIM10pQyg9TylbTkhdW0NIMl1jMVtjSF1bY0hdW2NIXW5jMU4yW0NIMl1bQ0gyXU9bQ0gyXVtDSDJdMg==

> <s_epik_cmdline>
J2VwaWtfcHl0aG9uJywgJy1waCcsICc3LjAnLCAnLXRuJywgJzgnLCAnLW1hJywgJzIwMCcsICctbWV0YWxfYmluZGluZycsICctaW1hZScsICc8aW5maWxlLm1hZT4nLCAnLW9tYWUnLCAnPG91dGZpbGUubWFlPic=

> <r_lp_tautomer_probability>
1

> <r_epik_Ionization_Penalty>
0.00517355

> <r_epik_Ionization_Penalty_Charging>
0

> <r_epik_Ionization_Penalty_Neutral>
0.00517355

> <r_epik_State_Penalty>
0.00376978

> <r_epik_Charging_Adjusted_Penalty>
0.00376978

> <i_epik_Tot_Q>
0

> <i_epik_Tot_abs_Q>
0

> <r_epik_Metal_State_Penalty>
-0

> <b_epik_Metal_Only>
0

> <s_lp_Force_Field>
OPLS_2005

> <r_lp_Energy>
18.1949

> <b_lp_Chiralities_Consistent>
1

> <s_lp_Variant>
AV-unprocessed.smi:2714-1

> <Gold.Version>
5.8.1

> <Gold.Id.Protein>
6NUR|6NUR_protein|mol2

> <Gold.PLP.Fitness>
49.6997

> <Gold.PLP.PLP>
-46.9999

> <Gold.PLP.part.hbond>
-1.0000

> <Gold.PLP.part.metal>
0.0000

> <Gold.PLP.part.buried>
-4.3337

> <Gold.PLP.part.nonpolar>
-41.6987

> <Gold.PLP.part.repulsive>
0.5512

> <Gold.PLP.ligand.clash>
0.0000

> <Gold.PLP.ligand.torsion>
0.2557

> <Gold.PLP.Chemscore.Hbond>
0.0000

> <Gold.PLP.Chemscore.CHOScore>
1.0000

> <Gold.PLP.Chemscore.Metal>
0.0000

> <Gold.Chemscore.Hbonds>
donor molecule, donor type, donor heavy atom, donor atom, acceptor molecule, acceptor atom, score
      L1  C    13    38       P1  7949  1.00

> <Gold.PLP.Chemscore.Internal.Correction>
0.2112

> <Gold.Rescore>
     Score         DG    S(hbond)    S(metal)    S(lipo)     H(rot)  DE(clash)    DE(int)     intcor
     14.34     -14.72       0.00        0.00     116.56       1.72       0.01       0.37       ----

> <Gold.Chemscore.Fitness>
14.3396

> <Gold.Chemscore.DG>
-14.7160

> <Gold.Chemscore.ZeroCoef>
-5.4800

> <Gold.Chemscore.Hbond>
0.0000

> <Gold.Chemscore.Metal>
0.0000

> <Gold.Chemscore.Lipo>
116.5570

> <Gold.Chemscore.Internal_Hbond>
0.0000

> <Gold.Chemscore.DEClash>
0.0113

> <Gold.Chemscore.DEInternal>
0.3652

> <Gold.Chemscore.Rot>
1.7192

> <Gold.Chemscore.Internal.Correction>
   9.000000E+99

> <Gold.Chemscore.Hbond.Weighted>
-0.0000

> <Gold.Chemscore.Metal.Weighted>
-0.0000

> <Gold.Chemscore.Lipo.Weighted>
-13.6372

> <Gold.Chemscore.Internal_Hbond.Weighted>
0.0000

> <Gold.Chemscore.DEClash.Weighted>
0.0113

> <Gold.Chemscore.DEInternal.Weighted>
0.3652

> <Gold.Chemscore.Rot.Weighted>
4.4011

> <Gold.Chemscore.Internal.Correction.Weighted>
   9.000000E+99

> <Gold.Protein.RotatedTorsions>
[ 6907 6896 6895 6894 ] final  -39.68 input  -60.11 | X-H torsion
[ 7974 7965 7964 7962 ] final  134.09 input  175.53 | X-H torsion
[ 8008 7997 7996 7995 ] final -173.14 input   59.86 | X-H torsion
[ 10167 10162 10161 10158 ] final  132.56 input  -65.29 | X-H torsion
[ 10718 10713 10712 10709 ] final  120.08 input   66.30 | X-H torsion
[ 10763 10752 10751 10750 ] final  -82.54 input  -60.55 | X-H torsion
[ 11005 11000 10999 10996 ] final   60.25 input  -57.11 | X-H torsion

> <Gold.Protein.ActiveResidues>
 VAL166  LYS551  ARG553  GLY616  TRP617  ASP618  TYR619  PRO620  LYS621  CYS622 
 ASP623  PHE694  ASN695  SER759  ASP760  ASP761  ALA762  ILE779  LEU786  VAL792 
 PHE793  MET794  SER795  GLU796  ALA797  LYS798  CYS799  TRP800  GLU811  SER814 

> <Gold.Protein.RotatedAtoms>
  150.9874  134.9217  159.7879 H   0  0  0  0  0  0  0  0  0  0  0  0  # atno 6907 bound_to 6896
  152.5241  134.3327  159.9199 H   0  0  0  0  0  0  0  0  0  0  0  0  # atno 6908 bound_to 6896
  151.3334  133.3950  159.2699 H   0  0  0  0  0  0  0  0  0  0  0  0  # atno 6909 bound_to 6896
  144.9799  139.4515  143.5391 H   0  0  0  0  0  0  0  0  0  0  0  0  # atno 7974 bound_to 7965
  155.9536  140.1131  157.0956 H   0  0  0  0  0  0  0  0  0  0  0  0  # atno 8008 bound_to 7997
  154.4115  140.1196  156.5151 H   0  0  0  0  0  0  0  0  0  0  0  0  # atno 8009 bound_to 7997
  155.6811  140.3473  155.4858 H   0  0  0  0  0  0  0  0  0  0  0  0  # atno 8010 bound_to 7997
  139.5334  144.6656  151.4869 H   0  0  0  0  0  0  0  0  0  0  0  0  # atno 10167 bound_to 10162
  157.5916  131.1063  150.7986 H   0  0  0  0  0  0  0  0  0  0  0  0  # atno 10718 bound_to 10713
  154.5769  135.5588  153.7148 H   0  0  0  0  0  0  0  0  0  0  0  0  # atno 10763 bound_to 10752
  153.0068  135.6310  154.2036 H   0  0  0  0  0  0  0  0  0  0  0  0  # atno 10764 bound_to 10752
  154.1977  135.2879  155.2981 H   0  0  0  0  0  0  0  0  0  0  0  0  # atno 10765 bound_to 10752
  140.0245  134.6103  155.9592 H   0  0  0  0  0  0  0  0  0  0  0  0  # atno 11005 bound_to 11000
  146.3405  139.9065  142.8786 LP  0  0  0  0  0  0  0  0  0  0  0  0  # atno 17320 bound_to 7965
  145.2436  141.0018  143.3922 LP  0  0  0  0  0  0  0  0  0  0  0  0  # atno 17321 bound_to 7965
  140.6527  143.8664  150.6802 LP  0  0  0  0  0  0  0  0  0  0  0  0  # atno 17342 bound_to 10162
  140.2033  143.3941  152.1774 LP  0  0  0  0  0  0  0  0  0  0  0  0  # atno 17343 bound_to 10162
  156.8407  130.5047  149.5321 LP  0  0  0  0  0  0  0  0  0  0  0  0  # atno 17370 bound_to 10713
  156.0972  130.5941  150.9833 LP  0  0  0  0  0  0  0  0  0  0  0  0  # atno 17371 bound_to 10713
  141.1794  133.6544  156.4959 LP  0  0  0  0  0  0  0  0  0  0  0  0  # atno 17394 bound_to 11000
  140.4330  134.7084  157.4952 LP  0  0  0  0  0  0  0  0  0  0  0  0  # atno 17395 bound_to 11000

$$$$
