AV-unprocessed.smi:2584|AV-procd|sdf|10143|dock6
  -GOLD-   2272014153D 1   1.00000     0.00000
 Structure written by MMmdl.
 35 36  0  0  0  0  0  0  0  0  2 V2000
  150.4941  134.7666  155.9620 O   0  0  0  0  0  0  0  0  0  0  0  0
  150.1127  135.2301  154.8869 C   0  0  0  0  0  0  0  0  0  0  0  0
  149.2204  134.6173  154.0955 N   0  0  0  0  0  0  0  0  0  0  0  0
  148.6049  133.3259  154.3795 C   0  0  0  0  0  0  0  0  0  0  0  0
  148.9914  132.2674  153.3277 C   0  0  0  0  0  0  0  0  0  0  0  0
  147.9178  132.0460  152.3264 N   0  3  0  0  0  0  0  0  0  0  0  0
  147.3586  133.3239  151.8119 C   0  0  0  0  0  0  0  0  0  0  0  0
  146.3471  133.0750  150.6802 C   0  0  0  0  0  0  0  0  0  0  0  0
  145.2240  132.1380  151.1425 C   0  0  0  0  0  0  0  0  0  0  0  0
  145.8225  130.8407  151.7002 C   0  0  0  0  0  0  0  0  0  0  0  0
  146.8437  131.1370  152.8114 C   0  0  0  0  0  0  0  0  0  0  0  0
  150.5228  136.3933  154.3542 N   0  0  0  0  0  0  0  0  0  0  0  0
  151.4182  137.2707  154.8728 C   0  0  0  0  0  0  0  0  0  0  0  0
  151.9881  138.4109  154.3610 C   0  0  0  0  0  0  0  0  0  0  0  0
  152.8847  139.0401  155.2389 N   0  0  0  0  0  0  0  0  0  0  0  0
  153.0208  138.4372  156.3833 N   0  0  0  0  0  0  0  0  0  0  0  0
  152.0653  137.0644  156.4598 S   0  0  0  0  0  0  0  0  0  0  0  0
  148.9623  135.0672  153.2289 H   0  0  0  0  0  0  0  0  0  0  0  0
  148.9349  133.0043  155.3677 H   0  0  0  0  0  0  0  0  0  0  0  0
  147.5242  133.4551  154.4412 H   0  0  0  0  0  0  0  0  0  0  0  0
  149.9166  132.5364  152.8156 H   0  0  0  0  0  0  0  0  0  0  0  0
  149.1930  131.3324  153.8528 H   0  0  0  0  0  0  0  0  0  0  0  0
  146.8839  133.8698  152.6289 H   0  0  0  0  0  0  0  0  0  0  0  0
  148.1646  133.9550  151.4351 H   0  0  0  0  0  0  0  0  0  0  0  0
  145.9258  134.0220  150.3414 H   0  0  0  0  0  0  0  0  0  0  0  0
  146.8586  132.6390  149.8209 H   0  0  0  0  0  0  0  0  0  0  0  0
  144.6259  132.6294  151.9111 H   0  0  0  0  0  0  0  0  0  0  0  0
  144.5498  131.9179  150.3142 H   0  0  0  0  0  0  0  0  0  0  0  0
  145.0283  130.1996  152.0844 H   0  0  0  0  0  0  0  0  0  0  0  0
  146.3068  130.2844  150.8964 H   0  0  0  0  0  0  0  0  0  0  0  0
  147.2679  130.1951  153.1566 H   0  0  0  0  0  0  0  0  0  0  0  0
  146.3429  131.5889  153.6693 H   0  0  0  0  0  0  0  0  0  0  0  0
  150.1299  136.6480  153.4598 H   0  0  0  0  0  0  0  0  0  0  0  0
  151.8271  138.8576  153.3914 H   0  0  0  0  0  0  0  0  0  0  0  0
  148.3527  131.5931  151.5353 H   0  0  0  0  0  0  0  0  0  0  0  0
  1  2  2  0  0  0  0
  2  3  1  0  0  0  0
  2 12  1  0  0  0  0
  3  4  1  0  0  0  0
  3 18  1  0  0  0  0
  4  5  1  0  0  0  0
  4 19  1  0  0  0  0
  4 20  1  0  0  0  0
  5  6  1  0  0  0  0
  5 21  1  0  0  0  0
  5 22  1  0  0  0  0
  6 11  1  0  0  0  0
  6  7  1  0  0  0  0
  6 35  1  0  0  0  0
  7  8  1  0  0  0  0
  7 23  1  0  0  0  0
  7 24  1  0  0  0  0
  8  9  1  0  0  0  0
  8 25  1  0  0  0  0
  8 26  1  0  0  0  0
  9 10  1  0  0  0  0
  9 27  1  0  0  0  0
  9 28  1  0  0  0  0
 10 11  1  0  0  0  0
 10 29  1  0  0  0  0
 10 30  1  0  0  0  0
 11 31  1  0  0  0  0
 11 32  1  0  0  0  0
 12 13  1  0  0  0  0
 12 33  1  0  0  0  0
 13 17  1  0  0  0  0
 13 14  2  0  0  0  0
 14 15  1  0  0  0  0
 14 34  1  0  0  0  0
 15 16  2  0  0  0  0
 16 17  1  0  0  0  0
M  CHG  1   6   1
M  END
> <s_m_source_file>
AV-unprocessed.smi

> <i_m_source_file_index>
2584

> <i_lp_mmshare_version>
43012

> <i_f3d_flags>
0

> <s_epik_input>
czFubltjSF1jMVtOSF1DKD1PKVtOSF1bQ0gyXVtDSDJdTjJbQ0gyXVtDSDJdW0NIMl1bQ0gyXVtDSDJdMg==

> <s_epik_cmdline>
J2VwaWtfcHl0aG9uJywgJy1waCcsICc3LjAnLCAnLXRuJywgJzgnLCAnLW1hJywgJzIwMCcsICctbWV0YWxfYmluZGluZycsICctaW1hZScsICc8aW5maWxlLm1hZT4nLCAnLW9tYWUnLCAnPG91dGZpbGUubWFlPic=

> <r_lp_tautomer_probability>
1

> <r_epik_Ionization_Penalty>
0.00255984

> <r_epik_Ionization_Penalty_Charging>
0.0025387

> <r_epik_Ionization_Penalty_Neutral>
2.11374e-05

> <r_epik_State_Penalty>
0.00176242

> <r_epik_Charging_Adjusted_Penalty>
0.00430112

> <i_epik_Tot_Q>
1

> <i_epik_Tot_abs_Q>
1

> <r_epik_Metal_State_Penalty>
-0

> <b_epik_Metal_Only>
0

> <s_lp_Force_Field>
OPLS_2005

> <r_lp_Energy>
17.0629

> <b_lp_Chiralities_Consistent>
1

> <s_lp_Variant>
AV-unprocessed.smi:2584-1

> <Gold.Version>
5.8.1

> <Gold.Id.Protein>
6NUR|6NUR_protein|mol2

> <Gold.PLP.Fitness>
40.1790

> <Gold.PLP.PLP>
-31.2519

> <Gold.PLP.part.hbond>
-5.3911

> <Gold.PLP.part.metal>
0.0000

> <Gold.PLP.part.buried>
-5.3443

> <Gold.PLP.part.nonpolar>
-21.6198

> <Gold.PLP.part.repulsive>
0.1172

> <Gold.PLP.ligand.clash>
0.0000

> <Gold.PLP.ligand.torsion>
0.4553

> <Gold.PLP.Chemscore.Hbond>
3.2715

> <Gold.PLP.Chemscore.CHOScore>
0.0000

> <Gold.PLP.Chemscore.Metal>
0.0000

> <Gold.Chemscore.Hbonds>
donor molecule, donor type, donor heavy atom, donor atom, acceptor molecule, acceptor atom, score
      L1  H     3    18       P1  7948  1.00
      L1  H     6    35       P1 10747  1.00
      L1  H    12    33       P1  7948  0.70
      P1  H  7997  8009       L1    15  0.30

> <Gold.PLP.Chemscore.Internal.Correction>
0.0232

> <Gold.Rescore>
     Score         DG    S(hbond)    S(metal)    S(lipo)     H(rot)  DE(clash)    DE(int)     intcor
     16.11     -17.90       2.60        0.00      68.04       1.65       0.01       1.77       ----

> <Gold.Chemscore.Fitness>
16.1144

> <Gold.Chemscore.DG>
-17.8962

> <Gold.Chemscore.ZeroCoef>
-5.4800

> <Gold.Chemscore.Hbond>
2.5984

> <Gold.Chemscore.Metal>
0.0000

> <Gold.Chemscore.Lipo>
68.0402

> <Gold.Chemscore.Internal_Hbond>
0.0000

> <Gold.Chemscore.DEClash>
0.0126

> <Gold.Chemscore.DEInternal>
1.7692

> <Gold.Chemscore.Rot>
1.6497

> <Gold.Chemscore.Internal.Correction>
   9.000000E+99

> <Gold.Chemscore.Hbonds>
donor molecule, donor type, donor heavy atom, donor atom, acceptor molecule, acceptor atom, score
      L1  H     3    18       P1  7948  0.30
      L1  H     6    35       P1 10747  0.97
      L1  H    12    33       P1  7948  0.07
      P1  H  7997  8009       L1    15  0.01

> <Gold.Chemscore.Hbond.Weighted>
-8.6787

> <Gold.Chemscore.Metal.Weighted>
-0.0000

> <Gold.Chemscore.Lipo.Weighted>
-7.9607

> <Gold.Chemscore.Internal_Hbond.Weighted>
0.0000

> <Gold.Chemscore.DEClash.Weighted>
0.0126

> <Gold.Chemscore.DEInternal.Weighted>
1.7692

> <Gold.Chemscore.Rot.Weighted>
4.2232

> <Gold.Chemscore.Internal.Correction.Weighted>
   9.000000E+99

> <Gold.Protein.RotatedTorsions>
[ 6907 6896 6895 6894 ] final   33.82 input  -60.11 | X-H torsion
[ 7974 7965 7964 7962 ] final -179.22 input  175.53 | X-H torsion
[ 8008 7997 7996 7995 ] final -126.43 input   59.86 | X-H torsion
[ 10167 10162 10161 10158 ] final -164.42 input  -65.29 | X-H torsion
[ 10718 10713 10712 10709 ] final  -84.62 input   66.30 | X-H torsion
[ 10763 10752 10751 10750 ] final   21.24 input  -60.55 | X-H torsion
[ 11005 11000 10999 10996 ] final   80.15 input  -57.11 | X-H torsion

> <Gold.Protein.ActiveResidues>
 VAL166  LYS551  ARG553  GLY616  TRP617  ASP618  TYR619  PRO620  LYS621  CYS622 
 ASP623  PHE694  ASN695  SER759  ASP760  ASP761  ALA762  ILE779  LEU786  VAL792 
 PHE793  MET794  SER795  GLU796  ALA797  LYS798  CYS799  TRP800  GLU811  SER814 

> <Gold.Protein.RotatedAtoms>
  152.0938  134.9389  160.0571 H   0  0  0  0  0  0  0  0  0  0  0  0  # atno 6907 bound_to 6896
  152.0630  133.4066  159.4434 H   0  0  0  0  0  0  0  0  0  0  0  0  # atno 6908 bound_to 6896
  150.6837  134.3099  159.4785 H   0  0  0  0  0  0  0  0  0  0  0  0  # atno 6909 bound_to 6896
  144.7135  140.0751  143.6428 H   0  0  0  0  0  0  0  0  0  0  0  0  # atno 7974 bound_to 7965
  155.2297  140.0425  157.2960 H   0  0  0  0  0  0  0  0  0  0  0  0  # atno 8008 bound_to 7997
  154.5897  140.2423  155.7909 H   0  0  0  0  0  0  0  0  0  0  0  0  # atno 8009 bound_to 7997
  156.2250  140.2957  156.0054 H   0  0  0  0  0  0  0  0  0  0  0  0  # atno 8010 bound_to 7997
  139.6252  144.0547  152.1968 H   0  0  0  0  0  0  0  0  0  0  0  0  # atno 10167 bound_to 10162
  156.0004  130.4704  150.4438 H   0  0  0  0  0  0  0  0  0  0  0  0  # atno 10718 bound_to 10713
  153.1011  135.6673  153.9671 H   0  0  0  0  0  0  0  0  0  0  0  0  # atno 10763 bound_to 10752
  153.9241  135.3011  155.3448 H   0  0  0  0  0  0  0  0  0  0  0  0  # atno 10764 bound_to 10752
  154.7432  135.5070  153.9233 H   0  0  0  0  0  0  0  0  0  0  0  0  # atno 10765 bound_to 10752
  139.9145  134.7898  156.1871 H   0  0  0  0  0  0  0  0  0  0  0  0  # atno 11005 bound_to 11000
  145.9750  139.2898  143.1076 LP  0  0  0  0  0  0  0  0  0  0  0  0  # atno 17320 bound_to 7965
  145.9074  140.9203  143.0472 LP  0  0  0  0  0  0  0  0  0  0  0  0  # atno 17321 bound_to 7965
  140.0198  144.6161  150.7576 LP  0  0  0  0  0  0  0  0  0  0  0  0  # atno 17342 bound_to 10162
  140.7406  143.2807  151.3607 LP  0  0  0  0  0  0  0  0  0  0  0  0  # atno 17343 bound_to 10162
  157.2477  131.0539  151.2398 LP  0  0  0  0  0  0  0  0  0  0  0  0  # atno 17370 bound_to 10713
  157.3559  130.7106  149.6470 LP  0  0  0  0  0  0  0  0  0  0  0  0  # atno 17371 bound_to 10713
  141.0606  133.6843  156.1946 LP  0  0  0  0  0  0  0  0  0  0  0  0  # atno 17394 bound_to 11000
  140.6666  134.4911  157.5585 LP  0  0  0  0  0  0  0  0  0  0  0  0  # atno 17395 bound_to 11000

$$$$
