AV-unprocessed.smi:2845|AV-procd|sdf|10945|dock8
  -GOLD-   2272015393D 1   1.00000     0.00000
 Structure written by MMmdl.
 42 44  0  0  0  0  0  0  0  0  1 V2000
  153.3669  142.5155  161.0689 C   0  0  0  0  0  0  0  0  0  0  0  0
  152.5412  142.3219  159.8092 C   0  0  0  0  0  0  0  0  0  0  0  0
  152.3817  141.0192  159.2854 C   0  0  0  0  0  0  0  0  0  0  0  0
  151.6233  140.7971  158.1150 C   0  0  0  0  0  0  0  0  0  0  0  0
  151.3414  139.6238  157.4362 N   0  0  0  0  0  0  0  0  0  0  0  0
  150.5948  140.0696  156.4302 C   0  0  0  0  0  0  0  0  0  0  0  0
  150.3586  141.3943  156.3767 N   0  0  0  0  0  0  0  0  0  0  0  0
  149.5783  142.1016  155.3768 C   0  0  0  0  0  0  0  0  0  0  0  0
  148.8720  141.1465  154.3962 C   0  0  2  0  0  0  0  0  0  0  0  0
  149.7622  140.7859  153.3561 O   0  0  0  0  0  0  0  0  0  0  0  0
  147.5984  141.7745  153.7989 C   0  0  0  0  0  0  0  0  0  0  0  0
  146.6842  142.2511  154.8210 N   0  0  0  0  0  0  0  0  0  0  0  0
  145.6523  143.0957  154.7342 C   0  0  0  0  0  0  0  0  0  0  0  0
  145.0374  143.3166  155.8888 N   0  0  0  0  0  0  0  0  0  0  0  0
  145.7977  142.5163  156.6908 C   0  0  0  0  0  0  0  0  0  0  0  0
  145.4680  142.3757  158.4755 S   0  0  2  0  0  0  0  0  0  0  0  0
  145.0676  144.1690  158.7300 C   0  0  0  0  0  0  0  0  0  0  0  0
  146.8244  142.1212  159.1366 O   0  0  0  0  0  0  0  0  0  0  0  0
  146.7972  141.8545  156.1108 N   0  0  0  0  0  0  0  0  0  0  0  0
  151.0232  141.9228  157.4783 C   0  0  0  0  0  0  0  0  0  0  0  0
  151.1753  143.2236  157.9898 C   0  0  0  0  0  0  0  0  0  0  0  0
  151.9365  143.4279  159.1597 C   0  0  0  0  0  0  0  0  0  0  0  0
  152.0960  144.8370  159.7030 C   0  0  0  0  0  0  0  0  0  0  0  0
  153.7577  141.5671  161.4388 H   0  0  0  0  0  0  0  0  0  0  0  0
  152.7604  142.9581  161.8594 H   0  0  0  0  0  0  0  0  0  0  0  0
  154.2145  143.1723  160.8727 H   0  0  0  0  0  0  0  0  0  0  0  0
  152.8430  140.1766  159.7792 H   0  0  0  0  0  0  0  0  0  0  0  0
  150.1964  139.3942  155.6871 H   0  0  0  0  0  0  0  0  0  0  0  0
  148.8433  142.7192  155.8947 H   0  0  0  0  0  0  0  0  0  0  0  0
  150.2350  142.7866  154.8389 H   0  0  0  0  0  0  0  0  0  0  0  0
  148.5984  140.2344  154.9284 H   0  0  0  0  0  0  0  0  0  0  0  0
  149.3070  140.2171  152.7539 H   0  0  0  0  0  0  0  0  0  0  0  0
  147.8613  142.6212  153.1636 H   0  0  0  0  0  0  0  0  0  0  0  0
  147.0779  141.0571  153.1621 H   0  0  0  0  0  0  0  0  0  0  0  0
  145.3484  143.5616  153.8082 H   0  0  0  0  0  0  0  0  0  0  0  0
  144.6655  144.6145  157.8198 H   0  0  0  0  0  0  0  0  0  0  0  0
  145.9642  144.7181  159.0182 H   0  0  0  0  0  0  0  0  0  0  0  0
  144.3261  144.2775  159.5215 H   0  0  0  0  0  0  0  0  0  0  0  0
  150.7125  144.0574  157.4826 H   0  0  0  0  0  0  0  0  0  0  0  0
  151.5543  145.5616  159.0944 H   0  0  0  0  0  0  0  0  0  0  0  0
  153.1471  145.1260  159.7114 H   0  0  0  0  0  0  0  0  0  0  0  0
  151.7101  144.9008  160.7207 H   0  0  0  0  0  0  0  0  0  0  0  0
  1  2  1  0  0  0  0
  1 24  1  0  0  0  0
  1 25  1  0  0  0  0
  1 26  1  0  0  0  0
  2 22  1  0  0  0  0
  2  3  2  0  0  0  0
  3  4  1  0  0  0  0
  3 27  1  0  0  0  0
  4 20  2  0  0  0  0
  4  5  1  0  0  0  0
  5  6  2  0  0  0  0
  6  7  1  0  0  0  0
  6 28  1  0  0  0  0
  7  8  1  0  0  0  0
  7 20  1  0  0  0  0
  8  9  1  0  0  0  0
  8 29  1  0  0  0  0
  8 30  1  0  0  0  0
  9 10  1  0  0  0  0
  9 11  1  0  0  0  0
  9 31  1  0  0  0  0
 10 32  1  0  0  0  0
 11 12  1  0  0  0  0
 11 33  1  0  0  0  0
 11 34  1  0  0  0  0
 12 19  1  0  0  0  0
 12 13  1  0  0  0  0
 13 14  2  0  0  0  0
 13 35  1  0  0  0  0
 14 15  1  0  0  0  0
 15 16  1  0  0  0  0
 15 19  2  0  0  0  0
 16 17  1  0  0  0  0
 16 18  2  0  0  0  0
 17 36  1  0  0  0  0
 17 37  1  0  0  0  0
 17 38  1  0  0  0  0
 20 21  1  0  0  0  0
 21 22  2  0  0  0  0
 21 39  1  0  0  0  0
 22 23  1  0  0  0  0
 23 40  1  0  0  0  0
 23 41  1  0  0  0  0
 23 42  1  0  0  0  0
M  END
> <s_m_source_file>
AV-unprocessed.smi

> <i_m_source_file_index>
2845

> <i_lp_mmshare_version>
43012

> <i_f3d_flags>
0

> <s_epik_input>
W0NIM11jKFtjSF0xKWMoW0NIM10pW2NIXWMoYzEyKW4oW2NIXW4yKVtDSDJdW0NASF0oW09IXSlbQ0gyXW4zW2NIXW5jKG4zKVtTQF0oPU8pW0NIM10=

> <s_epik_cmdline>
J2VwaWtfcHl0aG9uJywgJy1waCcsICc3LjAnLCAnLXRuJywgJzgnLCAnLW1hJywgJzIwMCcsICctbWV0YWxfYmluZGluZycsICctaW1hZScsICc8aW5maWxlLm1hZT4nLCAnLW9tYWUnLCAnPG91dGZpbGUubWFlPic=

> <r_lp_tautomer_probability>
1

> <r_epik_Ionization_Penalty>
0.0968684

> <r_epik_Ionization_Penalty_Charging>
0

> <r_epik_Ionization_Penalty_Neutral>
0.0968684

> <r_epik_State_Penalty>
0.0870047

> <r_epik_Charging_Adjusted_Penalty>
0.0870047

> <i_epik_Tot_Q>
0

> <i_epik_Tot_abs_Q>
0

> <r_epik_Metal_State_Penalty>
0.0746849

> <b_epik_Metal_Only>
0

> <s_lp_Force_Field>
OPLS_2005

> <r_lp_Energy>
9.81721

> <b_lp_Chiralities_Consistent>
1

> <s_lp_Variant>
AV-unprocessed.smi:2845-3

> <Gold.Version>
5.8.1

> <Gold.Id.Protein>
6NUR|6NUR_protein|mol2

> <Gold.PLP.Fitness>
52.9910

> <Gold.PLP.PLP>
-46.2711

> <Gold.PLP.part.hbond>
-2.9838

> <Gold.PLP.part.metal>
0.0000

> <Gold.PLP.part.buried>
-3.1411

> <Gold.PLP.part.nonpolar>
-39.8832

> <Gold.PLP.part.repulsive>
0.2966

> <Gold.PLP.ligand.clash>
0.0000

> <Gold.PLP.ligand.torsion>
1.0622

> <Gold.PLP.Chemscore.Hbond>
2.6000

> <Gold.PLP.Chemscore.CHOScore>
0.0000

> <Gold.PLP.Chemscore.Metal>
0.0000

> <Gold.Chemscore.Hbonds>
donor molecule, donor type, donor heavy atom, donor atom, acceptor molecule, acceptor atom, score
      L1  H    10    32       P1  7957  0.53
      P1  H  6934  6946       L1    18  0.78
      P1  H  7989  7998       L1    10  0.29
      P1  H  8011  8017       L1    10  1.00

> <Gold.PLP.Chemscore.Internal.Correction>
1.0443

> <Gold.Rescore>
     Score         DG    S(hbond)    S(metal)    S(lipo)     H(rot)  DE(clash)    DE(int)     intcor
     13.54     -17.31       1.93        0.00     105.31       2.71       1.67       2.10       ----

> <Gold.Chemscore.Fitness>
13.5396

> <Gold.Chemscore.DG>
-17.3133

> <Gold.Chemscore.ZeroCoef>
-5.4800

> <Gold.Chemscore.Hbond>
1.9317

> <Gold.Chemscore.Metal>
0.0000

> <Gold.Chemscore.Lipo>
105.3095

> <Gold.Chemscore.Internal_Hbond>
0.0000

> <Gold.Chemscore.DEClash>
1.6722

> <Gold.Chemscore.DEInternal>
2.1016

> <Gold.Chemscore.Rot>
2.7108

> <Gold.Chemscore.Internal.Correction>
   9.000000E+99

> <Gold.Chemscore.Hbonds>
donor molecule, donor type, donor heavy atom, donor atom, acceptor molecule, acceptor atom, score
      L1  H    10    32       P1  7957  0.54
      P1  H  6934  6946       L1    18  0.73
      P1  H  7989  7998       L1    10  0.30
      P1  H  8011  8017       L1    10  0.08

> <Gold.Chemscore.Hbond.Weighted>
-6.4518

> <Gold.Chemscore.Metal.Weighted>
-0.0000

> <Gold.Chemscore.Lipo.Weighted>
-12.3212

> <Gold.Chemscore.Internal_Hbond.Weighted>
0.0000

> <Gold.Chemscore.DEClash.Weighted>
1.6722

> <Gold.Chemscore.DEInternal.Weighted>
2.1016

> <Gold.Chemscore.Rot.Weighted>
6.9396

> <Gold.Chemscore.Internal.Correction.Weighted>
   9.000000E+99

> <Gold.Protein.RotatedTorsions>
[ 6907 6896 6895 6894 ] final   81.40 input  -60.11 | X-H torsion
[ 7974 7965 7964 7962 ] final  -63.98 input  175.53 | X-H torsion
[ 8008 7997 7996 7995 ] final  -49.31 input   59.86 | X-H torsion
[ 10167 10162 10161 10158 ] final  -49.83 input  -65.29 | X-H torsion
[ 10718 10713 10712 10709 ] final  -67.32 input   66.30 | X-H torsion
[ 10763 10752 10751 10750 ] final -170.13 input  -60.55 | X-H torsion
[ 11005 11000 10999 10996 ] final -157.35 input  -57.11 | X-H torsion

> <Gold.Protein.ActiveResidues>
 VAL166  LYS551  ARG553  GLY616  TRP617  ASP618  TYR619  PRO620  LYS621  CYS622 
 ASP623  PHE694  ASN695  SER759  ASP760  ASP761  ALA762  ILE779  LEU786  VAL792 
 PHE793  MET794  SER795  GLU796  ALA797  LYS798  CYS799  TRP800  GLU811  SER814 

> <Gold.Protein.RotatedAtoms>
  152.5267  134.3210  159.9147 H   0  0  0  0  0  0  0  0  0  0  0  0  # atno 6907 bound_to 6896
  151.3159  133.4054  159.2658 H   0  0  0  0  0  0  0  0  0  0  0  0  # atno 6908 bound_to 6896
  150.9999  134.9331  159.8005 H   0  0  0  0  0  0  0  0  0  0  0  0  # atno 6909 bound_to 6896
  145.7723  140.8806  143.0373 H   0  0  0  0  0  0  0  0  0  0  0  0  # atno 7974 bound_to 7965
  154.4042  140.1300  156.4481 H   0  0  0  0  0  0  0  0  0  0  0  0  # atno 8008 bound_to 7997
  155.7393  140.3490  155.5076 H   0  0  0  0  0  0  0  0  0  0  0  0  # atno 8009 bound_to 7997
  155.9054  140.1026  157.1309 H   0  0  0  0  0  0  0  0  0  0  0  0  # atno 8010 bound_to 7997
  140.6667  143.2682  151.4271 H   0  0  0  0  0  0  0  0  0  0  0  0  # atno 10167 bound_to 10162
  156.0564  130.4276  150.1837 H   0  0  0  0  0  0  0  0  0  0  0  0  # atno 10718 bound_to 10713
  154.6448  135.2903  155.0060 H   0  0  0  0  0  0  0  0  0  0  0  0  # atno 10763 bound_to 10752
  154.1173  135.6553  153.4900 H   0  0  0  0  0  0  0  0  0  0  0  0  # atno 10764 bound_to 10752
  153.0345  135.5279  154.7330 H   0  0  0  0  0  0  0  0  0  0  0  0  # atno 10765 bound_to 10752
  140.6656  134.4302  157.5233 H   0  0  0  0  0  0  0  0  0  0  0  0  # atno 11005 bound_to 11000
  144.6810  139.9873  143.7484 LP  0  0  0  0  0  0  0  0  0  0  0  0  # atno 17320 bound_to 7965
  146.0157  139.3207  143.0843 LP  0  0  0  0  0  0  0  0  0  0  0  0  # atno 17321 bound_to 7965
  139.5918  144.1482  152.2097 LP  0  0  0  0  0  0  0  0  0  0  0  0  # atno 17342 bound_to 10162
  140.0839  144.5677  150.7102 LP  0  0  0  0  0  0  0  0  0  0  0  0  # atno 17343 bound_to 10162
  156.9912  130.9894  151.3414 LP  0  0  0  0  0  0  0  0  0  0  0  0  # atno 17370 bound_to 10713
  157.5537  130.8199  149.8178 LP  0  0  0  0  0  0  0  0  0  0  0  0  # atno 17371 bound_to 10713
  139.8998  134.8582  156.1944 LP  0  0  0  0  0  0  0  0  0  0  0  0  # atno 17394 bound_to 11000
  141.0431  133.6927  156.1635 LP  0  0  0  0  0  0  0  0  0  0  0  0  # atno 17395 bound_to 11000

$$$$
