AV-unprocessed.smi:432|AV-procd|sdf|2549|dock9
  -GOLD-   2262022513D 1   1.00000     0.00000
 Structure written by MMmdl.
 31 32  0  0  0  0  0  0  0  0  1 V2000
  149.5153  141.1056  158.6645 O   0  0  0  0  0  0  0  0  0  0  0  0
  149.9710  142.0767  158.0585 C   0  0  0  0  0  0  0  0  0  0  0  0
  150.6812  141.9037  156.7073 C   0  0  0  0  0  0  0  0  0  0  0  0
  149.7953  141.4361  155.6300 N   0  0  0  0  0  0  0  0  0  0  0  0
  150.2485  140.3009  154.9810 N   0  0  0  0  0  0  0  0  0  0  0  0
  149.5473  139.7933  154.0267 C   0  0  0  0  0  0  0  0  0  0  0  0
  148.2916  140.3713  153.6015 C   0  0  0  0  0  0  0  0  0  0  0  0
  147.3933  139.6436  152.3165 Cl  0  0  0  0  0  0  0  0  0  0  0  0
  147.8594  141.4876  154.2400 C   0  0  0  0  0  0  0  0  0  0  0  0
  146.3666  142.2367  153.7872 Cl  0  0  0  0  0  0  0  0  0  0  0  0
  148.6346  142.0968  155.3297 C   0  0  0  0  0  0  0  0  0  0  0  0
  148.2802  143.1130  155.9291 O   0  0  0  0  0  0  0  0  0  0  0  0
  149.8953  143.3333  158.5221 N   0  0  0  0  0  0  0  0  0  0  0  0
  149.2515  143.7324  159.7710 C   0  0  0  0  0  0  0  0  0  0  0  0
  149.5816  145.1956  160.1269 C   0  0  0  0  0  0  0  0  0  0  0  0
  150.5395  145.1330  161.3168 C   0  0  0  0  0  0  0  0  0  0  0  0
  150.1287  143.8654  162.0589 C   0  0  0  0  0  0  0  0  0  0  0  0
  149.7613  142.8792  160.9486 C   0  0  0  0  0  0  0  0  0  0  0  0
  151.1453  142.8490  156.4194 H   0  0  0  0  0  0  0  0  0  0  0  0
  151.5071  141.2042  156.8482 H   0  0  0  0  0  0  0  0  0  0  0  0
  149.8636  138.9001  153.4879 H   0  0  0  0  0  0  0  0  0  0  0  0
  150.2997  144.0703  157.9629 H   0  0  0  0  0  0  0  0  0  0  0  0
  148.1696  143.6159  159.6834 H   0  0  0  0  0  0  0  0  0  0  0  0
  150.0014  145.7623  159.2943 H   0  0  0  0  0  0  0  0  0  0  0  0
  148.6662  145.7058  160.4296 H   0  0  0  0  0  0  0  0  0  0  0  0
  151.5652  145.0329  160.9590 H   0  0  0  0  0  0  0  0  0  0  0  0
  150.4895  146.0235  161.9440 H   0  0  0  0  0  0  0  0  0  0  0  0
  150.9143  143.4872  162.7134 H   0  0  0  0  0  0  0  0  0  0  0  0
  149.2514  144.0695  162.6741 H   0  0  0  0  0  0  0  0  0  0  0  0
  149.0197  142.1519  161.2806 H   0  0  0  0  0  0  0  0  0  0  0  0
  150.6534  142.3197  160.6622 H   0  0  0  0  0  0  0  0  0  0  0  0
  1  2  2  0  0  0  0
  2  3  1  0  0  0  0
  2 13  1  0  0  0  0
  3  4  1  0  0  0  0
  3 19  1  0  0  0  0
  3 20  1  0  0  0  0
  4 11  1  0  0  0  0
  4  5  1  0  0  0  0
  5  6  2  0  0  0  0
  6  7  1  0  0  0  0
  6 21  1  0  0  0  0
  7  8  1  0  0  0  0
  7  9  2  0  0  0  0
  9 10  1  0  0  0  0
  9 11  1  0  0  0  0
 11 12  2  0  0  0  0
 13 14  1  0  0  0  0
 13 22  1  0  0  0  0
 14 18  1  0  0  0  0
 14 15  1  0  0  0  0
 14 23  1  0  0  0  0
 15 16  1  0  0  0  0
 15 24  1  0  0  0  0
 15 25  1  0  0  0  0
 16 17  1  0  0  0  0
 16 26  1  0  0  0  0
 16 27  1  0  0  0  0
 17 18  1  0  0  0  0
 17 28  1  0  0  0  0
 17 29  1  0  0  0  0
 18 30  1  0  0  0  0
 18 31  1  0  0  0  0
M  END
> <s_m_source_file>
AV-unprocessed.smi

> <i_m_source_file_index>
432

> <i_lp_mmshare_version>
43012

> <i_f3d_flags>
0

> <s_epik_input>
W0NIMl0xW0NIMl1bQ0gyXVtDSDJdW0NIXTFbTkhdQyg9TylbQ0gyXW4ybltjSF1jKENsKWMoQ2wpYzI9Tw==

> <s_epik_cmdline>
J2VwaWtfcHl0aG9uJywgJy1waCcsICc3LjAnLCAnLXRuJywgJzgnLCAnLW1hJywgJzIwMCcsICctbWV0YWxfYmluZGluZycsICctaW1hZScsICc8aW5maWxlLm1hZT4nLCAnLW9tYWUnLCAnPG91dGZpbGUubWFlPic=

> <r_lp_tautomer_probability>
1

> <r_epik_Ionization_Penalty>
1.93318e-08

> <r_epik_Ionization_Penalty_Charging>
3.01013e-11

> <r_epik_Ionization_Penalty_Neutral>
1.93017e-08

> <r_epik_State_Penalty>
-0

> <r_epik_Charging_Adjusted_Penalty>
3.01013e-11

> <i_epik_Tot_Q>
0

> <i_epik_Tot_abs_Q>
0

> <r_epik_Metal_State_Penalty>
-0

> <b_epik_Metal_Only>
0

> <s_lp_Force_Field>
OPLS_2005

> <r_lp_Energy>
31.6968

> <b_lp_Chiralities_Consistent>
1

> <s_lp_Variant>
AV-unprocessed.smi:432-1

> <Gold.Version>
5.8.1

> <Gold.Id.Protein>
6NUR|6NUR_protein|mol2

> <Gold.PLP.Fitness>
36.6589

> <Gold.PLP.PLP>
-27.2280

> <Gold.PLP.part.hbond>
-2.0000

> <Gold.PLP.part.metal>
0.0000

> <Gold.PLP.part.buried>
-3.1935

> <Gold.PLP.part.nonpolar>
-23.5411

> <Gold.PLP.part.repulsive>
1.3537

> <Gold.PLP.ligand.clash>
0.0000

> <Gold.PLP.ligand.torsion>
0.1617

> <Gold.PLP.Chemscore.Hbond>
1.9670

> <Gold.PLP.Chemscore.CHOScore>
1.2833

> <Gold.PLP.Chemscore.Metal>
0.0000

> <Gold.Chemscore.Hbonds>
donor molecule, donor type, donor heavy atom, donor atom, acceptor molecule, acceptor atom, score
      P1  H  7989  7998       L1     5  0.28
      L1  C     6    21       P1  7957  0.23

> <Gold.PLP.Chemscore.Internal.Correction>
0.0035

> <Gold.Rescore>
     Score         DG    S(hbond)    S(metal)    S(lipo)     H(rot)  DE(clash)    DE(int)     intcor
     11.41     -14.40       1.25        0.00      74.15       1.53       0.55       2.44       ----

> <Gold.Chemscore.Fitness>
11.4069

> <Gold.Chemscore.DG>
-14.3976

> <Gold.Chemscore.ZeroCoef>
-5.4800

> <Gold.Chemscore.Hbond>
1.2456

> <Gold.Chemscore.Metal>
0.0000

> <Gold.Chemscore.Lipo>
74.1454

> <Gold.Chemscore.Internal_Hbond>
0.0000

> <Gold.Chemscore.DEClash>
0.5479

> <Gold.Chemscore.DEInternal>
2.4427

> <Gold.Chemscore.Rot>
1.5303

> <Gold.Chemscore.Internal.Correction>
   9.000000E+99

> <Gold.Chemscore.Hbond.Weighted>
-4.1602

> <Gold.Chemscore.Metal.Weighted>
-0.0000

> <Gold.Chemscore.Lipo.Weighted>
-8.6750

> <Gold.Chemscore.Internal_Hbond.Weighted>
0.0000

> <Gold.Chemscore.DEClash.Weighted>
0.5479

> <Gold.Chemscore.DEInternal.Weighted>
2.4427

> <Gold.Chemscore.Rot.Weighted>
3.9176

> <Gold.Chemscore.Internal.Correction.Weighted>
   9.000000E+99

> <Gold.Protein.RotatedTorsions>
[ 6907 6896 6895 6894 ] final   33.03 input  -60.11 | X-H torsion
[ 7974 7965 7964 7962 ] final   97.81 input  175.53 | X-H torsion
[ 8008 7997 7996 7995 ] final  -97.33 input   59.86 | X-H torsion
[ 10167 10162 10161 10158 ] final  123.35 input  -65.29 | X-H torsion
[ 10718 10713 10712 10709 ] final -137.10 input   66.30 | X-H torsion
[ 10763 10752 10751 10750 ] final   96.40 input  -60.55 | X-H torsion
[ 11005 11000 10999 10996 ] final   84.57 input  -57.11 | X-H torsion

> <Gold.Protein.ActiveResidues>
 VAL166  LYS551  ARG553  GLY616  TRP617  ASP618  TYR619  PRO620  LYS621  CYS622 
 ASP623  PHE694  ASN695  SER759  ASP760  ASP761  ALA762  ILE779  LEU786  VAL792 
 PHE793  MET794  SER795  GLU796  ALA797  LYS798  CYS799  TRP800  GLU811  SER814 

> <Gold.Protein.RotatedAtoms>
  152.0828  134.9459  160.0572 H   0  0  0  0  0  0  0  0  0  0  0  0  # atno 6907 bound_to 6896
  152.0741  133.4116  159.4480 H   0  0  0  0  0  0  0  0  0  0  0  0  # atno 6908 bound_to 6896
  150.6836  134.2977  159.4737 H   0  0  0  0  0  0  0  0  0  0  0  0  # atno 6909 bound_to 6896
  145.4205  139.2322  143.3199 H   0  0  0  0  0  0  0  0  0  0  0  0  # atno 7974 bound_to 7965
  154.7863  140.0464  157.1166 H   0  0  0  0  0  0  0  0  0  0  0  0  # atno 8008 bound_to 7997
  154.9644  140.3081  155.4996 H   0  0  0  0  0  0  0  0  0  0  0  0  # atno 8009 bound_to 7997
  156.2943  140.2264  156.4732 H   0  0  0  0  0  0  0  0  0  0  0  0  # atno 8010 bound_to 7997
  139.5804  144.6984  151.3542 H   0  0  0  0  0  0  0  0  0  0  0  0  # atno 10167 bound_to 10162
  156.2844  130.7339  151.1346 H   0  0  0  0  0  0  0  0  0  0  0  0  # atno 10718 bound_to 10713
  153.2645  135.4220  155.0927 H   0  0  0  0  0  0  0  0  0  0  0  0  # atno 10763 bound_to 10752
  154.8433  135.3457  154.6331 H   0  0  0  0  0  0  0  0  0  0  0  0  # atno 10764 bound_to 10752
  153.6751  135.7041  153.5192 H   0  0  0  0  0  0  0  0  0  0  0  0  # atno 10765 bound_to 10752
  139.8996  134.8225  156.2463 H   0  0  0  0  0  0  0  0  0  0  0  0  # atno 11005 bound_to 11000
  146.2659  140.4929  142.8834 LP  0  0  0  0  0  0  0  0  0  0  0  0  # atno 17320 bound_to 7965
  144.8248  140.6611  143.6329 LP  0  0  0  0  0  0  0  0  0  0  0  0  # atno 17321 bound_to 7965
  140.7083  143.7456  150.7521 LP  0  0  0  0  0  0  0  0  0  0  0  0  # atno 17342 bound_to 10162
  140.0987  143.4808  152.2437 LP  0  0  0  0  0  0  0  0  0  0  0  0  # atno 17343 bound_to 10162
  157.7324  131.0600  150.5630 LP  0  0  0  0  0  0  0  0  0  0  0  0  # atno 17370 bound_to 10713
  156.5739  130.4287  149.6007 LP  0  0  0  0  0  0  0  0  0  0  0  0  # atno 17371 bound_to 10713
  141.0253  133.7019  156.1336 LP  0  0  0  0  0  0  0  0  0  0  0  0  # atno 17394 bound_to 11000
  140.7175  134.4394  157.5577 LP  0  0  0  0  0  0  0  0  0  0  0  0  # atno 17395 bound_to 11000

$$$$
