AV-unprocessed.smi:36|AV-procd|sdf|296|dock10
  -GOLD-   2262016 93D 1   1.00000     0.00000
 Structure written by MMmdl.
 63 66  0  0  0  0  0  0  0  0  2 V2000
  147.6188  132.5639  161.3913 C   0  0  0  0  0  0  0  0  0  0  0  0
  146.8068  133.8701  161.3939 C   0  0  0  0  0  0  0  0  0  0  0  0
  145.7237  133.8097  162.4837 C   0  0  0  0  0  0  0  0  0  0  0  0
  147.7393  135.0645  161.6557 C   0  0  0  0  0  0  0  0  0  0  0  0
  145.9673  134.1002  159.6929 Si  0  0  0  0  0  0  0  0  0  0  0  0
  144.7323  132.6971  159.3504 C   0  0  0  0  0  0  0  0  0  0  0  0
  145.0775  135.7758  159.5885 C   0  0  0  0  0  0  0  0  0  0  0  0
  147.1757  134.0727  158.5068 O   0  0  0  0  0  0  0  0  0  0  0  0
  147.0147  134.5861  157.2001 C   0  0  0  0  0  0  0  0  0  0  0  0
  148.0693  133.9594  156.2738 C   0  0  1  0  0  0  0  0  0  0  0  0
  148.6202  134.9209  155.3748 O   0  0  0  0  0  0  0  0  0  0  0  0
  149.9844  134.6964  155.1748 C   0  0  1  0  0  0  0  0  0  0  0  0
  150.7404  135.8450  155.7647 N   0  0  0  0  0  0  0  0  0  0  0  0
  151.6415  135.8559  156.7694 C   0  0  0  0  0  0  0  0  0  0  0  0
  152.1715  137.0304  157.1062 N   0  0  0  0  0  0  0  0  0  0  0  0
  151.5429  137.8873  156.2148 C   0  0  0  0  0  0  0  0  0  0  0  0
  151.6352  139.2908  156.0035 C   0  0  0  0  0  0  0  0  0  0  0  0
  152.4328  140.0855  156.7333 N   0  5  0  0  0  0  0  0  0  0  0  0
  152.2972  140.1271  158.0831 C   0  0  0  0  0  0  0  0  0  0  0  0
  152.3138  139.1823  158.8750 O   0  0  0  0  0  0  0  0  0  0  0  0
  152.1855  141.5270  158.6259 C   0  0  0  0  0  0  0  0  0  0  0  0
  152.6234  141.8049  159.9413 C   0  0  0  0  0  0  0  0  0  0  0  0
  152.5084  143.1028  160.4759 C   0  0  0  0  0  0  0  0  0  0  0  0
  151.9446  144.1360  159.7041 C   0  0  0  0  0  0  0  0  0  0  0  0
  151.4914  143.8688  158.3987 C   0  0  0  0  0  0  0  0  0  0  0  0
  151.6062  142.5709  157.8633 C   0  0  0  0  0  0  0  0  0  0  0  0
  150.8512  139.8181  155.0285 N   0  0  0  0  0  0  0  0  0  0  0  0
  150.0481  139.0293  154.3049 C   0  0  0  0  0  0  0  0  0  0  0  0
  149.8690  137.7074  154.3894 N   0  0  0  0  0  0  0  0  0  0  0  0
  150.6463  137.1679  155.3729 C   0  0  0  0  0  0  0  0  0  0  0  0
  150.3458  133.3995  155.9044 C   0  0  0  0  0  0  0  0  0  0  0  0
  149.2686  133.2980  156.9677 C   0  0  1  0  0  0  0  0  0  0  0  0
  149.6537  133.9663  158.1548 O   0  0  0  0  0  0  0  0  0  0  0  0
  148.1126  132.4027  162.3501 H   0  0  0  0  0  0  0  0  0  0  0  0
  148.3918  132.5776  160.6227 H   0  0  0  0  0  0  0  0  0  0  0  0
  146.9811  131.7002  161.2015 H   0  0  0  0  0  0  0  0  0  0  0  0
  145.0475  132.9690  162.3266 H   0  0  0  0  0  0  0  0  0  0  0  0
  145.1213  134.7186  162.4938 H   0  0  0  0  0  0  0  0  0  0  0  0
  146.1641  133.6954  163.4748 H   0  0  0  0  0  0  0  0  0  0  0  0
  148.2249  134.9835  162.6289 H   0  0  0  0  0  0  0  0  0  0  0  0
  147.1897  136.0064  161.6388 H   0  0  0  0  0  0  0  0  0  0  0  0
  148.5246  135.1288  160.9021 H   0  0  0  0  0  0  0  0  0  0  0  0
  143.9535  132.6536  160.1111 H   0  0  0  0  0  0  0  0  0  0  0  0
  145.2240  131.7249  159.3318 H   0  0  0  0  0  0  0  0  0  0  0  0
  144.2363  132.8266  158.3893 H   0  0  0  0  0  0  0  0  0  0  0  0
  144.3015  135.8658  160.3483 H   0  0  0  0  0  0  0  0  0  0  0  0
  144.5991  135.9139  158.6192 H   0  0  0  0  0  0  0  0  0  0  0  0
  145.7690  136.6062  159.7291 H   0  0  0  0  0  0  0  0  0  0  0  0
  146.0043  134.4104  156.8298 H   0  0  0  0  0  0  0  0  0  0  0  0
  147.1552  135.6658  157.2521 H   0  0  0  0  0  0  0  0  0  0  0  0
  147.5900  133.1966  155.6579 H   0  0  0  0  0  0  0  0  0  0  0  0
  150.2488  134.7053  154.1168 H   0  0  0  0  0  0  0  0  0  0  0  0
  151.9314  134.9520  157.2828 H   0  0  0  0  0  0  0  0  0  0  0  0
  153.0576  141.0227  160.5476 H   0  0  0  0  0  0  0  0  0  0  0  0
  152.8523  143.3046  161.4796 H   0  0  0  0  0  0  0  0  0  0  0  0
  151.8560  145.1312  160.1141 H   0  0  0  0  0  0  0  0  0  0  0  0
  151.0527  144.6588  157.8072 H   0  0  0  0  0  0  0  0  0  0  0  0
  151.2427  142.3850  156.8627 H   0  0  0  0  0  0  0  0  0  0  0  0
  149.4624  139.5310  153.5491 H   0  0  0  0  0  0  0  0  0  0  0  0
  150.2477  132.5767  155.1952 H   0  0  0  0  0  0  0  0  0  0  0  0
  151.3674  133.4056  156.2877 H   0  0  0  0  0  0  0  0  0  0  0  0
  149.0566  132.2596  157.2238 H   0  0  0  0  0  0  0  0  0  0  0  0
  148.8798  134.1363  158.6699 H   0  0  0  0  0  0  0  0  0  0  0  0
  1  2  1  0  0  0  0
  1 34  1  0  0  0  0
  1 35  1  0  0  0  0
  1 36  1  0  0  0  0
  2  3  1  0  0  0  0
  2  4  1  0  0  0  0
  2  5  1  0  0  0  0
  3 37  1  0  0  0  0
  3 38  1  0  0  0  0
  3 39  1  0  0  0  0
  4 40  1  0  0  0  0
  4 41  1  0  0  0  0
  4 42  1  0  0  0  0
  5  6  1  0  0  0  0
  5  7  1  0  0  0  0
  5  8  1  0  0  0  0
  6 43  1  0  0  0  0
  6 44  1  0  0  0  0
  6 45  1  0  0  0  0
  7 46  1  0  0  0  0
  7 47  1  0  0  0  0
  7 48  1  0  0  0  0
  8  9  1  0  0  0  0
  9 10  1  0  0  0  0
  9 49  1  0  0  0  0
  9 50  1  0  0  0  0
 10 32  1  0  0  0  0
 10 11  1  0  0  0  0
 10 51  1  0  0  0  0
 11 12  1  0  0  0  0
 12 13  1  0  0  0  0
 12 31  1  0  0  0  0
 12 52  1  0  0  0  0
 13 30  1  0  0  0  0
 13 14  1  0  0  0  0
 14 15  2  0  0  0  0
 14 53  1  0  0  0  0
 15 16  1  0  0  0  0
 16 30  2  0  0  0  0
 16 17  1  0  0  0  0
 17 18  1  0  0  0  0
 17 27  2  0  0  0  0
 18 19  1  0  0  0  0
 19 20  2  0  0  0  0
 19 21  1  0  0  0  0
 21 26  1  0  0  0  0
 21 22  2  0  0  0  0
 22 23  1  0  0  0  0
 22 54  1  0  0  0  0
 23 24  2  0  0  0  0
 23 55  1  0  0  0  0
 24 25  1  0  0  0  0
 24 56  1  0  0  0  0
 25 26  2  0  0  0  0
 25 57  1  0  0  0  0
 26 58  1  0  0  0  0
 27 28  1  0  0  0  0
 28 29  2  0  0  0  0
 28 59  1  0  0  0  0
 29 30  1  0  0  0  0
 31 32  1  0  0  0  0
 31 60  1  0  0  0  0
 31 61  1  0  0  0  0
 32 33  1  0  0  0  0
 32 62  1  0  0  0  0
 33 63  1  0  0  0  0
M  CHG  1  18  -1
M  END
> <s_m_source_file>
AV-unprocessed.smi

> <i_m_source_file_index>
36

> <i_lp_mmshare_version>
43012

> <i_f3d_flags>
0

> <s_epik_input>
W0NIM11DKFtDSDNdKShbQ0gzXSlbU2ldKFtDSDNdKShbQ0gzXSlPW0NIMl1bQ0BASF0xT1tDQEhdKFtDSDJdW0NASF0xW09IXSluKFtjSF1uMiljKGMyMyluW2NIXW5jM1tOSF1DKD1PKWM0W2NIXVtjSF1bY0hdW2NIXVtjSF00

> <s_epik_cmdline>
J2VwaWtfcHl0aG9uJywgJy1waCcsICc3LjAnLCAnLXRuJywgJzgnLCAnLW1hJywgJzIwMCcsICctbWV0YWxfYmluZGluZycsICctaW1hZScsICc8aW5maWxlLm1hZT4nLCAnLW9tYWUnLCAnPG91dGZpbGUubWFlPic=

> <r_lp_tautomer_probability>
1

> <r_epik_Ionization_Penalty>
4.75685

> <r_epik_Ionization_Penalty_Charging>
3.55822

> <r_epik_Ionization_Penalty_Neutral>
1.19863

> <r_epik_State_Penalty>
3.564

> <r_epik_Charging_Adjusted_Penalty>
7.12222

> <i_epik_Tot_Q>
-1

> <i_epik_Tot_abs_Q>
1

> <r_epik_Metal_State_Penalty>
0.523258

> <b_epik_Metal_Only>
1

> <s_epik_Chemistry_Notes>
This compound contains an acetal/aminal-like group ( X-CH(R)-Y where X, Y are N, S, or O) that may be acid/base labile, releasing an aldehyde.

> <s_lp_Force_Field>
OPLS_2005

> <r_lp_Energy>
35.5948

> <b_lp_Chiralities_Consistent>
1

> <s_lp_Variant>
AV-unprocessed.smi:36-18

> <Gold.Version>
5.8.1

> <Gold.Id.Protein>
6NUR|6NUR_protein|mol2

> <Gold.PLP.Fitness>
58.6526

> <Gold.PLP.PLP>
-48.2123

> <Gold.PLP.part.hbond>
-3.0000

> <Gold.PLP.part.metal>
0.0000

> <Gold.PLP.part.buried>
-5.7408

> <Gold.PLP.part.nonpolar>
-39.8215

> <Gold.PLP.part.repulsive>
0.5555

> <Gold.PLP.ligand.clash>
0.0000

> <Gold.PLP.ligand.torsion>
2.3154

> <Gold.PLP.Chemscore.Hbond>
3.9500

> <Gold.PLP.Chemscore.CHOScore>
1.0000

> <Gold.PLP.Chemscore.Metal>
0.0000

> <Gold.Chemscore.Hbonds>
donor molecule, donor type, donor heavy atom, donor atom, acceptor molecule, acceptor atom, score
      P1  H  6896  6909       L1    33  1.00
      P1  H  7989  7998       L1    27  0.90
      P1  H  7997  8008       L1    18  2.00
      L1  C    28    59       P1  7957  1.00

> <Gold.PLP.Chemscore.Internal.Correction>
0.2211

> <Gold.Rescore>
     Score         DG    S(hbond)    S(metal)    S(lipo)     H(rot)  DE(clash)    DE(int)     intcor
     12.46     -17.73       1.86        0.00     110.04       2.67       0.00       5.27       ----

> <Gold.Chemscore.Fitness>
12.4557

> <Gold.Chemscore.DG>
-17.7255

> <Gold.Chemscore.ZeroCoef>
-5.4800

> <Gold.Chemscore.Hbond>
1.8584

> <Gold.Chemscore.Metal>
0.0000

> <Gold.Chemscore.Lipo>
110.0365

> <Gold.Chemscore.Internal_Hbond>
0.0000

> <Gold.Chemscore.DEClash>
0.0021

> <Gold.Chemscore.DEInternal>
5.2677

> <Gold.Chemscore.Rot>
2.6702

> <Gold.Chemscore.Internal.Correction>
   9.000000E+99

> <Gold.Chemscore.Hbonds>
donor molecule, donor type, donor heavy atom, donor atom, acceptor molecule, acceptor atom, score
      P1  H  6896  6909       L1    33  0.29
      P1  H  7989  7998       L1    27  0.17
      P1  H  7997  8008       L1    18  0.53

> <Gold.Chemscore.Hbond.Weighted>
-6.2070

> <Gold.Chemscore.Metal.Weighted>
-0.0000

> <Gold.Chemscore.Lipo.Weighted>
-12.8743

> <Gold.Chemscore.Internal_Hbond.Weighted>
0.0000

> <Gold.Chemscore.DEClash.Weighted>
0.0021

> <Gold.Chemscore.DEInternal.Weighted>
5.2677

> <Gold.Chemscore.Rot.Weighted>
6.8358

> <Gold.Chemscore.Internal.Correction.Weighted>
   9.000000E+99

> <Gold.Protein.RotatedTorsions>
[ 6907 6896 6895 6894 ] final    4.59 input  -60.11 | X-H torsion
[ 7974 7965 7964 7962 ] final   53.72 input  175.53 | X-H torsion
[ 8008 7997 7996 7995 ] final  -44.42 input   59.86 | X-H torsion
[ 10167 10162 10161 10158 ] final  123.23 input  -65.29 | X-H torsion
[ 10718 10713 10712 10709 ] final  -92.19 input   66.30 | X-H torsion
[ 10763 10752 10751 10750 ] final   40.30 input  -60.55 | X-H torsion
[ 11005 11000 10999 10996 ] final  -10.01 input  -57.11 | X-H torsion

> <Gold.Protein.ActiveResidues>
 VAL166  LYS551  ARG553  GLY616  TRP617  ASP618  TYR619  PRO620  LYS621  CYS622 
 ASP623  PHE694  ASN695  SER759  ASP760  ASP761  ALA762  ILE779  LEU786  VAL792 
 PHE793  MET794  SER795  GLU796  ALA797  LYS798  CYS799  TRP800  GLU811  SER814 

> <Gold.Protein.RotatedAtoms>
  151.6438  135.1009  160.0146 H   0  0  0  0  0  0  0  0  0  0  0  0  # atno 6907 bound_to 6896
  152.4039  133.6855  159.6348 H   0  0  0  0  0  0  0  0  0  0  0  0  # atno 6908 bound_to 6896
  150.7936  133.8660  159.3286 H   0  0  0  0  0  0  0  0  0  0  0  0  # atno 6909 bound_to 6896
  145.9682  139.4124  143.0206 H   0  0  0  0  0  0  0  0  0  0  0  0  # atno 7974 bound_to 7965
  154.3997  140.1423  156.3679 H   0  0  0  0  0  0  0  0  0  0  0  0  # atno 8008 bound_to 7997
  155.8120  140.3472  155.5442 H   0  0  0  0  0  0  0  0  0  0  0  0  # atno 8009 bound_to 7997
  155.8377  140.0922  157.1744 H   0  0  0  0  0  0  0  0  0  0  0  0  # atno 8010 bound_to 7997
  139.5812  144.6987  151.3525 H   0  0  0  0  0  0  0  0  0  0  0  0  # atno 10167 bound_to 10162
  156.0000  130.4977  150.5588 H   0  0  0  0  0  0  0  0  0  0  0  0  # atno 10718 bound_to 10713
  152.9940  135.6195  154.2604 H   0  0  0  0  0  0  0  0  0  0  0  0  # atno 10763 bound_to 10752
  154.2340  135.2791  155.2881 H   0  0  0  0  0  0  0  0  0  0  0  0  # atno 10764 bound_to 10752
  154.5426  135.5756  153.6910 H   0  0  0  0  0  0  0  0  0  0  0  0  # atno 10765 bound_to 10752
  140.7402  133.8676  155.8962 H   0  0  0  0  0  0  0  0  0  0  0  0  # atno 11005 bound_to 11000
  145.7943  140.9800  143.1032 LP  0  0  0  0  0  0  0  0  0  0  0  0  # atno 17320 bound_to 7965
  144.6830  139.9722  143.7482 LP  0  0  0  0  0  0  0  0  0  0  0  0  # atno 17321 bound_to 7965
  140.7090  143.7441  150.7532 LP  0  0  0  0  0  0  0  0  0  0  0  0  # atno 17342 bound_to 10162
  140.0973  143.4820  152.2445 LP  0  0  0  0  0  0  0  0  0  0  0  0  # atno 17343 bound_to 10162
  157.3500  131.0732  151.1720 LP  0  0  0  0  0  0  0  0  0  0  0  0  # atno 17370 bound_to 10713
  157.2540  130.6627  149.5944 LP  0  0  0  0  0  0  0  0  0  0  0  0  # atno 17371 bound_to 10713
  140.9843  134.1363  157.4466 LP  0  0  0  0  0  0  0  0  0  0  0  0  # atno 17394 bound_to 11000
  139.8807  135.0020  156.6104 LP  0  0  0  0  0  0  0  0  0  0  0  0  # atno 17395 bound_to 11000

$$$$
