AV-unprocessed.smi:2747|AV-procd|sdf|10579|dock8
  -GOLD-   2272015 33D 1   1.00000     0.00000
 Structure written by MMmdl.
 23 24  0  0  0  0  0  0  0  0  2 V2000
  151.7875  136.8550  154.5789 O   0  5  0  0  0  0  0  0  0  0  0  0
  151.1054  137.7826  155.2086 C   0  0  2  0  0  0  0  0  0  0  0  0
  152.1258  138.7269  155.9028 C   0  0  0  0  0  0  0  0  0  0  0  0
  151.6287  140.0762  156.1627 N   0  0  0  0  0  0  0  0  0  0  0  0
  150.7666  140.6635  155.2799 N   0  0  0  0  0  0  0  0  0  0  0  0
  150.4413  141.8385  155.7309 N   0  0  0  0  0  0  0  0  0  0  0  0
  151.0924  142.0291  156.9381 C   0  0  0  0  0  0  0  0  0  0  0  0
  151.0920  143.1098  157.8481 C   0  0  0  0  0  0  0  0  0  0  0  0
  151.8569  143.0456  159.0337 C   0  0  0  0  0  0  0  0  0  0  0  0
  151.8286  144.3871  160.1224 Cl  0  0  0  0  0  0  0  0  0  0  0  0
  152.6328  141.8969  159.3223 C   0  0  0  0  0  0  0  0  0  0  0  0
  153.5746  141.8020  160.7679 Cl  0  0  0  0  0  0  0  0  0  0  0  0
  152.6413  140.8115  158.4243 C   0  0  0  0  0  0  0  0  0  0  0  0
  151.8735  140.8957  157.2503 C   0  0  0  0  0  0  0  0  0  0  0  0
  150.1976  137.0773  156.2455 C   0  0  0  0  0  0  0  0  0  0  0  0
  150.9381  136.4776  157.1796 F   0  0  0  0  0  0  0  0  0  0  0  0
  149.3630  137.9371  156.8347 F   0  0  0  0  0  0  0  0  0  0  0  0
  149.4701  136.1386  155.6386 F   0  0  0  0  0  0  0  0  0  0  0  0
  150.4398  138.4407  154.6475 H   0  0  0  0  0  0  0  0  0  0  0  0
  152.4386  138.2966  156.8552 H   0  0  0  0  0  0  0  0  0  0  0  0
  153.0348  138.8124  155.3051 H   0  0  0  0  0  0  0  0  0  0  0  0
  150.5007  143.9881  157.6348 H   0  0  0  0  0  0  0  0  0  0  0  0
  153.2311  139.9296  158.6281 H   0  0  0  0  0  0  0  0  0  0  0  0
  1  2  1  0  0  0  0
  2  3  1  0  0  0  0
  2 15  1  0  0  0  0
  2 19  1  0  0  0  0
  3  4  1  0  0  0  0
  3 20  1  0  0  0  0
  3 21  1  0  0  0  0
  4 14  1  0  0  0  0
  4  5  1  0  0  0  0
  5  6  2  0  0  0  0
  6  7  1  0  0  0  0
  7 14  2  0  0  0  0
  7  8  1  0  0  0  0
  8  9  2  0  0  0  0
  8 22  1  0  0  0  0
  9 10  1  0  0  0  0
  9 11  1  0  0  0  0
 11 12  1  0  0  0  0
 11 13  2  0  0  0  0
 13 14  1  0  0  0  0
 13 23  1  0  0  0  0
 15 16  1  0  0  0  0
 15 17  1  0  0  0  0
 15 18  1  0  0  0  0
M  CHG  1   1  -1
M  END
> <s_m_source_file>
AV-unprocessed.smi

> <i_m_source_file_index>
2747

> <i_lp_mmshare_version>
43012

> <i_f3d_flags>
0

> <s_epik_input>
RkMoRikoRilbQ0BIXShbT0hdKVtDSDJdbihubjEpYyhjMTIpW2NIXWMoQ2wpYyhDbClbY0hdMg==

> <s_epik_cmdline>
J2VwaWtfcHl0aG9uJywgJy1waCcsICc3LjAnLCAnLXRuJywgJzgnLCAnLW1hJywgJzIwMCcsICctbWV0YWxfYmluZGluZycsICctaW1hZScsICc8aW5maWxlLm1hZT4nLCAnLW9tYWUnLCAnPG91dGZpbGUubWFlPic=

> <r_lp_tautomer_probability>
1

> <r_epik_Ionization_Penalty>
1.2724

> <r_epik_Ionization_Penalty_Charging>
1.2724

> <r_epik_Ionization_Penalty_Neutral>
1.57383e-10

> <r_epik_State_Penalty>
1.34397

> <r_epik_Charging_Adjusted_Penalty>
2.61637

> <i_epik_Tot_Q>
-1

> <i_epik_Tot_abs_Q>
1

> <r_epik_Metal_State_Penalty>
1.34397

> <b_epik_Metal_Only>
0

> <s_lp_Force_Field>
OPLS_2005

> <r_lp_Energy>
12.5023

> <b_lp_Chiralities_Consistent>
1

> <s_lp_Variant>
AV-unprocessed.smi:2747-3

> <Gold.Version>
5.8.1

> <Gold.Id.Protein>
6NUR|6NUR_protein|mol2

> <Gold.PLP.Fitness>
40.2980

> <Gold.PLP.PLP>
-32.9684

> <Gold.PLP.part.hbond>
-2.0000

> <Gold.PLP.part.metal>
0.0000

> <Gold.PLP.part.buried>
-5.1790

> <Gold.PLP.part.nonpolar>
-26.0131

> <Gold.PLP.part.repulsive>
0.3130

> <Gold.PLP.ligand.clash>
0.0000

> <Gold.PLP.ligand.torsion>
0.7085

> <Gold.PLP.Chemscore.Hbond>
2.9120

> <Gold.PLP.Chemscore.CHOScore>
0.0000

> <Gold.PLP.Chemscore.Metal>
0.0000

> <Gold.Chemscore.Hbonds>
donor molecule, donor type, donor heavy atom, donor atom, acceptor molecule, acceptor atom, score
      P1  H  7989  7998       L1     5  0.90
      P1  H 10752 10765       L1     1  1.89

> <Gold.PLP.Chemscore.Internal.Correction>
0.0107

> <Gold.Rescore>
     Score         DG    S(hbond)    S(metal)    S(lipo)     H(rot)  DE(clash)    DE(int)     intcor
     17.18     -17.93       1.59        0.00      90.38       1.35       0.09       0.66       ----

> <Gold.Chemscore.Fitness>
17.1834

> <Gold.Chemscore.DG>
-17.9299

> <Gold.Chemscore.ZeroCoef>
-5.4800

> <Gold.Chemscore.Hbond>
1.5944

> <Gold.Chemscore.Metal>
0.0000

> <Gold.Chemscore.Lipo>
90.3756

> <Gold.Chemscore.Internal_Hbond>
0.0000

> <Gold.Chemscore.DEClash>
0.0856

> <Gold.Chemscore.DEInternal>
0.6610

> <Gold.Chemscore.Rot>
1.3474

> <Gold.Chemscore.Internal.Correction>
   9.000000E+99

> <Gold.Chemscore.Hbonds>
donor molecule, donor type, donor heavy atom, donor atom, acceptor molecule, acceptor atom, score
      P1  H  7989  7998       L1     5  0.44
      P1  H 10752 10765       L1     1  0.91

> <Gold.Chemscore.Hbond.Weighted>
-5.3254

> <Gold.Chemscore.Metal.Weighted>
-0.0000

> <Gold.Chemscore.Lipo.Weighted>
-10.5739

> <Gold.Chemscore.Internal_Hbond.Weighted>
0.0000

> <Gold.Chemscore.DEClash.Weighted>
0.0856

> <Gold.Chemscore.DEInternal.Weighted>
0.6610

> <Gold.Chemscore.Rot.Weighted>
3.4494

> <Gold.Chemscore.Internal.Correction.Weighted>
   9.000000E+99

> <Gold.Protein.RotatedTorsions>
[ 6907 6896 6895 6894 ] final   24.81 input  -60.11 | X-H torsion
[ 7974 7965 7964 7962 ] final -165.54 input  175.53 | X-H torsion
[ 8008 7997 7996 7995 ] final  -13.34 input   59.86 | X-H torsion
[ 10167 10162 10161 10158 ] final   67.87 input  -65.29 | X-H torsion
[ 10718 10713 10712 10709 ] final  176.46 input   66.30 | X-H torsion
[ 10763 10752 10751 10750 ] final  149.88 input  -60.55 | X-H torsion
[ 11005 11000 10999 10996 ] final -163.28 input  -57.11 | X-H torsion

> <Gold.Protein.ActiveResidues>
 VAL166  LYS551  ARG553  GLY616  TRP617  ASP618  TYR619  PRO620  LYS621  CYS622 
 ASP623  PHE694  ASN695  SER759  ASP760  ASP761  ALA762  ILE779  LEU786  VAL792 
 PHE793  MET794  SER795  GLU796  ALA797  LYS798  CYS799  TRP800  GLU811  SER814 

> <Gold.Protein.RotatedAtoms>
  151.9630  135.0114  160.0548 H   0  0  0  0  0  0  0  0  0  0  0  0  # atno 6907 bound_to 6896
  152.1851  133.4729  159.4987 H   0  0  0  0  0  0  0  0  0  0  0  0  # atno 6908 bound_to 6896
  150.6924  134.1701  159.4252 H   0  0  0  0  0  0  0  0  0  0  0  0  # atno 6909 bound_to 6896
  144.7267  140.2799  143.6237 H   0  0  0  0  0  0  0  0  0  0  0  0  # atno 7974 bound_to 7965
  154.5300  140.2252  155.8821 H   0  0  0  0  0  0  0  0  0  0  0  0  # atno 8008 bound_to 7997
  156.1754  140.3112  155.9013 H   0  0  0  0  0  0  0  0  0  0  0  0  # atno 8009 bound_to 7997
  155.3470  140.0453  157.3036 H   0  0  0  0  0  0  0  0  0  0  0  0  # atno 8010 bound_to 7997
  140.0848  144.5039  150.7137 H   0  0  0  0  0  0  0  0  0  0  0  0  # atno 10167 bound_to 10162
  156.9198  130.9937  151.3006 H   0  0  0  0  0  0  0  0  0  0  0  0  # atno 10718 bound_to 10713
  154.0784  135.2861  155.3295 H   0  0  0  0  0  0  0  0  0  0  0  0  # atno 10763 bound_to 10752
  154.6700  135.5303  153.8129 H   0  0  0  0  0  0  0  0  0  0  0  0  # atno 10764 bound_to 10752
  153.0458  135.6555  154.0961 H   0  0  0  0  0  0  0  0  0  0  0  0  # atno 10765 bound_to 10752
  140.5998  134.4959  157.5204 H   0  0  0  0  0  0  0  0  0  0  0  0  # atno 11005 bound_to 11000
  145.7960  139.1945  143.2075 LP  0  0  0  0  0  0  0  0  0  0  0  0  # atno 17320 bound_to 7965
  146.0716  140.7862  142.9685 LP  0  0  0  0  0  0  0  0  0  0  0  0  # atno 17321 bound_to 7965
  140.7059  143.2468  151.4728 LP  0  0  0  0  0  0  0  0  0  0  0  0  # atno 17342 bound_to 10162
  139.5758  144.1822  152.1901 LP  0  0  0  0  0  0  0  0  0  0  0  0  # atno 17343 bound_to 10162
  157.5915  130.8447  149.8666 LP  0  0  0  0  0  0  0  0  0  0  0  0  # atno 17370 bound_to 10713
  156.0496  130.3720  150.1232 LP  0  0  0  0  0  0  0  0  0  0  0  0  # atno 17371 bound_to 10713
  139.9237  134.8098  156.1132 LP  0  0  0  0  0  0  0  0  0  0  0  0  # atno 17394 bound_to 11000
  141.0879  133.6726  156.2477 LP  0  0  0  0  0  0  0  0  0  0  0  0  # atno 17395 bound_to 11000

$$$$
