AV-unprocessed.smi:3129|AV-procd|sdf|11924|dock6
  -GOLD-   2272017303D 1   1.00000     0.00000
 Structure written by MMmdl.
 39 39  0  0  0  0  0  0  0  0  1 V2000
  145.3890  143.4227  156.7513 C   0  0  0  0  0  0  0  0  0  0  0  0
  144.7708  142.9306  155.4341 C   0  0  0  0  0  0  0  0  0  0  0  0
  144.3810  141.4462  155.5448 C   0  0  0  0  0  0  0  0  0  0  0  0
  145.7193  143.2147  154.2506 C   0  0  0  0  0  0  0  0  0  0  0  0
  147.0867  142.7762  154.5152 N   0  0  0  0  0  0  0  0  0  0  0  0
  147.6685  141.6780  154.0075 C   0  0  0  0  0  0  0  0  0  0  0  0
  147.0954  140.8977  153.2465 O   0  0  0  0  0  0  0  0  0  0  0  0
  149.1175  141.4050  154.4450 C   0  0  2  0  0  0  0  0  0  0  0  0
  149.3682  139.8939  154.5740 C   0  0  0  0  0  0  0  0  0  0  0  0
  149.4855  142.0802  155.7027 N   0  0  0  0  0  0  0  0  0  0  0  0
  150.7249  141.5987  156.3025 C   0  0  0  0  0  0  0  0  0  0  0  0
  150.6547  141.7667  157.8264 C   0  0  0  0  0  0  0  0  0  0  0  0
  151.3072  142.9883  158.2555 N   0  0  0  0  0  0  0  0  0  0  0  0
  151.5013  144.1524  157.5421 C   0  0  0  0  0  0  0  0  0  0  0  0
  152.1693  145.0211  158.3567 C   0  0  0  0  0  0  0  0  0  0  0  0
  152.3429  144.2873  159.5635 C   0  0  0  0  0  0  0  0  0  0  0  0
  151.8274  143.0702  159.4993 N   0  0  0  0  0  0  0  0  0  0  0  0
  146.3121  142.8889  156.9794 H   0  0  0  0  0  0  0  0  0  0  0  0
  144.7041  143.2753  157.5868 H   0  0  0  0  0  0  0  0  0  0  0  0
  145.6228  144.4867  156.7037 H   0  0  0  0  0  0  0  0  0  0  0  0
  143.8545  143.5007  155.2740 H   0  0  0  0  0  0  0  0  0  0  0  0
  145.2622  140.8138  155.6557 H   0  0  0  0  0  0  0  0  0  0  0  0
  143.8354  141.1064  154.6647 H   0  0  0  0  0  0  0  0  0  0  0  0
  143.7366  141.2730  156.4071 H   0  0  0  0  0  0  0  0  0  0  0  0
  145.3741  142.6750  153.3682 H   0  0  0  0  0  0  0  0  0  0  0  0
  145.6895  144.2729  153.9850 H   0  0  0  0  0  0  0  0  0  0  0  0
  147.6338  143.3518  155.1390 H   0  0  0  0  0  0  0  0  0  0  0  0
  149.7820  141.7764  153.6627 H   0  0  0  0  0  0  0  0  0  0  0  0
  149.1175  139.3703  153.6505 H   0  0  0  0  0  0  0  0  0  0  0  0
  148.7766  139.4534  155.3778 H   0  0  0  0  0  0  0  0  0  0  0  0
  150.4178  139.6900  154.7883 H   0  0  0  0  0  0  0  0  0  0  0  0
  149.5266  143.0829  155.5874 H   0  0  0  0  0  0  0  0  0  0  0  0
  150.8728  140.5480  156.0483 H   0  0  0  0  0  0  0  0  0  0  0  0
  151.5799  142.1552  155.9171 H   0  0  0  0  0  0  0  0  0  0  0  0
  149.6166  141.7948  158.1607 H   0  0  0  0  0  0  0  0  0  0  0  0
  151.1274  140.9216  158.3296 H   0  0  0  0  0  0  0  0  0  0  0  0
  151.1533  144.2636  156.5257 H   0  0  0  0  0  0  0  0  0  0  0  0
  152.4865  146.0272  158.1256 H   0  0  0  0  0  0  0  0  0  0  0  0
  152.8256  144.6001  160.4776 H   0  0  0  0  0  0  0  0  0  0  0  0
  1  2  1  0  0  0  0
  1 18  1  0  0  0  0
  1 19  1  0  0  0  0
  1 20  1  0  0  0  0
  2  3  1  0  0  0  0
  2  4  1  0  0  0  0
  2 21  1  0  0  0  0
  3 22  1  0  0  0  0
  3 23  1  0  0  0  0
  3 24  1  0  0  0  0
  4  5  1  0  0  0  0
  4 25  1  0  0  0  0
  4 26  1  0  0  0  0
  5  6  1  0  0  0  0
  5 27  1  0  0  0  0
  6  7  2  0  0  0  0
  6  8  1  0  0  0  0
  8  9  1  0  0  0  0
  8 10  1  0  0  0  0
  8 28  1  0  0  0  0
  9 29  1  0  0  0  0
  9 30  1  0  0  0  0
  9 31  1  0  0  0  0
 10 11  1  0  0  0  0
 10 32  1  0  0  0  0
 11 12  1  0  0  0  0
 11 33  1  0  0  0  0
 11 34  1  0  0  0  0
 12 13  1  0  0  0  0
 12 35  1  0  0  0  0
 12 36  1  0  0  0  0
 13 17  1  0  0  0  0
 13 14  1  0  0  0  0
 14 15  2  0  0  0  0
 14 37  1  0  0  0  0
 15 16  1  0  0  0  0
 15 38  1  0  0  0  0
 16 17  2  0  0  0  0
 16 39  1  0  0  0  0
M  END
> <s_m_source_file>
AV-unprocessed.smi

> <i_m_source_file_index>
3129

> <i_lp_mmshare_version>
43012

> <i_f3d_flags>
0

> <s_epik_input>
W0NIM11bQ0hdKFtDSDNdKVtDSDJdW05IXUMoPU8pW0NASF0oW0NIM10pW05IXVtDSDJdW0NIMl1uMVtjSF1bY0hdW2NIXW4x

> <s_epik_cmdline>
J2VwaWtfcHl0aG9uJywgJy1waCcsICc3LjAnLCAnLXRuJywgJzgnLCAnLW1hJywgJzIwMCcsICctbWV0YWxfYmluZGluZycsICctaW1hZScsICc8aW5maWxlLm1hZT4nLCAnLW9tYWUnLCAnPG91dGZpbGUubWFlPic=

> <r_lp_tautomer_probability>
1

> <r_epik_Ionization_Penalty>
0.724007

> <r_epik_Ionization_Penalty_Charging>
0

> <r_epik_Ionization_Penalty_Neutral>
0.724007

> <r_epik_State_Penalty>
0.74758

> <r_epik_Charging_Adjusted_Penalty>
0.74758

> <i_epik_Tot_Q>
0

> <i_epik_Tot_abs_Q>
0

> <r_epik_Metal_State_Penalty>
0.746851

> <b_epik_Metal_Only>
0

> <s_lp_Force_Field>
OPLS_2005

> <r_lp_Energy>
5.79034

> <b_lp_Chiralities_Consistent>
1

> <s_lp_Variant>
AV-unprocessed.smi:3129-3

> <Gold.Version>
5.8.1

> <Gold.Id.Protein>
6NUR|6NUR_protein|mol2

> <Gold.PLP.Fitness>
45.6142

> <Gold.PLP.PLP>
-39.9821

> <Gold.PLP.part.hbond>
-2.0000

> <Gold.PLP.part.metal>
0.0000

> <Gold.PLP.part.buried>
-5.1767

> <Gold.PLP.part.nonpolar>
-33.1359

> <Gold.PLP.part.repulsive>
0.3158

> <Gold.PLP.ligand.clash>
0.0000

> <Gold.PLP.ligand.torsion>
1.7745

> <Gold.PLP.Chemscore.Hbond>
2.0000

> <Gold.PLP.Chemscore.CHOScore>
1.0000

> <Gold.PLP.Chemscore.Metal>
0.0000

> <Gold.Chemscore.Hbonds>
donor molecule, donor type, donor heavy atom, donor atom, acceptor molecule, acceptor atom, score
      L1  H     5    27       P1  8028  1.00
      L1  H    10    32       P1  8028  1.00
      L1  C    14    37       P1  8028  1.00

> <Gold.PLP.Chemscore.Internal.Correction>
0.1812

> <Gold.Rescore>
     Score         DG    S(hbond)    S(metal)    S(lipo)     H(rot)  DE(clash)    DE(int)     intcor
     13.37     -15.12       1.82        0.00      77.29       2.13       0.14       1.62       ----

> <Gold.Chemscore.Fitness>
13.3651

> <Gold.Chemscore.DG>
-15.1214

> <Gold.Chemscore.ZeroCoef>
-5.4800

> <Gold.Chemscore.Hbond>
1.8153

> <Gold.Chemscore.Metal>
0.0000

> <Gold.Chemscore.Lipo>
77.2867

> <Gold.Chemscore.Internal_Hbond>
0.0000

> <Gold.Chemscore.DEClash>
0.1398

> <Gold.Chemscore.DEInternal>
1.6165

> <Gold.Chemscore.Rot>
2.1345

> <Gold.Chemscore.Internal.Correction>
   9.000000E+99

> <Gold.Chemscore.Hbonds>
donor molecule, donor type, donor heavy atom, donor atom, acceptor molecule, acceptor atom, score
      L1  H     5    27       P1  8028  0.30
      L1  H    10    32       P1  8028  0.98

> <Gold.Chemscore.Hbond.Weighted>
-6.0631

> <Gold.Chemscore.Metal.Weighted>
-0.0000

> <Gold.Chemscore.Lipo.Weighted>
-9.0425

> <Gold.Chemscore.Internal_Hbond.Weighted>
0.0000

> <Gold.Chemscore.DEClash.Weighted>
0.1398

> <Gold.Chemscore.DEInternal.Weighted>
1.6165

> <Gold.Chemscore.Rot.Weighted>
5.4642

> <Gold.Chemscore.Internal.Correction.Weighted>
   9.000000E+99

> <Gold.Protein.RotatedTorsions>
[ 6907 6896 6895 6894 ] final  -22.40 input  -60.11 | X-H torsion
[ 7974 7965 7964 7962 ] final -131.62 input  175.53 | X-H torsion
[ 8008 7997 7996 7995 ] final  -97.55 input   59.86 | X-H torsion
[ 10167 10162 10161 10158 ] final  148.47 input  -65.29 | X-H torsion
[ 10718 10713 10712 10709 ] final  -60.89 input   66.30 | X-H torsion
[ 10763 10752 10751 10750 ] final -176.39 input  -60.55 | X-H torsion
[ 11005 11000 10999 10996 ] final  -21.20 input  -57.11 | X-H torsion

> <Gold.Protein.ActiveResidues>
 VAL166  LYS551  ARG553  GLY616  TRP617  ASP618  TYR619  PRO620  LYS621  CYS622 
 ASP623  PHE694  ASN695  SER759  ASP760  ASP761  ALA762  ILE779  LEU786  VAL792 
 PHE793  MET794  SER795  GLU796  ALA797  LYS798  CYS799  TRP800  GLU811  SER814 

> <Gold.Protein.RotatedAtoms>
  151.2192  135.0512  159.8942 H   0  0  0  0  0  0  0  0  0  0  0  0  # atno 6907 bound_to 6896
  152.5417  134.0659  159.8183 H   0  0  0  0  0  0  0  0  0  0  0  0  # atno 6908 bound_to 6896
  151.0823  133.5332  159.2651 H   0  0  0  0  0  0  0  0  0  0  0  0  # atno 6909 bound_to 6896
  144.9362  140.7186  143.4875 H   0  0  0  0  0  0  0  0  0  0  0  0  # atno 7974 bound_to 7965
  154.7893  140.0462  157.1188 H   0  0  0  0  0  0  0  0  0  0  0  0  # atno 8008 bound_to 7997
  154.9610  140.3077  155.5011 H   0  0  0  0  0  0  0  0  0  0  0  0  # atno 8009 bound_to 7997
  156.2947  140.2270  156.4696 H   0  0  0  0  0  0  0  0  0  0  0  0  # atno 8010 bound_to 7997
  139.4874  144.5676  151.7114 H   0  0  0  0  0  0  0  0  0  0  0  0  # atno 10167 bound_to 10162
  156.0959  130.4193  150.0917 H   0  0  0  0  0  0  0  0  0  0  0  0  # atno 10718 bound_to 10713
  154.5729  135.2829  155.0809 H   0  0  0  0  0  0  0  0  0  0  0  0  # atno 10763 bound_to 10752
  154.2175  135.6397  153.5138 H   0  0  0  0  0  0  0  0  0  0  0  0  # atno 10764 bound_to 10752
  153.0063  135.5506  154.6358 H   0  0  0  0  0  0  0  0  0  0  0  0  # atno 10765 bound_to 10752
  140.8538  133.7837  155.9996 H   0  0  0  0  0  0  0  0  0  0  0  0  # atno 11005 bound_to 11000
  145.3063  139.1833  143.4663 LP  0  0  0  0  0  0  0  0  0  0  0  0  # atno 17320 bound_to 7965
  146.3267  140.3061  142.8624 LP  0  0  0  0  0  0  0  0  0  0  0  0  # atno 17321 bound_to 7965
  140.5258  144.0808  150.6037 LP  0  0  0  0  0  0  0  0  0  0  0  0  # atno 17342 bound_to 10162
  140.3782  143.2817  152.0201 LP  0  0  0  0  0  0  0  0  0  0  0  0  # atno 17343 bound_to 10162
  156.8916  130.9590  151.3588 LP  0  0  0  0  0  0  0  0  0  0  0  0  # atno 17370 bound_to 10713
  157.6120  130.8590  149.8967 LP  0  0  0  0  0  0  0  0  0  0  0  0  # atno 17371 bound_to 10713
  140.8760  134.2668  157.5167 LP  0  0  0  0  0  0  0  0  0  0  0  0  # atno 17394 bound_to 11000
  139.8704  134.9591  156.4322 LP  0  0  0  0  0  0  0  0  0  0  0  0  # atno 17395 bound_to 11000

$$$$
