AV-unprocessed.smi:767|AV-procd|sdf|3658|dock6
  -GOLD-   22720 1 63D 1   1.00000     0.00000
 Structure written by MMmdl.
 47 49  0  0  0  0  0  0  0  0  1 V2000
  145.4581  129.9533  151.2886 C   0  0  0  0  0  0  0  0  0  0  0  0
  145.4300  131.4594  151.1328 C   0  0  0  0  0  0  0  0  0  0  0  0
  146.4966  132.2558  151.6009 C   0  0  0  0  0  0  0  0  0  0  0  0
  146.4158  133.6514  151.4324 C   0  0  0  0  0  0  0  0  0  0  0  0
  145.2764  134.1950  150.8048 C   0  0  0  0  0  0  0  0  0  0  0  0
  145.1360  135.6916  150.6110 C   0  0  0  0  0  0  0  0  0  0  0  0
  144.9433  136.4264  151.9471 C   0  0  0  0  0  0  0  0  0  0  0  0
  146.2169  136.8463  152.5186 N   0  0  0  0  0  0  0  0  0  0  0  0
  146.3497  137.6547  153.5790 C   0  0  0  0  0  0  0  0  0  0  0  0
  145.4040  138.1302  154.2077 O   0  0  0  0  0  0  0  0  0  0  0  0
  147.6360  137.8921  153.8671 N   0  0  0  0  0  0  0  0  0  0  0  0
  148.0931  138.7556  154.9608 C   0  0  1  0  0  0  0  0  0  0  0  0
  149.5779  138.5678  155.2832 C   0  0  1  0  0  0  0  0  0  0  0  0
  150.6057  137.5311  155.0060 C   0  0  0  0  0  0  0  0  0  0  0  0
  151.7717  138.5001  154.6695 C   0  0  0  0  0  0  0  0  0  0  0  0
  151.1772  139.8198  154.5660 O   0  0  0  0  0  0  0  0  0  0  0  0
  149.8440  139.5624  154.1725 C   0  0  2  0  0  0  0  0  0  0  0  0
  148.4985  140.2254  154.5435 C   0  0  0  0  0  0  0  0  0  0  0  0
  147.7343  140.8582  153.3750 C   0  0  0  0  0  0  0  0  0  0  0  0
  148.5200  141.2904  155.6546 C   0  0  0  0  0  0  0  0  0  0  0  0
  144.2659  133.3109  150.3719 C   0  0  0  0  0  0  0  0  0  0  0  0
  144.3348  131.9715  150.5293 N   0  0  0  0  0  0  0  0  0  0  0  0
  146.3815  129.6219  151.7644 H   0  0  0  0  0  0  0  0  0  0  0  0
  145.3852  129.4697  150.3140 H   0  0  0  0  0  0  0  0  0  0  0  0
  144.6206  129.6203  151.9022 H   0  0  0  0  0  0  0  0  0  0  0  0
  147.3567  131.8114  152.0797 H   0  0  0  0  0  0  0  0  0  0  0  0
  147.2131  134.2909  151.7820 H   0  0  0  0  0  0  0  0  0  0  0  0
  146.0223  136.0657  150.0962 H   0  0  0  0  0  0  0  0  0  0  0  0
  144.2906  135.8864  149.9498 H   0  0  0  0  0  0  0  0  0  0  0  0
  144.3307  137.3160  151.7979 H   0  0  0  0  0  0  0  0  0  0  0  0
  144.4054  135.7950  152.6565 H   0  0  0  0  0  0  0  0  0  0  0  0
  147.0538  136.5060  152.0683 H   0  0  0  0  0  0  0  0  0  0  0  0
  148.3460  137.4582  153.2958 H   0  0  0  0  0  0  0  0  0  0  0  0
  147.4609  138.7165  155.8496 H   0  0  0  0  0  0  0  0  0  0  0  0
  149.7657  138.9833  156.2763 H   0  0  0  0  0  0  0  0  0  0  0  0
  150.8185  136.9017  155.8704 H   0  0  0  0  0  0  0  0  0  0  0  0
  150.3392  136.8999  154.1574 H   0  0  0  0  0  0  0  0  0  0  0  0
  152.5354  138.5045  155.4476 H   0  0  0  0  0  0  0  0  0  0  0  0
  152.2485  138.2224  153.7285 H   0  0  0  0  0  0  0  0  0  0  0  0
  149.8225  139.1262  153.1685 H   0  0  0  0  0  0  0  0  0  0  0  0
  148.1485  141.8295  153.1027 H   0  0  0  0  0  0  0  0  0  0  0  0
  146.6822  141.0050  153.6207 H   0  0  0  0  0  0  0  0  0  0  0  0
  147.7726  140.2400  152.4781 H   0  0  0  0  0  0  0  0  0  0  0  0
  149.0778  142.1741  155.3437 H   0  0  0  0  0  0  0  0  0  0  0  0
  148.9743  140.9439  156.5812 H   0  0  0  0  0  0  0  0  0  0  0  0
  147.5103  141.6157  155.9078 H   0  0  0  0  0  0  0  0  0  0  0  0
  143.3759  133.6879  149.8902 H   0  0  0  0  0  0  0  0  0  0  0  0
  1  2  1  0  0  0  0
  1 23  1  0  0  0  0
  1 24  1  0  0  0  0
  1 25  1  0  0  0  0
  2 22  1  0  0  0  0
  2  3  2  0  0  0  0
  3  4  1  0  0  0  0
  3 26  1  0  0  0  0
  4  5  2  0  0  0  0
  4 27  1  0  0  0  0
  5  6  1  0  0  0  0
  5 21  1  0  0  0  0
  6  7  1  0  0  0  0
  6 28  1  0  0  0  0
  6 29  1  0  0  0  0
  7  8  1  0  0  0  0
  7 30  1  0  0  0  0
  7 31  1  0  0  0  0
  8  9  1  0  0  0  0
  8 32  1  0  0  0  0
  9 10  2  0  0  0  0
  9 11  1  0  0  0  0
 11 12  1  0  0  0  0
 11 33  1  0  0  0  0
 12 18  1  0  0  0  0
 12 13  1  0  0  0  0
 12 34  1  0  0  0  0
 13 17  1  0  0  0  0
 13 14  1  0  0  0  0
 13 35  1  0  0  0  0
 14 15  1  0  0  0  0
 14 36  1  0  0  0  0
 14 37  1  0  0  0  0
 15 16  1  0  0  0  0
 15 38  1  0  0  0  0
 15 39  1  0  0  0  0
 16 17  1  0  0  0  0
 17 18  1  0  0  0  0
 17 40  1  0  0  0  0
 18 19  1  0  0  0  0
 18 20  1  0  0  0  0
 19 41  1  0  0  0  0
 19 42  1  0  0  0  0
 19 43  1  0  0  0  0
 20 44  1  0  0  0  0
 20 45  1  0  0  0  0
 20 46  1  0  0  0  0
 21 22  2  0  0  0  0
 21 47  1  0  0  0  0
M  END
> <s_m_source_file>
AV-unprocessed.smi

> <i_m_source_file_index>
767

> <i_lp_mmshare_version>
43012

> <i_f3d_flags>
0

> <s_epik_input>
W0NIM11jMVtjSF1bY0hdYyhbY0hdbjEpW0NIMl1bQ0gyXVtOSF1DKD1PKVtOSF1bQ0BIXTJDKFtDSDNdKShbQ0gzXSlbQ0BIXShbQ0BASF0yMylPW0NIMl1bQ0gyXTM=

> <s_epik_cmdline>
J2VwaWtfcHl0aG9uJywgJy1waCcsICc3LjAnLCAnLXRuJywgJzgnLCAnLW1hJywgJzIwMCcsICctbWV0YWxfYmluZGluZycsICctaW1hZScsICc8aW5maWxlLm1hZT4nLCAnLW9tYWUnLCAnPG91dGZpbGUubWFlPic=

> <r_epik_Ionization_Penalty>
0.0567523

> <r_epik_Ionization_Penalty_Charging>
0

> <r_epik_Ionization_Penalty_Neutral>
0.0567523

> <r_epik_State_Penalty>
0.0489186

> <r_epik_Charging_Adjusted_Penalty>
0.0489186

> <i_epik_Tot_Q>
0

> <i_epik_Tot_abs_Q>
0

> <r_epik_Metal_State_Penalty>
0.044622

> <b_epik_Metal_Only>
0

> <s_lp_Force_Field>
OPLS_2005

> <r_lp_Energy>
57.787

> <b_lp_Chiralities_Consistent>
1

> <s_lp_Variant>
AV-unprocessed.smi:767-2

> <Gold.Version>
5.8.1

> <Gold.Id.Protein>
6NUR|6NUR_protein|mol2

> <Gold.PLP.Fitness>
48.6174

> <Gold.PLP.PLP>
-37.4577

> <Gold.PLP.part.hbond>
-3.0000

> <Gold.PLP.part.metal>
0.0000

> <Gold.PLP.part.buried>
-4.3503

> <Gold.PLP.part.nonpolar>
-31.4487

> <Gold.PLP.part.repulsive>
0.3764

> <Gold.PLP.ligand.clash>
0.0000

> <Gold.PLP.ligand.torsion>
0.5537

> <Gold.PLP.Chemscore.Hbond>
3.0000

> <Gold.PLP.Chemscore.CHOScore>
1.0000

> <Gold.PLP.Chemscore.Metal>
0.0000

> <Gold.Chemscore.Hbonds>
donor molecule, donor type, donor heavy atom, donor atom, acceptor molecule, acceptor atom, score
      L1  H     8    32       P1  7948  1.00
      L1  H    11    33       P1  7948  1.00
      P1  H  7989  7998       L1    16  1.00
      L1  C    21    47       P1 10186  1.00

> <Gold.PLP.Chemscore.Internal.Correction>
0.2670

> <Gold.Rescore>
     Score         DG    S(hbond)    S(metal)    S(lipo)     H(rot)  DE(clash)    DE(int)     intcor
     21.57     -22.70       2.56        0.00     105.81       1.45       0.64       0.49       ----

> <Gold.Chemscore.Fitness>
21.5709

> <Gold.Chemscore.DG>
-22.7045

> <Gold.Chemscore.ZeroCoef>
-5.4800

> <Gold.Chemscore.Hbond>
2.5618

> <Gold.Chemscore.Metal>
0.0000

> <Gold.Chemscore.Lipo>
105.8057

> <Gold.Chemscore.Internal_Hbond>
0.0000

> <Gold.Chemscore.DEClash>
0.6428

> <Gold.Chemscore.DEInternal>
0.4908

> <Gold.Chemscore.Rot>
1.4497

> <Gold.Chemscore.Internal.Correction>
   9.000000E+99

> <Gold.Chemscore.Hbonds>
donor molecule, donor type, donor heavy atom, donor atom, acceptor molecule, acceptor atom, score
      L1  H     8    32       P1  7948  0.99
      L1  H    11    33       P1  7948  0.95
      P1  H  7989  7998       L1    16  0.33

> <Gold.Chemscore.Hbond.Weighted>
-8.5565

> <Gold.Chemscore.Metal.Weighted>
-0.0000

> <Gold.Chemscore.Lipo.Weighted>
-12.3793

> <Gold.Chemscore.Internal_Hbond.Weighted>
0.0000

> <Gold.Chemscore.DEClash.Weighted>
0.6428

> <Gold.Chemscore.DEInternal.Weighted>
0.4908

> <Gold.Chemscore.Rot.Weighted>
3.7112

> <Gold.Chemscore.Internal.Correction.Weighted>
   9.000000E+99

> <Gold.Protein.RotatedTorsions>
[ 6907 6896 6895 6894 ] final   29.68 input  -60.11 | X-H torsion
[ 7974 7965 7964 7962 ] final   85.28 input  175.53 | X-H torsion
[ 8008 7997 7996 7995 ] final  165.11 input   59.86 | X-H torsion
[ 10167 10162 10161 10158 ] final  -43.37 input  -65.29 | X-H torsion
[ 10718 10713 10712 10709 ] final   84.29 input   66.30 | X-H torsion
[ 10763 10752 10751 10750 ] final  -44.65 input  -60.55 | X-H torsion
[ 11005 11000 10999 10996 ] final    2.30 input  -57.11 | X-H torsion

> <Gold.Protein.ActiveResidues>
 VAL166  LYS551  ARG553  GLY616  TRP617  ASP618  TYR619  PRO620  LYS621  CYS622 
 ASP623  PHE694  ASN695  SER759  ASP760  ASP761  ALA762  ILE779  LEU786  VAL792 
 PHE793  MET794  SER795  GLU796  ALA797  LYS798  CYS799  TRP800  GLU811  SER814 

> <Gold.Protein.RotatedAtoms>
  152.0350  134.9745  160.0572 H   0  0  0  0  0  0  0  0  0  0  0  0  # atno 6907 bound_to 6896
  152.1206  133.4347  159.4682 H   0  0  0  0  0  0  0  0  0  0  0  0  # atno 6908 bound_to 6896
  150.6849  134.2457  159.4534 H   0  0  0  0  0  0  0  0  0  0  0  0  # atno 6909 bound_to 6896
  145.5876  139.2333  143.2317 H   0  0  0  0  0  0  0  0  0  0  0  0  # atno 7974 bound_to 7965
  156.1826  140.1678  156.8245 H   0  0  0  0  0  0  0  0  0  0  0  0  # atno 8008 bound_to 7997
  154.5378  140.0743  156.8490 H   0  0  0  0  0  0  0  0  0  0  0  0  # atno 8009 bound_to 7997
  155.3276  140.3377  155.4242 H   0  0  0  0  0  0  0  0  0  0  0  0  # atno 8010 bound_to 7997
  140.6936  143.2987  151.3342 H   0  0  0  0  0  0  0  0  0  0  0  0  # atno 10167 bound_to 10162
  157.6895  131.0127  150.2650 H   0  0  0  0  0  0  0  0  0  0  0  0  # atno 10718 bound_to 10713
  154.0155  135.6676  153.4768 H   0  0  0  0  0  0  0  0  0  0  0  0  # atno 10763 bound_to 10752
  153.0602  135.5032  154.8072 H   0  0  0  0  0  0  0  0  0  0  0  0  # atno 10764 bound_to 10752
  154.6969  135.3071  154.9362 H   0  0  0  0  0  0  0  0  0  0  0  0  # atno 10765 bound_to 10752
  140.6059  133.9793  155.8154 H   0  0  0  0  0  0  0  0  0  0  0  0  # atno 11005 bound_to 11000
  146.1671  140.6702  142.9250 LP  0  0  0  0  0  0  0  0  0  0  0  0  # atno 17320 bound_to 7965
  144.7366  140.4825  143.6899 LP  0  0  0  0  0  0  0  0  0  0  0  0  # atno 17321 bound_to 7965
  139.6366  144.0619  152.2520 LP  0  0  0  0  0  0  0  0  0  0  0  0  # atno 17342 bound_to 10162
  140.0111  144.6223  150.7647 LP  0  0  0  0  0  0  0  0  0  0  0  0  # atno 17343 bound_to 10162
  156.3223  130.3787  149.7564 LP  0  0  0  0  0  0  0  0  0  0  0  0  # atno 17370 bound_to 10713
  156.5130  130.8181  151.3176 LP  0  0  0  0  0  0  0  0  0  0  0  0  # atno 17371 bound_to 10713
  141.0841  134.0017  157.3341 LP  0  0  0  0  0  0  0  0  0  0  0  0  # atno 17394 bound_to 11000
  139.9213  135.0200  156.8073 LP  0  0  0  0  0  0  0  0  0  0  0  0  # atno 17395 bound_to 11000

$$$$
