AV-unprocessed.smi:2963|AV-procd|sdf|11320|dock3
  -GOLD-   2272016223D 1   1.00000     0.00000
 Structure written by MMmdl.
 42 44  0  0  0  0  0  0  0  0  2 V2000
  153.0295  138.6643  154.4396 C   0  0  0  0  0  0  0  0  0  0  0  0
  152.7692  139.4341  155.6026 O   0  0  0  0  0  0  0  0  0  0  0  0
  151.8173  138.8525  156.4813 C   0  0  0  0  0  0  0  0  0  0  0  0
  151.6120  139.7048  157.7454 C   0  0  0  0  0  0  0  0  0  0  0  0
  151.2142  141.0793  157.4151 N   0  0  0  0  0  0  0  0  0  0  0  0
  150.3154  141.5479  156.5046 C   0  0  0  0  0  0  0  0  0  0  0  0
  149.3277  140.5734  155.4151 S   0  0  0  0  0  0  0  0  0  0  0  0
  148.1730  141.7348  154.6244 C   0  0  0  0  0  0  0  0  0  0  0  0
  146.9501  142.1022  155.4822 C   0  0  0  0  0  0  0  0  0  0  0  0
  146.8449  141.6022  156.6050 O   0  0  0  0  0  0  0  0  0  0  0  0
  146.0461  142.9703  154.9536 N   0  0  0  0  0  0  0  0  0  0  0  0
  146.1727  143.5530  153.6165 C   0  0  0  0  0  0  0  0  0  0  0  0
  144.9475  144.4502  153.4778 C   0  0  0  0  0  0  0  0  0  0  0  0
  144.2879  144.2570  154.7451 N   0  0  0  0  0  0  0  0  0  0  0  0
  144.9229  143.4169  155.5657 C   0  0  0  0  0  0  0  0  0  0  0  0
  144.5136  143.1277  156.6905 O   0  0  0  0  0  0  0  0  0  0  0  0
  150.3091  142.9073  156.5931 N   0  3  0  0  0  0  0  0  0  0  0  0
  151.2101  143.3145  157.5786 C   0  0  0  0  0  0  0  0  0  0  0  0
  151.5485  144.5842  158.0365 C   0  0  0  0  0  0  0  0  0  0  0  0
  152.5091  144.6501  159.0672 C   0  0  0  0  0  0  0  0  0  0  0  0
  153.0945  143.4839  159.6019 C   0  0  0  0  0  0  0  0  0  0  0  0
  152.7448  142.2017  159.1294 C   0  0  0  0  0  0  0  0  0  0  0  0
  151.7943  142.1454  158.1107 C   0  0  0  0  0  0  0  0  0  0  0  0
  153.7234  139.2048  153.7960 H   0  0  0  0  0  0  0  0  0  0  0  0
  152.1161  138.4864  153.8705 H   0  0  0  0  0  0  0  0  0  0  0  0
  153.4844  137.7041  154.6819 H   0  0  0  0  0  0  0  0  0  0  0  0
  150.8733  138.7898  155.9387 H   0  0  0  0  0  0  0  0  0  0  0  0
  152.0975  137.8282  156.7320 H   0  0  0  0  0  0  0  0  0  0  0  0
  150.8604  139.2774  158.4089 H   0  0  0  0  0  0  0  0  0  0  0  0
  152.5387  139.7533  158.3179 H   0  0  0  0  0  0  0  0  0  0  0  0
  148.7223  142.6448  154.3817 H   0  0  0  0  0  0  0  0  0  0  0  0
  147.8405  141.2883  153.6872 H   0  0  0  0  0  0  0  0  0  0  0  0
  147.0914  144.1344  153.5242 H   0  0  0  0  0  0  0  0  0  0  0  0
  146.1717  142.7777  152.8486 H   0  0  0  0  0  0  0  0  0  0  0  0
  145.2179  145.4980  153.3416 H   0  0  0  0  0  0  0  0  0  0  0  0
  144.3002  144.1392  152.6570 H   0  0  0  0  0  0  0  0  0  0  0  0
  143.4231  144.7228  154.9799 H   0  0  0  0  0  0  0  0  0  0  0  0
  151.1015  145.4800  157.6307 H   0  0  0  0  0  0  0  0  0  0  0  0
  152.8023  145.6148  159.4561 H   0  0  0  0  0  0  0  0  0  0  0  0
  153.8260  143.5744  160.3918 H   0  0  0  0  0  0  0  0  0  0  0  0
  153.1967  141.3139  159.5473 H   0  0  0  0  0  0  0  0  0  0  0  0
  149.7271  143.5083  156.0244 H   0  0  0  0  0  0  0  0  0  0  0  0
  1  2  1  0  0  0  0
  1 24  1  0  0  0  0
  1 25  1  0  0  0  0
  1 26  1  0  0  0  0
  2  3  1  0  0  0  0
  3  4  1  0  0  0  0
  3 27  1  0  0  0  0
  3 28  1  0  0  0  0
  4  5  1  0  0  0  0
  4 29  1  0  0  0  0
  4 30  1  0  0  0  0
  5 23  1  0  0  0  0
  5  6  1  0  0  0  0
  6  7  1  0  0  0  0
  6 17  2  0  0  0  0
  7  8  1  0  0  0  0
  8  9  1  0  0  0  0
  8 31  1  0  0  0  0
  8 32  1  0  0  0  0
  9 10  2  0  0  0  0
  9 11  1  0  0  0  0
 11 15  1  0  0  0  0
 11 12  1  0  0  0  0
 12 13  1  0  0  0  0
 12 33  1  0  0  0  0
 12 34  1  0  0  0  0
 13 14  1  0  0  0  0
 13 35  1  0  0  0  0
 13 36  1  0  0  0  0
 14 15  1  0  0  0  0
 14 37  1  0  0  0  0
 15 16  2  0  0  0  0
 17 18  1  0  0  0  0
 17 42  1  0  0  0  0
 18 23  2  0  0  0  0
 18 19  1  0  0  0  0
 19 20  2  0  0  0  0
 19 38  1  0  0  0  0
 20 21  1  0  0  0  0
 20 39  1  0  0  0  0
 21 22  2  0  0  0  0
 21 40  1  0  0  0  0
 22 23  1  0  0  0  0
 22 41  1  0  0  0  0
M  CHG  1  17   1
M  END
> <s_m_source_file>
AV-unprocessed.smi

> <i_m_source_file_index>
2963

> <i_lp_mmshare_version>
43012

> <i_f3d_flags>
0

> <s_epik_input>
W2NIXTFbY0hdW2NIXVtjSF1jKGMxMiluKFtDSDJdW0NIMl1PW0NIM10pYyhuMilTW0NIMl1DKD1PKU4zW0NIMl1bQ0gyXVtOSF1DMz1P

> <s_epik_cmdline>
J2VwaWtfcHl0aG9uJywgJy1waCcsICc3LjAnLCAnLXRuJywgJzgnLCAnLW1hJywgJzIwMCcsICctbWV0YWxfYmluZGluZycsICctaW1hZScsICc8aW5maWxlLm1hZT4nLCAnLW9tYWUnLCAnPG91dGZpbGUubWFlPic=

> <r_lp_tautomer_probability>
0.9999

> <r_epik_Ionization_Penalty>
1.70838

> <r_epik_Ionization_Penalty_Charging>
1.70836

> <r_epik_Ionization_Penalty_Neutral>
2.53969e-05

> <r_epik_State_Penalty>
1.81492

> <r_epik_Charging_Adjusted_Penalty>
3.52327

> <i_epik_Tot_Q>
1

> <i_epik_Tot_abs_Q>
1

> <r_epik_Metal_State_Penalty>
1.84772

> <b_epik_Metal_Only>
0

> <s_lp_Force_Field>
OPLS_2005

> <r_lp_Energy>
48.5569

> <b_lp_Chiralities_Consistent>
1

> <s_lp_Variant>
AV-unprocessed.smi:2963-2

> <Gold.Version>
5.8.1

> <Gold.Id.Protein>
6NUR|6NUR_protein|mol2

> <Gold.PLP.Fitness>
57.7955

> <Gold.PLP.PLP>
-49.5138

> <Gold.PLP.part.hbond>
-1.9508

> <Gold.PLP.part.metal>
0.0000

> <Gold.PLP.part.buried>
-5.7209

> <Gold.PLP.part.nonpolar>
-40.8142

> <Gold.PLP.part.repulsive>
0.2306

> <Gold.PLP.ligand.clash>
0.0000

> <Gold.PLP.ligand.torsion>
0.3824

> <Gold.PLP.Chemscore.Hbond>
3.0000

> <Gold.PLP.Chemscore.CHOScore>
0.0000

> <Gold.PLP.Chemscore.Metal>
0.0000

> <Gold.Chemscore.Hbonds>
donor molecule, donor type, donor heavy atom, donor atom, acceptor molecule, acceptor atom, score
      L1  H    17    42       P1  8028  1.95
      P1  H  7997  8010       L1     2  1.00

> <Gold.PLP.Chemscore.Internal.Correction>
0.0465

> <Gold.Rescore>
     Score         DG    S(hbond)    S(metal)    S(lipo)     H(rot)  DE(clash)    DE(int)     intcor
     17.23     -19.07       1.93        0.00     113.33       2.39       0.01       1.82       ----

> <Gold.Chemscore.Fitness>
17.2341

> <Gold.Chemscore.DG>
-19.0715

> <Gold.Chemscore.ZeroCoef>
-5.4800

> <Gold.Chemscore.Hbond>
1.9337

> <Gold.Chemscore.Metal>
0.0000

> <Gold.Chemscore.Lipo>
113.3332

> <Gold.Chemscore.Internal_Hbond>
0.0000

> <Gold.Chemscore.DEClash>
0.0142

> <Gold.Chemscore.DEInternal>
1.8232

> <Gold.Chemscore.Rot>
2.3933

> <Gold.Chemscore.Internal.Correction>
   9.000000E+99

> <Gold.Chemscore.Hbonds>
donor molecule, donor type, donor heavy atom, donor atom, acceptor molecule, acceptor atom, score
      L1  H    17    42       P1  8028  0.90
      P1  H  7997  8010       L1     2  0.69

> <Gold.Chemscore.Hbond.Weighted>
-6.4585

> <Gold.Chemscore.Metal.Weighted>
-0.0000

> <Gold.Chemscore.Lipo.Weighted>
-13.2600

> <Gold.Chemscore.Internal_Hbond.Weighted>
0.0000

> <Gold.Chemscore.DEClash.Weighted>
0.0142

> <Gold.Chemscore.DEInternal.Weighted>
1.8232

> <Gold.Chemscore.Rot.Weighted>
6.1270

> <Gold.Chemscore.Internal.Correction.Weighted>
   9.000000E+99

> <Gold.Protein.RotatedTorsions>
[ 6907 6896 6895 6894 ] final -106.92 input  -60.11 | X-H torsion
[ 7974 7965 7964 7962 ] final   -5.97 input  175.53 | X-H torsion
[ 8008 7997 7996 7995 ] final   83.41 input   59.86 | X-H torsion
[ 10167 10162 10161 10158 ] final  -42.16 input  -65.29 | X-H torsion
[ 10718 10713 10712 10709 ] final -168.86 input   66.30 | X-H torsion
[ 10763 10752 10751 10750 ] final  100.36 input  -60.55 | X-H torsion
[ 11005 11000 10999 10996 ] final -178.50 input  -57.11 | X-H torsion

> <Gold.Protein.ActiveResidues>
 VAL166  LYS551  ARG553  GLY616  TRP617  ASP618  TYR619  PRO620  LYS621  CYS622 
 ASP623  PHE694  ASN695  SER759  ASP760  ASP761  ALA762  ILE779  LEU786  VAL792 
 PHE793  MET794  SER795  GLU796  ALA797  LYS798  CYS799  TRP800  GLU811  SER814 

> <Gold.Protein.RotatedAtoms>
  150.7415  133.9903  159.3604 H   0  0  0  0  0  0  0  0  0  0  0  0  # atno 6907 bound_to 6896
  151.7851  135.0749  160.0388 H   0  0  0  0  0  0  0  0  0  0  0  0  # atno 6908 bound_to 6896
  152.3247  133.5855  159.5804 H   0  0  0  0  0  0  0  0  0  0  0  0  # atno 6909 bound_to 6896
  146.2341  140.2100  142.8335 H   0  0  0  0  0  0  0  0  0  0  0  0  # atno 7974 bound_to 7965
  155.9235  140.3419  155.6192 H   0  0  0  0  0  0  0  0  0  0  0  0  # atno 8008 bound_to 7997
  155.7244  140.0787  157.2335 H   0  0  0  0  0  0  0  0  0  0  0  0  # atno 8009 bound_to 7997
  154.4073  140.1599  156.2425 H   0  0  0  0  0  0  0  0  0  0  0  0  # atno 8010 bound_to 7997
  140.6979  143.3053  151.3169 H   0  0  0  0  0  0  0  0  0  0  0  0  # atno 10167 bound_to 10162
  156.7031  130.9204  151.3082 H   0  0  0  0  0  0  0  0  0  0  0  0  # atno 10718 bound_to 10713
  153.3130  135.4081  155.1352 H   0  0  0  0  0  0  0  0  0  0  0  0  # atno 10763 bound_to 10752
  154.8581  135.3569  154.5698 H   0  0  0  0  0  0  0  0  0  0  0  0  # atno 10764 bound_to 10752
  153.6128  135.7067  153.5399 H   0  0  0  0  0  0  0  0  0  0  0  0  # atno 10765 bound_to 10752
  140.4291  134.6535  157.4703 H   0  0  0  0  0  0  0  0  0  0  0  0  # atno 11005 bound_to 11000
  144.9714  140.8372  143.5453 LP  0  0  0  0  0  0  0  0  0  0  0  0  # atno 17320 bound_to 7965
  145.2082  139.2218  143.5157 LP  0  0  0  0  0  0  0  0  0  0  0  0  # atno 17321 bound_to 7965
  139.6457  144.0456  152.2589 LP  0  0  0  0  0  0  0  0  0  0  0  0  # atno 17342 bound_to 10162
  139.9976  144.6317  150.7759 LP  0  0  0  0  0  0  0  0  0  0  0  0  # atno 17343 bound_to 10162
  157.6965  130.9287  150.0660 LP  0  0  0  0  0  0  0  0  0  0  0  0  # atno 17370 bound_to 10713
  156.1714  130.3646  149.9160 LP  0  0  0  0  0  0  0  0  0  0  0  0  # atno 17371 bound_to 10713
  140.0147  134.6638  155.9328 LP  0  0  0  0  0  0  0  0  0  0  0  0  # atno 17394 bound_to 11000
  141.1753  133.6540  156.4805 LP  0  0  0  0  0  0  0  0  0  0  0  0  # atno 17395 bound_to 11000

$$$$
