#       Name:                AV-unprocessed.smi:817
#       Creating user name   scv26
#       Creation time:       Fri Mar 27 01:27:08 2020


#       File generated by GOLD software.
#

@<TRIPOS>MOLECULE
AV-unprocessed.smi:817
    51    52     1
SMALL
NO_CHARGES


@<TRIPOS>ATOM
      1 ****        -2.6550   3.3661  -2.1045 C.3            1 S1                 0.0000
      2 ****        -2.4741   2.9175  -0.6468 C.3            1 S1                 0.0000
      3 ****        -3.6988   3.2959   0.2045 C.3            1 S1                 0.0000
      4 ****        -3.5577   2.8089   1.6529 C.3            1 S1                 0.0000
      5 ****        -3.2832   1.2948   1.7247 C.3            1 S1                 0.0000
      6 ****        -2.0446   0.8445   0.8953 C.3            1 S1                 0.0000
      7 ****        -0.7455   1.4443   1.5184 C.3            1 S1                 0.0000
      8 ****         0.4668   0.9656   0.8501 N.am           1 S1                 0.0000
      9 ****         1.7425   1.2198   1.1879 C.2            1 S1                 0.0000
     10 ****         2.0108   1.9110   2.1672 O.2            1 S1                 0.0000
     11 ****         2.6508   0.6378   0.3803 N.am           1 S1                 0.0000
     12 ****         4.0693   0.7094   0.4309 C.ar           1 S1                 0.0000
     13 ****         4.8005  -0.2536  -0.2946 C.ar           1 S1                 0.0000
     14 ****         6.2070  -0.2021  -0.2821 C.ar           1 S1                 0.0000
     15 ****         6.8326   0.8215   0.4548 C.ar           1 S1                 0.0000
     16 ****         6.1496   1.7591   1.1444 N.ar           1 S1                 0.0000
     17 ****         4.8002   1.7031   1.1293 C.ar           1 S1                 0.0000
     18 ****        -1.9149  -0.6626   0.8859 N.4            1 S1                 1.0000
     19 ****        -1.9025  -1.3106   2.2242 C.3            1 S1                 0.0000
     20 ****        -2.8224  -1.4005  -0.0315 C.3            1 S1                 0.0000
     21 ****        -2.2186   1.3967  -0.5589 C.3            1 S1                 0.0000
     22 ****        -3.5199   2.8877  -2.5652 H              1 S1                 0.0000
     23 ****        -1.7789   3.1168  -2.7040 H              1 S1                 0.0000
     24 ****        -2.7998   4.4450  -2.1677 H              1 S1                 0.0000
     25 ****        -1.6070   3.4548  -0.2650 H              1 S1                 0.0000
     26 ****        -3.8423   4.3772   0.1943 H              1 S1                 0.0000
     27 ****        -4.5992   2.8633  -0.2337 H              1 S1                 0.0000
     28 ****        -2.7632   3.3624   2.1534 H              1 S1                 0.0000
     29 ****        -4.4708   3.0388   2.2027 H              1 S1                 0.0000
     30 ****        -3.1666   1.0217   2.7736 H              1 S1                 0.0000
     31 ****        -4.1740   0.7728   1.3745 H              1 S1                 0.0000
     32 ****        -0.7449   2.5319   1.4830 H              1 S1                 0.0000
     33 ****        -0.6861   1.2065   2.5802 H              1 S1                 0.0000
     34 ****         0.3272   0.3864   0.0351 H              1 S1                 0.0000
     35 ****         2.2778   0.0332  -0.3367 H              1 S1                 0.0000
     36 ****         4.2921  -1.0261  -0.8532 H              1 S1                 0.0000
     37 ****         6.7923  -0.9293  -0.8253 H              1 S1                 0.0000
     38 ****         7.9099   0.8920   0.4868 H              1 S1                 0.0000
     39 ****         4.3149   2.4939   1.6785 H              1 S1                 0.0000
     40 ****        -2.8838  -1.2701   2.6978 H              1 S1                 0.0000
     41 ****        -1.1737  -0.8691   2.9009 H              1 S1                 0.0000
     42 ****        -1.6315  -2.3626   2.1291 H              1 S1                 0.0000
     43 ****        -3.8690  -1.1609   0.1561 H              1 S1                 0.0000
     44 ****        -2.7044  -2.4778   0.0904 H              1 S1                 0.0000
     45 ****        -2.5929  -1.1944  -1.0765 H              1 S1                 0.0000
     46 ****        -3.0805   0.9338  -1.0382 H              1 S1                 0.0000
     47 ****        -1.3558   1.1314  -1.1711 H              1 S1                 0.0000
     48 ****        -0.9920  -0.8331   0.5121 H              1 S1                 0.0000
     49 ****         1.2749   2.2936   2.7259 LP             1 S1                 0.0000
     50 ****         2.9650   2.0912   2.4057 LP             1 S1                 0.0000
     51 ****         6.6289   2.4750   1.6521 LP             1 S1                 0.0000
@<TRIPOS>BOND
    1    1    2 1     
    2    1   22 1     
    3    1   23 1     
    4    1   24 1     
    5    2   21 1     
    6    2    3 1     
    7    2   25 1     
    8    3    4 1     
    9    3   26 1     
   10    3   27 1     
   11    4    5 1     
   12    4   28 1     
   13    4   29 1     
   14    5    6 1     
   15    5   30 1     
   16    5   31 1     
   17    6    7 1     
   18    6   18 1     
   19    6   21 1     
   20    7    8 1     
   21    7   32 1     
   22    7   33 1     
   23    8    9 am    
   24    8   34 1     
   25    9   10 2     
   26    9   11 am    
   27   11   12 1     
   28   11   35 1     
   29   12   17 ar    
   30   12   13 ar    
   31   13   14 ar    
   32   13   36 1     
   33   14   15 ar    
   34   14   37 1     
   35   15   16 ar    
   36   15   38 1     
   37   16   17 ar    
   38   17   39 1     
   39   18   19 1     
   40   18   20 1     
   41   18   48 1     
   42   19   40 1     
   43   19   41 1     
   44   19   42 1     
   45   20   43 1     
   46   20   44 1     
   47   20   45 1     
   48   21   46 1     
   49   21   47 1     
   50   10   49 1     
   51   10   50 1     
   52   16   51 1     
@<TRIPOS>SUBSTRUCTURE
      1 S1             1
@<TRIPOS>SET
LONE_PAIRS      STATIC     ATOMS    <user>   **** ""
3 49 50 51
DONOR_HYDROGENS      STATIC     ATOMS    <user>   **** ""
3 34 35 48
ATOM$BLUE        STATIC     ATOMS    COLORGROUP SYSTEM
3 49 50 51
ATOM$RED        STATIC     ATOMS    COLORGROUP SYSTEM
3 34 35 48
