AV-unprocessed.smi:2784|AV-procd|sdf|10736|dock5
  -GOLD-   2272015173D 1   1.00000     0.00000
 Structure written by MMmdl.
 31 32  0  0  0  0  0  0  0  0  1 V2000
  152.6884  144.8203  158.7669 C   0  0  0  0  0  0  0  0  0  0  0  0
  152.4090  143.4601  158.4790 O   0  0  0  0  0  0  0  0  0  0  0  0
  151.8158  142.7526  159.5648 C   0  0  2  0  0  0  0  0  0  0  0  0
  152.8675  142.6891  160.6737 C   0  0  0  0  0  0  0  0  0  0  0  0
  153.7553  141.5108  160.2832 C   0  0  0  0  0  0  0  0  0  0  0  0
  152.7940  140.4853  159.6768 C   0  0  0  0  0  0  0  0  0  0  0  0
  151.5587  141.2726  159.1959 C   0  0  2  0  0  0  0  0  0  0  0  0
  151.3320  141.0697  157.7660 N   0  0  0  0  0  0  0  0  0  0  0  0
  150.3830  141.6704  157.0333 C   0  0  0  0  0  0  0  0  0  0  0  0
  149.5885  142.4708  157.5374 O   0  0  0  0  0  0  0  0  0  0  0  0
  150.4730  141.2583  155.7112 N   0  0  0  0  0  0  0  0  0  0  0  0
  150.3857  139.9979  155.4137 C   0  0  0  0  0  0  0  0  0  0  0  0
  150.2118  138.8502  156.1830 N   0  0  0  0  0  0  0  0  0  0  0  0
  150.1919  137.7725  155.3426 C   0  0  0  0  0  0  0  0  0  0  0  0
  150.3447  138.2172  154.0990 C   0  0  0  0  0  0  0  0  0  0  0  0
  150.4660  139.5744  154.1111 O   0  0  0  0  0  0  0  0  0  0  0  0
  153.0975  145.3050  157.8808 H   0  0  0  0  0  0  0  0  0  0  0  0
  153.4238  144.9054  159.5678 H   0  0  0  0  0  0  0  0  0  0  0  0
  151.7878  145.3604  159.0607 H   0  0  0  0  0  0  0  0  0  0  0  0
  150.9078  143.2433  159.9215 H   0  0  0  0  0  0  0  0  0  0  0  0
  153.4243  143.6200  160.7860 H   0  0  0  0  0  0  0  0  0  0  0  0
  152.3818  142.4773  161.6273 H   0  0  0  0  0  0  0  0  0  0  0  0
  154.4745  141.8316  159.5281 H   0  0  0  0  0  0  0  0  0  0  0  0
  154.3171  141.1108  161.1276 H   0  0  0  0  0  0  0  0  0  0  0  0
  153.2773  139.9192  158.8790 H   0  0  0  0  0  0  0  0  0  0  0  0
  152.4924  139.7654  160.4390 H   0  0  0  0  0  0  0  0  0  0  0  0
  150.6985  140.9113  159.7627 H   0  0  0  0  0  0  0  0  0  0  0  0
  151.9584  140.4338  157.2937 H   0  0  0  0  0  0  0  0  0  0  0  0
  150.1159  138.7796  157.1860 H   0  0  0  0  0  0  0  0  0  0  0  0
  150.0665  136.7744  155.7361 H   0  0  0  0  0  0  0  0  0  0  0  0
  150.3866  137.7189  153.1416 H   0  0  0  0  0  0  0  0  0  0  0  0
  1  2  1  0  0  0  0
  1 17  1  0  0  0  0
  1 18  1  0  0  0  0
  1 19  1  0  0  0  0
  2  3  1  0  0  0  0
  3  7  1  0  0  0  0
  3  4  1  0  0  0  0
  3 20  1  0  0  0  0
  4  5  1  0  0  0  0
  4 21  1  0  0  0  0
  4 22  1  0  0  0  0
  5  6  1  0  0  0  0
  5 23  1  0  0  0  0
  5 24  1  0  0  0  0
  6  7  1  0  0  0  0
  6 25  1  0  0  0  0
  6 26  1  0  0  0  0
  7  8  1  0  0  0  0
  7 27  1  0  0  0  0
  8 28  1  0  0  0  0
  8  9  1  0  0  0  0
  9 11  1  0  0  0  0
  9 10  2  0  0  0  0
 11 12  2  0  0  0  0
 12 16  1  0  0  0  0
 12 13  1  0  0  0  0
 13 29  1  0  0  0  0
 13 14  1  0  0  0  0
 14 30  1  0  0  0  0
 14 15  2  0  0  0  0
 15 31  1  0  0  0  0
 15 16  1  0  0  0  0
M  END
> <s_m_source_file>
AV-unprocessed.smi

> <i_m_source_file_index>
2784

> <i_lp_mmshare_version>
43012

> <i_f3d_flags>
0

> <s_epik_input>
W0NIM11PW0NAQEhdMVtDSDJdW0NIMl1bQ0gyXVtDQEhdMVtOSF1DKD1PKVtOSF1jMm5bY0hdW2NIXW8y

> <s_epik_cmdline>
J2VwaWtfcHl0aG9uJywgJy1waCcsICc3LjAnLCAnLXRuJywgJzgnLCAnLW1hJywgJzIwMCcsICctbWV0YWxfYmluZGluZycsICctaW1hZScsICc8aW5maWxlLm1hZT4nLCAnLW9tYWUnLCAnPG91dGZpbGUubWFlPic=

> <r_lp_tautomer_probability>
0.107061

> <r_epik_Ionization_Penalty>
1.29244

> <r_epik_Ionization_Penalty_Charging>
1.29208

> <r_epik_Ionization_Penalty_Neutral>
0.000359742

> <r_epik_State_Penalty>
2.59896

> <r_epik_Charging_Adjusted_Penalty>
3.89105

> <i_epik_Tot_Q>
0

> <i_epik_Tot_abs_Q>
0

> <r_epik_Metal_State_Penalty>
3.62496

> <b_epik_Metal_Only>
0

> <s_lp_Force_Field>
OPLS_2005

> <r_lp_Energy>
46.1047

> <b_lp_Chiralities_Consistent>
1

> <s_lp_Variant>
AV-unprocessed.smi:2784-11

> <Gold.Version>
5.8.1

> <Gold.Id.Protein>
6NUR|6NUR_protein|mol2

> <Gold.PLP.Fitness>
36.8284

> <Gold.PLP.PLP>
-31.6234

> <Gold.PLP.part.hbond>
-1.0000

> <Gold.PLP.part.metal>
0.0000

> <Gold.PLP.part.buried>
-5.5748

> <Gold.PLP.part.nonpolar>
-25.4203

> <Gold.PLP.part.repulsive>
0.4791

> <Gold.PLP.ligand.clash>
0.0000

> <Gold.PLP.ligand.torsion>
0.5528

> <Gold.PLP.Chemscore.Hbond>
1.0000

> <Gold.PLP.Chemscore.CHOScore>
1.0993

> <Gold.PLP.Chemscore.Metal>
0.0000

> <Gold.Chemscore.Hbonds>
donor molecule, donor type, donor heavy atom, donor atom, acceptor molecule, acceptor atom, score
      P1  H  7989  7998       L1    16  0.95
      L1  C    15    31       P1  7948  0.69
      L1  C    15    31       P1  7949  0.37

> <Gold.PLP.Chemscore.Internal.Correction>
0.0127

> <Gold.Rescore>
     Score         DG    S(hbond)    S(metal)    S(lipo)     H(rot)  DE(clash)    DE(int)     intcor
     13.49     -14.19       0.96        0.00      76.11       1.32       0.00       0.70       ----

> <Gold.Chemscore.Fitness>
13.4906

> <Gold.Chemscore.DG>
-14.1946

> <Gold.Chemscore.ZeroCoef>
-5.4800

> <Gold.Chemscore.Hbond>
0.9574

> <Gold.Chemscore.Metal>
0.0000

> <Gold.Chemscore.Lipo>
76.1115

> <Gold.Chemscore.Internal_Hbond>
0.0000

> <Gold.Chemscore.DEClash>
0.0000

> <Gold.Chemscore.DEInternal>
0.7041

> <Gold.Chemscore.Rot>
1.3235

> <Gold.Chemscore.Internal.Correction>
   9.000000E+99

> <Gold.Chemscore.Hbonds>
donor molecule, donor type, donor heavy atom, donor atom, acceptor molecule, acceptor atom, score
      P1  H  7989  7998       L1    16  0.21

> <Gold.Chemscore.Hbond.Weighted>
-3.1978

> <Gold.Chemscore.Metal.Weighted>
-0.0000

> <Gold.Chemscore.Lipo.Weighted>
-8.9050

> <Gold.Chemscore.Internal_Hbond.Weighted>
0.0000

> <Gold.Chemscore.DEClash.Weighted>
0.0000

> <Gold.Chemscore.DEInternal.Weighted>
0.7041

> <Gold.Chemscore.Rot.Weighted>
3.3882

> <Gold.Chemscore.Internal.Correction.Weighted>
   9.000000E+99

> <Gold.Protein.RotatedTorsions>
[ 6907 6896 6895 6894 ] final  -98.93 input  -60.11 | X-H torsion
[ 7974 7965 7964 7962 ] final  -99.84 input  175.53 | X-H torsion
[ 8008 7997 7996 7995 ] final   35.37 input   59.86 | X-H torsion
[ 10167 10162 10161 10158 ] final -158.41 input  -65.29 | X-H torsion
[ 10718 10713 10712 10709 ] final   47.41 input   66.30 | X-H torsion
[ 10763 10752 10751 10750 ] final  147.03 input  -60.55 | X-H torsion
[ 11005 11000 10999 10996 ] final -122.22 input  -57.11 | X-H torsion

> <Gold.Protein.ActiveResidues>
 VAL166  LYS551  ARG553  GLY616  TRP617  ASP618  TYR619  PRO620  LYS621  CYS622 
 ASP623  PHE694  ASN695  SER759  ASP760  ASP761  ALA762  ILE779  LEU786  VAL792 
 PHE793  MET794  SER795  GLU796  ALA797  LYS798  CYS799  TRP800  GLU811  SER814 

> <Gold.Protein.RotatedAtoms>
  150.7063  134.1119  159.4002 H   0  0  0  0  0  0  0  0  0  0  0  0  # atno 6907 bound_to 6896
  151.9106  135.0338  160.0523 H   0  0  0  0  0  0  0  0  0  0  0  0  # atno 6908 bound_to 6896
  152.2339  133.5045  159.5268 H   0  0  0  0  0  0  0  0  0  0  0  0  # atno 6909 bound_to 6896
  145.3024  140.9380  143.2816 H   0  0  0  0  0  0  0  0  0  0  0  0  # atno 7974 bound_to 7965
  155.1700  140.3291  155.4394 H   0  0  0  0  0  0  0  0  0  0  0  0  # atno 8008 bound_to 7997
  156.2513  140.1945  156.6754 H   0  0  0  0  0  0  0  0  0  0  0  0  # atno 8009 bound_to 7997
  154.6344  140.0578  156.9757 H   0  0  0  0  0  0  0  0  0  0  0  0  # atno 8010 bound_to 7997
  139.6695  143.9771  152.2275 H   0  0  0  0  0  0  0  0  0  0  0  0  # atno 10167 bound_to 10162
  157.4582  130.8180  149.7859 H   0  0  0  0  0  0  0  0  0  0  0  0  # atno 10718 bound_to 10713
  154.0317  135.2897  155.3367 H   0  0  0  0  0  0  0  0  0  0  0  0  # atno 10763 bound_to 10752
  154.6984  135.5198  153.8494 H   0  0  0  0  0  0  0  0  0  0  0  0  # atno 10764 bound_to 10752
  153.0637  135.6623  154.0529 H   0  0  0  0  0  0  0  0  0  0  0  0  # atno 10765 bound_to 10752
  141.0011  134.0401  157.3536 H   0  0  0  0  0  0  0  0  0  0  0  0  # atno 11005 bound_to 11000
  144.9083  139.4561  143.6599 LP  0  0  0  0  0  0  0  0  0  0  0  0  # atno 17320 bound_to 7965
  146.3147  139.7876  142.8992 LP  0  0  0  0  0  0  0  0  0  0  0  0  # atno 17321 bound_to 7965
  139.9531  144.6607  150.8152 LP  0  0  0  0  0  0  0  0  0  0  0  0  # atno 17342 bound_to 10162
  140.7612  143.3169  151.2711 LP  0  0  0  0  0  0  0  0  0  0  0  0  # atno 17343 bound_to 10162
  156.0017  130.3877  150.2582 LP  0  0  0  0  0  0  0  0  0  0  0  0  # atno 17370 bound_to 10713
  157.0758  131.0129  151.3174 LP  0  0  0  0  0  0  0  0  0  0  0  0  # atno 17371 bound_to 10713
  139.9039  135.0174  156.7398 LP  0  0  0  0  0  0  0  0  0  0  0  0  # atno 17394 bound_to 11000
  140.6887  133.9409  155.7953 LP  0  0  0  0  0  0  0  0  0  0  0  0  # atno 17395 bound_to 11000

$$$$
