AV-unprocessed.smi:3288|AV-procd|sdf|12606|dock7
  -GOLD-   2272018533D 1   1.00000     0.00000
 Structure written by MMmdl.
 38 39  0  0  0  0  0  0  0  0  1 V2000
  150.6690  138.1519  154.1583 C   0  0  0  0  0  0  0  0  0  0  0  0
  150.9681  139.4232  154.7123 O   0  0  0  0  0  0  0  0  0  0  0  0
  152.0217  139.4045  155.6652 C   0  0  0  0  0  0  0  0  0  0  0  0
  151.8365  140.4763  156.7492 C   0  0  0  0  0  0  0  0  0  0  0  0
  152.6965  140.1649  157.8408 O   0  0  0  0  0  0  0  0  0  0  0  0
  152.8185  141.0749  158.8739 C   0  0  0  0  0  0  0  0  0  0  0  0
  152.4816  142.3679  158.6379 N   0  0  0  0  0  0  0  0  0  0  0  0
  152.6014  143.2573  159.6445 C   0  0  0  0  0  0  0  0  0  0  0  0
  153.0587  142.9096  160.9285 C   0  0  0  0  0  0  0  0  0  0  0  0
  153.4066  141.5688  161.1746 C   0  0  0  0  0  0  0  0  0  0  0  0
  153.2877  140.6213  160.1300 C   0  0  0  0  0  0  0  0  0  0  0  0
  153.6047  139.2617  160.2848 N   0  0  0  0  0  0  0  0  0  0  0  0
  153.9006  138.6610  161.5796 C   0  0  0  0  0  0  0  0  0  0  0  0
  155.1818  139.2411  162.2042 C   0  0  0  0  0  0  0  0  0  0  0  0
  155.5183  138.5118  163.5154 C   0  0  0  0  0  0  0  0  0  0  0  0
  155.6509  137.1143  163.2767 O   0  0  0  0  0  0  0  0  0  0  0  0
  154.4531  136.5159  162.7925 C   0  0  0  0  0  0  0  0  0  0  0  0
  154.0630  137.1404  161.4430 C   0  0  0  0  0  0  0  0  0  0  0  0
  149.8946  138.2614  153.3992 H   0  0  0  0  0  0  0  0  0  0  0  0
  150.2962  137.4583  154.9119 H   0  0  0  0  0  0  0  0  0  0  0  0
  151.5453  137.7129  153.6796 H   0  0  0  0  0  0  0  0  0  0  0  0
  152.1371  138.4130  156.1055 H   0  0  0  0  0  0  0  0  0  0  0  0
  152.9450  139.6106  155.1231 H   0  0  0  0  0  0  0  0  0  0  0  0
  152.0911  141.4552  156.3399 H   0  0  0  0  0  0  0  0  0  0  0  0
  150.7991  140.5064  157.0843 H   0  0  0  0  0  0  0  0  0  0  0  0
  152.3242  144.2767  159.4203 H   0  0  0  0  0  0  0  0  0  0  0  0
  153.1396  143.6537  161.7067 H   0  0  0  0  0  0  0  0  0  0  0  0
  153.7574  141.2934  162.1572 H   0  0  0  0  0  0  0  0  0  0  0  0
  153.7007  138.6871  159.4593 H   0  0  0  0  0  0  0  0  0  0  0  0
  153.0598  138.8390  162.2503 H   0  0  0  0  0  0  0  0  0  0  0  0
  156.0156  139.1345  161.5089 H   0  0  0  0  0  0  0  0  0  0  0  0
  155.0727  140.3085  162.3957 H   0  0  0  0  0  0  0  0  0  0  0  0
  156.4564  138.8888  163.9228 H   0  0  0  0  0  0  0  0  0  0  0  0
  154.7495  138.6914  164.2685 H   0  0  0  0  0  0  0  0  0  0  0  0
  154.6174  135.4446  162.6753 H   0  0  0  0  0  0  0  0  0  0  0  0
  153.6521  136.6367  163.5232 H   0  0  0  0  0  0  0  0  0  0  0  0
  153.1366  136.6929  161.0813 H   0  0  0  0  0  0  0  0  0  0  0  0
  154.8320  136.9104  160.7039 H   0  0  0  0  0  0  0  0  0  0  0  0
  1  2  1  0  0  0  0
  1 19  1  0  0  0  0
  1 20  1  0  0  0  0
  1 21  1  0  0  0  0
  2  3  1  0  0  0  0
  3  4  1  0  0  0  0
  3 22  1  0  0  0  0
  3 23  1  0  0  0  0
  4  5  1  0  0  0  0
  4 24  1  0  0  0  0
  4 25  1  0  0  0  0
  5  6  1  0  0  0  0
  6 11  1  0  0  0  0
  6  7  2  0  0  0  0
  7  8  1  0  0  0  0
  8  9  2  0  0  0  0
  8 26  1  0  0  0  0
  9 10  1  0  0  0  0
  9 27  1  0  0  0  0
 10 11  2  0  0  0  0
 10 28  1  0  0  0  0
 11 12  1  0  0  0  0
 12 13  1  0  0  0  0
 12 29  1  0  0  0  0
 13 18  1  0  0  0  0
 13 14  1  0  0  0  0
 13 30  1  0  0  0  0
 14 15  1  0  0  0  0
 14 31  1  0  0  0  0
 14 32  1  0  0  0  0
 15 16  1  0  0  0  0
 15 33  1  0  0  0  0
 15 34  1  0  0  0  0
 16 17  1  0  0  0  0
 17 18  1  0  0  0  0
 17 35  1  0  0  0  0
 17 36  1  0  0  0  0
 18 37  1  0  0  0  0
 18 38  1  0  0  0  0
M  END
> <s_m_source_file>
AV-unprocessed.smi

> <i_m_source_file_index>
3288

> <i_lp_mmshare_version>
43012

> <i_f3d_flags>
0

> <s_epik_input>
W0NIM11PW0NIMl1bQ0gyXU9jMW5bY0hdW2NIXVtjSF1jMVtOSF1bQ0hdMltDSDJdW0NIMl1PW0NIMl1bQ0gyXTI=

> <s_epik_cmdline>
J2VwaWtfcHl0aG9uJywgJy1waCcsICc3LjAnLCAnLXRuJywgJzgnLCAnLW1hJywgJzIwMCcsICctbWV0YWxfYmluZGluZycsICctaW1hZScsICc8aW5maWxlLm1hZT4nLCAnLW9tYWUnLCAnPG91dGZpbGUubWFlPic=

> <r_lp_tautomer_probability>
1

> <r_epik_Ionization_Penalty>
0.000236303

> <r_epik_Ionization_Penalty_Charging>
0

> <r_epik_Ionization_Penalty_Neutral>
0.000236303

> <r_epik_State_Penalty>
-0

> <r_epik_Charging_Adjusted_Penalty>
0

> <i_epik_Tot_Q>
0

> <i_epik_Tot_abs_Q>
0

> <r_epik_Metal_State_Penalty>
-0

> <b_epik_Metal_Only>
0

> <s_lp_Force_Field>
OPLS_2005

> <r_lp_Energy>
13.3054

> <b_lp_Chiralities_Consistent>
1

> <s_lp_Variant>
AV-unprocessed.smi:3288-1

> <Gold.Version>
5.8.1

> <Gold.Id.Protein>
6NUR|6NUR_protein|mol2

> <Gold.PLP.Fitness>
40.2843

> <Gold.PLP.PLP>
-35.4656

> <Gold.PLP.part.hbond>
-2.0000

> <Gold.PLP.part.metal>
0.0000

> <Gold.PLP.part.buried>
-4.1825

> <Gold.PLP.part.nonpolar>
-28.6903

> <Gold.PLP.part.repulsive>
0.1553

> <Gold.PLP.ligand.clash>
0.0000

> <Gold.PLP.ligand.torsion>
0.6137

> <Gold.PLP.Chemscore.Hbond>
2.0000

> <Gold.PLP.Chemscore.CHOScore>
0.0000

> <Gold.PLP.Chemscore.Metal>
0.0000

> <Gold.Chemscore.Hbonds>
donor molecule, donor type, donor heavy atom, donor atom, acceptor molecule, acceptor atom, score
      P1  H  7989  7998       L1     2  1.00
      P1  H  7997  8008       L1     5  1.00

> <Gold.PLP.Chemscore.Internal.Correction>
0.0461

> <Gold.Rescore>
     Score         DG    S(hbond)    S(metal)    S(lipo)     H(rot)  DE(clash)    DE(int)     intcor
     14.88     -15.55       0.80        0.00      99.98       1.68       0.11       0.55       ----

> <Gold.Chemscore.Fitness>
14.8847

> <Gold.Chemscore.DG>
-15.5479

> <Gold.Chemscore.ZeroCoef>
-5.4800

> <Gold.Chemscore.Hbond>
0.8016

> <Gold.Chemscore.Metal>
0.0000

> <Gold.Chemscore.Lipo>
99.9824

> <Gold.Chemscore.Internal_Hbond>
0.0000

> <Gold.Chemscore.DEClash>
0.1140

> <Gold.Chemscore.DEInternal>
0.5492

> <Gold.Chemscore.Rot>
1.6826

> <Gold.Chemscore.Internal.Correction>
   9.000000E+99

> <Gold.Chemscore.Hbonds>
donor molecule, donor type, donor heavy atom, donor atom, acceptor molecule, acceptor atom, score
      P1  H  7989  7998       L1     2  0.24
      P1  H  7997  8008       L1     5  0.15

> <Gold.Chemscore.Hbond.Weighted>
-2.6773

> <Gold.Chemscore.Metal.Weighted>
-0.0000

> <Gold.Chemscore.Lipo.Weighted>
-11.6979

> <Gold.Chemscore.Internal_Hbond.Weighted>
0.0000

> <Gold.Chemscore.DEClash.Weighted>
0.1140

> <Gold.Chemscore.DEInternal.Weighted>
0.5492

> <Gold.Chemscore.Rot.Weighted>
4.3074

> <Gold.Chemscore.Internal.Correction.Weighted>
   9.000000E+99

> <Gold.Protein.RotatedTorsions>
[ 6907 6896 6895 6894 ] final  151.91 input  -60.11 | X-H torsion
[ 7974 7965 7964 7962 ] final -136.84 input  175.53 | X-H torsion
[ 8008 7997 7996 7995 ] final  -75.05 input   59.86 | X-H torsion
[ 10167 10162 10161 10158 ] final   97.19 input  -65.29 | X-H torsion
[ 10718 10713 10712 10709 ] final  105.42 input   66.30 | X-H torsion
[ 10763 10752 10751 10750 ] final  -70.31 input  -60.55 | X-H torsion
[ 11005 11000 10999 10996 ] final  177.59 input  -57.11 | X-H torsion

> <Gold.Protein.ActiveResidues>
 VAL166  LYS551  ARG553  GLY616  TRP617  ASP618  TYR619  PRO620  LYS621  CYS622 
 ASP623  PHE694  ASN695  SER759  ASP760  ASP761  ALA762  ILE779  LEU786  VAL792 
 PHE793  MET794  SER795  GLU796  ALA797  LYS798  CYS799  TRP800  GLU811  SER814 

> <Gold.Protein.RotatedAtoms>
  152.0940  133.4215  159.4556 H   0  0  0  0  0  0  0  0  0  0  0  0  # atno 6907 bound_to 6896
  150.6863  134.2838  159.4647 H   0  0  0  0  0  0  0  0  0  0  0  0  # atno 6908 bound_to 6896
  152.0692  134.9544  160.0625 H   0  0  0  0  0  0  0  0  0  0  0  0  # atno 6909 bound_to 6896
  144.8893  140.6619  143.5156 H   0  0  0  0  0  0  0  0  0  0  0  0  # atno 7974 bound_to 7965
  154.5383  140.0751  156.8466 H   0  0  0  0  0  0  0  0  0  0  0  0  # atno 8008 bound_to 7997
  155.3233  140.3397  155.4222 H   0  0  0  0  0  0  0  0  0  0  0  0  # atno 8009 bound_to 7997
  156.1850  140.1665  156.8189 H   0  0  0  0  0  0  0  0  0  0  0  0  # atno 8010 bound_to 7997
  139.7824  144.6883  151.0004 H   0  0  0  0  0  0  0  0  0  0  0  0  # atno 10167 bound_to 10162
  157.6706  131.0827  150.5854 H   0  0  0  0  0  0  0  0  0  0  0  0  # atno 10718 bound_to 10713
  154.4159  135.5998  153.5980 H   0  0  0  0  0  0  0  0  0  0  0  0  # atno 10763 bound_to 10752
  152.9792  135.5940  154.4014 H   0  0  0  0  0  0  0  0  0  0  0  0  # atno 10764 bound_to 10752
  154.3833  135.2841  155.2177 H   0  0  0  0  0  0  0  0  0  0  0  0  # atno 10765 bound_to 10752
  140.3858  134.6906  157.4478 H   0  0  0  0  0  0  0  0  0  0  0  0  # atno 11005 bound_to 11000
  145.3812  139.1636  143.4279 LP  0  0  0  0  0  0  0  0  0  0  0  0  # atno 17320 bound_to 7965
  146.3044  140.3893  142.8692 LP  0  0  0  0  0  0  0  0  0  0  0  0  # atno 17321 bound_to 7965
  140.7818  143.4469  151.0470 LP  0  0  0  0  0  0  0  0  0  0  0  0  # atno 17342 bound_to 10162
  139.8149  143.7900  152.3173 LP  0  0  0  0  0  0  0  0  0  0  0  0  # atno 17343 bound_to 10162
  156.6154  130.4391  149.5842 LP  0  0  0  0  0  0  0  0  0  0  0  0  # atno 17370 bound_to 10713
  156.2397  130.6844  151.1544 LP  0  0  0  0  0  0  0  0  0  0  0  0  # atno 17371 bound_to 10713
  140.0444  134.6221  155.8940 LP  0  0  0  0  0  0  0  0  0  0  0  0  # atno 17394 bound_to 11000
  141.1908  133.6569  156.5428 LP  0  0  0  0  0  0  0  0  0  0  0  0  # atno 17395 bound_to 11000

$$$$
