AV-unprocessed.smi:1743|AV-procd|sdf|7023|dock4
  -GOLD-   22720 8243D 1   1.00000     0.00000
 Structure written by MMmdl.
 38 39  0  0  0  0  0  0  0  0  1 V2000
  153.9204  135.2228  157.5787 C   0  0  0  0  0  0  0  0  0  0  0  0
  153.0606  134.0895  157.5278 O   0  0  0  0  0  0  0  0  0  0  0  0
  152.0569  134.0710  156.5810 C   0  0  0  0  0  0  0  0  0  0  0  0
  151.3532  132.8689  156.3676 C   0  0  0  0  0  0  0  0  0  0  0  0
  150.3291  132.8409  155.4018 C   0  0  0  0  0  0  0  0  0  0  0  0
  150.0451  134.0195  154.6718 C   0  0  0  0  0  0  0  0  0  0  0  0
  149.0252  134.1233  153.6879 N   0  0  0  0  0  0  0  0  0  0  0  0
  148.1356  133.1910  153.3057 C   0  0  0  0  0  0  0  0  0  0  0  0
  148.0873  132.0383  153.7347 O   0  0  0  0  0  0  0  0  0  0  0  0
  147.3067  133.6720  152.3677 N   0  0  0  0  0  0  0  0  0  0  0  0
  146.2299  132.9319  151.7147 C   0  0  2  0  0  0  0  0  0  0  0  0
  146.4632  132.9039  150.1928 C   0  0  0  0  0  0  0  0  0  0  0  0
  145.3101  132.1994  149.4558 C   0  0  0  0  0  0  0  0  0  0  0  0
  143.9373  132.8077  149.8004 C   0  0  2  0  0  0  0  0  0  0  0  0
  143.8224  134.0973  149.2322 O   0  0  0  0  0  0  0  0  0  0  0  0
  143.7156  132.8794  151.3233 C   0  0  0  0  0  0  0  0  0  0  0  0
  144.8756  133.5828  152.0498 C   0  0  0  0  0  0  0  0  0  0  0  0
  150.7961  135.1746  154.9729 C   0  0  0  0  0  0  0  0  0  0  0  0
  151.7803  135.2079  155.8956 N   0  0  0  0  0  0  0  0  0  0  0  0
  154.6524  135.0853  158.3744 H   0  0  0  0  0  0  0  0  0  0  0  0
  153.3651  136.1367  157.7946 H   0  0  0  0  0  0  0  0  0  0  0  0
  154.4678  135.3497  156.6436 H   0  0  0  0  0  0  0  0  0  0  0  0
  151.5918  131.9836  156.9382 H   0  0  0  0  0  0  0  0  0  0  0  0
  149.7761  131.9267  155.2524 H   0  0  0  0  0  0  0  0  0  0  0  0
  149.0025  134.9944  153.1783 H   0  0  0  0  0  0  0  0  0  0  0  0
  147.4323  134.6301  152.0760 H   0  0  0  0  0  0  0  0  0  0  0  0
  146.2053  131.9021  152.0759 H   0  0  0  0  0  0  0  0  0  0  0  0
  146.5665  133.9221  149.8148 H   0  0  0  0  0  0  0  0  0  0  0  0
  147.4027  132.3973  149.9692 H   0  0  0  0  0  0  0  0  0  0  0  0
  145.4784  132.2316  148.3787 H   0  0  0  0  0  0  0  0  0  0  0  0
  145.3090  131.1441  149.7311 H   0  0  0  0  0  0  0  0  0  0  0  0
  143.1538  132.1943  149.3541 H   0  0  0  0  0  0  0  0  0  0  0  0
  144.6020  134.2738  148.7285 H   0  0  0  0  0  0  0  0  0  0  0  0
  142.7736  133.3816  151.5461 H   0  0  0  0  0  0  0  0  0  0  0  0
  143.6186  131.8661  151.7151 H   0  0  0  0  0  0  0  0  0  0  0  0
  144.7042  133.5507  153.1265 H   0  0  0  0  0  0  0  0  0  0  0  0
  144.8925  134.6379  151.7730 H   0  0  0  0  0  0  0  0  0  0  0  0
  150.6058  136.1028  154.4540 H   0  0  0  0  0  0  0  0  0  0  0  0
  1  2  1  0  0  0  0
  1 20  1  0  0  0  0
  1 21  1  0  0  0  0
  1 22  1  0  0  0  0
  2  3  1  0  0  0  0
  3 19  1  0  0  0  0
  3  4  2  0  0  0  0
  4  5  1  0  0  0  0
  4 23  1  0  0  0  0
  5  6  2  0  0  0  0
  5 24  1  0  0  0  0
  6  7  1  0  0  0  0
  6 18  1  0  0  0  0
  7  8  1  0  0  0  0
  7 25  1  0  0  0  0
  8  9  2  0  0  0  0
  8 10  1  0  0  0  0
 10 11  1  0  0  0  0
 10 26  1  0  0  0  0
 11 17  1  0  0  0  0
 11 12  1  0  0  0  0
 11 27  1  0  0  0  0
 12 13  1  0  0  0  0
 12 28  1  0  0  0  0
 12 29  1  0  0  0  0
 13 14  1  0  0  0  0
 13 30  1  0  0  0  0
 13 31  1  0  0  0  0
 14 15  1  0  0  0  0
 14 16  1  0  0  0  0
 14 32  1  0  0  0  0
 15 33  1  0  0  0  0
 16 17  1  0  0  0  0
 16 34  1  0  0  0  0
 16 35  1  0  0  0  0
 17 36  1  0  0  0  0
 17 37  1  0  0  0  0
 18 19  2  0  0  0  0
 18 38  1  0  0  0  0
M  END
> <s_m_source_file>
AV-unprocessed.smi

> <i_m_source_file_index>
1743

> <i_lp_mmshare_version>
43012

> <i_f3d_flags>
0

> <s_epik_input>
W0NIM11PYzFbY0hdW2NIXWMoW2NIXW4xKVtOSF1DKD1PKVtOSF1bQ0BASF0yW0NIMl1bQ0gyXVtDQEBIXShbT0hdKVtDSDJdW0NIMl0y

> <s_epik_cmdline>
J2VwaWtfcHl0aG9uJywgJy1waCcsICc3LjAnLCAnLXRuJywgJzgnLCAnLW1hJywgJzIwMCcsICctbWV0YWxfYmluZGluZycsICctaW1hZScsICc8aW5maWxlLm1hZT4nLCAnLW9tYWUnLCAnPG91dGZpbGUubWFlPic=

> <r_lp_tautomer_probability>
1

> <r_epik_Ionization_Penalty>
9.95686e-05

> <r_epik_Ionization_Penalty_Charging>
0

> <r_epik_Ionization_Penalty_Neutral>
9.95686e-05

> <r_epik_State_Penalty>
-0

> <r_epik_Charging_Adjusted_Penalty>
0

> <i_epik_Tot_Q>
0

> <i_epik_Tot_abs_Q>
0

> <r_epik_Metal_State_Penalty>
-0

> <b_epik_Metal_Only>
0

> <s_lp_Force_Field>
OPLS_2005

> <r_lp_Energy>
13.581

> <b_lp_Chiralities_Consistent>
1

> <s_lp_Variant>
AV-unprocessed.smi:1743-2

> <Gold.Version>
5.8.1

> <Gold.Id.Protein>
6NUR|6NUR_protein|mol2

> <Gold.PLP.Fitness>
43.8056

> <Gold.PLP.PLP>
-32.7127

> <Gold.PLP.part.hbond>
-6.0000

> <Gold.PLP.part.metal>
0.0000

> <Gold.PLP.part.buried>
-0.7723

> <Gold.PLP.part.nonpolar>
-25.0026

> <Gold.PLP.part.repulsive>
0.1196

> <Gold.PLP.ligand.clash>
0.0000

> <Gold.PLP.ligand.torsion>
0.1191

> <Gold.PLP.Chemscore.Hbond>
3.7758

> <Gold.PLP.Chemscore.CHOScore>
0.0000

> <Gold.PLP.Chemscore.Metal>
0.0000

> <Gold.Chemscore.Hbonds>
donor molecule, donor type, donor heavy atom, donor atom, acceptor molecule, acceptor atom, score
      L1  H     7    25       P1  7948  0.90
      L1  H    10    26       P1  7948  0.55
      L1  H    15    33       P1  7921  1.00
      P1  H  6896  6908       L1     2  0.27
      P1  H 10752 10765       L1    19  1.00

> <Gold.PLP.Chemscore.Internal.Correction>
0.0036

> <Gold.Rescore>
     Score         DG    S(hbond)    S(metal)    S(lipo)     H(rot)  DE(clash)    DE(int)     intcor
     15.88     -17.32       2.27        0.00      75.10       1.77       0.17       1.27       ----

> <Gold.Chemscore.Fitness>
15.8783

> <Gold.Chemscore.DG>
-17.3162

> <Gold.Chemscore.ZeroCoef>
-5.4800

> <Gold.Chemscore.Hbond>
2.2709

> <Gold.Chemscore.Metal>
0.0000

> <Gold.Chemscore.Lipo>
75.0964

> <Gold.Chemscore.Internal_Hbond>
0.0000

> <Gold.Chemscore.DEClash>
0.1651

> <Gold.Chemscore.DEInternal>
1.2728

> <Gold.Chemscore.Rot>
1.7714

> <Gold.Chemscore.Internal.Correction>
   9.000000E+99

> <Gold.Chemscore.Hbonds>
donor molecule, donor type, donor heavy atom, donor atom, acceptor molecule, acceptor atom, score
      L1  H     7    25       P1  7948  0.18
      L1  H    10    26       P1  7948  0.40
      L1  H    15    33       P1  7921  0.99
      P1  H  6896  6908       L1     2  0.17
      P1  H 10752 10765       L1    19  0.17

> <Gold.Chemscore.Hbond.Weighted>
-7.5846

> <Gold.Chemscore.Metal.Weighted>
-0.0000

> <Gold.Chemscore.Lipo.Weighted>
-8.7863

> <Gold.Chemscore.Internal_Hbond.Weighted>
0.0000

> <Gold.Chemscore.DEClash.Weighted>
0.1651

> <Gold.Chemscore.DEInternal.Weighted>
1.2728

> <Gold.Chemscore.Rot.Weighted>
4.5347

> <Gold.Chemscore.Internal.Correction.Weighted>
   9.000000E+99

> <Gold.Protein.RotatedTorsions>
[ 6907 6896 6895 6894 ] final   16.09 input  -60.11 | X-H torsion
[ 7974 7965 7964 7962 ] final  148.24 input  175.53 | X-H torsion
[ 8008 7997 7996 7995 ] final  150.77 input   59.86 | X-H torsion
[ 10167 10162 10161 10158 ] final -164.23 input  -65.29 | X-H torsion
[ 10718 10713 10712 10709 ] final  101.45 input   66.30 | X-H torsion
[ 10763 10752 10751 10750 ] final -152.95 input  -60.55 | X-H torsion
[ 11005 11000 10999 10996 ] final  -31.73 input  -57.11 | X-H torsion

> <Gold.Protein.ActiveResidues>
 VAL166  LYS551  ARG553  GLY616  TRP617  ASP618  TYR619  PRO620  LYS621  CYS622 
 ASP623  PHE694  ASN695  SER759  ASP760  ASP761  ALA762  ILE779  LEU786  VAL792 
 PHE793  MET794  SER795  GLU796  ALA797  LYS798  CYS799  TRP800  GLU811  SER814 

> <Gold.Protein.RotatedAtoms>
  151.8284  135.0629  160.0433 H   0  0  0  0  0  0  0  0  0  0  0  0  # atno 6907 bound_to 6896
  152.2899  133.5546  159.5559 H   0  0  0  0  0  0  0  0  0  0  0  0  # atno 6908 bound_to 6896
  150.7225  134.0360  159.3791 H   0  0  0  0  0  0  0  0  0  0  0  0  # atno 6909 bound_to 6896
  144.8529  139.6129  143.5965 H   0  0  0  0  0  0  0  0  0  0  0  0  # atno 7974 bound_to 7965
  156.2702  140.2065  156.6071 H   0  0  0  0  0  0  0  0  0  0  0  0  # atno 8008 bound_to 7997
  154.6861  140.0535  157.0339 H   0  0  0  0  0  0  0  0  0  0  0  0  # atno 8009 bound_to 7997
  155.0932  140.3198  155.4570 H   0  0  0  0  0  0  0  0  0  0  0  0  # atno 8010 bound_to 7997
  139.6265  144.0522  152.1979 H   0  0  0  0  0  0  0  0  0  0  0  0  # atno 10167 bound_to 10162
  157.6829  131.0726  150.5254 H   0  0  0  0  0  0  0  0  0  0  0  0  # atno 10718 bound_to 10713
  154.7960  135.3224  154.7665 H   0  0  0  0  0  0  0  0  0  0  0  0  # atno 10763 bound_to 10752
  153.8344  135.6876  153.4815 H   0  0  0  0  0  0  0  0  0  0  0  0  # atno 10764 bound_to 10752
  153.1652  135.4645  154.9769 H   0  0  0  0  0  0  0  0  0  0  0  0  # atno 10765 bound_to 10752
  140.9492  133.7231  156.1194 H   0  0  0  0  0  0  0  0  0  0  0  0  # atno 11005 bound_to 11000
  146.2800  139.6851  142.9236 LP  0  0  0  0  0  0  0  0  0  0  0  0  # atno 17320 bound_to 7965
  145.4464  141.0425  143.2829 LP  0  0  0  0  0  0  0  0  0  0  0  0  # atno 17321 bound_to 7965
  140.0177  144.6176  150.7593 LP  0  0  0  0  0  0  0  0  0  0  0  0  # atno 17342 bound_to 10162
  140.7414  143.2817  151.3579 LP  0  0  0  0  0  0  0  0  0  0  0  0  # atno 17343 bound_to 10162
  156.5565  130.4245  149.6083 LP  0  0  0  0  0  0  0  0  0  0  0  0  # atno 17370 bound_to 10713
  156.2857  130.7096  151.1932 LP  0  0  0  0  0  0  0  0  0  0  0  0  # atno 17371 bound_to 10713
  140.7626  134.3922  157.5523 LP  0  0  0  0  0  0  0  0  0  0  0  0  # atno 17394 bound_to 11000
  139.8842  134.8971  156.2716 LP  0  0  0  0  0  0  0  0  0  0  0  0  # atno 17395 bound_to 11000

$$$$
