AV-unprocessed.smi:1466|AV-procd|sdf|5954|dock2
  -GOLD-   22720 6 43D 1   1.00000     0.00000
 Structure written by MMmdl.
 48 49  0  0  0  0  0  0  0  0  1 V2000
  145.0600  131.5282  151.8398 C   0  0  0  0  0  0  0  0  0  0  0  0
  145.4803  132.7288  151.1279 N   0  0  0  0  0  0  0  0  0  0  0  0
  146.3435  132.6157  149.9566 C   0  0  0  0  0  0  0  0  0  0  0  0
  145.0266  134.0005  151.5473 C   0  0  0  0  0  0  0  0  0  0  0  0
  145.5064  135.1920  150.9490 C   0  0  0  0  0  0  0  0  0  0  0  0
  145.0240  136.4357  151.4009 C   0  0  0  0  0  0  0  0  0  0  0  0
  144.0751  136.4642  152.4484 C   0  0  0  0  0  0  0  0  0  0  0  0
  143.4957  137.6482  152.9801 N   0  0  0  0  0  0  0  0  0  0  0  0
  142.5928  137.7734  153.9677 C   0  0  0  0  0  0  0  0  0  0  0  0
  142.0727  136.8423  154.5818 O   0  0  0  0  0  0  0  0  0  0  0  0
  142.3038  139.0625  154.1961 N   0  0  0  0  0  0  0  0  0  0  0  0
  141.3537  139.5433  155.1920 C   0  0  0  0  0  0  0  0  0  0  0  0
  140.0546  138.7166  155.1783 C   0  0  0  0  0  0  0  0  0  0  0  0
  139.5601  138.4707  156.5379 N   0  0  0  0  0  0  0  0  0  0  0  0
  138.5519  139.4173  157.0405 C   0  0  0  0  0  0  0  0  0  0  0  0
  137.1356  138.8103  157.1669 C   0  0  0  0  0  0  0  0  0  0  0  0
  137.0667  137.3018  157.4773 C   0  0  0  0  0  0  0  0  0  0  0  0
  137.9033  136.8447  158.6908 C   0  0  0  0  0  0  0  0  0  0  0  0
  139.4042  137.2228  158.6801 C   0  0  0  0  0  0  0  0  0  0  0  0
  140.0007  137.4232  157.2773 C   0  0  0  0  0  0  0  0  0  0  0  0
  140.8522  136.6296  156.8760 O   0  0  0  0  0  0  0  0  0  0  0  0
  143.6478  135.2289  152.9724 C   0  0  0  0  0  0  0  0  0  0  0  0
  144.1078  134.0358  152.5431 N   0  0  0  0  0  0  0  0  0  0  0  0
  143.9741  131.4318  151.8213 H   0  0  0  0  0  0  0  0  0  0  0  0
  145.3907  131.5621  152.8784 H   0  0  0  0  0  0  0  0  0  0  0  0
  145.4807  130.6302  151.3871 H   0  0  0  0  0  0  0  0  0  0  0  0
  145.8430  133.0102  149.0719 H   0  0  0  0  0  0  0  0  0  0  0  0
  146.6077  131.5776  149.7553 H   0  0  0  0  0  0  0  0  0  0  0  0
  147.2693  133.1715  150.1086 H   0  0  0  0  0  0  0  0  0  0  0  0
  146.2308  135.1789  150.1491 H   0  0  0  0  0  0  0  0  0  0  0  0
  145.3814  137.3347  150.9244 H   0  0  0  0  0  0  0  0  0  0  0  0
  143.7683  138.5043  152.5196 H   0  0  0  0  0  0  0  0  0  0  0  0
  142.7754  139.7620  153.6416 H   0  0  0  0  0  0  0  0  0  0  0  0
  141.8128  139.5334  156.1821 H   0  0  0  0  0  0  0  0  0  0  0  0
  141.1311  140.5862  154.9648 H   0  0  0  0  0  0  0  0  0  0  0  0
  139.2937  139.2302  154.5890 H   0  0  0  0  0  0  0  0  0  0  0  0
  140.2172  137.7665  154.6659 H   0  0  0  0  0  0  0  0  0  0  0  0
  138.8748  139.8015  158.0082 H   0  0  0  0  0  0  0  0  0  0  0  0
  138.5049  140.3068  156.4110 H   0  0  0  0  0  0  0  0  0  0  0  0
  136.5817  139.3655  157.9246 H   0  0  0  0  0  0  0  0  0  0  0  0
  136.6018  138.9797  156.2312 H   0  0  0  0  0  0  0  0  0  0  0  0
  136.0253  137.0255  157.6445 H   0  0  0  0  0  0  0  0  0  0  0  0
  137.3694  136.7370  156.5942 H   0  0  0  0  0  0  0  0  0  0  0  0
  137.4530  137.2431  159.6005 H   0  0  0  0  0  0  0  0  0  0  0  0
  137.8166  135.7608  158.7737 H   0  0  0  0  0  0  0  0  0  0  0  0
  139.5659  138.1283  159.2646 H   0  0  0  0  0  0  0  0  0  0  0  0
  139.9707  136.4509  159.2028 H   0  0  0  0  0  0  0  0  0  0  0  0
  142.9145  135.1936  153.7648 H   0  0  0  0  0  0  0  0  0  0  0  0
  1  2  1  0  0  0  0
  1 24  1  0  0  0  0
  1 25  1  0  0  0  0
  1 26  1  0  0  0  0
  2  3  1  0  0  0  0
  2  4  1  0  0  0  0
  3 27  1  0  0  0  0
  3 28  1  0  0  0  0
  3 29  1  0  0  0  0
  4 23  1  0  0  0  0
  4  5  2  0  0  0  0
  5  6  1  0  0  0  0
  5 30  1  0  0  0  0
  6  7  2  0  0  0  0
  6 31  1  0  0  0  0
  7  8  1  0  0  0  0
  7 22  1  0  0  0  0
  8  9  1  0  0  0  0
  8 32  1  0  0  0  0
  9 10  2  0  0  0  0
  9 11  1  0  0  0  0
 11 12  1  0  0  0  0
 11 33  1  0  0  0  0
 12 13  1  0  0  0  0
 12 34  1  0  0  0  0
 12 35  1  0  0  0  0
 13 14  1  0  0  0  0
 13 36  1  0  0  0  0
 13 37  1  0  0  0  0
 14 20  1  0  0  0  0
 14 15  1  0  0  0  0
 15 16  1  0  0  0  0
 15 38  1  0  0  0  0
 15 39  1  0  0  0  0
 16 17  1  0  0  0  0
 16 40  1  0  0  0  0
 16 41  1  0  0  0  0
 17 18  1  0  0  0  0
 17 42  1  0  0  0  0
 17 43  1  0  0  0  0
 18 19  1  0  0  0  0
 18 44  1  0  0  0  0
 18 45  1  0  0  0  0
 19 20  1  0  0  0  0
 19 46  1  0  0  0  0
 19 47  1  0  0  0  0
 20 21  2  0  0  0  0
 22 23  2  0  0  0  0
 22 48  1  0  0  0  0
M  END
> <s_m_source_file>
AV-unprocessed.smi

> <i_m_source_file_index>
1466

> <i_lp_mmshare_version>
43012

> <i_f3d_flags>
0

> <s_epik_input>
W0NIM11OKFtDSDNdKWMxW2NIXVtjSF1jKFtjSF1uMSlbTkhdQyg9TylbTkhdW0NIMl1bQ0gyXU4yW0NIMl1bQ0gyXVtDSDJdW0NIMl1bQ0gyXUMyPU8=

> <s_epik_cmdline>
J2VwaWtfcHl0aG9uJywgJy1waCcsICc3LjAnLCAnLXRuJywgJzgnLCAnLW1hJywgJzIwMCcsICctbWV0YWxfYmluZGluZycsICctaW1hZScsICc8aW5maWxlLm1hZT4nLCAnLW9tYWUnLCAnPG91dGZpbGUubWFlPic=

> <r_lp_tautomer_probability>
1

> <r_epik_Ionization_Penalty>
0.597116

> <r_epik_Ionization_Penalty_Charging>
0

> <r_epik_Ionization_Penalty_Neutral>
0.597116

> <r_epik_State_Penalty>
0.610079

> <r_epik_Charging_Adjusted_Penalty>
0.610079

> <i_epik_Tot_Q>
0

> <i_epik_Tot_abs_Q>
0

> <r_epik_Metal_State_Penalty>
0.299962

> <b_epik_Metal_Only>
0

> <s_lp_Force_Field>
OPLS_2005

> <r_lp_Energy>
26.5805

> <b_lp_Chiralities_Consistent>
1

> <s_lp_Variant>
AV-unprocessed.smi:1466-2

> <Gold.Version>
5.8.1

> <Gold.Id.Protein>
6NUR|6NUR_protein|mol2

> <Gold.PLP.Fitness>
46.5534

> <Gold.PLP.PLP>
-39.3642

> <Gold.PLP.part.hbond>
-4.4307

> <Gold.PLP.part.metal>
0.0000

> <Gold.PLP.part.buried>
-2.3660

> <Gold.PLP.part.nonpolar>
-33.1328

> <Gold.PLP.part.repulsive>
0.4141

> <Gold.PLP.ligand.clash>
0.0000

> <Gold.PLP.ligand.torsion>
0.7584

> <Gold.PLP.Chemscore.Hbond>
2.8865

> <Gold.PLP.Chemscore.CHOScore>
0.0000

> <Gold.PLP.Chemscore.Metal>
0.0000

> <Gold.Chemscore.Hbonds>
donor molecule, donor type, donor heavy atom, donor atom, acceptor molecule, acceptor atom, score
      L1  H     8    32       P1 10175  0.94
      L1  H    11    33       P1 10175  1.00
      P1  H 11000 11005       L1    21  0.09

> <Gold.PLP.Chemscore.Internal.Correction>
0.0465

> <Gold.Rescore>
     Score         DG    S(hbond)    S(metal)    S(lipo)     H(rot)  DE(clash)    DE(int)     intcor
     14.31     -19.60       2.80        0.00      73.20       1.48       0.03       5.26       ----

> <Gold.Chemscore.Fitness>
14.3126

> <Gold.Chemscore.DG>
-19.5957

> <Gold.Chemscore.ZeroCoef>
-5.4800

> <Gold.Chemscore.Hbond>
2.7973

> <Gold.Chemscore.Metal>
0.0000

> <Gold.Chemscore.Lipo>
73.1970

> <Gold.Chemscore.Internal_Hbond>
0.0000

> <Gold.Chemscore.DEClash>
0.0255

> <Gold.Chemscore.DEInternal>
5.2576

> <Gold.Chemscore.Rot>
1.4810

> <Gold.Chemscore.Internal.Correction>
   9.000000E+99

> <Gold.Chemscore.Hbonds>
donor molecule, donor type, donor heavy atom, donor atom, acceptor molecule, acceptor atom, score
      L1  H     8    32       P1 10175  0.92
      L1  H    11    33       P1 10175  0.97
      P1  H 11000 11005       L1    21  0.07

> <Gold.Chemscore.Hbond.Weighted>
-9.3429

> <Gold.Chemscore.Metal.Weighted>
-0.0000

> <Gold.Chemscore.Lipo.Weighted>
-8.5640

> <Gold.Chemscore.Internal_Hbond.Weighted>
0.0000

> <Gold.Chemscore.DEClash.Weighted>
0.0255

> <Gold.Chemscore.DEInternal.Weighted>
5.2576

> <Gold.Chemscore.Rot.Weighted>
3.7912

> <Gold.Chemscore.Internal.Correction.Weighted>
   9.000000E+99

> <Gold.Protein.RotatedTorsions>
[ 6907 6896 6895 6894 ] final -114.44 input  -60.11 | X-H torsion
[ 7974 7965 7964 7962 ] final  161.78 input  175.53 | X-H torsion
[ 8008 7997 7996 7995 ] final  -39.62 input   59.86 | X-H torsion
[ 10167 10162 10161 10158 ] final  -66.66 input  -65.29 | X-H torsion
[ 10718 10713 10712 10709 ] final -163.18 input   66.30 | X-H torsion
[ 10763 10752 10751 10750 ] final  132.07 input  -60.55 | X-H torsion
[ 11005 11000 10999 10996 ] final   81.10 input  -57.11 | X-H torsion

> <Gold.Protein.ActiveResidues>
 VAL166  LYS551  ARG553  GLY616  TRP617  ASP618  TYR619  PRO620  LYS621  CYS622 
 ASP623  PHE694  ASN695  SER759  ASP760  ASP761  ALA762  ILE779  LEU786  VAL792 
 PHE793  MET794  SER795  GLU796  ALA797  LYS798  CYS799  TRP800  GLU811  SER814 

> <Gold.Protein.RotatedAtoms>
  150.7903  133.8800  159.3282 H   0  0  0  0  0  0  0  0  0  0  0  0  # atno 6907 bound_to 6896
  151.6640  135.0983  160.0194 H   0  0  0  0  0  0  0  0  0  0  0  0  # atno 6908 bound_to 6896
  152.3975  133.6730  159.6324 H   0  0  0  0  0  0  0  0  0  0  0  0  # atno 6909 bound_to 6896
  144.7668  139.7947  143.6312 H   0  0  0  0  0  0  0  0  0  0  0  0  # atno 7974 bound_to 7965
  154.4021  140.1547  156.2892 H   0  0  0  0  0  0  0  0  0  0  0  0  # atno 8008 bound_to 7997
  155.8800  140.3444  155.5859 H   0  0  0  0  0  0  0  0  0  0  0  0  # atno 8009 bound_to 7997
  155.7678  140.0826  157.2114 H   0  0  0  0  0  0  0  0  0  0  0  0  # atno 8010 bound_to 7997
  140.5641  143.2314  151.6670 H   0  0  0  0  0  0  0  0  0  0  0  0  # atno 10167 bound_to 10162
  156.6211  130.8890  151.2957 H   0  0  0  0  0  0  0  0  0  0  0  0  # atno 10718 bound_to 10713
  153.7846  135.3163  155.3370 H   0  0  0  0  0  0  0  0  0  0  0  0  # atno 10763 bound_to 10752
  154.8148  135.4643  154.0618 H   0  0  0  0  0  0  0  0  0  0  0  0  # atno 10764 bound_to 10752
  153.1917  135.6909  153.8430 H   0  0  0  0  0  0  0  0  0  0  0  0  # atno 10765 bound_to 10752
  139.9110  134.7971  156.1997 H   0  0  0  0  0  0  0  0  0  0  0  0  # atno 11005 bound_to 11000
  146.1783  139.4964  142.9883 LP  0  0  0  0  0  0  0  0  0  0  0  0  # atno 17320 bound_to 7965
  145.6444  141.0277  143.1794 LP  0  0  0  0  0  0  0  0  0  0  0  0  # atno 17321 bound_to 7965
  139.5084  144.3612  152.0560 LP  0  0  0  0  0  0  0  0  0  0  0  0  # atno 17342 bound_to 10162
  140.2742  144.3931  150.6141 LP  0  0  0  0  0  0  0  0  0  0  0  0  # atno 17343 bound_to 10162
  157.7227  130.9580  150.1506 LP  0  0  0  0  0  0  0  0  0  0  0  0  # atno 17370 bound_to 10713
  156.2311  130.3682  149.8444 LP  0  0  0  0  0  0  0  0  0  0  0  0  # atno 17371 bound_to 10713
  141.0532  133.6878  156.1812 LP  0  0  0  0  0  0  0  0  0  0  0  0  # atno 17394 bound_to 11000
  140.6777  134.4800  157.5588 LP  0  0  0  0  0  0  0  0  0  0  0  0  # atno 17395 bound_to 11000

$$$$
