AV-unprocessed.smi:37|AV-procd|sdf|319|dock7
  -GOLD-   2262016143D 1   1.00000     0.00000
 Structure written by MMmdl.
 43 44  0  0  0  0  0  0  0  0  2 V2000
  144.9042  141.3897  158.9192 C   0  0  0  0  0  0  0  0  0  0  0  0
  144.0679  140.3331  159.6538 C   0  0  0  0  0  0  0  0  0  0  0  0
  144.6461  138.9285  159.4977 C   0  0  0  0  0  0  0  0  0  0  0  0
  144.9136  138.2324  160.4775 O   0  0  0  0  0  0  0  0  0  0  0  0
  144.8206  138.5800  158.2132 O   0  0  0  0  0  0  0  0  0  0  0  0
  145.2490  137.2665  157.8952 C   0  0  0  0  0  0  0  0  0  0  0  0
  146.7543  137.1470  158.1545 C   0  0  2  0  0  0  0  0  0  0  0  0
  147.4883  137.6703  157.0459 O   0  0  0  0  0  0  0  0  0  0  0  0
  148.4043  136.7219  156.5877 C   0  0  1  0  0  0  0  0  0  0  0  0
  149.6759  137.4008  156.1344 N   0  0  0  0  0  0  0  0  0  0  0  0
  149.8199  138.7773  156.1949 C   0  0  0  0  0  0  0  0  0  0  0  0
  150.9577  139.3780  155.7902 C   0  0  0  0  0  0  0  0  0  0  0  0
  151.0714  140.7153  155.8649 F   0  0  0  0  0  0  0  0  0  0  0  0
  152.0605  138.5680  155.2754 C   0  0  0  0  0  0  0  0  0  0  0  0
  153.0944  139.1216  154.9050 O   0  0  0  0  0  0  0  0  0  0  0  0
  151.8901  137.2147  155.2287 N   0  5  0  0  0  0  0  0  0  0  0  0
  150.7412  136.6020  155.6391 C   0  0  0  0  0  0  0  0  0  0  0  0
  150.5776  135.3821  155.6044 O   0  0  0  0  0  0  0  0  0  0  0  0
  148.6286  135.7456  157.7440 C   0  0  1  0  0  0  0  0  0  0  0  0
  149.8955  136.4816  159.1075 Br  0  0  0  0  0  0  0  0  0  0  0  0
  147.2190  135.6940  158.3061 C   0  0  1  0  0  0  0  0  0  0  0  0
  147.1772  135.2648  159.6609 O   0  0  0  0  0  0  0  0  0  0  0  0
  147.3433  136.1517  160.6584 C   0  0  0  0  0  0  0  0  0  0  0  0
  148.0159  137.1814  160.6049 O   0  0  0  0  0  0  0  0  0  0  0  0
  146.5775  135.7663  161.9219 C   0  0  0  0  0  0  0  0  0  0  0  0
  147.0112  134.4000  162.4700 C   0  0  0  0  0  0  0  0  0  0  0  0
  144.4515  142.3760  159.0219 H   0  0  0  0  0  0  0  0  0  0  0  0
  144.9756  141.1684  157.8536 H   0  0  0  0  0  0  0  0  0  0  0  0
  145.9169  141.4490  159.3198 H   0  0  0  0  0  0  0  0  0  0  0  0
  144.0102  140.5744  160.7155 H   0  0  0  0  0  0  0  0  0  0  0  0
  143.0467  140.3386  159.2718 H   0  0  0  0  0  0  0  0  0  0  0  0
  144.7075  136.5594  158.5253 H   0  0  0  0  0  0  0  0  0  0  0  0
  145.0213  137.0238  156.8562 H   0  0  0  0  0  0  0  0  0  0  0  0
  147.0367  137.7161  159.0418 H   0  0  0  0  0  0  0  0  0  0  0  0
  147.9820  136.2451  155.7008 H   0  0  0  0  0  0  0  0  0  0  0  0
  149.0199  139.3925  156.5786 H   0  0  0  0  0  0  0  0  0  0  0  0
  149.0035  134.7828  157.3956 H   0  0  0  0  0  0  0  0  0  0  0  0
  146.5991  135.0593  157.6701 H   0  0  0  0  0  0  0  0  0  0  0  0
  146.7358  136.5355  162.6784 H   0  0  0  0  0  0  0  0  0  0  0  0
  145.5106  135.7582  161.6978 H   0  0  0  0  0  0  0  0  0  0  0  0
  146.4766  134.1694  163.3914 H   0  0  0  0  0  0  0  0  0  0  0  0
  148.0784  134.3827  162.6942 H   0  0  0  0  0  0  0  0  0  0  0  0
  146.8027  133.5992  161.7598 H   0  0  0  0  0  0  0  0  0  0  0  0
  1  2  1  0  0  0  0
  1 27  1  0  0  0  0
  1 28  1  0  0  0  0
  1 29  1  0  0  0  0
  2  3  1  0  0  0  0
  2 30  1  0  0  0  0
  2 31  1  0  0  0  0
  3  4  2  0  0  0  0
  3  5  1  0  0  0  0
  5  6  1  0  0  0  0
  6  7  1  0  0  0  0
  6 32  1  0  0  0  0
  6 33  1  0  0  0  0
  7 21  1  0  0  0  0
  7  8  1  0  0  0  0
  7 34  1  0  0  0  0
  8  9  1  0  0  0  0
  9 10  1  0  0  0  0
  9 19  1  0  0  0  0
  9 35  1  0  0  0  0
 10 17  1  0  0  0  0
 10 11  1  0  0  0  0
 11 12  2  0  0  0  0
 11 36  1  0  0  0  0
 12 13  1  0  0  0  0
 12 14  1  0  0  0  0
 14 15  2  0  0  0  0
 14 16  1  0  0  0  0
 16 17  1  0  0  0  0
 17 18  2  0  0  0  0
 19 20  1  0  0  0  0
 19 21  1  0  0  0  0
 19 37  1  0  0  0  0
 21 22  1  0  0  0  0
 21 38  1  0  0  0  0
 22 23  1  0  0  0  0
 23 24  2  0  0  0  0
 23 25  1  0  0  0  0
 25 26  1  0  0  0  0
 25 39  1  0  0  0  0
 25 40  1  0  0  0  0
 26 41  1  0  0  0  0
 26 42  1  0  0  0  0
 26 43  1  0  0  0  0
M  CHG  1  16  -1
M  END
> <s_m_source_file>
AV-unprocessed.smi

> <i_m_source_file_index>
37

> <i_lp_mmshare_version>
43012

> <i_f3d_flags>
0

> <s_epik_input>
W0NIM11bQ0gyXUMoPU8pT1tDSDJdW0NAQEhdMU9bQ0BASF0objJbY0hdYyhGKWMoPU8pW25IXWMyPU8pW0NAQEhdKEJyKVtDQEhdMU9DKD1PKVtDSDJdW0NIM10=

> <s_epik_cmdline>
J2VwaWtfcHl0aG9uJywgJy1waCcsICc3LjAnLCAnLXRuJywgJzgnLCAnLW1hJywgJzIwMCcsICctbWV0YWxfYmluZGluZycsICctaW1hZScsICc8aW5maWxlLm1hZT4nLCAnLW9tYWUnLCAnPG91dGZpbGUubWFlPic=

> <r_epik_Ionization_Penalty>
1.08158

> <r_epik_Ionization_Penalty_Charging>
9.05154e-09

> <r_epik_Ionization_Penalty_Neutral>
1.08158

> <r_epik_State_Penalty>
1.13706

> <r_epik_Charging_Adjusted_Penalty>
1.13706

> <i_epik_Tot_Q>
-1

> <i_epik_Tot_abs_Q>
1

> <r_epik_Metal_State_Penalty>
0.00343535

> <b_epik_Metal_Only>
0

> <s_epik_Chemistry_Notes>
This compound has an ester and may undergo hydrolysis at high or low pH. This compound contains an acetal/aminal-like group ( X-CH(R)-Y where X, Y are N, S, or O) that may be acid/base labile, releasing an aldehyde.

> <s_lp_Force_Field>
OPLS_2005

> <r_lp_Energy>
34.8687

> <b_lp_Chiralities_Consistent>
1

> <s_lp_Variant>
AV-unprocessed.smi:37-17

> <Gold.Version>
5.8.1

> <Gold.Id.Protein>
6NUR|6NUR_protein|mol2

> <Gold.PLP.Fitness>
38.3725

> <Gold.PLP.PLP>
-26.7773

> <Gold.PLP.part.hbond>
-5.0000

> <Gold.PLP.part.metal>
0.0000

> <Gold.PLP.part.buried>
-2.4367

> <Gold.PLP.part.nonpolar>
-20.2984

> <Gold.PLP.part.repulsive>
0.1565

> <Gold.PLP.ligand.clash>
0.0000

> <Gold.PLP.ligand.torsion>
1.0473

> <Gold.PLP.Chemscore.Hbond>
4.4497

> <Gold.PLP.Chemscore.CHOScore>
0.0000

> <Gold.PLP.Chemscore.Metal>
0.0000

> <Gold.Chemscore.Hbonds>
donor molecule, donor type, donor heavy atom, donor atom, acceptor molecule, acceptor atom, score
      P1  H  6931  6943       L1    24  0.80
      P1  H  6934  6947       L1    24  0.73
      P1  H  7997  8009       L1    15  0.94
      P1  H 10752 10763       L1    16  1.92

> <Gold.PLP.Chemscore.Internal.Correction>
0.3407

> <Gold.Rescore>
     Score         DG    S(hbond)    S(metal)    S(lipo)     H(rot)  DE(clash)    DE(int)     intcor
      6.06     -11.67       3.19        0.00      33.19       3.27       0.15       5.46       ----

> <Gold.Chemscore.Fitness>
6.0572

> <Gold.Chemscore.DG>
-11.6660

> <Gold.Chemscore.ZeroCoef>
-5.4800

> <Gold.Chemscore.Hbond>
3.1936

> <Gold.Chemscore.Metal>
0.0000

> <Gold.Chemscore.Lipo>
33.1859

> <Gold.Chemscore.Internal_Hbond>
0.0000

> <Gold.Chemscore.DEClash>
0.1505

> <Gold.Chemscore.DEInternal>
5.4584

> <Gold.Chemscore.Rot>
3.2669

> <Gold.Chemscore.Internal.Correction>
   9.000000E+99

> <Gold.Chemscore.Hbonds>
donor molecule, donor type, donor heavy atom, donor atom, acceptor molecule, acceptor atom, score
      P1  H  6931  6943       L1    24  0.78
      P1  H  6934  6947       L1    24  0.68
      P1  H  7997  8009       L1    15  0.85
      P1  H 10752 10763       L1    16  0.22

> <Gold.Chemscore.Hbond.Weighted>
-10.6666

> <Gold.Chemscore.Metal.Weighted>
-0.0000

> <Gold.Chemscore.Lipo.Weighted>
-3.8828

> <Gold.Chemscore.Internal_Hbond.Weighted>
0.0000

> <Gold.Chemscore.DEClash.Weighted>
0.1505

> <Gold.Chemscore.DEInternal.Weighted>
5.4584

> <Gold.Chemscore.Rot.Weighted>
8.3634

> <Gold.Chemscore.Internal.Correction.Weighted>
   9.000000E+99

> <Gold.Protein.RotatedTorsions>
[ 6907 6896 6895 6894 ] final -135.17 input  -60.11 | X-H torsion
[ 7974 7965 7964 7962 ] final  106.96 input  175.53 | X-H torsion
[ 8008 7997 7996 7995 ] final -153.62 input   59.86 | X-H torsion
[ 10167 10162 10161 10158 ] final  -13.94 input  -65.29 | X-H torsion
[ 10718 10713 10712 10709 ] final  -21.47 input   66.30 | X-H torsion
[ 10763 10752 10751 10750 ] final   66.45 input  -60.55 | X-H torsion
[ 11005 11000 10999 10996 ] final  -83.50 input  -57.11 | X-H torsion

> <Gold.Protein.ActiveResidues>
 VAL166  LYS551  ARG553  GLY616  TRP617  ASP618  TYR619  PRO620  LYS621  CYS622 
 ASP623  PHE694  ASN695  SER759  ASP760  ASP761  ALA762  ILE779  LEU786  VAL792 
 PHE793  MET794  SER795  GLU796  ALA797  LYS798  CYS799  TRP800  GLU811  SER814 

> <Gold.Protein.RotatedAtoms>
  150.9947  133.6115  159.2703 H   0  0  0  0  0  0  0  0  0  0  0  0  # atno 6907 bound_to 6896
  151.3323  135.0843  159.9352 H   0  0  0  0  0  0  0  0  0  0  0  0  # atno 6908 bound_to 6896
  152.5256  133.9574  159.7755 H   0  0  0  0  0  0  0  0  0  0  0  0  # atno 6909 bound_to 6896
  145.2999  139.2573  143.3820 H   0  0  0  0  0  0  0  0  0  0  0  0  # atno 7974 bound_to 7965
  155.6736  140.0736  157.2511 H   0  0  0  0  0  0  0  0  0  0  0  0  # atno 8008 bound_to 7997
  154.4118  140.1694  156.1957 H   0  0  0  0  0  0  0  0  0  0  0  0  # atno 8009 bound_to 7997
  155.9595  140.3371  155.6481 H   0  0  0  0  0  0  0  0  0  0  0  0  # atno 8010 bound_to 7997
  140.7192  143.5373  150.9449 H   0  0  0  0  0  0  0  0  0  0  0  0  # atno 10167 bound_to 10162
  156.5177  130.4625  149.6613 H   0  0  0  0  0  0  0  0  0  0  0  0  # atno 10718 bound_to 10713
  153.0140  135.5320  154.6825 H   0  0  0  0  0  0  0  0  0  0  0  0  # atno 10763 bound_to 10752
  154.5981  135.2865  155.0566 H   0  0  0  0  0  0  0  0  0  0  0  0  # atno 10764 bound_to 10752
  154.1634  135.6544  153.5044 H   0  0  0  0  0  0  0  0  0  0  0  0  # atno 10765 bound_to 10752
  141.1657  133.7298  156.8730 H   0  0  0  0  0  0  0  0  0  0  0  0  # atno 11005 bound_to 11000
  146.3156  140.3510  142.8656 LP  0  0  0  0  0  0  0  0  0  0  0  0  # atno 17320 bound_to 7965
  144.9103  140.7749  143.5812 LP  0  0  0  0  0  0  0  0  0  0  0  0  # atno 17321 bound_to 7965
  139.9095  143.6737  152.3117 LP  0  0  0  0  0  0  0  0  0  0  0  0  # atno 17342 bound_to 10162
  139.7115  144.7619  151.1104 LP  0  0  0  0  0  0  0  0  0  0  0  0  # atno 17343 bound_to 10162
  156.3179  130.7264  151.2171 LP  0  0  0  0  0  0  0  0  0  0  0  0  # atno 17370 bound_to 10713
  157.7441  131.0463  150.4889 LP  0  0  0  0  0  0  0  0  0  0  0  0  # atno 17371 bound_to 10713
  140.1768  134.9061  157.2901 LP  0  0  0  0  0  0  0  0  0  0  0  0  # atno 17394 bound_to 11000
  140.2439  134.3762  155.7469 LP  0  0  0  0  0  0  0  0  0  0  0  0  # atno 17395 bound_to 11000

$$$$
