#       Name:                AV-unprocessed.smi:102
#       Creating user name   scv26
#       Creation time:       Thu Mar 26 17:52:58 2020


#       File generated by GOLD software.
#

@<TRIPOS>MOLECULE
AV-unprocessed.smi:102
    56    57     1
SMALL
NO_CHARGES


@<TRIPOS>ATOM
      1 ****        -4.2561   0.6911   0.0162 C.3            1 S1                 0.0000
      2 ****        -3.7506  -0.7241  -0.2362 C.2            1 S1                 0.0000
      3 ****        -4.5276  -1.6507  -0.4672 O.2            1 S1                 0.0000
      4 ****        -2.4145  -0.8129  -0.1715 O.3            1 S1                 0.0000
      5 ****        -1.7785  -2.0628  -0.3891 C.3            1 S1                 0.0000
      6 ****        -0.2503  -1.9020  -0.3978 C.3            1 S1                 0.0000
      7 ****         0.1360  -1.1340  -1.5365 O.3            1 S1                 0.0000
      8 ****         0.8765  -0.0283  -1.1266 C.3            1 S1                 0.0000
      9 ****         0.5451   1.1313  -2.0430 N.am           1 S1                 0.0000
     10 ****        -0.6931   1.7479  -1.9638 C.2            1 S1                 0.0000
     11 ****        -1.0486   2.7296  -2.8166 C.2            1 S1                 0.0000
     12 ****        -2.2595   3.3035  -2.7092 F              1 S1                 0.0000
     13 ****        -0.1205   3.1457  -3.8646 C.2            1 S1                 0.0000
     14 ****        -0.4355   4.0628  -4.6213 O.2            1 S1                 0.0000
     15 ****         1.0673   2.4822  -3.9608 N.pl3          1 S1                -1.0000
     16 ****         1.4239   1.4754  -3.1097 C.2            1 S1                 0.0000
     17 ****         2.4807   0.8552  -3.2242 O.2            1 S1                 0.0000
     18 ****         0.5465   0.2321   0.3445 C.3            1 S1                 0.0000
     19 ****         1.6131   0.9092   0.9977 O.3            1 S1                 0.0000
     20 ****         1.3954   1.5363   2.1652 C.2            1 S1                 0.0000
     21 ****         2.6516   2.2035   2.7084 C.3            1 S1                 0.0000
     22 ****         0.3253   1.5882   2.7720 O.2            1 S1                 0.0000
     23 ****         0.3150  -1.1882   0.8445 C.3            1 S1                 0.0000
     24 ****         1.5482  -1.7920   1.2275 O.3            1 S1                 0.0000
     25 ****         1.5640  -2.8068   2.1088 C.2            1 S1                 0.0000
     26 ****         2.9755  -3.2962   2.4030 C.3            1 S1                 0.0000
     27 ****         0.5802  -3.3216   2.6405 O.2            1 S1                 0.0000
     28 ****        -3.4409   1.4133  -0.0344 H              1 S1                 0.0000
     29 ****        -4.7134   0.7561   1.0033 H              1 S1                 0.0000
     30 ****        -5.0026   0.9642  -0.7297 H              1 S1                 0.0000
     31 ****        -2.0716  -2.7531   0.4030 H              1 S1                 0.0000
     32 ****        -2.1109  -2.4935  -1.3347 H              1 S1                 0.0000
     33 ****         0.1882  -2.8952  -0.5001 H              1 S1                 0.0000
     34 ****         1.9350  -0.2629  -1.2388 H              1 S1                 0.0000
     35 ****        -1.4096   1.4366  -1.2216 H              1 S1                 0.0000
     36 ****        -0.3819   0.7938   0.4241 H              1 S1                 0.0000
     37 ****         3.1602   2.7573   1.9189 H              1 S1                 0.0000
     38 ****         3.3362   1.4523   3.1019 H              1 S1                 0.0000
     39 ****         2.4006   2.8979   3.5105 H              1 S1                 0.0000
     40 ****        -0.3848  -1.1896   1.6818 H              1 S1                 0.0000
     41 ****         3.6206  -2.4575   2.6661 H              1 S1                 0.0000
     42 ****         3.3924  -3.7935   1.5271 H              1 S1                 0.0000
     43 ****         2.9717  -4.0026   3.2333 H              1 S1                 0.0000
     44 ****        -5.5130  -1.4824  -0.4921 LP             1 S1                 0.0000
     45 ****        -4.1733  -2.5715  -0.6299 LP             1 S1                 0.0000
     46 ****        -0.6817  -0.8251  -2.0223 LP             1 S1                 0.0000
     47 ****         0.6921  -1.6992  -2.1458 LP             1 S1                 0.0000
     48 ****        -1.3204   4.5165  -4.5159 LP             1 S1                 0.0000
     49 ****         0.1934   4.3548  -5.3420 LP             1 S1                 0.0000
     50 ****         1.7045   2.7442  -4.6857 LP             1 S1                 0.0000
     51 ****         2.7063   0.1277  -2.5762 LP             1 S1                 0.0000
     52 ****         3.1139   1.0788  -3.9652 LP             1 S1                 0.0000
     53 ****        -0.4841   1.1356   2.3979 LP             1 S1                 0.0000
     54 ****         0.2656   2.0831   3.6389 LP             1 S1                 0.0000
     55 ****        -0.3370  -2.9855   2.4264 LP             1 S1                 0.0000
     56 ****         0.6983  -4.0758   3.2864 LP             1 S1                 0.0000
@<TRIPOS>BOND
    1    1    2 1     
    2    1   28 1     
    3    1   29 1     
    4    1   30 1     
    5    2    3 2     
    6    2    4 1     
    7    4    5 1     
    8    5    6 1     
    9    5   31 1     
   10    5   32 1     
   11    6   23 1     
   12    6    7 1     
   13    6   33 1     
   14    7    8 1     
   15    8    9 1     
   16    8   18 1     
   17    8   34 1     
   18    9   16 am    
   19    9   10 1     
   20   10   11 2     
   21   10   35 1     
   22   11   12 1     
   23   11   13 1     
   24   13   14 2     
   25   13   15 1     
   26   15   16 1     
   27   16   17 2     
   28   18   19 1     
   29   18   23 1     
   30   18   36 1     
   31   19   20 1     
   32   20   21 1     
   33   20   22 2     
   34   21   37 1     
   35   21   38 1     
   36   21   39 1     
   37   23   24 1     
   38   23   40 1     
   39   24   25 1     
   40   25   26 1     
   41   25   27 2     
   42   26   41 1     
   43   26   42 1     
   44   26   43 1     
   45    3   44 1     
   46    3   45 1     
   47    7   46 1     
   48    7   47 1     
   49   14   48 1     
   50   14   49 1     
   51   15   50 1     
   52   17   51 1     
   53   17   52 1     
   54   22   53 1     
   55   22   54 1     
   56   27   55 1     
   57   27   56 1     
@<TRIPOS>SUBSTRUCTURE
      1 S1             1
@<TRIPOS>SET
LONE_PAIRS      STATIC     ATOMS    <user>   **** ""
13 44 45 46 47 48 49 50 51 52 53 54 55 56
ATOM$BLUE        STATIC     ATOMS    COLORGROUP SYSTEM
13 44 45 46 47 48 49 50 51 52 53 54 55 56
