AV-unprocessed.smi:898|AV-procd|sdf|4085|dock6
  -GOLD-   22720 1573D 1   1.00000     0.00000
 Structure written by MMmdl.
 33 35  0  0  0  0  0  0  0  0  2 V2000
  152.7077  139.1682  156.8181 O   0  0  0  0  0  0  0  0  0  0  0  0
  151.4911  139.3688  156.8409 C   0  0  0  0  0  0  0  0  0  0  0  0
  150.5334  138.5397  156.3667 N   0  5  0  0  0  0  0  0  0  0  0  0
  149.6189  138.9988  155.4966 C   0  0  0  0  0  0  0  0  0  0  0  0
  149.7823  140.1449  154.8209 N   0  0  0  0  0  0  0  0  0  0  0  0
  148.7220  140.4339  153.9742 N   0  0  0  0  0  0  0  0  0  0  0  0
  147.7735  139.4953  154.0166 C   0  0  0  0  0  0  0  0  0  0  0  0
  146.5287  139.5797  153.1986 C   0  0  0  0  0  0  0  0  0  0  0  0
  146.0845  138.4134  152.3459 C   0  0  0  0  0  0  0  0  0  0  0  0
  146.5784  139.6771  151.6893 C   0  0  0  0  0  0  0  0  0  0  0  0
  148.1166  138.1620  155.1072 S   0  0  0  0  0  0  0  0  0  0  0  0
  151.0079  140.5002  157.3743 N   0  0  0  0  0  0  0  0  0  0  0  0
  151.7943  141.5849  157.9564 C   0  0  2  0  0  0  0  0  0  0  0  0
  151.6956  141.5525  159.4961 C   0  0  0  0  0  0  0  0  0  0  0  0
  152.5480  142.6424  160.1656 C   0  0  0  0  0  0  0  0  0  0  0  0
  152.1170  144.0568  159.7538 C   0  0  0  0  0  0  0  0  0  0  0  0
  152.3190  144.3116  157.9701 S   0  0  0  0  0  0  0  0  0  0  0  0
  151.3053  142.9259  157.3825 C   0  0  0  0  0  0  0  0  0  0  0  0
  145.7636  140.1507  153.7207 H   0  0  0  0  0  0  0  0  0  0  0  0
  146.7333  137.5405  152.3081 H   0  0  0  0  0  0  0  0  0  0  0  0
  145.0177  138.2046  152.2985 H   0  0  0  0  0  0  0  0  0  0  0  0
  145.8410  140.3130  151.2042 H   0  0  0  0  0  0  0  0  0  0  0  0
  147.5506  139.6361  151.2018 H   0  0  0  0  0  0  0  0  0  0  0  0
  150.0052  140.6174  157.3709 H   0  0  0  0  0  0  0  0  0  0  0  0
  152.8380  141.4549  157.6639 H   0  0  0  0  0  0  0  0  0  0  0  0
  150.6547  141.6611  159.8039 H   0  0  0  0  0  0  0  0  0  0  0  0
  152.0207  140.5791  159.8653 H   0  0  0  0  0  0  0  0  0  0  0  0
  152.4698  142.5439  161.2486 H   0  0  0  0  0  0  0  0  0  0  0  0
  153.5999  142.4910  159.9204 H   0  0  0  0  0  0  0  0  0  0  0  0
  151.0743  144.2302  160.0221 H   0  0  0  0  0  0  0  0  0  0  0  0
  152.7119  144.8018  160.2825 H   0  0  0  0  0  0  0  0  0  0  0  0
  151.3464  142.9112  156.2929 H   0  0  0  0  0  0  0  0  0  0  0  0
  150.2662  143.1061  157.6607 H   0  0  0  0  0  0  0  0  0  0  0  0
  1  2  2  0  0  0  0
  2  3  1  0  0  0  0
  2 12  1  0  0  0  0
  3  4  1  0  0  0  0
  4 11  1  0  0  0  0
  4  5  2  0  0  0  0
  5  6  1  0  0  0  0
  6  7  2  0  0  0  0
  7  8  1  0  0  0  0
  7 11  1  0  0  0  0
  8 10  1  0  0  0  0
  8  9  1  0  0  0  0
  8 19  1  0  0  0  0
  9 10  1  0  0  0  0
  9 20  1  0  0  0  0
  9 21  1  0  0  0  0
 10 22  1  0  0  0  0
 10 23  1  0  0  0  0
 12 13  1  0  0  0  0
 12 24  1  0  0  0  0
 13 18  1  0  0  0  0
 13 14  1  0  0  0  0
 13 25  1  0  0  0  0
 14 15  1  0  0  0  0
 14 26  1  0  0  0  0
 14 27  1  0  0  0  0
 15 16  1  0  0  0  0
 15 28  1  0  0  0  0
 15 29  1  0  0  0  0
 16 17  1  0  0  0  0
 16 30  1  0  0  0  0
 16 31  1  0  0  0  0
 17 18  1  0  0  0  0
 18 32  1  0  0  0  0
 18 33  1  0  0  0  0
M  CHG  1   3  -1
M  END
> <s_m_source_file>
AV-unprocessed.smi

> <i_m_source_file_index>
898

> <i_lp_mmshare_version>
43012

> <i_f3d_flags>
0

> <s_epik_input>
W0NIMl0xU1tDSDJdW0NIMl1bQ0gyXVtDQEhdMVtOSF1DKD1PKVtOSF1jMm5uYyhzMilbQ0hdM1tDSDJdW0NIMl0z

> <s_epik_cmdline>
J2VwaWtfcHl0aG9uJywgJy1waCcsICc3LjAnLCAnLXRuJywgJzgnLCAnLW1hJywgJzIwMCcsICctbWV0YWxfYmluZGluZycsICctaW1hZScsICc8aW5maWxlLm1hZT4nLCAnLW9tYWUnLCAnPG91dGZpbGUubWFlPic=

> <r_lp_tautomer_probability>
1

> <r_epik_Ionization_Penalty>
4.71411

> <r_epik_Ionization_Penalty_Charging>
4.5615

> <r_epik_Ionization_Penalty_Neutral>
0.152604

> <r_epik_State_Penalty>
4.56123

> <r_epik_Charging_Adjusted_Penalty>
9.12273

> <i_epik_Tot_Q>
-1

> <i_epik_Tot_abs_Q>
1

> <r_epik_Metal_State_Penalty>
0.850765

> <b_epik_Metal_Only>
1

> <s_lp_Force_Field>
OPLS_2005

> <r_lp_Energy>
0.497958

> <b_lp_Chiralities_Consistent>
1

> <s_lp_Variant>
AV-unprocessed.smi:898-3

> <Gold.Version>
5.8.1

> <Gold.Id.Protein>
6NUR|6NUR_protein|mol2

> <Gold.PLP.Fitness>
38.4106

> <Gold.PLP.PLP>
-33.9140

> <Gold.PLP.part.hbond>
-1.7172

> <Gold.PLP.part.metal>
0.0000

> <Gold.PLP.part.buried>
-1.3502

> <Gold.PLP.part.nonpolar>
-33.3450

> <Gold.PLP.part.repulsive>
2.5905

> <Gold.PLP.ligand.clash>
0.0000

> <Gold.PLP.ligand.torsion>
0.7753

> <Gold.PLP.Chemscore.Hbond>
1.9666

> <Gold.PLP.Chemscore.CHOScore>
0.0000

> <Gold.PLP.Chemscore.Metal>
0.0000

> <Gold.Chemscore.Hbonds>
donor molecule, donor type, donor heavy atom, donor atom, acceptor molecule, acceptor atom, score
      P1  H  7989  7998       L1     5  0.13
      P1  H  7997  8010       L1     1  1.00

> <Gold.PLP.Chemscore.Internal.Correction>
0.1473

> <Gold.Rescore>
     Score         DG    S(hbond)    S(metal)    S(lipo)     H(rot)  DE(clash)    DE(int)     intcor
     16.30     -18.92       1.63        0.00      94.30       1.19       1.80       0.82       ----

> <Gold.Chemscore.Fitness>
16.3002

> <Gold.Chemscore.DG>
-18.9212

> <Gold.Chemscore.ZeroCoef>
-5.4800

> <Gold.Chemscore.Hbond>
1.6339

> <Gold.Chemscore.Metal>
0.0000

> <Gold.Chemscore.Lipo>
94.3012

> <Gold.Chemscore.Internal_Hbond>
0.0000

> <Gold.Chemscore.DEClash>
1.8033

> <Gold.Chemscore.DEInternal>
0.8176

> <Gold.Chemscore.Rot>
1.1911

> <Gold.Chemscore.Internal.Correction>
   9.000000E+99

> <Gold.Chemscore.Hbonds>
donor molecule, donor type, donor heavy atom, donor atom, acceptor molecule, acceptor atom, score
      P1  H  7989  7998       L1     5  0.03
      P1  H  7997  8010       L1     1  0.99

> <Gold.Chemscore.Hbond.Weighted>
-5.4572

> <Gold.Chemscore.Metal.Weighted>
-0.0000

> <Gold.Chemscore.Lipo.Weighted>
-11.0332

> <Gold.Chemscore.Internal_Hbond.Weighted>
0.0000

> <Gold.Chemscore.DEClash.Weighted>
1.8033

> <Gold.Chemscore.DEInternal.Weighted>
0.8176

> <Gold.Chemscore.Rot.Weighted>
3.0492

> <Gold.Chemscore.Internal.Correction.Weighted>
   9.000000E+99

> <Gold.Protein.RotatedTorsions>
[ 6907 6896 6895 6894 ] final  -54.83 input  -60.11 | X-H torsion
[ 7974 7965 7964 7962 ] final   70.72 input  175.53 | X-H torsion
[ 8008 7997 7996 7995 ] final   51.44 input   59.86 | X-H torsion
[ 10167 10162 10161 10158 ] final  -92.46 input  -65.29 | X-H torsion
[ 10718 10713 10712 10709 ] final  105.08 input   66.30 | X-H torsion
[ 10763 10752 10751 10750 ] final   90.84 input  -60.55 | X-H torsion
[ 11005 11000 10999 10996 ] final  -10.38 input  -57.11 | X-H torsion

> <Gold.Protein.ActiveResidues>
 VAL166  LYS551  ARG553  GLY616  TRP617  ASP618  TYR619  PRO620  LYS621  CYS622 
 ASP623  PHE694  ASN695  SER759  ASP760  ASP761  ALA762  ILE779  LEU786  VAL792 
 PHE793  MET794  SER795  GLU796  ALA797  LYS798  CYS799  TRP800  GLU811  SER814 

> <Gold.Protein.RotatedAtoms>
  150.8304  134.7554  159.6848 H   0  0  0  0  0  0  0  0  0  0  0  0  # atno 6907 bound_to 6896
  152.4409  134.5589  159.9898 H   0  0  0  0  0  0  0  0  0  0  0  0  # atno 6908 bound_to 6896
  151.5751  133.3347  159.3033 H   0  0  0  0  0  0  0  0  0  0  0  0  # atno 6909 bound_to 6896
  145.7747  139.2859  143.1300 H   0  0  0  0  0  0  0  0  0  0  0  0  # atno 7974 bound_to 7965
  155.4353  140.3452  155.4284 H   0  0  0  0  0  0  0  0  0  0  0  0  # atno 8008 bound_to 7997
  156.1312  140.1514  156.9093 H   0  0  0  0  0  0  0  0  0  0  0  0  # atno 8009 bound_to 7997
  154.4896  140.0845  156.7544 H   0  0  0  0  0  0  0  0  0  0  0  0  # atno 8010 bound_to 7997
  140.3345  143.2976  151.9904 H   0  0  0  0  0  0  0  0  0  0  0  0  # atno 10167 bound_to 10162
  157.6718  131.0819  150.5802 H   0  0  0  0  0  0  0  0  0  0  0  0  # atno 10718 bound_to 10713
  153.2018  135.4419  155.0276 H   0  0  0  0  0  0  0  0  0  0  0  0  # atno 10763 bound_to 10752
  154.8151  135.3312  154.7200 H   0  0  0  0  0  0  0  0  0  0  0  0  # atno 10764 bound_to 10752
  153.7645  135.6989  153.4974 H   0  0  0  0  0  0  0  0  0  0  0  0  # atno 10765 bound_to 10752
  140.7441  133.8646  155.8992 H   0  0  0  0  0  0  0  0  0  0  0  0  # atno 11005 bound_to 11000
  146.0134  140.8414  142.9959 LP  0  0  0  0  0  0  0  0  0  0  0  0  # atno 17320 bound_to 7965
  144.6806  140.2523  143.7330 LP  0  0  0  0  0  0  0  0  0  0  0  0  # atno 17321 bound_to 7965
  139.4850  144.6207  151.7260 LP  0  0  0  0  0  0  0  0  0  0  0  0  # atno 17342 bound_to 10162
  140.5366  144.0646  150.6072 LP  0  0  0  0  0  0  0  0  0  0  0  0  # atno 17343 bound_to 10162
  156.6103  130.4378  149.5861 LP  0  0  0  0  0  0  0  0  0  0  0  0  # atno 17370 bound_to 10713
  156.2436  130.6865  151.1579 LP  0  0  0  0  0  0  0  0  0  0  0  0  # atno 17371 bound_to 10713
  140.9810  134.1406  157.4494 LP  0  0  0  0  0  0  0  0  0  0  0  0  # atno 17394 bound_to 11000
  139.8800  135.0010  156.6044 LP  0  0  0  0  0  0  0  0  0  0  0  0  # atno 17395 bound_to 11000

$$$$
