AV-unprocessed.smi:869|AV-procd|sdf|4003|dock10
  -GOLD-   22720 1483D 1   1.00000     0.00000
 Structure written by MMmdl.
 46 48  0  0  0  0  0  0  0  0  1 V2000
  152.1979  138.4661  154.5412 C   0  0  0  0  0  0  0  0  0  0  0  0
  152.8328  139.2835  155.5081 O   0  0  0  0  0  0  0  0  0  0  0  0
  152.3520  139.0395  156.8217 C   0  0  0  0  0  0  0  0  0  0  0  0
  152.2519  140.3526  157.5452 C   0  0  0  0  0  0  0  0  0  0  0  0
  152.9287  140.6230  158.6644 N   0  0  0  0  0  0  0  0  0  0  0  0
  152.5355  141.9136  158.9574 C   0  0  0  0  0  0  0  0  0  0  0  0
  152.9002  142.7657  160.0244 C   0  0  0  0  0  0  0  0  0  0  0  0
  152.3607  144.0656  160.1161 C   0  0  0  0  0  0  0  0  0  0  0  0
  151.4516  144.5313  159.1441 C   0  0  0  0  0  0  0  0  0  0  0  0
  151.0756  143.6984  158.0726 C   0  0  0  0  0  0  0  0  0  0  0  0
  151.6162  142.4014  157.9869 C   0  0  0  0  0  0  0  0  0  0  0  0
  151.4578  141.3533  157.0860 N   0  0  0  0  0  0  0  0  0  0  0  0
  150.6084  141.3660  155.9016 C   0  0  0  0  0  0  0  0  0  0  0  0
  149.1137  141.2003  156.2424 C   0  0  2  0  0  0  0  0  0  0  0  0
  148.8557  139.8448  156.5521 O   0  0  0  0  0  0  0  0  0  0  0  0
  148.2091  141.6120  155.0702 C   0  0  0  0  0  0  0  0  0  0  0  0
  146.8571  141.6035  155.5096 O   0  0  0  0  0  0  0  0  0  0  0  0
  146.0198  142.6051  155.0672 C   0  0  0  0  0  0  0  0  0  0  0  0
  144.9645  142.9814  155.9234 C   0  0  0  0  0  0  0  0  0  0  0  0
  144.0597  143.9945  155.5524 C   0  0  0  0  0  0  0  0  0  0  0  0
  144.1993  144.6464  154.3114 C   0  0  0  0  0  0  0  0  0  0  0  0
  143.2288  145.7369  153.9073 C   0  0  0  0  0  0  0  0  0  0  0  0
  145.2516  144.2810  153.4490 C   0  0  0  0  0  0  0  0  0  0  0  0
  146.1571  143.2684  153.8216 C   0  0  0  0  0  0  0  0  0  0  0  0
  152.5987  138.6900  153.5525 H   0  0  0  0  0  0  0  0  0  0  0  0
  151.1221  138.6461  154.5177 H   0  0  0  0  0  0  0  0  0  0  0  0
  152.3720  137.4084  154.7438 H   0  0  0  0  0  0  0  0  0  0  0  0
  151.3673  138.5709  156.7876 H   0  0  0  0  0  0  0  0  0  0  0  0
  153.0343  138.3772  157.3560 H   0  0  0  0  0  0  0  0  0  0  0  0
  153.5960  142.4177  160.7734 H   0  0  0  0  0  0  0  0  0  0  0  0
  152.6458  144.7084  160.9359 H   0  0  0  0  0  0  0  0  0  0  0  0
  151.0427  145.5279  159.2216 H   0  0  0  0  0  0  0  0  0  0  0  0
  150.3793  144.0516  157.3269 H   0  0  0  0  0  0  0  0  0  0  0  0
  150.7680  142.3149  155.3883 H   0  0  0  0  0  0  0  0  0  0  0  0
  150.9313  140.5912  155.2064 H   0  0  0  0  0  0  0  0  0  0  0  0
  148.8790  141.8111  157.1152 H   0  0  0  0  0  0  0  0  0  0  0  0
  149.3875  139.6022  157.2948 H   0  0  0  0  0  0  0  0  0  0  0  0
  148.4607  142.6273  154.7589 H   0  0  0  0  0  0  0  0  0  0  0  0
  148.3619  140.9524  154.2140 H   0  0  0  0  0  0  0  0  0  0  0  0
  144.8470  142.4876  156.8768 H   0  0  0  0  0  0  0  0  0  0  0  0
  143.2588  144.2677  156.2236 H   0  0  0  0  0  0  0  0  0  0  0  0
  143.6371  146.7157  154.1592 H   0  0  0  0  0  0  0  0  0  0  0  0
  142.2735  145.6204  154.4200 H   0  0  0  0  0  0  0  0  0  0  0  0
  143.0411  145.7081  152.8337 H   0  0  0  0  0  0  0  0  0  0  0  0
  145.3684  144.7771  152.4967 H   0  0  0  0  0  0  0  0  0  0  0  0
  146.9488  143.0192  153.1319 H   0  0  0  0  0  0  0  0  0  0  0  0
  1  2  1  0  0  0  0
  1 25  1  0  0  0  0
  1 26  1  0  0  0  0
  1 27  1  0  0  0  0
  2  3  1  0  0  0  0
  3  4  1  0  0  0  0
  3 28  1  0  0  0  0
  3 29  1  0  0  0  0
  4 12  1  0  0  0  0
  4  5  2  0  0  0  0
  5  6  1  0  0  0  0
  6 11  2  0  0  0  0
  6  7  1  0  0  0  0
  7  8  2  0  0  0  0
  7 30  1  0  0  0  0
  8  9  1  0  0  0  0
  8 31  1  0  0  0  0
  9 10  2  0  0  0  0
  9 32  1  0  0  0  0
 10 11  1  0  0  0  0
 10 33  1  0  0  0  0
 11 12  1  0  0  0  0
 12 13  1  0  0  0  0
 13 14  1  0  0  0  0
 13 34  1  0  0  0  0
 13 35  1  0  0  0  0
 14 15  1  0  0  0  0
 14 16  1  0  0  0  0
 14 36  1  0  0  0  0
 15 37  1  0  0  0  0
 16 17  1  0  0  0  0
 16 38  1  0  0  0  0
 16 39  1  0  0  0  0
 17 18  1  0  0  0  0
 18 24  1  0  0  0  0
 18 19  2  0  0  0  0
 19 20  1  0  0  0  0
 19 40  1  0  0  0  0
 20 21  2  0  0  0  0
 20 41  1  0  0  0  0
 21 22  1  0  0  0  0
 21 23  1  0  0  0  0
 22 42  1  0  0  0  0
 22 43  1  0  0  0  0
 22 44  1  0  0  0  0
 23 24  2  0  0  0  0
 23 45  1  0  0  0  0
 24 46  1  0  0  0  0
M  END
> <s_m_source_file>
AV-unprocessed.smi

> <i_m_source_file_index>
869

> <i_lp_mmshare_version>
43012

> <i_f3d_flags>
0

> <s_epik_input>
W2NIXTFbY0hdW2NIXVtjSF1jKGMxMiluKGMobjIpW0NIMl1PW0NIM10pW0NIMl1bQ0BIXShbT0hdKVtDSDJdT2MzW2NIXVtjSF1jKFtDSDNdKVtjSF1bY0hdMw==

> <s_epik_cmdline>
J2VwaWtfcHl0aG9uJywgJy1waCcsICc3LjAnLCAnLXRuJywgJzgnLCAnLW1hJywgJzIwMCcsICctbWV0YWxfYmluZGluZycsICctaW1hZScsICc8aW5maWxlLm1hZT4nLCAnLW9tYWUnLCAnPG91dGZpbGUubWFlPic=

> <r_lp_tautomer_probability>
1

> <r_epik_Ionization_Penalty>
0.0446698

> <r_epik_Ionization_Penalty_Charging>
0

> <r_epik_Ionization_Penalty_Neutral>
0.0446698

> <r_epik_State_Penalty>
0.0378721

> <r_epik_Charging_Adjusted_Penalty>
0.0378721

> <i_epik_Tot_Q>
0

> <i_epik_Tot_abs_Q>
0

> <r_epik_Metal_State_Penalty>
3.91074e-05

> <b_epik_Metal_Only>
0

> <s_lp_Force_Field>
OPLS_2005

> <r_lp_Energy>
18.3229

> <b_lp_Chiralities_Consistent>
1

> <s_lp_Variant>
AV-unprocessed.smi:869-1

> <Gold.Version>
5.8.1

> <Gold.Id.Protein>
6NUR|6NUR_protein|mol2

> <Gold.PLP.Fitness>
51.7665

> <Gold.PLP.PLP>
-51.2352

> <Gold.PLP.part.hbond>
-1.2931

> <Gold.PLP.part.metal>
0.0000

> <Gold.PLP.part.buried>
-5.7767

> <Gold.PLP.part.nonpolar>
-44.0827

> <Gold.PLP.part.repulsive>
0.1053

> <Gold.PLP.ligand.clash>
0.0000

> <Gold.PLP.ligand.torsion>
1.2908

> <Gold.PLP.Chemscore.Hbond>
1.0000

> <Gold.PLP.Chemscore.CHOScore>
0.0000

> <Gold.PLP.Chemscore.Metal>
0.0000

> <Gold.Chemscore.Hbonds>
donor molecule, donor type, donor heavy atom, donor atom, acceptor molecule, acceptor atom, score
      P1  H  7997  8008       L1     2  1.00

> <Gold.PLP.Chemscore.Internal.Correction>
0.1130

> <Gold.Rescore>
     Score         DG    S(hbond)    S(metal)    S(lipo)     H(rot)  DE(clash)    DE(int)     intcor
     17.07     -18.73       0.88        0.00     139.85       2.36       0.42       1.24       ----

> <Gold.Chemscore.Fitness>
17.0723

> <Gold.Chemscore.DG>
-18.7298

> <Gold.Chemscore.ZeroCoef>
-5.4800

> <Gold.Chemscore.Hbond>
0.8757

> <Gold.Chemscore.Metal>
0.0000

> <Gold.Chemscore.Lipo>
139.8536

> <Gold.Chemscore.Internal_Hbond>
0.0000

> <Gold.Chemscore.DEClash>
0.4180

> <Gold.Chemscore.DEInternal>
1.2395

> <Gold.Chemscore.Rot>
2.3585

> <Gold.Chemscore.Internal.Correction>
   9.000000E+99

> <Gold.Chemscore.Hbonds>
donor molecule, donor type, donor heavy atom, donor atom, acceptor molecule, acceptor atom, score
      P1  H  7997  8008       L1     2  0.34

> <Gold.Chemscore.Hbond.Weighted>
-2.9247

> <Gold.Chemscore.Metal.Weighted>
-0.0000

> <Gold.Chemscore.Lipo.Weighted>
-16.3629

> <Gold.Chemscore.Internal_Hbond.Weighted>
0.0000

> <Gold.Chemscore.DEClash.Weighted>
0.4180

> <Gold.Chemscore.DEInternal.Weighted>
1.2395

> <Gold.Chemscore.Rot.Weighted>
6.0378

> <Gold.Chemscore.Internal.Correction.Weighted>
   9.000000E+99

> <Gold.Protein.RotatedTorsions>
[ 6907 6896 6895 6894 ] final  -46.95 input  -60.11 | X-H torsion
[ 7974 7965 7964 7962 ] final  -34.48 input  175.53 | X-H torsion
[ 8008 7997 7996 7995 ] final  -11.81 input   59.86 | X-H torsion
[ 10167 10162 10161 10158 ] final -168.91 input  -65.29 | X-H torsion
[ 10718 10713 10712 10709 ] final   23.27 input   66.30 | X-H torsion
[ 10763 10752 10751 10750 ] final   -1.53 input  -60.55 | X-H torsion
[ 11005 11000 10999 10996 ] final  -25.75 input  -57.11 | X-H torsion

> <Gold.Protein.ActiveResidues>
 VAL166  LYS551  ARG553  GLY616  TRP617  ASP618  TYR619  PRO620  LYS621  CYS622 
 ASP623  PHE694  ASN695  SER759  ASP760  ASP761  ALA762  ILE779  LEU786  VAL792 
 PHE793  MET794  SER795  GLU796  ALA797  LYS798  CYS799  TRP800  GLU811  SER814 

> <Gold.Protein.RotatedAtoms>
  150.9059  134.8474  159.7391 H   0  0  0  0  0  0  0  0  0  0  0  0  # atno 6907 bound_to 6896
  152.4918  134.4432  159.9560 H   0  0  0  0  0  0  0  0  0  0  0  0  # atno 6908 bound_to 6896
  151.4479  133.3586  159.2826 H   0  0  0  0  0  0  0  0  0  0  0  0  # atno 6909 bound_to 6896
  146.0826  140.6043  142.8901 H   0  0  0  0  0  0  0  0  0  0  0  0  # atno 7974 bound_to 7965
  154.5432  140.2292  155.8607 H   0  0  0  0  0  0  0  0  0  0  0  0  # atno 8008 bound_to 7997
  156.1878  140.3084  155.9234 H   0  0  0  0  0  0  0  0  0  0  0  0  # atno 8009 bound_to 7997
  155.3217  140.0441  157.3030 H   0  0  0  0  0  0  0  0  0  0  0  0  # atno 8010 bound_to 7997
  139.5955  144.1121  152.1684 H   0  0  0  0  0  0  0  0  0  0  0  0  # atno 10167 bound_to 10162
  157.1638  130.6728  149.6053 H   0  0  0  0  0  0  0  0  0  0  0  0  # atno 10718 bound_to 10713
  153.3461  135.6983  153.6827 H   0  0  0  0  0  0  0  0  0  0  0  0  # atno 10763 bound_to 10752
  153.5572  135.3542  155.2785 H   0  0  0  0  0  0  0  0  0  0  0  0  # atno 10764 bound_to 10752
  154.8645  135.4240  154.2685 H   0  0  0  0  0  0  0  0  0  0  0  0  # atno 10765 bound_to 10752
  140.8966  133.7552  156.0490 H   0  0  0  0  0  0  0  0  0  0  0  0  # atno 11005 bound_to 11000
  144.7304  140.4653  143.6942 LP  0  0  0  0  0  0  0  0  0  0  0  0  # atno 17320 bound_to 7965
  145.6189  139.1522  143.3033 LP  0  0  0  0  0  0  0  0  0  0  0  0  # atno 17321 bound_to 7965
  140.0705  144.5783  150.7195 LP  0  0  0  0  0  0  0  0  0  0  0  0  # atno 17342 bound_to 10162
  140.7208  143.2587  151.4283 LP  0  0  0  0  0  0  0  0  0  0  0  0  # atno 17343 bound_to 10162
  155.9749  130.4702  150.6423 LP  0  0  0  0  0  0  0  0  0  0  0  0  # atno 17370 bound_to 10713
  157.4108  131.0823  151.1223 LP  0  0  0  0  0  0  0  0  0  0  0  0  # atno 17371 bound_to 10713
  140.8281  134.3210  157.5358 LP  0  0  0  0  0  0  0  0  0  0  0  0  # atno 17394 bound_to 11000
  139.8736  134.9348  156.3616 LP  0  0  0  0  0  0  0  0  0  0  0  0  # atno 17395 bound_to 11000

$$$$
