AV-unprocessed.smi:522|AV-procd|sdf|2802|dock2
  -GOLD-   2262023273D 1   1.00000     0.00000
 Structure written by MMmdl.
 41 42  0  0  0  0  0  0  0  0  1 V2000
  152.7569  144.5058  157.5992 C   0  0  0  0  0  0  0  0  0  0  0  0
  152.3030  145.2137  158.7388 O   0  0  0  0  0  0  0  0  0  0  0  0
  151.2130  144.5717  159.3803 C   0  0  0  0  0  0  0  0  0  0  0  0
  151.7120  143.3411  160.1501 C   0  0  0  0  0  0  0  0  0  0  0  0
  151.9477  142.2057  159.2703 N   0  0  0  0  0  0  0  0  0  0  0  0
  152.8778  141.2266  159.3927 C   0  0  0  0  0  0  0  0  0  0  0  0
  154.0242  141.1828  160.7342 S   0  0  0  0  0  0  0  0  0  0  0  0
  154.6712  139.4999  160.4763 C   0  0  0  0  0  0  0  0  0  0  0  0
  154.8894  138.7336  161.7890 C   0  0  0  0  0  0  0  0  0  0  0  0
  155.6695  139.1939  162.6238 O   0  0  0  0  0  0  0  0  0  0  0  0
  154.1548  137.4512  161.9411 C   0  0  0  0  0  0  0  0  0  0  0  0
  153.4106  136.9049  160.8498 C   0  0  0  0  0  0  0  0  0  0  0  0
  152.8207  136.4512  159.9631 N   0  0  0  0  0  0  0  0  0  0  0  0
  154.1475  136.7532  163.1084 C   0  0  0  0  0  0  0  0  0  0  0  0
  154.8460  137.1543  164.4021 C   0  0  0  0  0  0  0  0  0  0  0  0
  153.4613  135.5582  163.2377 N   0  0  0  0  0  0  0  0  0  0  0  0
  152.8659  140.2962  158.4372 N   0  0  0  0  0  0  0  0  0  0  0  0
  151.8361  140.7133  157.6174 C   0  0  0  0  0  0  0  0  0  0  0  0
  151.3241  140.1503  156.4264 C   0  0  0  0  0  0  0  0  0  0  0  0
  150.2486  140.7645  155.7517 C   0  0  0  0  0  0  0  0  0  0  0  0
  149.6706  141.9469  156.2572 C   0  0  0  0  0  0  0  0  0  0  0  0
  150.1656  142.5243  157.4422 C   0  0  0  0  0  0  0  0  0  0  0  0
  151.2395  141.9073  158.1114 C   0  0  0  0  0  0  0  0  0  0  0  0
  153.5878  145.0427  157.1415 H   0  0  0  0  0  0  0  0  0  0  0  0
  151.9663  144.4095  156.8540 H   0  0  0  0  0  0  0  0  0  0  0  0
  153.1084  143.5090  157.8691 H   0  0  0  0  0  0  0  0  0  0  0  0
  150.7247  145.2637  160.0677 H   0  0  0  0  0  0  0  0  0  0  0  0
  150.4704  144.2697  158.6399 H   0  0  0  0  0  0  0  0  0  0  0  0
  152.6239  143.5775  160.6977 H   0  0  0  0  0  0  0  0  0  0  0  0
  150.9772  143.0489  160.9008 H   0  0  0  0  0  0  0  0  0  0  0  0
  153.9851  138.9496  159.8322 H   0  0  0  0  0  0  0  0  0  0  0  0
  155.6230  139.5684  159.9496 H   0  0  0  0  0  0  0  0  0  0  0  0
  154.5217  138.1447  164.7238 H   0  0  0  0  0  0  0  0  0  0  0  0
  155.9280  137.1644  164.2684 H   0  0  0  0  0  0  0  0  0  0  0  0
  154.6256  136.4603  165.2145 H   0  0  0  0  0  0  0  0  0  0  0  0
  152.9398  135.1588  162.4702 H   0  0  0  0  0  0  0  0  0  0  0  0
  153.4512  135.0362  164.1028 H   0  0  0  0  0  0  0  0  0  0  0  0
  151.7605  139.2451  156.0309 H   0  0  0  0  0  0  0  0  0  0  0  0
  149.8654  140.3263  154.8417 H   0  0  0  0  0  0  0  0  0  0  0  0
  148.8468  142.4107  155.7345 H   0  0  0  0  0  0  0  0  0  0  0  0
  149.7259  143.4305  157.8318 H   0  0  0  0  0  0  0  0  0  0  0  0
  1  2  1  0  0  0  0
  1 24  1  0  0  0  0
  1 25  1  0  0  0  0
  1 26  1  0  0  0  0
  2  3  1  0  0  0  0
  3  4  1  0  0  0  0
  3 27  1  0  0  0  0
  3 28  1  0  0  0  0
  4  5  1  0  0  0  0
  4 29  1  0  0  0  0
  4 30  1  0  0  0  0
  5 23  1  0  0  0  0
  5  6  1  0  0  0  0
  6  7  1  0  0  0  0
  6 17  2  0  0  0  0
  7  8  1  0  0  0  0
  8  9  1  0  0  0  0
  8 31  1  0  0  0  0
  8 32  1  0  0  0  0
  9 10  2  0  0  0  0
  9 11  1  0  0  0  0
 11 12  1  0  0  0  0
 11 14  2  0  0  0  0
 12 13  3  0  0  0  0
 14 15  1  0  0  0  0
 14 16  1  0  0  0  0
 15 33  1  0  0  0  0
 15 34  1  0  0  0  0
 15 35  1  0  0  0  0
 16 36  1  0  0  0  0
 16 37  1  0  0  0  0
 17 18  1  0  0  0  0
 18 23  2  0  0  0  0
 18 19  1  0  0  0  0
 19 20  2  0  0  0  0
 19 38  1  0  0  0  0
 20 21  1  0  0  0  0
 20 39  1  0  0  0  0
 21 22  2  0  0  0  0
 21 40  1  0  0  0  0
 22 23  1  0  0  0  0
 22 41  1  0  0  0  0
M  END
> <s_m_source_file>
AV-unprocessed.smi

> <i_m_source_file_index>
522

> <i_lp_mmshare_version>
43012

> <i_f3d_flags>
0

> <s_epik_input>
W2NIXTFbY0hdW2NIXVtjSF1jKGMxMiluKFtDSDJdW0NIMl1PW0NIM10pYyhuMilTW0NIMl1DKD1PKS9DKEMjTik9QygvW0NIM10pW05IMl0=

> <s_epik_cmdline>
J2VwaWtfcHl0aG9uJywgJy1waCcsICc3LjAnLCAnLXRuJywgJzgnLCAnLW1hJywgJzIwMCcsICctbWV0YWxfYmluZGluZycsICctaW1hZScsICc8aW5maWxlLm1hZT4nLCAnLW9tYWUnLCAnPG91dGZpbGUubWFlPic=

> <r_lp_tautomer_probability>
0.5

> <r_epik_Ionization_Penalty>
0.0129021

> <r_epik_Ionization_Penalty_Charging>
0

> <r_epik_Ionization_Penalty_Neutral>
0.0129021

> <r_epik_State_Penalty>
0.42069

> <r_epik_Charging_Adjusted_Penalty>
0.42069

> <i_epik_Tot_Q>
0

> <i_epik_Tot_abs_Q>
0

> <r_epik_Metal_State_Penalty>
0.41068

> <b_epik_Metal_Only>
0

> <s_lp_Force_Field>
OPLS_2005

> <r_lp_Energy>
16.5573

> <b_lp_Chiralities_Consistent>
1

> <s_lp_Variant>
AV-unprocessed.smi:522-2

> <Gold.Version>
5.8.1

> <Gold.Id.Protein>
6NUR|6NUR_protein|mol2

> <Gold.PLP.Fitness>
49.0853

> <Gold.PLP.PLP>
-46.7255

> <Gold.PLP.part.hbond>
-1.8467

> <Gold.PLP.part.metal>
0.0000

> <Gold.PLP.part.buried>
-5.3245

> <Gold.PLP.part.nonpolar>
-39.7054

> <Gold.PLP.part.repulsive>
0.0827

> <Gold.PLP.ligand.clash>
0.0000

> <Gold.PLP.ligand.torsion>
0.9359

> <Gold.PLP.Chemscore.Hbond>
1.3705

> <Gold.PLP.Chemscore.CHOScore>
0.0000

> <Gold.PLP.Chemscore.Metal>
0.0000

> <Gold.Chemscore.Hbonds>
donor molecule, donor type, donor heavy atom, donor atom, acceptor molecule, acceptor atom, score
      P1  H  6896  6908       L1    13  1.00
      P1  H  7997  8008       L1    17  0.34

> <Gold.PLP.Chemscore.Internal.Correction>
0.1200

> <Gold.Rescore>
     Score         DG    S(hbond)    S(metal)    S(lipo)     H(rot)  DE(clash)    DE(int)     intcor
     13.11     -16.32       1.00        0.00     115.05       2.33       0.04       3.17       ----

> <Gold.Chemscore.Fitness>
13.1131

> <Gold.Chemscore.DG>
-16.3177

> <Gold.Chemscore.ZeroCoef>
-5.4800

> <Gold.Chemscore.Hbond>
0.9990

> <Gold.Chemscore.Metal>
0.0000

> <Gold.Chemscore.Lipo>
115.0508

> <Gold.Chemscore.Internal_Hbond>
0.0000

> <Gold.Chemscore.DEClash>
0.0396

> <Gold.Chemscore.DEInternal>
3.1650

> <Gold.Chemscore.Rot>
2.3280

> <Gold.Chemscore.Internal.Correction>
   9.000000E+99

> <Gold.Chemscore.Hbonds>
donor molecule, donor type, donor heavy atom, donor atom, acceptor molecule, acceptor atom, score
      P1  H  6896  6908       L1    13  0.98
      P1  H  7997  8008       L1    17  0.20

> <Gold.Chemscore.Hbond.Weighted>
-3.3366

> <Gold.Chemscore.Metal.Weighted>
-0.0000

> <Gold.Chemscore.Lipo.Weighted>
-13.4609

> <Gold.Chemscore.Internal_Hbond.Weighted>
0.0000

> <Gold.Chemscore.DEClash.Weighted>
0.0396

> <Gold.Chemscore.DEInternal.Weighted>
3.1650

> <Gold.Chemscore.Rot.Weighted>
5.9598

> <Gold.Chemscore.Internal.Correction.Weighted>
   9.000000E+99

> <Gold.Protein.RotatedTorsions>
[ 6907 6896 6895 6894 ] final  -80.58 input  -60.11 | X-H torsion
[ 7974 7965 7964 7962 ] final   55.76 input  175.53 | X-H torsion
[ 8008 7997 7996 7995 ] final  -95.71 input   59.86 | X-H torsion
[ 10167 10162 10161 10158 ] final  105.07 input  -65.29 | X-H torsion
[ 10718 10713 10712 10709 ] final   49.43 input   66.30 | X-H torsion
[ 10763 10752 10751 10750 ] final   55.81 input  -60.55 | X-H torsion
[ 11005 11000 10999 10996 ] final -162.49 input  -57.11 | X-H torsion

> <Gold.Protein.ActiveResidues>
 VAL166  LYS551  ARG553  GLY616  TRP617  ASP618  TYR619  PRO620  LYS621  CYS622 
 ASP623  PHE694  ASN695  SER759  ASP760  ASP761  ALA762  ILE779  LEU786  VAL792 
 PHE793  MET794  SER795  GLU796  ALA797  LYS798  CYS799  TRP800  GLU811  SER814 

> <Gold.Protein.RotatedAtoms>
  150.6927  134.3947  159.5091 H   0  0  0  0  0  0  0  0  0  0  0  0  # atno 6907 bound_to 6896
  152.1730  134.8815  160.0542 H   0  0  0  0  0  0  0  0  0  0  0  0  # atno 6908 bound_to 6896
  151.9834  133.3731  159.4153 H   0  0  0  0  0  0  0  0  0  0  0  0  # atno 6909 bound_to 6896
  145.9470  139.3938  143.0329 H   0  0  0  0  0  0  0  0  0  0  0  0  # atno 7974 bound_to 7965
  154.7649  140.0477  157.1004 H   0  0  0  0  0  0  0  0  0  0  0  0  # atno 8008 bound_to 7997
  154.9892  140.3111  155.4894 H   0  0  0  0  0  0  0  0  0  0  0  0  # atno 8009 bound_to 7997
  156.2911  140.2222  156.4996 H   0  0  0  0  0  0  0  0  0  0  0  0  # atno 8010 bound_to 7997
  139.7124  144.7075  151.1006 H   0  0  0  0  0  0  0  0  0  0  0  0  # atno 10167 bound_to 10162
  157.4786  130.8300  149.8067 H   0  0  0  0  0  0  0  0  0  0  0  0  # atno 10718 bound_to 10713
  152.9822  135.5698  154.5126 H   0  0  0  0  0  0  0  0  0  0  0  0  # atno 10763 bound_to 10752
  154.4628  135.2782  155.1702 H   0  0  0  0  0  0  0  0  0  0  0  0  # atno 10764 bound_to 10752
  154.3283  135.6254  153.5593 H   0  0  0  0  0  0  0  0  0  0  0  0  # atno 10765 bound_to 10752
  140.6087  134.4872  157.5213 H   0  0  0  0  0  0  0  0  0  0  0  0  # atno 11005 bound_to 11000
  145.8223  140.9673  143.0892 LP  0  0  0  0  0  0  0  0  0  0  0  0  # atno 17320 bound_to 7965
  144.6789  140.0057  143.7484 LP  0  0  0  0  0  0  0  0  0  0  0  0  # atno 17321 bound_to 7965
  140.7736  143.5275  150.9462 LP  0  0  0  0  0  0  0  0  0  0  0  0  # atno 17342 bound_to 10162
  139.8960  143.6894  152.3138 LP  0  0  0  0  0  0  0  0  0  0  0  0  # atno 17343 bound_to 10162
  156.0109  130.3833  150.2267 LP  0  0  0  0  0  0  0  0  0  0  0  0  # atno 17370 bound_to 10713
  157.0452  131.0047  151.3271 LP  0  0  0  0  0  0  0  0  0  0  0  0  # atno 17371 bound_to 10713
  139.9201  134.8166  156.1238 LP  0  0  0  0  0  0  0  0  0  0  0  0  # atno 17394 bound_to 11000
  141.0823  133.6749  156.2361 LP  0  0  0  0  0  0  0  0  0  0  0  0  # atno 17395 bound_to 11000

$$$$
