AV-unprocessed.smi:1047|AV-procd|sdf|4582|dock8
  -GOLD-   22720 3 53D 1   1.00000     0.00000
 Structure written by MMmdl.
 58 60  0  0  0  0  0  0  0  0  4 V2000
  146.3271  130.1679  152.2942 C   0  0  0  0  0  0  0  0  0  0  0  0
  147.3597  130.9515  153.1168 C   0  0  0  0  0  0  0  0  0  0  0  0
  147.8216  132.1837  152.4240 N   0  3  1  0  0  0  0  0  0  0  0  0
  146.7130  133.0531  151.9603 C   0  0  0  0  0  0  0  0  0  0  0  0
  146.1215  133.8680  153.1240 C   0  0  0  0  0  0  0  0  0  0  0  0
  147.1539  134.6280  153.7408 O   0  0  0  0  0  0  0  0  0  0  0  0
  148.1772  133.8135  154.3035 C   0  0  2  0  0  0  0  0  0  0  0  0
  149.1787  134.7500  155.0006 C   0  0  0  0  0  0  0  0  0  0  0  0
  149.2268  136.0807  154.3603 N   0  3  0  0  0  0  0  0  0  0  0  0
  150.3341  136.9367  154.8331 C   0  0  0  0  0  0  0  0  0  0  0  0
  149.9930  138.4294  154.6851 C   0  0  2  0  0  0  0  0  0  0  0  0
  149.6599  138.6835  153.3341 O   0  0  0  0  0  0  0  0  0  0  0  0
  151.1685  139.3331  155.1086 C   0  0  0  0  0  0  0  0  0  0  0  0
  150.7299  140.6217  155.6654 N   0  0  0  0  0  0  0  0  0  0  0  0
  149.8216  141.5126  155.1808 C   0  0  0  0  0  0  0  0  0  0  0  0
  149.7572  142.5526  156.0569 N   0  3  0  0  0  0  0  0  0  0  0  0
  150.6344  142.3233  157.1187 C   0  0  0  0  0  0  0  0  0  0  0  0
  150.9204  143.0883  158.2431 C   0  0  0  0  0  0  0  0  0  0  0  0
  151.8736  142.5718  159.1492 C   0  0  0  0  0  0  0  0  0  0  0  0
  152.2121  143.3847  160.3872 C   0  0  0  0  0  0  0  0  0  0  0  0
  152.5037  141.3228  158.9123 C   0  0  0  0  0  0  0  0  0  0  0  0
  153.5229  140.7745  159.8965 C   0  0  0  0  0  0  0  0  0  0  0  0
  152.2009  140.5607  157.7611 C   0  0  0  0  0  0  0  0  0  0  0  0
  151.2599  141.0842  156.8769 C   0  0  0  0  0  0  0  0  0  0  0  0
  148.8278  132.9813  153.1726 C   0  0  0  0  0  0  0  0  0  0  0  0
  145.9399  129.3262  152.8692 H   0  0  0  0  0  0  0  0  0  0  0  0
  146.7525  129.7616  151.3772 H   0  0  0  0  0  0  0  0  0  0  0  0
  145.4793  130.7976  152.0229 H   0  0  0  0  0  0  0  0  0  0  0  0
  146.8846  131.2311  154.0579 H   0  0  0  0  0  0  0  0  0  0  0  0
  148.2013  130.3113  153.3797 H   0  0  0  0  0  0  0  0  0  0  0  0
  147.1053  133.7362  151.2057 H   0  0  0  0  0  0  0  0  0  0  0  0
  145.9398  132.4646  151.4651 H   0  0  0  0  0  0  0  0  0  0  0  0
  145.3581  134.5509  152.7514 H   0  0  0  0  0  0  0  0  0  0  0  0
  145.6361  133.2212  153.8565 H   0  0  0  0  0  0  0  0  0  0  0  0
  147.7308  133.1602  155.0547 H   0  0  0  0  0  0  0  0  0  0  0  0
  148.9290  134.8552  156.0573 H   0  0  0  0  0  0  0  0  0  0  0  0
  150.1769  134.3124  154.9526 H   0  0  0  0  0  0  0  0  0  0  0  0
  149.3327  135.9567  153.3629 H   0  0  0  0  0  0  0  0  0  0  0  0
  150.5245  136.7046  155.8819 H   0  0  0  0  0  0  0  0  0  0  0  0
  151.2462  136.6986  154.2834 H   0  0  0  0  0  0  0  0  0  0  0  0
  149.1247  138.6673  155.3013 H   0  0  0  0  0  0  0  0  0  0  0  0
  149.7653  137.8823  152.8427 H   0  0  0  0  0  0  0  0  0  0  0  0
  151.7567  138.8365  155.8814 H   0  0  0  0  0  0  0  0  0  0  0  0
  151.8516  139.5124  154.2780 H   0  0  0  0  0  0  0  0  0  0  0  0
  149.2530  141.4133  154.2675 H   0  0  0  0  0  0  0  0  0  0  0  0
  150.4360  144.0379  158.4178 H   0  0  0  0  0  0  0  0  0  0  0  0
  151.9572  142.8309  161.2910 H   0  0  0  0  0  0  0  0  0  0  0  0
  151.6646  144.3274  160.4079 H   0  0  0  0  0  0  0  0  0  0  0  0
  153.2765  143.6189  160.4125 H   0  0  0  0  0  0  0  0  0  0  0  0
  153.9000  139.8011  159.5812 H   0  0  0  0  0  0  0  0  0  0  0  0
  153.0749  140.6532  160.8833 H   0  0  0  0  0  0  0  0  0  0  0  0
  154.3746  141.4497  159.9825 H   0  0  0  0  0  0  0  0  0  0  0  0
  152.6862  139.6129  157.5818 H   0  0  0  0  0  0  0  0  0  0  0  0
  149.6168  132.3405  153.5645 H   0  0  0  0  0  0  0  0  0  0  0  0
  149.3124  133.6546  152.4641 H   0  0  0  0  0  0  0  0  0  0  0  0
  148.3555  136.5603  154.5360 H   0  0  0  0  0  0  0  0  0  0  0  0
  148.2792  131.8547  151.5852 H   0  0  0  0  0  0  0  0  0  0  0  0
  149.1562  143.3582  155.9378 H   0  0  0  0  0  0  0  0  0  0  0  0
  1  2  1  0  0  0  0
  1 26  1  0  0  0  0
  1 27  1  0  0  0  0
  1 28  1  0  0  0  0
  2  3  1  0  0  0  0
  2 29  1  0  0  0  0
  2 30  1  0  0  0  0
  3 25  1  0  0  0  0
  3  4  1  0  0  0  0
  3 57  1  0  0  0  0
  4  5  1  0  0  0  0
  4 31  1  0  0  0  0
  4 32  1  0  0  0  0
  5  6  1  0  0  0  0
  5 33  1  0  0  0  0
  5 34  1  0  0  0  0
  6  7  1  0  0  0  0
  7  8  1  0  0  0  0
  7 25  1  0  0  0  0
  7 35  1  0  0  0  0
  8  9  1  0  0  0  0
  8 36  1  0  0  0  0
  8 37  1  0  0  0  0
  9 10  1  0  0  0  0
  9 38  1  0  0  0  0
  9 56  1  0  0  0  0
 10 11  1  0  0  0  0
 10 39  1  0  0  0  0
 10 40  1  0  0  0  0
 11 12  1  0  0  0  0
 11 13  1  0  0  0  0
 11 41  1  0  0  0  0
 12 42  1  0  0  0  0
 13 14  1  0  0  0  0
 13 43  1  0  0  0  0
 13 44  1  0  0  0  0
 14 24  1  0  0  0  0
 14 15  1  0  0  0  0
 15 16  2  0  0  0  0
 15 45  1  0  0  0  0
 16 17  1  0  0  0  0
 16 58  1  0  0  0  0
 17 24  2  0  0  0  0
 17 18  1  0  0  0  0
 18 19  2  0  0  0  0
 18 46  1  0  0  0  0
 19 20  1  0  0  0  0
 19 21  1  0  0  0  0
 20 47  1  0  0  0  0
 20 48  1  0  0  0  0
 20 49  1  0  0  0  0
 21 22  1  0  0  0  0
 21 23  2  0  0  0  0
 22 50  1  0  0  0  0
 22 51  1  0  0  0  0
 22 52  1  0  0  0  0
 23 24  1  0  0  0  0
 23 53  1  0  0  0  0
 25 54  1  0  0  0  0
 25 55  1  0  0  0  0
M  CHG  1   3   1
M  CHG  1   9   1
M  CHG  1  16   1
M  END
> <s_m_source_file>
AV-unprocessed.smi

> <i_m_source_file_index>
1047

> <i_lp_mmshare_version>
43012

> <i_f3d_flags>
0

> <s_epik_input>
W0NIM11bQ0gyXU4xW0NIMl1bQ0gyXU9bQ0BIXShbQ0gyXTEpW0NIMl1bTkhdW0NIMl1bQ0BIXShbT0hdKVtDSDJdbihbY0hdbjIpYyhjMjMpW2NIXWMoW0NIM10pYyhbY0hdMylbQ0gzXQ==

> <s_epik_cmdline>
J2VwaWtfcHl0aG9uJywgJy1waCcsICc3LjAnLCAnLXRuJywgJzgnLCAnLW1hJywgJzIwMCcsICctbWV0YWxfYmluZGluZycsICctaW1hZScsICc8aW5maWxlLm1hZT4nLCAnLW9tYWUnLCAnPG91dGZpbGUubWFlPic=

> <r_epik_Ionization_Penalty>
1.6114

> <r_epik_Ionization_Penalty_Charging>
1.61139

> <r_epik_Ionization_Penalty_Neutral>
5.04732e-06

> <r_epik_State_Penalty>
1.63724

> <r_epik_Charging_Adjusted_Penalty>
3.24864

> <i_epik_Tot_Q>
3

> <i_epik_Tot_abs_Q>
3

> <r_epik_Metal_State_Penalty>
5.64594

> <b_epik_Metal_Only>
0

> <s_lp_Force_Field>
OPLS_2005

> <r_lp_Energy>
42.8961

> <b_lp_Chiralities_Consistent>
1

> <s_lp_Variant>
AV-unprocessed.smi:1047-23

> <Gold.Version>
5.8.1

> <Gold.Id.Protein>
6NUR|6NUR_protein|mol2

> <Gold.PLP.Fitness>
67.1313

> <Gold.PLP.PLP>
-51.2073

> <Gold.PLP.part.hbond>
-4.8119

> <Gold.PLP.part.metal>
0.0000

> <Gold.PLP.part.buried>
-6.4613

> <Gold.PLP.part.nonpolar>
-41.3587

> <Gold.PLP.part.repulsive>
0.3700

> <Gold.PLP.ligand.clash>
0.0000

> <Gold.PLP.ligand.torsion>
1.0967

> <Gold.PLP.Chemscore.Hbond>
6.0000

> <Gold.PLP.Chemscore.CHOScore>
0.0000

> <Gold.PLP.Chemscore.Metal>
0.0000

> <Gold.Chemscore.Hbonds>
donor molecule, donor type, donor heavy atom, donor atom, acceptor molecule, acceptor atom, score
      L1  H     3    57       P1 10747  1.00
      L1  H     9    38       P1  7948  2.00
      L1  H    12    42       P1  7948  0.99
      L1  H    16    58       P1  8028  1.43

> <Gold.PLP.Chemscore.Internal.Correction>
0.1173

> <Gold.Rescore>
     Score         DG    S(hbond)    S(metal)    S(lipo)     H(rot)  DE(clash)    DE(int)     intcor
     24.15     -25.32       3.74        0.00     123.73       2.78       0.18       0.99       ----

> <Gold.Chemscore.Fitness>
24.1460

> <Gold.Chemscore.DG>
-25.3154

> <Gold.Chemscore.ZeroCoef>
-5.4800

> <Gold.Chemscore.Hbond>
3.7391

> <Gold.Chemscore.Metal>
0.0000

> <Gold.Chemscore.Lipo>
123.7264

> <Gold.Chemscore.Internal_Hbond>
0.0000

> <Gold.Chemscore.DEClash>
0.1798

> <Gold.Chemscore.DEInternal>
0.9896

> <Gold.Chemscore.Rot>
2.7848

> <Gold.Chemscore.Internal.Correction>
   9.000000E+99

> <Gold.Chemscore.Hbonds>
donor molecule, donor type, donor heavy atom, donor atom, acceptor molecule, acceptor atom, score
      L1  H     3    57       P1 10747  1.00
      L1  H     9    38       P1  7948  0.51
      L1  H    12    42       P1  7948  0.44
      L1  H    16    58       P1  8028  0.69

> <Gold.Chemscore.Hbond.Weighted>
-12.4885

> <Gold.Chemscore.Metal.Weighted>
-0.0000

> <Gold.Chemscore.Lipo.Weighted>
-14.4760

> <Gold.Chemscore.Internal_Hbond.Weighted>
0.0000

> <Gold.Chemscore.DEClash.Weighted>
0.1798

> <Gold.Chemscore.DEInternal.Weighted>
0.9896

> <Gold.Chemscore.Rot.Weighted>
7.1291

> <Gold.Chemscore.Internal.Correction.Weighted>
   9.000000E+99

> <Gold.Protein.RotatedTorsions>
[ 6907 6896 6895 6894 ] final   70.24 input  -60.11 | X-H torsion
[ 7974 7965 7964 7962 ] final  -16.09 input  175.53 | X-H torsion
[ 8008 7997 7996 7995 ] final   98.91 input   59.86 | X-H torsion
[ 10167 10162 10161 10158 ] final  136.78 input  -65.29 | X-H torsion
[ 10718 10713 10712 10709 ] final  -74.76 input   66.30 | X-H torsion
[ 10763 10752 10751 10750 ] final -120.27 input  -60.55 | X-H torsion
[ 11005 11000 10999 10996 ] final  156.75 input  -57.11 | X-H torsion

> <Gold.Protein.ActiveResidues>
 VAL166  LYS551  ARG553  GLY616  TRP617  ASP618  TYR619  PRO620  LYS621  CYS622 
 ASP623  PHE694  ASN695  SER759  ASP760  ASP761  ALA762  ILE779  LEU786  VAL792 
 PHE793  MET794  SER795  GLU796  ALA797  LYS798  CYS799  TRP800  GLU811  SER814 

> <Gold.Protein.RotatedAtoms>
  152.4737  134.4898  159.9691 H   0  0  0  0  0  0  0  0  0  0  0  0  # atno 6907 bound_to 6896
  151.4919  133.3517  159.2862 H   0  0  0  0  0  0  0  0  0  0  0  0  # atno 6908 bound_to 6896
  150.8762  134.8172  159.7252 H   0  0  0  0  0  0  0  0  0  0  0  0  # atno 6909 bound_to 6896
  146.2003  140.3586  142.8425 H   0  0  0  0  0  0  0  0  0  0  0  0  # atno 7974 bound_to 7965
  156.1052  140.3236  155.7996 H   0  0  0  0  0  0  0  0  0  0  0  0  # atno 8008 bound_to 7997
  155.4768  140.0551  157.2989 H   0  0  0  0  0  0  0  0  0  0  0  0  # atno 8009 bound_to 7997
  154.4723  140.2017  155.9979 H   0  0  0  0  0  0  0  0  0  0  0  0  # atno 8010 bound_to 7997
  139.5167  144.6446  151.5476 H   0  0  0  0  0  0  0  0  0  0  0  0  # atno 10167 bound_to 10162
  156.0231  130.4424  150.2941 H   0  0  0  0  0  0  0  0  0  0  0  0  # atno 10718 bound_to 10713
  154.8639  135.4209  154.2432 H   0  0  0  0  0  0  0  0  0  0  0  0  # atno 10763 bound_to 10752
  153.3393  135.6992  153.6886 H   0  0  0  0  0  0  0  0  0  0  0  0  # atno 10764 bound_to 10752
  153.5871  135.3562  155.2870 H   0  0  0  0  0  0  0  0  0  0  0  0  # atno 10765 bound_to 10752
  140.1704  134.8547  157.2684 H   0  0  0  0  0  0  0  0  0  0  0  0  # atno 11005 bound_to 11000
  144.8669  140.7219  143.6071 LP  0  0  0  0  0  0  0  0  0  0  0  0  # atno 17320 bound_to 7965
  145.3505  139.1707  143.4437 LP  0  0  0  0  0  0  0  0  0  0  0  0  # atno 17321 bound_to 7965
  140.6226  143.9230  150.6538 LP  0  0  0  0  0  0  0  0  0  0  0  0  # atno 17342 bound_to 10162
  140.2508  143.3594  152.1407 LP  0  0  0  0  0  0  0  0  0  0  0  0  # atno 17343 bound_to 10162
  157.1044  131.0204  151.3073 LP  0  0  0  0  0  0  0  0  0  0  0  0  # atno 17370 bound_to 10713
  157.4754  130.7733  149.7363 LP  0  0  0  0  0  0  0  0  0  0  0  0  # atno 17371 bound_to 10713
  140.2384  134.3825  155.7491 LP  0  0  0  0  0  0  0  0  0  0  0  0  # atno 17394 bound_to 11000
  141.2217  133.7252  156.8750 LP  0  0  0  0  0  0  0  0  0  0  0  0  # atno 17395 bound_to 11000

$$$$
