#       Name:                AV-unprocessed.smi:3140
#       Creating user name   scv26
#       Creation time:       Fri Mar 27 17:36:07 2020


#       File generated by GOLD software.
#

@<TRIPOS>MOLECULE
AV-unprocessed.smi:3140
    41    42     1
SMALL
NO_CHARGES


@<TRIPOS>ATOM
      1 ****        -2.2634  -0.3581   2.5112 C.3            1 S1                 0.0000
      2 ****        -1.9491   0.6594   1.4026 C.3            1 S1                 0.0000
      3 ****        -2.4673   0.2105   0.0114 C.3            1 S1                 0.0000
      4 ****        -1.9077  -1.0500  -0.4519 N.pl3          1 S1                 0.0000
      5 ****        -2.3978  -2.3263  -0.2698 C.2            1 S1                 0.0000
      6 ****        -1.5360  -3.1859  -0.8884 C.2            1 S1                 0.0000
      7 ****        -0.5393  -2.3301  -1.4348 C.2            1 S1                 0.0000
      8 ****        -0.7673  -1.0533  -1.1764 N.2            1 S1                 0.0000
      9 ****        -0.5073   0.8784   1.4056 N.3            1 S1                 0.0000
     10 ****        -0.1234   2.1152   0.7397 C.3            1 S1                 0.0000
     11 ****         1.4094   2.1936   0.6385 C.3            1 S1                 0.0000
     12 ****         1.9406   1.2356  -0.3307 N.am           1 S1                 0.0000
     13 ****         2.6266   0.0346   0.1159 C.3            1 S1                 0.0000
     14 ****         3.0314  -0.7090  -1.1659 C.3            1 S1                 0.0000
     15 ****         2.5168   0.1364  -2.3365 C.3            1 S1                 0.0000
     16 ****         1.8679   1.3329  -1.6632 C.2            1 S1                 0.0000
     17 ****         1.3489   2.2517  -2.2954 O.2            1 S1                 0.0000
     18 ****        -3.3316  -0.5727   2.5522 H              1 S1                 0.0000
     19 ****        -1.9696   0.0245   3.4891 H              1 S1                 0.0000
     20 ****        -1.7397  -1.3024   2.3581 H              1 S1                 0.0000
     21 ****        -2.4382   1.5969   1.6705 H              1 S1                 0.0000
     22 ****        -3.5509   0.0948   0.0543 H              1 S1                 0.0000
     23 ****        -2.2887   0.9723  -0.7474 H              1 S1                 0.0000
     24 ****        -3.3071  -2.5139   0.2820 H              1 S1                 0.0000
     25 ****        -1.6073  -4.2620  -0.9438 H              1 S1                 0.0000
     26 ****         0.3354  -2.5962  -2.0097 H              1 S1                 0.0000
     27 ****        -0.1679   0.8981   2.3566 H              1 S1                 0.0000
     28 ****        -0.5644   2.1876  -0.2534 H              1 S1                 0.0000
     29 ****        -0.5010   2.9581   1.3193 H              1 S1                 0.0000
     30 ****         1.7008   3.1986   0.3298 H              1 S1                 0.0000
     31 ****         1.8677   2.0334   1.6155 H              1 S1                 0.0000
     32 ****         3.4991   0.2967   0.7154 H              1 S1                 0.0000
     33 ****         1.9603  -0.5729   0.7298 H              1 S1                 0.0000
     34 ****         4.1146  -0.8242  -1.2197 H              1 S1                 0.0000
     35 ****         2.5963  -1.7089  -1.1872 H              1 S1                 0.0000
     36 ****         3.3277   0.4600  -2.9897 H              1 S1                 0.0000
     37 ****         1.7809  -0.4049  -2.9322 H              1 S1                 0.0000
     38 ****        -0.2179  -0.2656  -1.4552 LP             1 S1                 0.0000
     39 ****        -0.0974   0.1211   0.8973 LP             1 S1                 0.0000
     40 ****         0.9299   3.0188  -1.8096 LP             1 S1                 0.0000
     41 ****         1.3461   2.2316  -3.2952 LP             1 S1                 0.0000
@<TRIPOS>BOND
    1    1    2 1     
    2    1   18 1     
    3    1   19 1     
    4    1   20 1     
    5    2    3 1     
    6    2    9 1     
    7    2   21 1     
    8    3    4 1     
    9    3   22 1     
   10    3   23 1     
   11    4    8 1     
   12    4    5 1     
   13    5    6 2     
   14    5   24 1     
   15    6    7 1     
   16    6   25 1     
   17    7    8 2     
   18    7   26 1     
   19    9   10 1     
   20    9   27 1     
   21   10   11 1     
   22   10   28 1     
   23   10   29 1     
   24   11   12 1     
   25   11   30 1     
   26   11   31 1     
   27   12   16 am    
   28   12   13 1     
   29   13   14 1     
   30   13   32 1     
   31   13   33 1     
   32   14   15 1     
   33   14   34 1     
   34   14   35 1     
   35   15   16 1     
   36   15   36 1     
   37   15   37 1     
   38   16   17 2     
   39    8   38 1     
   40    9   39 1     
   41   17   40 1     
   42   17   41 1     
@<TRIPOS>SUBSTRUCTURE
      1 S1             1
@<TRIPOS>SET
LONE_PAIRS      STATIC     ATOMS    <user>   **** ""
4 38 39 40 41
DONOR_HYDROGENS      STATIC     ATOMS    <user>   **** ""
1 27
ATOM$BLUE        STATIC     ATOMS    COLORGROUP SYSTEM
4 38 39 40 41
ATOM$RED        STATIC     ATOMS    COLORGROUP SYSTEM
1 27
