AV-unprocessed.smi:2002|AV-procd|sdf|8113|dock10
  -GOLD-   2272010343D 1   1.00000     0.00000
 Structure written by MMmdl.
 39 40  0  0  0  0  0  0  0  0  2 V2000
  145.0262  143.4545  156.5596 C   0  0  0  0  0  0  0  0  0  0  0  0
  144.3022  142.5898  155.5191 C   0  0  0  0  0  0  0  0  0  0  0  0
  145.2143  142.1346  154.4442 N   0  3  1  0  0  0  0  0  0  0  0  0
  145.8472  143.2161  153.6511 C   0  0  0  0  0  0  0  0  0  0  0  0
  147.3314  142.8536  153.5112 C   0  0  0  0  0  0  0  0  0  0  0  0
  147.4001  141.3678  153.8602 C   0  0  1  0  0  0  0  0  0  0  0  0
  148.7968  140.9042  154.3178 C   0  0  0  0  0  0  0  0  0  0  0  0
  149.4891  141.9244  155.0995 N   0  0  0  0  0  0  0  0  0  0  0  0
  150.3515  141.6860  156.0985 C   0  0  0  0  0  0  0  0  0  0  0  0
  150.6745  140.5541  156.4609 O   0  0  0  0  0  0  0  0  0  0  0  0
  150.8092  142.8305  156.6332 N   0  0  0  0  0  0  0  0  0  0  0  0
  151.7466  142.9768  157.6874 C   0  0  0  0  0  0  0  0  0  0  0  0
  152.0627  141.8850  158.5388 C   0  0  0  0  0  0  0  0  0  0  0  0
  152.9778  142.4217  159.4003 C   0  0  0  0  0  0  0  0  0  0  0  0
  153.7390  141.8585  160.5513 C   0  0  0  0  0  0  0  0  0  0  0  0
  153.2008  143.7301  159.0999 O   0  0  0  0  0  0  0  0  0  0  0  0
  152.4071  144.0808  158.0015 N   0  0  0  0  0  0  0  0  0  0  0  0
  146.2926  141.2391  154.9084 C   0  0  0  0  0  0  0  0  0  0  0  0
  144.3279  143.8097  157.3177 H   0  0  0  0  0  0  0  0  0  0  0  0
  145.4835  144.3291  156.0955 H   0  0  0  0  0  0  0  0  0  0  0  0
  145.8107  142.8972  157.0720 H   0  0  0  0  0  0  0  0  0  0  0  0
  143.8290  141.7305  155.9965 H   0  0  0  0  0  0  0  0  0  0  0  0
  143.5011  143.1797  155.0713 H   0  0  0  0  0  0  0  0  0  0  0  0
  145.3621  143.2608  152.6757 H   0  0  0  0  0  0  0  0  0  0  0  0
  145.7364  144.1948  154.1204 H   0  0  0  0  0  0  0  0  0  0  0  0
  147.7239  143.0703  152.5172 H   0  0  0  0  0  0  0  0  0  0  0  0
  147.9144  143.4322  154.2296 H   0  0  0  0  0  0  0  0  0  0  0  0
  147.1068  140.7982  152.9764 H   0  0  0  0  0  0  0  0  0  0  0  0
  148.6961  140.0211  154.9492 H   0  0  0  0  0  0  0  0  0  0  0  0
  149.4021  140.5976  153.4627 H   0  0  0  0  0  0  0  0  0  0  0  0
  149.2823  142.8863  154.8720 H   0  0  0  0  0  0  0  0  0  0  0  0
  150.4524  143.6902  156.2429 H   0  0  0  0  0  0  0  0  0  0  0  0
  151.6838  140.8738  158.5230 H   0  0  0  0  0  0  0  0  0  0  0  0
  153.2037  141.0210  160.9989 H   0  0  0  0  0  0  0  0  0  0  0  0
  153.8911  142.6124  161.3242 H   0  0  0  0  0  0  0  0  0  0  0  0
  154.7171  141.5019  160.2284 H   0  0  0  0  0  0  0  0  0  0  0  0
  146.6573  141.5791  155.8795 H   0  0  0  0  0  0  0  0  0  0  0  0
  145.9356  140.2149  155.0214 H   0  0  0  0  0  0  0  0  0  0  0  0
  144.6639  141.5907  153.7951 H   0  0  0  0  0  0  0  0  0  0  0  0
  1  2  1  0  0  0  0
  1 19  1  0  0  0  0
  1 20  1  0  0  0  0
  1 21  1  0  0  0  0
  2  3  1  0  0  0  0
  2 22  1  0  0  0  0
  2 23  1  0  0  0  0
  3 18  1  0  0  0  0
  3  4  1  0  0  0  0
  3 39  1  0  0  0  0
  4  5  1  0  0  0  0
  4 24  1  0  0  0  0
  4 25  1  0  0  0  0
  5  6  1  0  0  0  0
  5 26  1  0  0  0  0
  5 27  1  0  0  0  0
  6  7  1  0  0  0  0
  6 18  1  0  0  0  0
  6 28  1  0  0  0  0
  7  8  1  0  0  0  0
  7 29  1  0  0  0  0
  7 30  1  0  0  0  0
  8  9  1  0  0  0  0
  8 31  1  0  0  0  0
  9 10  2  0  0  0  0
  9 11  1  0  0  0  0
 11 12  1  0  0  0  0
 11 32  1  0  0  0  0
 12 17  2  0  0  0  0
 12 13  1  0  0  0  0
 13 14  2  0  0  0  0
 13 33  1  0  0  0  0
 14 15  1  0  0  0  0
 14 16  1  0  0  0  0
 15 34  1  0  0  0  0
 15 35  1  0  0  0  0
 15 36  1  0  0  0  0
 16 17  1  0  0  0  0
 18 37  1  0  0  0  0
 18 38  1  0  0  0  0
M  CHG  1   3   1
M  END
> <s_m_source_file>
AV-unprocessed.smi

> <i_m_source_file_index>
2002

> <i_lp_mmshare_version>
43012

> <i_f3d_flags>
0

> <s_epik_input>
W0NIM11bQ0gyXU4xW0NIMl1bQ0gyXVtDQEhdKFtDSDJdMSlbQ0gyXVtOSF1DKD1PKVtOSF1jMltjSF1jKFtDSDNdKW9uMg==

> <s_epik_cmdline>
J2VwaWtfcHl0aG9uJywgJy1waCcsICc3LjAnLCAnLXRuJywgJzgnLCAnLW1hJywgJzIwMCcsICctbWV0YWxfYmluZGluZycsICctaW1hZScsICc8aW5maWxlLm1hZT4nLCAnLW9tYWUnLCAnPG91dGZpbGUubWFlPic=

> <r_epik_Ionization_Penalty>
0.000632871

> <r_epik_Ionization_Penalty_Charging>
0.000610951

> <r_epik_Ionization_Penalty_Neutral>
2.19198e-05

> <r_epik_State_Penalty>
0.000385263

> <r_epik_Charging_Adjusted_Penalty>
0.000996214

> <i_epik_Tot_Q>
1

> <i_epik_Tot_abs_Q>
1

> <r_epik_Metal_State_Penalty>
-0

> <b_epik_Metal_Only>
0

> <s_lp_Force_Field>
OPLS_2005

> <r_lp_Energy>
24.2793

> <b_lp_Chiralities_Consistent>
1

> <s_lp_Variant>
AV-unprocessed.smi:2002-1

> <Gold.Version>
5.8.1

> <Gold.Id.Protein>
6NUR|6NUR_protein|mol2

> <Gold.PLP.Fitness>
44.8017

> <Gold.PLP.PLP>
-33.7580

> <Gold.PLP.part.hbond>
-3.0000

> <Gold.PLP.part.metal>
0.0000

> <Gold.PLP.part.buried>
-5.8556

> <Gold.PLP.part.nonpolar>
-25.3019

> <Gold.PLP.part.repulsive>
0.2910

> <Gold.PLP.ligand.clash>
0.0000

> <Gold.PLP.ligand.torsion>
0.4838

> <Gold.PLP.Chemscore.Hbond>
4.0000

> <Gold.PLP.Chemscore.CHOScore>
0.0000

> <Gold.PLP.Chemscore.Metal>
0.0000

> <Gold.Chemscore.Hbonds>
donor molecule, donor type, donor heavy atom, donor atom, acceptor molecule, acceptor atom, score
      L1  H     3    39       P1 10175  1.50
      L1  H     8    31       P1  8028  0.91
      L1  H    11    32       P1  8028  0.98

> <Gold.PLP.Chemscore.Internal.Correction>
0.0113

> <Gold.Rescore>
     Score         DG    S(hbond)    S(metal)    S(lipo)     H(rot)  DE(clash)    DE(int)     intcor
     16.64     -18.76       2.86        0.00      65.16       1.52       0.09       2.04       ----

> <Gold.Chemscore.Fitness>
16.6368

> <Gold.Chemscore.DG>
-18.7587

> <Gold.Chemscore.ZeroCoef>
-5.4800

> <Gold.Chemscore.Hbond>
2.8598

> <Gold.Chemscore.Metal>
0.0000

> <Gold.Chemscore.Lipo>
65.1632

> <Gold.Chemscore.Internal_Hbond>
0.0000

> <Gold.Chemscore.DEClash>
0.0852

> <Gold.Chemscore.DEInternal>
2.0366

> <Gold.Chemscore.Rot>
1.5223

> <Gold.Chemscore.Internal.Correction>
   9.000000E+99

> <Gold.Chemscore.Hbonds>
donor molecule, donor type, donor heavy atom, donor atom, acceptor molecule, acceptor atom, score
      L1  H     3    39       P1 10175  0.09
      L1  H     8    31       P1  8028  0.83
      L1  H    11    32       P1  8028  0.92

> <Gold.Chemscore.Hbond.Weighted>
-9.5516

> <Gold.Chemscore.Metal.Weighted>
-0.0000

> <Gold.Chemscore.Lipo.Weighted>
-7.6241

> <Gold.Chemscore.Internal_Hbond.Weighted>
0.0000

> <Gold.Chemscore.DEClash.Weighted>
0.0852

> <Gold.Chemscore.DEInternal.Weighted>
2.0366

> <Gold.Chemscore.Rot.Weighted>
3.8971

> <Gold.Chemscore.Internal.Correction.Weighted>
   9.000000E+99

> <Gold.Protein.RotatedTorsions>
[ 6907 6896 6895 6894 ] final -104.30 input  -60.11 | X-H torsion
[ 7974 7965 7964 7962 ] final  139.09 input  175.53 | X-H torsion
[ 8008 7997 7996 7995 ] final -102.08 input   59.86 | X-H torsion
[ 10167 10162 10161 10158 ] final   42.40 input  -65.29 | X-H torsion
[ 10718 10713 10712 10709 ] final  -19.73 input   66.30 | X-H torsion
[ 10763 10752 10751 10750 ] final   95.14 input  -60.55 | X-H torsion
[ 11005 11000 10999 10996 ] final  122.74 input  -57.11 | X-H torsion

> <Gold.Protein.ActiveResidues>
 VAL166  LYS551  ARG553  GLY616  TRP617  ASP618  TYR619  PRO620  LYS621  CYS622 
 ASP623  PHE694  ASN695  SER759  ASP760  ASP761  ALA762  ILE779  LEU786  VAL792 
 PHE793  MET794  SER795  GLU796  ALA797  LYS798  CYS799  TRP800  GLU811  SER814 

> <Gold.Protein.RotatedAtoms>
  150.7281  134.0298  159.3729 H   0  0  0  0  0  0  0  0  0  0  0  0  # atno 6907 bound_to 6896
  151.8267  135.0632  160.0441 H   0  0  0  0  0  0  0  0  0  0  0  0  # atno 6908 bound_to 6896
  152.2964  133.5575  159.5626 H   0  0  0  0  0  0  0  0  0  0  0  0  # atno 6909 bound_to 6896
  144.9311  139.5046  143.5617 H   0  0  0  0  0  0  0  0  0  0  0  0  # atno 7974 bound_to 7965
  154.8517  140.0430  157.1608 H   0  0  0  0  0  0  0  0  0  0  0  0  # atno 8008 bound_to 7997
  154.8936  140.2990  155.5336 H   0  0  0  0  0  0  0  0  0  0  0  0  # atno 8009 bound_to 7997
  156.2996  140.2389  156.3954 H   0  0  0  0  0  0  0  0  0  0  0  0  # atno 8010 bound_to 7997
  140.3548  144.2304  150.6142 H   0  0  0  0  0  0  0  0  0  0  0  0  # atno 10167 bound_to 10162
  156.5417  130.4680  149.6495 H   0  0  0  0  0  0  0  0  0  0  0  0  # atno 10718 bound_to 10713
  153.2498  135.4264  155.0785 H   0  0  0  0  0  0  0  0  0  0  0  0  # atno 10763 bound_to 10752
  154.8376  135.3423  154.6530 H   0  0  0  0  0  0  0  0  0  0  0  0  # atno 10764 bound_to 10752
  153.6951  135.7031  153.5135 H   0  0  0  0  0  0  0  0  0  0  0  0  # atno 10765 bound_to 10752
  139.9281  134.9641  156.8154 H   0  0  0  0  0  0  0  0  0  0  0  0  # atno 11005 bound_to 11000
  146.3247  139.8262  142.8917 LP  0  0  0  0  0  0  0  0  0  0  0  0  # atno 17320 bound_to 7965
  145.3141  141.0227  143.3538 LP  0  0  0  0  0  0  0  0  0  0  0  0  # atno 17321 bound_to 7965
  140.5184  143.2272  151.8427 LP  0  0  0  0  0  0  0  0  0  0  0  0  # atno 17342 bound_to 10162
  139.4821  144.4866  151.9239 LP  0  0  0  0  0  0  0  0  0  0  0  0  # atno 17343 bound_to 10162
  156.2966  130.7153  151.2015 LP  0  0  0  0  0  0  0  0  0  0  0  0  # atno 17370 bound_to 10713
  157.7404  131.0517  150.5168 LP  0  0  0  0  0  0  0  0  0  0  0  0  # atno 17371 bound_to 10713
  140.6278  133.9934  155.7648 LP  0  0  0  0  0  0  0  0  0  0  0  0  # atno 17394 bound_to 11000
  141.0853  134.0000  157.3323 LP  0  0  0  0  0  0  0  0  0  0  0  0  # atno 17395 bound_to 11000

$$$$
