AV-unprocessed.smi:653|AV-procd|sdf|3204|dock5
  -GOLD-   22720 0143D 1   1.00000     0.00000
 Structure written by MMmdl.
 44 45  0  0  0  0  0  0  0  0  1 V2000
  144.3403  132.2929  151.5147 C   0  0  0  0  0  0  0  0  0  0  0  0
  145.7026  132.4599  152.1547 C   0  0  0  0  0  0  0  0  0  0  0  0
  146.4251  131.3404  152.6184 C   0  0  0  0  0  0  0  0  0  0  0  0
  147.6844  131.5541  153.2112 C   0  0  0  0  0  0  0  0  0  0  0  0
  148.1711  132.8735  153.3183 C   0  0  0  0  0  0  0  0  0  0  0  0
  149.5221  133.1588  153.9538 C   0  0  0  0  0  0  0  0  0  0  0  0
  149.4754  134.3552  154.9118 C   0  0  0  0  0  0  0  0  0  0  0  0
  149.5103  134.1971  156.1333 O   0  0  0  0  0  0  0  0  0  0  0  0
  149.3948  135.5621  154.3319 N   0  0  0  0  0  0  0  0  0  0  0  0
  149.3144  136.8310  155.0473 C   0  0  0  0  0  0  0  0  0  0  0  0
  150.3838  137.8305  154.5639 C   0  0  2  0  0  0  0  0  0  0  0  0
  151.7672  137.5906  155.1371 C   0  0  0  0  0  0  0  0  0  0  0  0
  152.4406  138.9363  154.8951 C   0  0  0  0  0  0  0  0  0  0  0  0
  151.4110  139.9091  155.0375 O   0  0  0  0  0  0  0  0  0  0  0  0
  150.1301  139.2813  155.0013 C   0  0  1  0  0  0  0  0  0  0  0  0
  149.1361  140.0894  154.1351 C   0  0  0  0  0  0  0  0  0  0  0  0
  148.8918  141.5191  154.6523 C   0  0  0  0  0  0  0  0  0  0  0  0
  147.8050  139.3364  153.9850 C   0  0  0  0  0  0  0  0  0  0  0  0
  147.3691  133.9229  152.8214 C   0  0  0  0  0  0  0  0  0  0  0  0
  146.1601  133.7276  152.2526 N   0  0  0  0  0  0  0  0  0  0  0  0
  144.1731  131.2590  151.2114 H   0  0  0  0  0  0  0  0  0  0  0  0
  144.2506  132.9240  150.6298 H   0  0  0  0  0  0  0  0  0  0  0  0
  143.5572  132.5742  152.2190 H   0  0  0  0  0  0  0  0  0  0  0  0
  146.0264  130.3410  152.5238 H   0  0  0  0  0  0  0  0  0  0  0  0
  148.2656  130.7197  153.5752 H   0  0  0  0  0  0  0  0  0  0  0  0
  149.8655  132.2790  154.4992 H   0  0  0  0  0  0  0  0  0  0  0  0
  150.2536  133.3496  153.1673 H   0  0  0  0  0  0  0  0  0  0  0  0
  149.3760  135.6045  153.3232 H   0  0  0  0  0  0  0  0  0  0  0  0
  148.3165  137.2575  154.9336 H   0  0  0  0  0  0  0  0  0  0  0  0
  149.4408  136.6283  156.1112 H   0  0  0  0  0  0  0  0  0  0  0  0
  150.4619  137.7789  153.4785 H   0  0  0  0  0  0  0  0  0  0  0  0
  151.7100  137.3882  156.2078 H   0  0  0  0  0  0  0  0  0  0  0  0
  152.2930  136.7636  154.6590 H   0  0  0  0  0  0  0  0  0  0  0  0
  153.2656  139.1222  155.5829 H   0  0  0  0  0  0  0  0  0  0  0  0
  152.8279  138.9887  153.8768 H   0  0  0  0  0  0  0  0  0  0  0  0
  149.7696  139.2628  156.0315 H   0  0  0  0  0  0  0  0  0  0  0  0
  149.5635  140.1735  153.1355 H   0  0  0  0  0  0  0  0  0  0  0  0
  148.4963  141.5142  155.6683 H   0  0  0  0  0  0  0  0  0  0  0  0
  148.1709  142.0415  154.0228 H   0  0  0  0  0  0  0  0  0  0  0  0
  149.8024  142.1167  154.6510 H   0  0  0  0  0  0  0  0  0  0  0  0
  147.3110  139.2081  154.9486 H   0  0  0  0  0  0  0  0  0  0  0  0
  147.9580  138.3463  153.5553 H   0  0  0  0  0  0  0  0  0  0  0  0
  147.1197  139.8746  153.3298 H   0  0  0  0  0  0  0  0  0  0  0  0
  147.7053  134.9475  152.8821 H   0  0  0  0  0  0  0  0  0  0  0  0
  1  2  1  0  0  0  0
  1 21  1  0  0  0  0
  1 22  1  0  0  0  0
  1 23  1  0  0  0  0
  2 20  1  0  0  0  0
  2  3  2  0  0  0  0
  3  4  1  0  0  0  0
  3 24  1  0  0  0  0
  4  5  2  0  0  0  0
  4 25  1  0  0  0  0
  5  6  1  0  0  0  0
  5 19  1  0  0  0  0
  6  7  1  0  0  0  0
  6 26  1  0  0  0  0
  6 27  1  0  0  0  0
  7  8  2  0  0  0  0
  7  9  1  0  0  0  0
  9 10  1  0  0  0  0
  9 28  1  0  0  0  0
 10 11  1  0  0  0  0
 10 29  1  0  0  0  0
 10 30  1  0  0  0  0
 11 15  1  0  0  0  0
 11 12  1  0  0  0  0
 11 31  1  0  0  0  0
 12 13  1  0  0  0  0
 12 32  1  0  0  0  0
 12 33  1  0  0  0  0
 13 14  1  0  0  0  0
 13 34  1  0  0  0  0
 13 35  1  0  0  0  0
 14 15  1  0  0  0  0
 15 16  1  0  0  0  0
 15 36  1  0  0  0  0
 16 17  1  0  0  0  0
 16 18  1  0  0  0  0
 16 37  1  0  0  0  0
 17 38  1  0  0  0  0
 17 39  1  0  0  0  0
 17 40  1  0  0  0  0
 18 41  1  0  0  0  0
 18 42  1  0  0  0  0
 18 43  1  0  0  0  0
 19 20  2  0  0  0  0
 19 44  1  0  0  0  0
M  END
> <s_m_source_file>
AV-unprocessed.smi

> <i_m_source_file_index>
653

> <i_lp_mmshare_version>
43012

> <i_f3d_flags>
0

> <s_epik_input>
W0NIM11jMVtjSF1bY0hdYyhbY0hdbjEpW0NIMl1DKD1PKVtOSF1bQ0gyXVtDQEBIXTJbQ0gyXVtDSDJdT1tDQEhdMltDSF0oW0NIM10pW0NIM10=

> <s_epik_cmdline>
J2VwaWtfcHl0aG9uJywgJy1waCcsICc3LjAnLCAnLXRuJywgJzgnLCAnLW1hJywgJzIwMCcsICctbWV0YWxfYmluZGluZycsICctaW1hZScsICc8aW5maWxlLm1hZT4nLCAnLW9tYWUnLCAnPG91dGZpbGUubWFlPic=

> <r_epik_Ionization_Penalty>
0.0166429

> <r_epik_Ionization_Penalty_Charging>
0

> <r_epik_Ionization_Penalty_Neutral>
0.0166429

> <r_epik_State_Penalty>
0.0131478

> <r_epik_Charging_Adjusted_Penalty>
0.0131478

> <i_epik_Tot_Q>
0

> <i_epik_Tot_abs_Q>
0

> <r_epik_Metal_State_Penalty>
0.012786

> <b_epik_Metal_Only>
0

> <s_lp_Force_Field>
OPLS_2005

> <r_lp_Energy>
19.6488

> <b_lp_Chiralities_Consistent>
1

> <s_lp_Variant>
AV-unprocessed.smi:653-1

> <Gold.Version>
5.8.1

> <Gold.Id.Protein>
6NUR|6NUR_protein|mol2

> <Gold.PLP.Fitness>
42.6494

> <Gold.PLP.PLP>
-34.7555

> <Gold.PLP.part.hbond>
-2.0000

> <Gold.PLP.part.metal>
0.0000

> <Gold.PLP.part.buried>
-0.0301

> <Gold.PLP.part.nonpolar>
-33.1871

> <Gold.PLP.part.repulsive>
0.1930

> <Gold.PLP.ligand.clash>
0.0000

> <Gold.PLP.ligand.torsion>
0.5696

> <Gold.PLP.Chemscore.Hbond>
2.0000

> <Gold.PLP.Chemscore.CHOScore>
1.0000

> <Gold.PLP.Chemscore.Metal>
0.0000

> <Gold.Chemscore.Hbonds>
donor molecule, donor type, donor heavy atom, donor atom, acceptor molecule, acceptor atom, score
      L1  H     9    28       P1  7948  0.95
      P1  H  7989  7998       L1    14  1.00
      L1  C    19    44       P1  7948  1.00

> <Gold.PLP.Chemscore.Internal.Correction>
0.0332

> <Gold.Rescore>
     Score         DG    S(hbond)    S(metal)    S(lipo)     H(rot)  DE(clash)    DE(int)     intcor
     14.77     -15.39       1.01        0.00      88.29       1.48       0.20       0.42       ----

> <Gold.Chemscore.Fitness>
14.7746

> <Gold.Chemscore.DG>
-15.3944

> <Gold.Chemscore.ZeroCoef>
-5.4800

> <Gold.Chemscore.Hbond>
1.0139

> <Gold.Chemscore.Metal>
0.0000

> <Gold.Chemscore.Lipo>
88.2857

> <Gold.Chemscore.Internal_Hbond>
0.0000

> <Gold.Chemscore.DEClash>
0.1965

> <Gold.Chemscore.DEInternal>
0.4232

> <Gold.Chemscore.Rot>
1.4850

> <Gold.Chemscore.Internal.Correction>
   9.000000E+99

> <Gold.Chemscore.Hbonds>
donor molecule, donor type, donor heavy atom, donor atom, acceptor molecule, acceptor atom, score
      L1  H     9    28       P1  7948  0.21
      P1  H  7989  7998       L1    14  0.18

> <Gold.Chemscore.Hbond.Weighted>
-3.3865

> <Gold.Chemscore.Metal.Weighted>
-0.0000

> <Gold.Chemscore.Lipo.Weighted>
-10.3294

> <Gold.Chemscore.Internal_Hbond.Weighted>
0.0000

> <Gold.Chemscore.DEClash.Weighted>
0.1965

> <Gold.Chemscore.DEInternal.Weighted>
0.4232

> <Gold.Chemscore.Rot.Weighted>
3.8015

> <Gold.Chemscore.Internal.Correction.Weighted>
   9.000000E+99

> <Gold.Protein.RotatedTorsions>
[ 6907 6896 6895 6894 ] final   76.24 input  -60.11 | X-H torsion
[ 7974 7965 7964 7962 ] final   62.13 input  175.53 | X-H torsion
[ 8008 7997 7996 7995 ] final   42.96 input   59.86 | X-H torsion
[ 10167 10162 10161 10158 ] final -152.33 input  -65.29 | X-H torsion
[ 10718 10713 10712 10709 ] final   72.05 input   66.30 | X-H torsion
[ 10763 10752 10751 10750 ] final  -14.98 input  -60.55 | X-H torsion
[ 11005 11000 10999 10996 ] final -108.10 input  -57.11 | X-H torsion

> <Gold.Protein.ActiveResidues>
 VAL166  LYS551  ARG553  GLY616  TRP617  ASP618  TYR619  PRO620  LYS621  CYS622 
 ASP623  PHE694  ASN695  SER759  ASP760  ASP761  ALA762  ILE779  LEU786  VAL792 
 PHE793  MET794  SER795  GLU796  ALA797  LYS798  CYS799  TRP800  GLU811  SER814 

> <Gold.Protein.RotatedAtoms>
  152.5064  134.3998  159.9412 H   0  0  0  0  0  0  0  0  0  0  0  0  # atno 6907 bound_to 6896
  151.3962  133.3766  159.2734 H   0  0  0  0  0  0  0  0  0  0  0  0  # atno 6908 bound_to 6896
  150.9396  134.8827  159.7662 H   0  0  0  0  0  0  0  0  0  0  0  0  # atno 6909 bound_to 6896
  145.8768  139.3416  143.0729 H   0  0  0  0  0  0  0  0  0  0  0  0  # atno 7974 bound_to 7965
  155.2949  140.3381  155.4250 H   0  0  0  0  0  0  0  0  0  0  0  0  # atno 8008 bound_to 7997
  156.2029  140.1739  156.7901 H   0  0  0  0  0  0  0  0  0  0  0  0  # atno 8009 bound_to 7997
  154.5582  140.0692  156.8761 H   0  0  0  0  0  0  0  0  0  0  0  0  # atno 8010 bound_to 7997
  139.7190  143.8987  152.2496 H   0  0  0  0  0  0  0  0  0  0  0  0  # atno 10167 bound_to 10162
  157.6482  130.9559  150.0874 H   0  0  0  0  0  0  0  0  0  0  0  0  # atno 10718 bound_to 10713
  153.5365  135.7014  153.5658 H   0  0  0  0  0  0  0  0  0  0  0  0  # atno 10763 bound_to 10752
  153.3642  135.3961  155.1741 H   0  0  0  0  0  0  0  0  0  0  0  0  # atno 10764 bound_to 10752
  154.8679  135.3796  154.4866 H   0  0  0  0  0  0  0  0  0  0  0  0  # atno 10765 bound_to 10752
  141.0920  133.9039  157.2054 H   0  0  0  0  0  0  0  0  0  0  0  0  # atno 11005 bound_to 11000
  145.9071  140.9205  143.0473 LP  0  0  0  0  0  0  0  0  0  0  0  0  # atno 17320 bound_to 7965
  144.6726  140.1110  143.7455 LP  0  0  0  0  0  0  0  0  0  0  0  0  # atno 17321 bound_to 7965
  139.8877  144.6982  150.8805 LP  0  0  0  0  0  0  0  0  0  0  0  0  # atno 17342 bound_to 10162
  140.7750  143.3610  151.1828 LP  0  0  0  0  0  0  0  0  0  0  0  0  # atno 17343 bound_to 10162
  156.1833  130.3651  149.9006 LP  0  0  0  0  0  0  0  0  0  0  0  0  # atno 17370 bound_to 10713
  156.6953  130.8912  151.3593 LP  0  0  0  0  0  0  0  0  0  0  0  0  # atno 17371 bound_to 10713
  139.9747  135.0117  156.9602 LP  0  0  0  0  0  0  0  0  0  0  0  0  # atno 17394 bound_to 11000
  140.5231  134.0888  155.7297 LP  0  0  0  0  0  0  0  0  0  0  0  0  # atno 17395 bound_to 11000

$$$$
