AV-unprocessed.smi:157|AV-procd|sdf|1320|dock5
  -GOLD-   2262019 13D 1   1.00000     0.00000
 Structure written by MMmdl.
 36 38  0  0  0  0  0  0  0  0  2 V2000
  138.8635  136.6057  155.9843 O   0  0  0  0  0  0  0  0  0  0  0  0
  139.3728  137.7346  155.3066 C   0  0  0  0  0  0  0  0  0  0  0  0
  140.2411  137.3017  154.1145 C   0  0  2  0  0  0  0  0  0  0  0  0
  140.9440  136.1071  154.4511 O   0  0  0  0  0  0  0  0  0  0  0  0
  142.2190  136.1147  153.8796 C   0  0  1  0  0  0  0  0  0  0  0  0
  142.3564  134.9001  153.0192 N   0  0  0  0  0  0  0  0  0  0  0  0
  141.4567  133.9005  152.9043 C   0  0  0  0  0  0  0  0  0  0  0  0
  141.8170  132.9350  152.0760 N   0  3  0  0  0  0  0  0  0  0  0  0
  143.0548  133.2869  151.5809 C   0  0  0  0  0  0  0  0  0  0  0  0
  143.3678  134.5157  152.1684 C   0  0  0  0  0  0  0  0  0  0  0  0
  144.5006  135.3279  152.0039 N   0  0  0  0  0  0  0  0  0  0  0  0
  145.3451  135.1744  151.0361 C   0  0  0  0  0  0  0  0  0  0  0  0
  145.3885  134.1934  150.0593 N   0  0  0  0  0  0  0  0  0  0  0  0
  145.2162  132.7796  150.3423 C   0  0  0  0  0  0  0  0  0  0  0  0
  143.7615  132.3809  150.6218 C   0  0  2  0  0  0  0  0  0  0  0  0
  143.0807  132.2580  149.3901 O   0  0  0  0  0  0  0  0  0  0  0  0
  142.3346  137.3827  153.0341 C   0  0  0  0  0  0  0  0  0  0  0  0
  141.3453  138.2926  153.7297 C   0  0  1  0  0  0  0  0  0  0  0  0
  140.8886  139.2965  152.8469 O   0  0  0  0  0  0  0  0  0  0  0  0
  139.6174  137.0740  153.2478 H   0  0  0  0  0  0  0  0  0  0  0  0
  142.9799  136.0292  154.6559 H   0  0  0  0  0  0  0  0  0  0  0  0
  143.7722  131.3820  151.0595 H   0  0  0  0  0  0  0  0  0  0  0  0
  141.7983  138.7395  154.6161 H   0  0  0  0  0  0  0  0  0  0  0  0
  137.9204  136.6667  156.0044 H   0  0  0  0  0  0  0  0  0  0  0  0
  138.5491  138.3711  154.9810 H   0  0  0  0  0  0  0  0  0  0  0  0
  139.9690  138.3144  156.0115 H   0  0  0  0  0  0  0  0  0  0  0  0
  140.5271  133.8950  153.4450 H   0  0  0  0  0  0  0  0  0  0  0  0
  146.1634  135.8885  150.9332 H   0  0  0  0  0  0  0  0  0  0  0  0
  145.9794  134.3393  149.2530 H   0  0  0  0  0  0  0  0  0  0  0  0
  145.6283  132.1890  149.5233 H   0  0  0  0  0  0  0  0  0  0  0  0
  145.8221  132.5455  151.2188 H   0  0  0  0  0  0  0  0  0  0  0  0
  142.3209  132.8193  149.4051 H   0  0  0  0  0  0  0  0  0  0  0  0
  143.3568  137.7620  153.0244 H   0  0  0  0  0  0  0  0  0  0  0  0
  142.0195  137.1772  152.0091 H   0  0  0  0  0  0  0  0  0  0  0  0
  141.6098  139.5615  152.2955 H   0  0  0  0  0  0  0  0  0  0  0  0
  141.2873  132.1004  151.8587 H   0  0  0  0  0  0  0  0  0  0  0  0
  1  2  1  0  0  0  0
  1 24  1  0  0  0  0
  2  3  1  0  0  0  0
  2 25  1  0  0  0  0
  2 26  1  0  0  0  0
  3 20  1  0  0  0  0
  3 18  1  0  0  0  0
  3  4  1  0  0  0  0
  4  5  1  0  0  0  0
  5 21  1  0  0  0  0
  5  6  1  0  0  0  0
  5 17  1  0  0  0  0
  6 10  1  0  0  0  0
  6  7  1  0  0  0  0
  7  8  2  0  0  0  0
  7 27  1  0  0  0  0
  8  9  1  0  0  0  0
  8 36  1  0  0  0  0
  9 15  1  0  0  0  0
  9 10  2  0  0  0  0
 10 11  1  0  0  0  0
 11 12  2  0  0  0  0
 12 13  1  0  0  0  0
 12 28  1  0  0  0  0
 13 14  1  0  0  0  0
 13 29  1  0  0  0  0
 14 15  1  0  0  0  0
 14 30  1  0  0  0  0
 14 31  1  0  0  0  0
 15 22  1  0  0  0  0
 15 16  1  0  0  0  0
 16 32  1  0  0  0  0
 17 18  1  0  0  0  0
 17 33  1  0  0  0  0
 17 34  1  0  0  0  0
 18 23  1  0  0  0  0
 18 19  1  0  0  0  0
 19 35  1  0  0  0  0
M  CHG  1   8   1
M  END
> <s_m_source_file>
AV-unprocessed.smi

> <i_m_source_file_index>
157

> <i_lp_mmshare_version>
43012

> <i_f3d_flags>
0

> <s_epik_input>
W09IXVtDSDJdW0NASF0xT1tDQEhdKFtDSDJdW0NAQEhdMVtPSF0pbihbY0hdbjIpYyhjMjMpTj1bQ0hdW05IXVtDSDJdW0NASF0zW09IXQ==

> <s_epik_cmdline>
J2VwaWtfcHl0aG9uJywgJy1waCcsICc3LjAnLCAnLXRuJywgJzgnLCAnLW1hJywgJzIwMCcsICctbWV0YWxfYmluZGluZycsICctaW1hZScsICc8aW5maWxlLm1hZT4nLCAnLW9tYWUnLCAnPG91dGZpbGUubWFlPic=

> <r_epik_Ionization_Penalty>
1.68594

> <r_epik_Ionization_Penalty_Charging>
0

> <r_epik_Ionization_Penalty_Neutral>
1.68594

> <r_epik_State_Penalty>
1.79006

> <r_epik_Charging_Adjusted_Penalty>
1.79006

> <i_epik_Tot_Q>
1

> <i_epik_Tot_abs_Q>
1

> <r_epik_Metal_State_Penalty>
5.85324

> <b_epik_Metal_Only>
0

> <s_epik_Chemistry_Notes>
This compound has an imine and may undergo hydrolysis. This compound contains an acetal/aminal-like group ( X-CH(R)-Y where X, Y are N, S, or O) that may be acid/base labile, releasing an aldehyde.

> <s_lp_Force_Field>
OPLS_2005

> <r_lp_Energy>
53.8289

> <b_lp_Chiralities_Consistent>
1

> <s_lp_Variant>
AV-unprocessed.smi:157-30

> <Gold.Version>
5.8.1

> <Gold.Id.Protein>
6NUR|6NUR_protein|mol2

> <Gold.PLP.Fitness>
49.8998

> <Gold.PLP.PLP>
-36.6690

> <Gold.PLP.part.hbond>
-8.7123

> <Gold.PLP.part.metal>
0.0000

> <Gold.PLP.part.buried>
-4.4250

> <Gold.PLP.part.nonpolar>
-24.5314

> <Gold.PLP.part.repulsive>
0.3972

> <Gold.PLP.ligand.clash>
0.0000

> <Gold.PLP.ligand.torsion>
0.3523

> <Gold.PLP.Chemscore.Hbond>
4.1485

> <Gold.PLP.Chemscore.CHOScore>
0.4933

> <Gold.PLP.Chemscore.Metal>
0.0000

> <Gold.Chemscore.Hbonds>
donor molecule, donor type, donor heavy atom, donor atom, acceptor molecule, acceptor atom, score
      L1  H    13    29       P1  7921  0.99
      L1  H    16    32       P1 10186  0.91
      L1  H    19    35       P1 10175  0.38
      P1  H 10785 10796       L1    16  0.54
      P1  H 11000 11005       L1     1  1.00
      L1  C    12    28       P1  7948  0.04

> <Gold.PLP.Chemscore.Internal.Correction>
0.0100

> <Gold.Rescore>
     Score         DG    S(hbond)    S(metal)    S(lipo)     H(rot)  DE(clash)    DE(int)     intcor
     11.55     -12.64       3.60        0.00      38.66       3.67       0.83       0.26       ----

> <Gold.Chemscore.Fitness>
11.5484

> <Gold.Chemscore.DG>
-12.6355

> <Gold.Chemscore.ZeroCoef>
-5.4800

> <Gold.Chemscore.Hbond>
3.5979

> <Gold.Chemscore.Metal>
0.0000

> <Gold.Chemscore.Lipo>
38.6614

> <Gold.Chemscore.Internal_Hbond>
0.0000

> <Gold.Chemscore.DEClash>
0.8285

> <Gold.Chemscore.DEInternal>
0.2585

> <Gold.Chemscore.Rot>
3.6659

> <Gold.Chemscore.Internal.Correction>
   9.000000E+99

> <Gold.Chemscore.Hbonds>
donor molecule, donor type, donor heavy atom, donor atom, acceptor molecule, acceptor atom, score
      L1  H    13    29       P1  7921  0.37
      L1  H    16    32       P1 10186  0.87
      L1  H    19    35       P1 10175  0.04
      P1  H 10785 10796       L1    16  0.35
      P1  H 11000 11005       L1     1  0.92

> <Gold.Chemscore.Hbond.Weighted>
-12.0169

> <Gold.Chemscore.Metal.Weighted>
-0.0000

> <Gold.Chemscore.Lipo.Weighted>
-4.5234

> <Gold.Chemscore.Internal_Hbond.Weighted>
0.0000

> <Gold.Chemscore.DEClash.Weighted>
0.8285

> <Gold.Chemscore.DEInternal.Weighted>
0.2585

> <Gold.Chemscore.Rot.Weighted>
9.3848

> <Gold.Chemscore.Internal.Correction.Weighted>
   9.000000E+99

> <Gold.Protein.RotatedTorsions>
[ 6907 6896 6895 6894 ] final -162.75 input  -60.11 | X-H torsion
[ 7974 7965 7964 7962 ] final   10.57 input  175.53 | X-H torsion
[ 8008 7997 7996 7995 ] final -171.81 input   59.86 | X-H torsion
[ 10167 10162 10161 10158 ] final  -45.90 input  -65.29 | X-H torsion
[ 10718 10713 10712 10709 ] final  -46.22 input   66.30 | X-H torsion
[ 10763 10752 10751 10750 ] final  -91.89 input  -60.55 | X-H torsion
[ 11005 11000 10999 10996 ] final  117.62 input  -57.11 | X-H torsion

> <Gold.Protein.ActiveResidues>
 VAL166  LYS551  ARG553  GLY616  TRP617  ASP618  TYR619  PRO620  LYS621  CYS622 
 ASP623  PHE694  ASN695  SER759  ASP760  ASP761  ALA762  ILE779  LEU786  VAL792 
 PHE793  MET794  SER795  GLU796  ALA797  LYS798  CYS799  TRP800  GLU811  SER814 

> <Gold.Protein.RotatedAtoms>
  151.3852  133.3807  159.2714 H   0  0  0  0  0  0  0  0  0  0  0  0  # atno 6907 bound_to 6896
  150.9547  134.8943  159.7704 H   0  0  0  0  0  0  0  0  0  0  0  0  # atno 6908 bound_to 6896
  152.5126  134.3809  159.9403 H   0  0  0  0  0  0  0  0  0  0  0  0  # atno 6909 bound_to 6896
  146.2386  139.9615  142.8458 H   0  0  0  0  0  0  0  0  0  0  0  0  # atno 7974 bound_to 7965
  155.9364  140.1100  157.1091 H   0  0  0  0  0  0  0  0  0  0  0  0  # atno 8008 bound_to 7997
  154.4080  140.1227  156.4936 H   0  0  0  0  0  0  0  0  0  0  0  0  # atno 8009 bound_to 7997
  155.7016  140.3472  155.4938 H   0  0  0  0  0  0  0  0  0  0  0  0  # atno 8010 bound_to 7997
  140.6839  143.2857  151.3705 H   0  0  0  0  0  0  0  0  0  0  0  0  # atno 10167 bound_to 10162
  156.2205  130.4166  149.8999 H   0  0  0  0  0  0  0  0  0  0  0  0  # atno 10718 bound_to 10713
  154.6806  135.5251  153.8258 H   0  0  0  0  0  0  0  0  0  0  0  0  # atno 10763 bound_to 10752
  153.0562  135.6551  154.0581 H   0  0  0  0  0  0  0  0  0  0  0  0  # atno 10764 bound_to 10752
  154.0469  135.2972  155.3326 H   0  0  0  0  0  0  0  0  0  0  0  0  # atno 10765 bound_to 10752
  139.9081  134.9612  156.7378 H   0  0  0  0  0  0  0  0  0  0  0  0  # atno 11005 bound_to 11000
  145.1766  140.9747  143.4290 LP  0  0  0  0  0  0  0  0  0  0  0  0  # atno 17320 bound_to 7965
  144.9980  139.3626  143.6182 LP  0  0  0  0  0  0  0  0  0  0  0  0  # atno 17321 bound_to 7965
  139.6183  144.0959  152.2366 LP  0  0  0  0  0  0  0  0  0  0  0  0  # atno 17342 bound_to 10162
  140.0395  144.6018  150.7422 LP  0  0  0  0  0  0  0  0  0  0  0  0  # atno 17343 bound_to 10162
  156.6647  130.8796  151.3553 LP  0  0  0  0  0  0  0  0  0  0  0  0  # atno 17370 bound_to 10713
  157.7085  130.9412  150.1009 LP  0  0  0  0  0  0  0  0  0  0  0  0  # atno 17371 bound_to 10713
  140.6874  133.9421  155.7946 LP  0  0  0  0  0  0  0  0  0  0  0  0  # atno 17394 bound_to 11000
  141.0467  134.0544  157.3835 LP  0  0  0  0  0  0  0  0  0  0  0  0  # atno 17395 bound_to 11000

$$$$
