AV-unprocessed.smi:1260|AV-procd|sdf|5299|dock10
  -GOLD-   22720 4423D 1   1.00000     0.00000
 Structure written by MMmdl.
 37 39  0  0  0  0  0  0  0  0  2 V2000
  145.1930  138.1184  153.6414 O   0  0  0  0  0  0  0  0  0  0  0  0
  146.1349  137.5835  153.0563 C   0  0  0  0  0  0  0  0  0  0  0  0
  147.5716  138.0586  153.2927 C   0  0  0  0  0  0  0  0  0  0  0  0
  147.6226  139.2033  154.1845 N   0  0  0  0  0  0  0  0  0  0  0  0
  148.1057  140.4345  154.0050 C   0  0  0  0  0  0  0  0  0  0  0  0
  147.9527  141.1824  155.0871 N   0  0  0  0  0  0  0  0  0  0  0  0
  147.3287  140.3241  155.9770 N   0  0  0  0  0  0  0  0  0  0  0  0
  147.1292  139.1487  155.4466 N   0  0  0  0  0  0  0  0  0  0  0  0
  145.9762  136.5782  152.1818 N   0  0  0  0  0  0  0  0  0  0  0  0
  144.6917  135.9816  151.8242 C   0  0  2  0  0  0  0  0  0  0  0  0
  143.9378  135.4072  153.0169 C   0  0  0  0  0  0  0  0  0  0  0  0
  142.9292  134.4550  152.3658 C   0  0  0  0  0  0  0  0  0  0  0  0
  143.5125  134.0306  151.0689 N   0  3  2  0  0  0  0  0  0  0  0  0
  143.6106  132.5555  150.9036 C   0  0  0  0  0  0  0  0  0  0  0  0
  144.5648  132.1937  149.7559 C   0  0  0  0  0  0  0  0  0  0  0  0
  145.9962  132.6889  150.0366 C   0  0  0  0  0  0  0  0  0  0  0  0
  146.0273  133.8802  151.0138 C   0  0  0  0  0  0  0  0  0  0  0  0
  144.7805  134.7852  150.8567 C   0  0  2  0  0  0  0  0  0  0  0  0
  148.1726  137.2583  153.7271 H   0  0  0  0  0  0  0  0  0  0  0  0
  148.0267  138.3231  152.3371 H   0  0  0  0  0  0  0  0  0  0  0  0
  148.5660  140.7789  153.0906 H   0  0  0  0  0  0  0  0  0  0  0  0
  146.8000  136.1986  151.7376 H   0  0  0  0  0  0  0  0  0  0  0  0
  144.0600  136.7503  151.3732 H   0  0  0  0  0  0  0  0  0  0  0  0
  144.6169  134.8431  153.6579 H   0  0  0  0  0  0  0  0  0  0  0  0
  143.4589  136.1742  153.6265 H   0  0  0  0  0  0  0  0  0  0  0  0
  142.6883  133.6182  153.0231 H   0  0  0  0  0  0  0  0  0  0  0  0
  141.9969  134.9807  152.1568 H   0  0  0  0  0  0  0  0  0  0  0  0
  143.9710  132.0955  151.8255 H   0  0  0  0  0  0  0  0  0  0  0  0
  142.6147  132.1516  150.7186 H   0  0  0  0  0  0  0  0  0  0  0  0
  144.5688  131.1164  149.5870 H   0  0  0  0  0  0  0  0  0  0  0  0
  144.1968  132.6451  148.8334 H   0  0  0  0  0  0  0  0  0  0  0  0
  146.5993  131.8786  150.4481 H   0  0  0  0  0  0  0  0  0  0  0  0
  146.4666  132.9667  149.0928 H   0  0  0  0  0  0  0  0  0  0  0  0
  146.0744  133.5057  152.0373 H   0  0  0  0  0  0  0  0  0  0  0  0
  146.9473  134.4430  150.8550 H   0  0  0  0  0  0  0  0  0  0  0  0
  144.7786  135.1626  149.8328 H   0  0  0  0  0  0  0  0  0  0  0  0
  142.8781  134.3580  150.3541 H   0  0  0  0  0  0  0  0  0  0  0  0
  1  2  2  0  0  0  0
  2  3  1  0  0  0  0
  2  9  1  0  0  0  0
  3  4  1  0  0  0  0
  3 19  1  0  0  0  0
  3 20  1  0  0  0  0
  4  8  1  0  0  0  0
  4  5  1  0  0  0  0
  5  6  2  0  0  0  0
  5 21  1  0  0  0  0
  6  7  1  0  0  0  0
  7  8  2  0  0  0  0
  9 10  1  0  0  0  0
  9 22  1  0  0  0  0
 10 18  1  0  0  0  0
 10 11  1  0  0  0  0
 10 23  1  0  0  0  0
 11 12  1  0  0  0  0
 11 24  1  0  0  0  0
 11 25  1  0  0  0  0
 12 13  1  0  0  0  0
 12 26  1  0  0  0  0
 12 27  1  0  0  0  0
 13 18  1  0  0  0  0
 13 14  1  0  0  0  0
 13 37  1  0  0  0  0
 14 15  1  0  0  0  0
 14 28  1  0  0  0  0
 14 29  1  0  0  0  0
 15 16  1  0  0  0  0
 15 30  1  0  0  0  0
 15 31  1  0  0  0  0
 16 17  1  0  0  0  0
 16 32  1  0  0  0  0
 16 33  1  0  0  0  0
 17 18  1  0  0  0  0
 17 34  1  0  0  0  0
 17 35  1  0  0  0  0
 18 36  1  0  0  0  0
M  CHG  1  13   1
M  END
> <s_m_source_file>
AV-unprocessed.smi

> <i_m_source_file_index>
1260

> <i_lp_mmshare_version>
43012

> <i_f3d_flags>
0

> <s_epik_input>
bjFubltjSF1uMVtDSDJdQyg9TylbTkhdW0NASF0oW0NIMl1bQ0gyXTIpW0NAQEhdKE4yMylbQ0gyXVtDSDJdW0NIMl1bQ0gyXTM=

> <s_epik_cmdline>
J2VwaWtfcHl0aG9uJywgJy1waCcsICc3LjAnLCAnLXRuJywgJzgnLCAnLW1hJywgJzIwMCcsICctbWV0YWxfYmluZGluZycsICctaW1hZScsICc8aW5maWxlLm1hZT4nLCAnLW9tYWUnLCAnPG91dGZpbGUubWFlPic=

> <r_lp_tautomer_probability>
1

> <r_epik_Ionization_Penalty>
0.00234324

> <r_epik_Ionization_Penalty_Charging>
0.00233897

> <r_epik_Ionization_Penalty_Neutral>
4.26861e-06

> <r_epik_State_Penalty>
0.00161477

> <r_epik_Charging_Adjusted_Penalty>
0.00395374

> <i_epik_Tot_Q>
1

> <i_epik_Tot_abs_Q>
1

> <r_epik_Metal_State_Penalty>
-0

> <b_epik_Metal_Only>
0

> <s_lp_Force_Field>
OPLS_2005

> <r_lp_Energy>
44.1786

> <b_lp_Chiralities_Consistent>
1

> <s_lp_Variant>
AV-unprocessed.smi:1260-7

> <Gold.Version>
5.8.1

> <Gold.Id.Protein>
6NUR|6NUR_protein|mol2

> <Gold.PLP.Fitness>
35.4398

> <Gold.PLP.PLP>
-24.5013

> <Gold.PLP.part.hbond>
-2.0000

> <Gold.PLP.part.metal>
0.0000

> <Gold.PLP.part.buried>
-1.6446

> <Gold.PLP.part.nonpolar>
-22.7557

> <Gold.PLP.part.repulsive>
0.9781

> <Gold.PLP.ligand.clash>
0.0000

> <Gold.PLP.ligand.torsion>
0.0216

> <Gold.PLP.Chemscore.Hbond>
2.6599

> <Gold.PLP.Chemscore.CHOScore>
1.0000

> <Gold.PLP.Chemscore.Metal>
0.0000

> <Gold.Chemscore.Hbonds>
donor molecule, donor type, donor heavy atom, donor atom, acceptor molecule, acceptor atom, score
      L1  H     9    22       P1  7948  0.66
      L1  H    13    37       P1 10186  2.00
      L1  C     5    21       P1  7957  1.00

> <Gold.PLP.Chemscore.Internal.Correction>
0.0021

> <Gold.Rescore>
     Score         DG    S(hbond)    S(metal)    S(lipo)     H(rot)  DE(clash)    DE(int)     intcor
      9.77     -12.43       1.45        0.00      61.32       1.98       1.57       1.08       ----

> <Gold.Chemscore.Fitness>
9.7750

> <Gold.Chemscore.DG>
-12.4301

> <Gold.Chemscore.ZeroCoef>
-5.4800

> <Gold.Chemscore.Hbond>
1.4471

> <Gold.Chemscore.Metal>
0.0000

> <Gold.Chemscore.Lipo>
61.3223

> <Gold.Chemscore.Internal_Hbond>
0.0000

> <Gold.Chemscore.DEClash>
1.5713

> <Gold.Chemscore.DEInternal>
1.0838

> <Gold.Chemscore.Rot>
1.9757

> <Gold.Chemscore.Internal.Correction>
   9.000000E+99

> <Gold.Chemscore.Hbonds>
donor molecule, donor type, donor heavy atom, donor atom, acceptor molecule, acceptor atom, score
      L1  H     9    22       P1  7948  0.63
      L1  H    13    37       P1 10186  0.66

> <Gold.Chemscore.Hbond.Weighted>
-4.8332

> <Gold.Chemscore.Metal.Weighted>
-0.0000

> <Gold.Chemscore.Lipo.Weighted>
-7.1747

> <Gold.Chemscore.Internal_Hbond.Weighted>
0.0000

> <Gold.Chemscore.DEClash.Weighted>
1.5713

> <Gold.Chemscore.DEInternal.Weighted>
1.0838

> <Gold.Chemscore.Rot.Weighted>
5.0578

> <Gold.Chemscore.Internal.Correction.Weighted>
   9.000000E+99

> <Gold.Protein.RotatedTorsions>
[ 6907 6896 6895 6894 ] final   69.40 input  -60.11 | X-H torsion
[ 7974 7965 7964 7962 ] final -174.68 input  175.53 | X-H torsion
[ 8008 7997 7996 7995 ] final   92.64 input   59.86 | X-H torsion
[ 10167 10162 10161 10158 ] final  158.22 input  -65.29 | X-H torsion
[ 10718 10713 10712 10709 ] final   13.24 input   66.30 | X-H torsion
[ 10763 10752 10751 10750 ] final  -79.53 input  -60.55 | X-H torsion
[ 11005 11000 10999 10996 ] final -172.80 input  -57.11 | X-H torsion

> <Gold.Protein.ActiveResidues>
 VAL166  LYS551  ARG553  GLY616  TRP617  ASP618  TYR619  PRO620  LYS621  CYS622 
 ASP623  PHE694  ASN695  SER759  ASP760  ASP761  ALA762  ILE779  LEU786  VAL792 
 PHE793  MET794  SER795  GLU796  ALA797  LYS798  CYS799  TRP800  GLU811  SER814 

> <Gold.Protein.RotatedAtoms>
  152.4684  134.5021  159.9727 H   0  0  0  0  0  0  0  0  0  0  0  0  # atno 6907 bound_to 6896
  151.5053  133.3490  159.2883 H   0  0  0  0  0  0  0  0  0  0  0  0  # atno 6908 bound_to 6896
  150.8680  134.8076  159.7195 H   0  0  0  0  0  0  0  0  0  0  0  0  # atno 6909 bound_to 6896
  144.7131  140.1435  143.6390 H   0  0  0  0  0  0  0  0  0  0  0  0  # atno 7974 bound_to 7965
  156.0376  140.3323  155.7208 H   0  0  0  0  0  0  0  0  0  0  0  0  # atno 8008 bound_to 7997
  155.5792  140.0635  157.2805 H   0  0  0  0  0  0  0  0  0  0  0  0  # atno 8009 bound_to 7997
  154.4379  140.1847  156.0947 H   0  0  0  0  0  0  0  0  0  0  0  0  # atno 8010 bound_to 7997
  139.4826  144.4845  151.8397 H   0  0  0  0  0  0  0  0  0  0  0  0  # atno 10167 bound_to 10162
  157.0217  130.6157  149.5722 H   0  0  0  0  0  0  0  0  0  0  0  0  # atno 10718 bound_to 10713
  154.5397  135.5692  153.6829 H   0  0  0  0  0  0  0  0  0  0  0  0  # atno 10763 bound_to 10752
  152.9960  135.6225  154.2518 H   0  0  0  0  0  0  0  0  0  0  0  0  # atno 10764 bound_to 10752
  154.2448  135.2861  155.2819 H   0  0  0  0  0  0  0  0  0  0  0  0  # atno 10765 bound_to 10752
  140.4929  134.5967  157.4961 H   0  0  0  0  0  0  0  0  0  0  0  0  # atno 11005 bound_to 11000
  145.9181  139.2528  143.1398 LP  0  0  0  0  0  0  0  0  0  0  0  0  # atno 17320 bound_to 7965
  145.9648  140.8807  143.0192 LP  0  0  0  0  0  0  0  0  0  0  0  0  # atno 17321 bound_to 7965
  140.4323  144.2098  150.5888 LP  0  0  0  0  0  0  0  0  0  0  0  0  # atno 17342 bound_to 10162
  140.4766  143.2394  151.9014 LP  0  0  0  0  0  0  0  0  0  0  0  0  # atno 17343 bound_to 10162
  156.0100  130.5190  150.7956 LP  0  0  0  0  0  0  0  0  0  0  0  0  # atno 17370 bound_to 10713
  157.5244  131.0933  151.0036 LP  0  0  0  0  0  0  0  0  0  0  0  0  # atno 17371 bound_to 10713
  139.9758  134.7217  155.9952 LP  0  0  0  0  0  0  0  0  0  0  0  0  # atno 17394 bound_to 11000
  141.1475  133.6553  156.3911 LP  0  0  0  0  0  0  0  0  0  0  0  0  # atno 17395 bound_to 11000

$$$$
