#       Name:                AV-unprocessed.smi:1952
#       Creating user name   scv26
#       Creation time:       Fri Mar 27 10:03:56 2020


#       File generated by GOLD software.
#

@<TRIPOS>MOLECULE
AV-unprocessed.smi:1952
    47    48     1
SMALL
NO_CHARGES


@<TRIPOS>ATOM
      1 ****        -6.1601   2.0223   1.2315 C.3            1 S1                 0.0000
      2 ****        -4.7112   1.6816   1.1548 C.2            1 S1                 0.0000
      3 ****        -3.9837   0.6063   1.5819 C.2            1 S1                 0.0000
      4 ****        -2.6604   0.9386   1.1875 C.2            1 S1                 0.0000
      5 ****        -1.5780   0.0606   1.4513 N.am           1 S1                 0.0000
      6 ****        -0.2789   0.2594   1.1716 C.2            1 S1                 0.0000
      7 ****         0.1870   1.2720   0.6484 O.2            1 S1                 0.0000
      8 ****         0.4660  -0.7984   1.5275 N.am           1 S1                 0.0000
      9 ****         1.9210  -0.9065   1.4070 C.3            1 S1                 0.0000
     10 ****         2.4504  -1.7722   2.5586 C.3            1 S1                 0.0000
     11 ****         2.3382  -1.4871   0.0353 C.3            1 S1                 0.0000
     12 ****         1.9071  -0.6488  -1.1122 N.4            1 S1                 1.0000
     13 ****         2.7667   0.5395  -1.3331 C.3            1 S1                 0.0000
     14 ****         2.2060   1.3930  -2.4824 C.3            1 S1                 0.0000
     15 ****         2.1139   0.6004  -3.6602 O.3            1 S1                 0.0000
     16 ****         1.2328  -0.5035  -3.4919 C.3            1 S1                 0.0000
     17 ****         1.7552  -1.4173  -2.3697 C.3            1 S1                 0.0000
     18 ****        -2.5872   2.1077   0.5700 N.2            1 S1                 0.0000
     19 ****        -3.9009   2.5906   0.5474 O.3            1 S1                 0.0000
     20 ****        -6.7500   1.1537   1.5247 H              1 S1                 0.0000
     21 ****        -6.5288   2.3698   0.2662 H              1 S1                 0.0000
     22 ****        -6.3322   2.8112   1.9639 H              1 S1                 0.0000
     23 ****        -4.3439  -0.2725   2.0959 H              1 S1                 0.0000
     24 ****        -1.8207  -0.8110   1.8989 H              1 S1                 0.0000
     25 ****        -0.0075  -1.5849   1.9482 H              1 S1                 0.0000
     26 ****         2.3617   0.0838   1.5304 H              1 S1                 0.0000
     27 ****         3.5381  -1.8426   2.5287 H              1 S1                 0.0000
     28 ****         2.0506  -2.7859   2.5121 H              1 S1                 0.0000
     29 ****         2.1765  -1.3504   3.5263 H              1 S1                 0.0000
     30 ****         3.4184  -1.6339  -0.0091 H              1 S1                 0.0000
     31 ****         1.8952  -2.4798  -0.0605 H              1 S1                 0.0000
     32 ****         2.8227   1.1438  -0.4283 H              1 S1                 0.0000
     33 ****         3.7836   0.2202  -1.5672 H              1 S1                 0.0000
     34 ****         1.2273   1.8008  -2.2241 H              1 S1                 0.0000
     35 ****         2.8634   2.2407  -2.6769 H              1 S1                 0.0000
     36 ****         0.2256  -0.1484  -3.2676 H              1 S1                 0.0000
     37 ****         1.1745  -1.0552  -4.4304 H              1 S1                 0.0000
     38 ****         2.7157  -1.8508  -2.6529 H              1 S1                 0.0000
     39 ****         1.0601  -2.2441  -2.2189 H              1 S1                 0.0000
     40 ****         0.9862  -0.3029  -0.8810 H              1 S1                 0.0000
     41 ****        -0.4172   2.0282   0.3972 LP             1 S1                 0.0000
     42 ****         1.1696   1.3382   0.4746 LP             1 S1                 0.0000
     43 ****         3.0241   0.2551  -3.8890 LP             1 S1                 0.0000
     44 ****         1.7764   1.1718  -4.4083 LP             1 S1                 0.0000
     45 ****        -1.7702   2.5499   0.1999 LP             1 S1                 0.0000
     46 ****        -3.9474   3.4620   1.0358 LP             1 S1                 0.0000
     47 ****        -4.1943   2.7231  -0.3994 LP             1 S1                 0.0000
@<TRIPOS>BOND
    1    1    2 1     
    2    1   20 1     
    3    1   21 1     
    4    1   22 1     
    5    2   19 1     
    6    2    3 2     
    7    3    4 1     
    8    3   23 1     
    9    4    5 1     
   10    4   18 2     
   11    5    6 am    
   12    5   24 1     
   13    6    7 2     
   14    6    8 am    
   15    8    9 1     
   16    8   25 1     
   17    9   10 1     
   18    9   11 1     
   19    9   26 1     
   20   10   27 1     
   21   10   28 1     
   22   10   29 1     
   23   11   12 1     
   24   11   30 1     
   25   11   31 1     
   26   12   17 1     
   27   12   13 1     
   28   12   40 1     
   29   13   14 1     
   30   13   32 1     
   31   13   33 1     
   32   14   15 1     
   33   14   34 1     
   34   14   35 1     
   35   15   16 1     
   36   16   17 1     
   37   16   36 1     
   38   16   37 1     
   39   17   38 1     
   40   17   39 1     
   41   18   19 1     
   42    7   41 1     
   43    7   42 1     
   44   15   43 1     
   45   15   44 1     
   46   18   45 1     
   47   19   46 1     
   48   19   47 1     
@<TRIPOS>SUBSTRUCTURE
      1 S1             1
@<TRIPOS>SET
LONE_PAIRS      STATIC     ATOMS    <user>   **** ""
7 41 42 43 44 45 46 47
DONOR_HYDROGENS      STATIC     ATOMS    <user>   **** ""
3 24 25 40
ATOM$BLUE        STATIC     ATOMS    COLORGROUP SYSTEM
7 41 42 43 44 45 46 47
ATOM$RED        STATIC     ATOMS    COLORGROUP SYSTEM
3 24 25 40
