AV-unprocessed.smi:3164|AV-procd|sdf|12082|dock2
  -GOLD-   2272017513D 1   1.00000     0.00000
 Structure written by MMmdl.
 40 41  0  0  0  0  0  0  0  0  3 V2000
  148.7041  135.7453  155.1894 C   0  0  0  0  0  0  0  0  0  0  0  0
  149.5217  136.8238  154.5938 N   0  3  2  0  0  0  0  0  0  0  0  0
  150.8818  136.8944  155.1741 C   0  0  0  0  0  0  0  0  0  0  0  0
  151.6944  138.0072  154.4927 C   0  0  0  0  0  0  0  0  0  0  0  0
  151.0010  139.2435  154.6170 O   0  0  0  0  0  0  0  0  0  0  0  0
  149.7283  139.2231  153.9763 C   0  0  2  0  0  0  0  0  0  0  0  0
  149.1134  140.6253  154.1026 C   0  0  0  0  0  0  0  0  0  0  0  0
  148.9303  140.9964  155.5196 N   0  3  0  0  0  0  0  0  0  0  0  0
  150.1590  141.4577  156.1971 C   0  0  0  0  0  0  0  0  0  0  0  0
  150.0700  141.2673  157.7207 C   0  0  0  0  0  0  0  0  0  0  0  0
  151.1355  142.0429  158.4779 C   0  0  0  0  0  0  0  0  0  0  0  0
  151.7000  143.2131  157.9272 C   0  0  0  0  0  0  0  0  0  0  0  0
  152.6689  143.9082  158.6771 C   0  0  0  0  0  0  0  0  0  0  0  0
  153.0319  143.4104  159.9432 C   0  0  0  0  0  0  0  0  0  0  0  0
  152.4103  142.2336  160.4047 C   0  0  0  0  0  0  0  0  0  0  0  0
  151.4786  141.5607  159.6946 N   0  0  0  0  0  0  0  0  0  0  0  0
  148.8551  138.1456  154.6512 C   0  0  0  0  0  0  0  0  0  0  0  0
  148.5382  135.9206  156.2531 H   0  0  0  0  0  0  0  0  0  0  0  0
  149.1989  134.7802  155.0747 H   0  0  0  0  0  0  0  0  0  0  0  0
  147.7333  135.6822  154.6969 H   0  0  0  0  0  0  0  0  0  0  0  0
  150.8138  137.0861  156.2464 H   0  0  0  0  0  0  0  0  0  0  0  0
  151.3872  135.9357  155.0507 H   0  0  0  0  0  0  0  0  0  0  0  0
  152.6724  138.1015  154.9647 H   0  0  0  0  0  0  0  0  0  0  0  0
  151.8691  137.7770  153.4404 H   0  0  0  0  0  0  0  0  0  0  0  0
  149.8540  138.9810  152.9190 H   0  0  0  0  0  0  0  0  0  0  0  0
  149.7605  141.3646  153.6290 H   0  0  0  0  0  0  0  0  0  0  0  0
  148.1527  140.6593  153.5870 H   0  0  0  0  0  0  0  0  0  0  0  0
  148.2552  141.7475  155.5636 H   0  0  0  0  0  0  0  0  0  0  0  0
  151.0102  140.9023  155.8016 H   0  0  0  0  0  0  0  0  0  0  0  0
  150.3302  142.5110  155.9700 H   0  0  0  0  0  0  0  0  0  0  0  0
  149.0841  141.5662  158.0798 H   0  0  0  0  0  0  0  0  0  0  0  0
  150.1680  140.2078  157.9607 H   0  0  0  0  0  0  0  0  0  0  0  0
  151.3985  143.5737  156.9544 H   0  0  0  0  0  0  0  0  0  0  0  0
  153.1235  144.8077  158.2890 H   0  0  0  0  0  0  0  0  0  0  0  0
  153.7705  143.9180  160.5460 H   0  0  0  0  0  0  0  0  0  0  0  0
  152.6635  141.8242  161.3713 H   0  0  0  0  0  0  0  0  0  0  0  0
  147.8853  138.0861  154.1550 H   0  0  0  0  0  0  0  0  0  0  0  0
  148.6661  138.4115  155.6928 H   0  0  0  0  0  0  0  0  0  0  0  0
  148.5592  140.2044  156.0252 H   0  0  0  0  0  0  0  0  0  0  0  0
  149.6345  136.5947  153.6162 H   0  0  0  0  0  0  0  0  0  0  0  0
  1  2  1  0  0  0  0
  1 18  1  0  0  0  0
  1 19  1  0  0  0  0
  1 20  1  0  0  0  0
  2 17  1  0  0  0  0
  2  3  1  0  0  0  0
  2 40  1  0  0  0  0
  3  4  1  0  0  0  0
  3 21  1  0  0  0  0
  3 22  1  0  0  0  0
  4  5  1  0  0  0  0
  4 23  1  0  0  0  0
  4 24  1  0  0  0  0
  5  6  1  0  0  0  0
  6  7  1  0  0  0  0
  6 17  1  0  0  0  0
  6 25  1  0  0  0  0
  7  8  1  0  0  0  0
  7 26  1  0  0  0  0
  7 27  1  0  0  0  0
  8  9  1  0  0  0  0
  8 28  1  0  0  0  0
  8 39  1  0  0  0  0
  9 10  1  0  0  0  0
  9 29  1  0  0  0  0
  9 30  1  0  0  0  0
 10 11  1  0  0  0  0
 10 31  1  0  0  0  0
 10 32  1  0  0  0  0
 11 16  1  0  0  0  0
 11 12  2  0  0  0  0
 12 13  1  0  0  0  0
 12 33  1  0  0  0  0
 13 14  2  0  0  0  0
 13 34  1  0  0  0  0
 14 15  1  0  0  0  0
 14 35  1  0  0  0  0
 15 16  2  0  0  0  0
 15 36  1  0  0  0  0
 17 37  1  0  0  0  0
 17 38  1  0  0  0  0
M  CHG  1   2   1
M  CHG  1   8   1
M  END
> <s_m_source_file>
AV-unprocessed.smi

> <i_m_source_file_index>
3164

> <i_lp_mmshare_version>
43012

> <i_f3d_flags>
0

> <s_epik_input>
W0NIM11OMVtDSDJdW0NIMl1PW0NASF0oW0NIMl0xKVtDSDJdW05IXVtDSDJdW0NIMl1jMltjSF1bY0hdW2NIXVtjSF1uMg==

> <s_epik_cmdline>
J2VwaWtfcHl0aG9uJywgJy1waCcsICc3LjAnLCAnLXRuJywgJzgnLCAnLW1hJywgJzIwMCcsICctbWV0YWxfYmluZGluZycsICctaW1hZScsICc8aW5maWxlLm1hZT4nLCAnLW9tYWUnLCAnPG91dGZpbGUubWFlPic=

> <r_epik_Ionization_Penalty>
0.294944

> <r_epik_Ionization_Penalty_Charging>
0.29381

> <r_epik_Ionization_Penalty_Neutral>
0.00113372

> <r_epik_State_Penalty>
0.271365

> <r_epik_Charging_Adjusted_Penalty>
0.565175

> <i_epik_Tot_Q>
2

> <i_epik_Tot_abs_Q>
2

> <r_epik_Metal_State_Penalty>
0.271365

> <b_epik_Metal_Only>
0

> <s_lp_Force_Field>
OPLS_2005

> <r_lp_Energy>
22.5841

> <b_lp_Chiralities_Consistent>
1

> <s_lp_Variant>
AV-unprocessed.smi:3164-4

> <Gold.Version>
5.8.1

> <Gold.Id.Protein>
6NUR|6NUR_protein|mol2

> <Gold.PLP.Fitness>
43.5165

> <Gold.PLP.PLP>
-35.7621

> <Gold.PLP.part.hbond>
-2.4581

> <Gold.PLP.part.metal>
0.0000

> <Gold.PLP.part.buried>
-2.3649

> <Gold.PLP.part.nonpolar>
-31.3207

> <Gold.PLP.part.repulsive>
0.2032

> <Gold.PLP.ligand.clash>
0.0000

> <Gold.PLP.ligand.torsion>
0.6226

> <Gold.PLP.Chemscore.Hbond>
2.9825

> <Gold.PLP.Chemscore.CHOScore>
0.0000

> <Gold.PLP.Chemscore.Metal>
0.0000

> <Gold.Chemscore.Hbonds>
donor molecule, donor type, donor heavy atom, donor atom, acceptor molecule, acceptor atom, score
      L1  H     2    40       P1  7948  2.00
      P1  H  7989  7998       L1     5  0.55

> <Gold.PLP.Chemscore.Internal.Correction>
0.0520

> <Gold.Rescore>
     Score         DG    S(hbond)    S(metal)    S(lipo)     H(rot)  DE(clash)    DE(int)     intcor
     15.94     -18.93       1.58        0.00     105.76       1.65       1.17       1.82       ----

> <Gold.Chemscore.Fitness>
15.9443

> <Gold.Chemscore.DG>
-18.9286

> <Gold.Chemscore.ZeroCoef>
-5.4800

> <Gold.Chemscore.Hbond>
1.5830

> <Gold.Chemscore.Metal>
0.0000

> <Gold.Chemscore.Lipo>
105.7570

> <Gold.Chemscore.Internal_Hbond>
0.0000

> <Gold.Chemscore.DEClash>
1.1657

> <Gold.Chemscore.DEInternal>
1.8185

> <Gold.Chemscore.Rot>
1.6454

> <Gold.Chemscore.Internal.Correction>
   9.000000E+99

> <Gold.Chemscore.Hbonds>
donor molecule, donor type, donor heavy atom, donor atom, acceptor molecule, acceptor atom, score
      L1  H     2    40       P1  7948  0.59
      P1  H  7989  7998       L1     5  0.04

> <Gold.Chemscore.Hbond.Weighted>
-5.2873

> <Gold.Chemscore.Metal.Weighted>
-0.0000

> <Gold.Chemscore.Lipo.Weighted>
-12.3736

> <Gold.Chemscore.Internal_Hbond.Weighted>
0.0000

> <Gold.Chemscore.DEClash.Weighted>
1.1657

> <Gold.Chemscore.DEInternal.Weighted>
1.8185

> <Gold.Chemscore.Rot.Weighted>
4.2122

> <Gold.Chemscore.Internal.Correction.Weighted>
   9.000000E+99

> <Gold.Protein.RotatedTorsions>
[ 6907 6896 6895 6894 ] final   54.64 input  -60.11 | X-H torsion
[ 7974 7965 7964 7962 ] final -172.44 input  175.53 | X-H torsion
[ 8008 7997 7996 7995 ] final -110.24 input   59.86 | X-H torsion
[ 10167 10162 10161 10158 ] final  -80.41 input  -65.29 | X-H torsion
[ 10718 10713 10712 10709 ] final  159.06 input   66.30 | X-H torsion
[ 10763 10752 10751 10750 ] final -138.84 input  -60.55 | X-H torsion
[ 11005 11000 10999 10996 ] final   74.54 input  -57.11 | X-H torsion

> <Gold.Protein.ActiveResidues>
 VAL166  LYS551  ARG553  GLY616  TRP617  ASP618  TYR619  PRO620  LYS621  CYS622 
 ASP623  PHE694  ASN695  SER759  ASP760  ASP761  ALA762  ILE779  LEU786  VAL792 
 PHE793  MET794  SER795  GLU796  ALA797  LYS798  CYS799  TRP800  GLU811  SER814 

> <Gold.Protein.RotatedAtoms>
  152.3459  134.7072  160.0250 H   0  0  0  0  0  0  0  0  0  0  0  0  # atno 6907 bound_to 6896
  151.7441  133.3318  159.3382 H   0  0  0  0  0  0  0  0  0  0  0  0  # atno 6908 bound_to 6896
  150.7509  134.6184  159.6167 H   0  0  0  0  0  0  0  0  0  0  0  0  # atno 6909 bound_to 6896
  144.7146  140.1772  143.6362 H   0  0  0  0  0  0  0  0  0  0  0  0  # atno 7974 bound_to 7965
  154.9716  140.0397  157.2237 H   0  0  0  0  0  0  0  0  0  0  0  0  # atno 8008 bound_to 7997
  154.7796  140.2816  155.6052 H   0  0  0  0  0  0  0  0  0  0  0  0  # atno 8009 bound_to 7997
  156.2934  140.2594  156.2618 H   0  0  0  0  0  0  0  0  0  0  0  0  # atno 8010 bound_to 7997
  140.4505  143.2484  151.8495 H   0  0  0  0  0  0  0  0  0  0  0  0  # atno 10167 bound_to 10162
  157.1694  131.0606  151.2191 H   0  0  0  0  0  0  0  0  0  0  0  0  # atno 10718 bound_to 10713
  154.8626  135.3600  154.5450 H   0  0  0  0  0  0  0  0  0  0  0  0  # atno 10763 bound_to 10752
  153.6070  135.7010  153.5366 H   0  0  0  0  0  0  0  0  0  0  0  0  # atno 10764 bound_to 10752
  153.3241  135.4143  155.1402 H   0  0  0  0  0  0  0  0  0  0  0  0  # atno 10765 bound_to 10752
  139.9386  134.7441  156.1160 H   0  0  0  0  0  0  0  0  0  0  0  0  # atno 11005 bound_to 11000
  145.8890  139.2365  143.1561 LP  0  0  0  0  0  0  0  0  0  0  0  0  # atno 17320 bound_to 7965
  145.9922  140.8593  143.0061 LP  0  0  0  0  0  0  0  0  0  0  0  0  # atno 17321 bound_to 7965
  139.4796  144.5125  151.8913 LP  0  0  0  0  0  0  0  0  0  0  0  0  # atno 17342 bound_to 10162
  140.4212  144.2240  150.5887 LP  0  0  0  0  0  0  0  0  0  0  0  0  # atno 17343 bound_to 10162
  157.4058  130.7358  149.6801 LP  0  0  0  0  0  0  0  0  0  0  0  0  # atno 17370 bound_to 10713
  155.9741  130.4108  150.3952 LP  0  0  0  0  0  0  0  0  0  0  0  0  # atno 17371 bound_to 10713
  141.1011  133.6677  156.2756 LP  0  0  0  0  0  0  0  0  0  0  0  0  # atno 17394 bound_to 11000
  140.6010  134.5554  157.5517 LP  0  0  0  0  0  0  0  0  0  0  0  0  # atno 17395 bound_to 11000

$$$$
