#       Name:                AV-unprocessed.smi:1041
#       Creating user name   scv26
#       Creation time:       Fri Mar 27 02:54:50 2020


#       File generated by GOLD software.
#

@<TRIPOS>MOLECULE
AV-unprocessed.smi:1041
    60    61     1
SMALL
NO_CHARGES


@<TRIPOS>ATOM
      1 ****        -4.2741  -3.9832  -3.5780 C.3            1 S1                 0.0000
      2 ****        -3.8688  -3.0303  -2.6102 O.3            1 S1                 0.0000
      3 ****        -4.4662  -1.7608  -2.8148 C.3            1 S1                 0.0000
      4 ****        -3.9925  -0.8013  -1.7116 C.3            1 S1                 0.0000
      5 ****        -2.5295  -0.5481  -1.7600 N.4            1 S1                 1.0000
      6 ****        -1.9981  -0.0910  -0.4502 C.3            1 S1                 0.0000
      7 ****        -0.4658   0.0369  -0.4798 C.3            1 S1                 0.0000
      8 ****        -0.0013   0.9826  -1.6055 C.3            1 S1                 0.0000
      9 ****         1.5322   1.0998  -1.6889 C.3            1 S1                 0.0000
     10 ****         2.0841   1.6432  -0.4562 N.am           1 S1                 0.0000
     11 ****         3.3793   1.6118  -0.1133 C.2            1 S1                 0.0000
     12 ****         4.2625   1.1524  -0.8363 O.2            1 S1                 0.0000
     13 ****         3.7261   2.1833   1.2620 C.3            1 S1                 0.0000
     14 ****         3.0687   1.4738   2.4450 C.2            1 S1                 0.0000
     15 ****         3.5864   0.3465   3.0151 C.2            1 S1                 0.0000
     16 ****         4.8702  -0.3054   2.5317 C.3            1 S1                 0.0000
     17 ****         2.9567  -0.2852   4.0966 N.2            1 S1                 0.0000
     18 ****         1.8613   0.2199   4.5602 C.2            1 S1                 0.0000
     19 ****         1.0878  -0.3638   5.7235 C.3            1 S1                 0.0000
     20 ****         1.2788   1.3661   4.0223 N.am           1 S1                 0.0000
     21 ****         1.8102   2.0346   2.9746 C.2            1 S1                 0.0000
     22 ****         1.2432   3.0262   2.5181 O.2            1 S1                 0.0000
     23 ****        -0.5958   0.4997  -2.9391 C.3            1 S1                 0.0000
     24 ****        -2.1256   0.3687  -2.8589 C.3            1 S1                 0.0000
     25 ****         0.4197   1.7128   4.4235 H              1 S1                 0.0000
     26 ****        -3.7917  -4.9395  -3.3761 H              1 S1                 0.0000
     27 ****        -3.9906  -3.6691  -4.5835 H              1 S1                 0.0000
     28 ****        -5.3533  -4.1394  -3.5514 H              1 S1                 0.0000
     29 ****        -4.2323  -1.3796  -3.8088 H              1 S1                 0.0000
     30 ****        -5.5515  -1.8600  -2.7615 H              1 S1                 0.0000
     31 ****        -4.5294   0.1463  -1.7749 H              1 S1                 0.0000
     32 ****        -4.2591  -1.2396  -0.7487 H              1 S1                 0.0000
     33 ****        -2.4504   0.8665  -0.1869 H              1 S1                 0.0000
     34 ****        -2.2799  -0.8000   0.3294 H              1 S1                 0.0000
     35 ****        -0.1197   0.3975   0.4895 H              1 S1                 0.0000
     36 ****        -0.0197  -0.9492  -0.6171 H              1 S1                 0.0000
     37 ****        -0.4023   1.9768  -1.4006 H              1 S1                 0.0000
     38 ****         1.9705   0.1210  -1.8923 H              1 S1                 0.0000
     39 ****         1.8161   1.7541  -2.5142 H              1 S1                 0.0000
     40 ****         1.4318   2.0519   0.1979 H              1 S1                 0.0000
     41 ****         4.8089   2.1526   1.3861 H              1 S1                 0.0000
     42 ****         3.4798   3.2458   1.2692 H              1 S1                 0.0000
     43 ****         5.7173   0.3647   2.6791 H              1 S1                 0.0000
     44 ****         4.8032  -0.5536   1.4723 H              1 S1                 0.0000
     45 ****         5.0761  -1.2273   3.0768 H              1 S1                 0.0000
     46 ****         0.7498  -1.3715   5.4812 H              1 S1                 0.0000
     47 ****         0.2136   0.2402   5.9703 H              1 S1                 0.0000
     48 ****         1.7243  -0.4187   6.6070 H              1 S1                 0.0000
     49 ****        -0.3319   1.1945  -3.7372 H              1 S1                 0.0000
     50 ****        -0.1614  -0.4632  -3.2122 H              1 S1                 0.0000
     51 ****        -2.4947   0.0032  -3.8162 H              1 S1                 0.0000
     52 ****        -2.5769   1.3497  -2.7011 H              1 S1                 0.0000
     53 ****        -2.0936  -1.4410  -1.9435 H              1 S1                 0.0000
     54 ****        -2.8752  -2.9285  -2.6570 LP             1 S1                 0.0000
     55 ****        -4.1274  -3.3641  -1.7037 LP             1 S1                 0.0000
     56 ****         4.0292   0.7759  -1.7329 LP             1 S1                 0.0000
     57 ****         5.2135   1.1555  -0.5274 LP             1 S1                 0.0000
     58 ****         3.3479  -1.1115   4.5018 LP             1 S1                 0.0000
     59 ****         1.6343   3.5095   1.7349 LP             1 S1                 0.0000
     60 ****         0.3911   3.3489   2.9302 LP             1 S1                 0.0000
@<TRIPOS>BOND
    1    1    2 1     
    2    1   26 1     
    3    1   27 1     
    4    1   28 1     
    5    2    3 1     
    6    3    4 1     
    7    3   29 1     
    8    3   30 1     
    9    4    5 1     
   10    4   31 1     
   11    4   32 1     
   12    5   24 1     
   13    5    6 1     
   14    5   53 1     
   15    6    7 1     
   16    6   33 1     
   17    6   34 1     
   18    7    8 1     
   19    7   35 1     
   20    7   36 1     
   21    8    9 1     
   22    8   23 1     
   23    8   37 1     
   24    9   10 1     
   25    9   38 1     
   26    9   39 1     
   27   10   11 am    
   28   10   40 1     
   29   11   12 2     
   30   11   13 1     
   31   13   14 1     
   32   13   41 1     
   33   13   42 1     
   34   14   21 1     
   35   14   15 2     
   36   15   16 1     
   37   15   17 1     
   38   16   43 1     
   39   16   44 1     
   40   16   45 1     
   41   17   18 2     
   42   18   19 1     
   43   18   20 1     
   44   19   46 1     
   45   19   47 1     
   46   19   48 1     
   47   20   25 1     
   48   20   21 am    
   49   21   22 2     
   50   23   24 1     
   51   23   49 1     
   52   23   50 1     
   53   24   51 1     
   54   24   52 1     
   55    2   54 1     
   56    2   55 1     
   57   12   56 1     
   58   12   57 1     
   59   17   58 1     
   60   22   59 1     
   61   22   60 1     
@<TRIPOS>SUBSTRUCTURE
      1 S1             1
@<TRIPOS>SET
LONE_PAIRS      STATIC     ATOMS    <user>   **** ""
7 54 55 56 57 58 59 60
DONOR_HYDROGENS      STATIC     ATOMS    <user>   **** ""
3 53 40 25
ATOM$BLUE        STATIC     ATOMS    COLORGROUP SYSTEM
7 54 55 56 57 58 59 60
ATOM$RED        STATIC     ATOMS    COLORGROUP SYSTEM
3 53 40 25
