AV-unprocessed.smi:901|AV-procd|sdf|4093|dock3
  -GOLD-   22720 1583D 1   1.00000     0.00000
 Structure written by MMmdl.
 43 44  0  0  0  0  0  0  0  0  1 V2000
  153.4205  142.6382  163.6391 C   0  0  0  0  0  0  0  0  0  0  0  0
  153.4105  142.3832  162.1449 C   0  0  0  0  0  0  0  0  0  0  0  0
  154.1912  141.1574  161.7048 C   0  0  0  0  0  0  0  0  0  0  0  0
  152.7549  143.1949  161.2932 C   0  0  0  0  0  0  0  0  0  0  0  0
  152.6730  143.0525  159.8154 C   0  0  1  0  0  0  0  0  0  0  0  0
  151.3347  142.8329  159.1331 C   0  0  2  0  0  0  0  0  0  0  0  0
  151.2573  141.8730  157.9857 C   0  0  0  0  0  0  0  0  0  0  0  0
  152.1119  141.0112  157.7737 O   0  0  0  0  0  0  0  0  0  0  0  0
  150.1599  142.0480  157.2272 N   0  0  0  0  0  0  0  0  0  0  0  0
  149.7730  141.3174  156.0747 C   0  0  0  0  0  0  0  0  0  0  0  0
  150.7313  140.5711  155.3351 C   0  0  0  0  0  0  0  0  0  0  0  0
  149.9925  140.0262  154.3236 C   0  0  0  0  0  0  0  0  0  0  0  0
  148.6873  140.4482  154.4872 N   0  0  0  0  0  0  0  0  0  0  0  0
  147.5285  140.1382  153.6658 C   0  0  0  0  0  0  0  0  0  0  0  0
  147.5308  138.6817  153.1871 C   0  0  0  0  0  0  0  0  0  0  0  0
  148.5042  138.3269  152.3445 N   0  0  0  0  0  0  0  0  0  0  0  0
  146.6758  137.8841  153.5688 O   0  0  0  0  0  0  0  0  0  0  0  0
  148.5482  141.2416  155.5720 N   0  0  0  0  0  0  0  0  0  0  0  0
  152.0799  144.1504  158.9476 C   0  0  0  0  0  0  0  0  0  0  0  0
  151.4600  145.3974  159.5607 C   0  0  0  0  0  0  0  0  0  0  0  0
  152.7967  144.5275  157.6562 C   0  0  0  0  0  0  0  0  0  0  0  0
  152.9808  141.7930  164.1694 H   0  0  0  0  0  0  0  0  0  0  0  0
  152.8535  143.5330  163.8982 H   0  0  0  0  0  0  0  0  0  0  0  0
  154.4432  142.7707  163.9931 H   0  0  0  0  0  0  0  0  0  0  0  0
  155.2419  141.2676  161.9730 H   0  0  0  0  0  0  0  0  0  0  0  0
  154.1354  140.9896  160.6297 H   0  0  0  0  0  0  0  0  0  0  0  0
  153.8041  140.2676  162.2020 H   0  0  0  0  0  0  0  0  0  0  0  0
  152.2214  144.0418  161.6996 H   0  0  0  0  0  0  0  0  0  0  0  0
  153.5308  142.5110  159.4202 H   0  0  0  0  0  0  0  0  0  0  0  0
  150.4474  142.8759  159.7636 H   0  0  0  0  0  0  0  0  0  0  0  0
  149.5329  142.7879  157.5073 H   0  0  0  0  0  0  0  0  0  0  0  0
  151.7897  140.4546  155.5147 H   0  0  0  0  0  0  0  0  0  0  0  0
  150.2835  139.3825  153.5065 H   0  0  0  0  0  0  0  0  0  0  0  0
  146.6306  140.3434  154.2504 H   0  0  0  0  0  0  0  0  0  0  0  0
  147.5071  140.8014  152.7992 H   0  0  0  0  0  0  0  0  0  0  0  0
  148.5510  137.3811  151.9943 H   0  0  0  0  0  0  0  0  0  0  0  0
  149.1895  139.0106  152.0569 H   0  0  0  0  0  0  0  0  0  0  0  0
  150.7726  145.8644  158.8547 H   0  0  0  0  0  0  0  0  0  0  0  0
  152.2347  146.1186  159.8216 H   0  0  0  0  0  0  0  0  0  0  0  0
  150.9023  145.1556  160.4659 H   0  0  0  0  0  0  0  0  0  0  0  0
  152.0722  144.7750  156.8798 H   0  0  0  0  0  0  0  0  0  0  0  0
  153.4294  143.7171  157.2959 H   0  0  0  0  0  0  0  0  0  0  0  0
  153.4398  145.3932  157.8178 H   0  0  0  0  0  0  0  0  0  0  0  0
  1  2  1  0  0  0  0
  1 22  1  0  0  0  0
  1 23  1  0  0  0  0
  1 24  1  0  0  0  0
  2  3  1  0  0  0  0
  2  4  2  0  0  0  0
  3 25  1  0  0  0  0
  3 26  1  0  0  0  0
  3 27  1  0  0  0  0
  4  5  1  0  0  0  0
  4 28  1  0  0  0  0
  5 19  1  0  0  0  0
  5  6  1  0  0  0  0
  5 29  1  0  0  0  0
  6  7  1  0  0  0  0
  6 19  1  0  0  0  0
  6 30  1  0  0  0  0
  7  8  2  0  0  0  0
  7  9  1  0  0  0  0
  9 10  1  0  0  0  0
  9 31  1  0  0  0  0
 10 18  2  0  0  0  0
 10 11  1  0  0  0  0
 11 12  2  0  0  0  0
 11 32  1  0  0  0  0
 12 13  1  0  0  0  0
 12 33  1  0  0  0  0
 13 14  1  0  0  0  0
 13 18  1  0  0  0  0
 14 15  1  0  0  0  0
 14 34  1  0  0  0  0
 14 35  1  0  0  0  0
 15 16  1  0  0  0  0
 15 17  2  0  0  0  0
 16 36  1  0  0  0  0
 16 37  1  0  0  0  0
 19 20  1  0  0  0  0
 19 21  1  0  0  0  0
 20 38  1  0  0  0  0
 20 39  1  0  0  0  0
 20 40  1  0  0  0  0
 21 41  1  0  0  0  0
 21 42  1  0  0  0  0
 21 43  1  0  0  0  0
M  END
> <s_m_source_file>
AV-unprocessed.smi

> <i_m_source_file_index>
901

> <i_lp_mmshare_version>
43012

> <i_f3d_flags>
0

> <s_epik_input>
W0NIM11DKFtDSDNdKT1bQ0hdW0NAQEhdKEMxKFtDSDNdKVtDSDNdKVtDQEhdMUMoPU8pW05IXWMyW2NIXVtjSF1uKG4yKVtDSDJdQyg9TylbTkgyXQ==

> <s_epik_cmdline>
J2VwaWtfcHl0aG9uJywgJy1waCcsICc3LjAnLCAnLXRuJywgJzgnLCAnLW1hJywgJzIwMCcsICctbWV0YWxfYmluZGluZycsICctaW1hZScsICc8aW5maWxlLm1hZT4nLCAnLW9tYWUnLCAnPG91dGZpbGUubWFlPic=

> <r_lp_tautomer_probability>
1

> <r_epik_Ionization_Penalty>
1.01454e-05

> <r_epik_Ionization_Penalty_Charging>
0

> <r_epik_Ionization_Penalty_Neutral>
1.01454e-05

> <r_epik_State_Penalty>
-0

> <r_epik_Charging_Adjusted_Penalty>
0

> <i_epik_Tot_Q>
0

> <i_epik_Tot_abs_Q>
0

> <r_epik_Metal_State_Penalty>
-0

> <b_epik_Metal_Only>
0

> <s_lp_Force_Field>
OPLS_2005

> <r_lp_Energy>
18.0241

> <b_lp_Chiralities_Consistent>
1

> <s_lp_Variant>
AV-unprocessed.smi:901-4

> <Gold.Version>
5.8.1

> <Gold.Id.Protein>
6NUR|6NUR_protein|mol2

> <Gold.PLP.Fitness>
56.3151

> <Gold.PLP.PLP>
-49.7677

> <Gold.PLP.part.hbond>
-2.7619

> <Gold.PLP.part.metal>
0.0000

> <Gold.PLP.part.buried>
-3.3950

> <Gold.PLP.part.nonpolar>
-43.2518

> <Gold.PLP.part.repulsive>
0.6525

> <Gold.PLP.ligand.clash>
0.0000

> <Gold.PLP.ligand.torsion>
1.0952

> <Gold.PLP.Chemscore.Hbond>
1.8480

> <Gold.PLP.Chemscore.CHOScore>
1.0000

> <Gold.PLP.Chemscore.Metal>
0.0000

> <Gold.Chemscore.Hbonds>
donor molecule, donor type, donor heavy atom, donor atom, acceptor molecule, acceptor atom, score
      L1  H    16    36       P1  7948  0.15
      L1  H    16    37       P1  7957  0.68
      L1  C    12    33       P1  7957  0.78

> <Gold.PLP.Chemscore.Internal.Correction>
0.1940

> <Gold.Rescore>
     Score         DG    S(hbond)    S(metal)    S(lipo)     H(rot)  DE(clash)    DE(int)     intcor
     17.74     -21.23       1.92        0.00     126.55       2.13       0.35       3.15       ----

> <Gold.Chemscore.Fitness>
17.7369

> <Gold.Chemscore.DG>
-21.2342

> <Gold.Chemscore.ZeroCoef>
-5.4800

> <Gold.Chemscore.Hbond>
1.9169

> <Gold.Chemscore.Metal>
0.0000

> <Gold.Chemscore.Lipo>
126.5539

> <Gold.Chemscore.Internal_Hbond>
0.0000

> <Gold.Chemscore.DEClash>
0.3464

> <Gold.Chemscore.DEInternal>
3.1508

> <Gold.Chemscore.Rot>
2.1309

> <Gold.Chemscore.Internal.Correction>
   9.000000E+99

> <Gold.Chemscore.Hbonds>
donor molecule, donor type, donor heavy atom, donor atom, acceptor molecule, acceptor atom, score
      L1  H    16    36       P1  7948  0.17
      L1  H    16    37       P1  7957  0.53

> <Gold.Chemscore.Hbond.Weighted>
-6.4025

> <Gold.Chemscore.Metal.Weighted>
-0.0000

> <Gold.Chemscore.Lipo.Weighted>
-14.8068

> <Gold.Chemscore.Internal_Hbond.Weighted>
0.0000

> <Gold.Chemscore.DEClash.Weighted>
0.3464

> <Gold.Chemscore.DEInternal.Weighted>
3.1508

> <Gold.Chemscore.Rot.Weighted>
5.4552

> <Gold.Chemscore.Internal.Correction.Weighted>
   9.000000E+99

> <Gold.Protein.RotatedTorsions>
[ 6907 6896 6895 6894 ] final  -15.27 input  -60.11 | X-H torsion
[ 7974 7965 7964 7962 ] final  161.63 input  175.53 | X-H torsion
[ 8008 7997 7996 7995 ] final  -78.77 input   59.86 | X-H torsion
[ 10167 10162 10161 10158 ] final  111.76 input  -65.29 | X-H torsion
[ 10718 10713 10712 10709 ] final   80.06 input   66.30 | X-H torsion
[ 10763 10752 10751 10750 ] final   29.26 input  -60.55 | X-H torsion
[ 11005 11000 10999 10996 ] final  165.43 input  -57.11 | X-H torsion

> <Gold.Protein.ActiveResidues>
 VAL166  LYS551  ARG553  GLY616  TRP617  ASP618  TYR619  PRO620  LYS621  CYS622 
 ASP623  PHE694  ASN695  SER759  ASP760  ASP761  ALA762  ILE779  LEU786  VAL792 
 PHE793  MET794  SER795  GLU796  ALA797  LYS798  CYS799  TRP800  GLU811  SER814 

> <Gold.Protein.RotatedAtoms>
  151.3266  135.0831  159.9323 H   0  0  0  0  0  0  0  0  0  0  0  0  # atno 6907 bound_to 6896
  152.5244  133.9585  159.7716 H   0  0  0  0  0  0  0  0  0  0  0  0  # atno 6908 bound_to 6896
  150.9916  133.6091  159.2737 H   0  0  0  0  0  0  0  0  0  0  0  0  # atno 6909 bound_to 6896
  144.7676  139.7926  143.6309 H   0  0  0  0  0  0  0  0  0  0  0  0  # atno 7974 bound_to 7965
  154.5721  140.0689  156.8980 H   0  0  0  0  0  0  0  0  0  0  0  0  # atno 8008 bound_to 7997
  155.2615  140.3359  155.4254 H   0  0  0  0  0  0  0  0  0  0  0  0  # atno 8009 bound_to 7997
  156.2126  140.1765  156.7646 H   0  0  0  0  0  0  0  0  0  0  0  0  # atno 8010 bound_to 7997
  139.6586  144.7129  151.1908 H   0  0  0  0  0  0  0  0  0  0  0  0  # atno 10167 bound_to 10162
  157.6795  130.9942  150.2024 H   0  0  0  0  0  0  0  0  0  0  0  0  # atno 10718 bound_to 10713
  153.0441  135.6493  154.0864 H   0  0  0  0  0  0  0  0  0  0  0  0  # atno 10763 bound_to 10752
  154.0565  135.2891  155.3333 H   0  0  0  0  0  0  0  0  0  0  0  0  # atno 10764 bound_to 10752
  154.6686  135.5365  153.8174 H   0  0  0  0  0  0  0  0  0  0  0  0  # atno 10765 bound_to 10752
  140.2561  134.7939  157.3546 H   0  0  0  0  0  0  0  0  0  0  0  0  # atno 11005 bound_to 11000
  146.1796  139.4983  142.9875 LP  0  0  0  0  0  0  0  0  0  0  0  0  # atno 17320 bound_to 7965
  145.6422  141.0282  143.1805 LP  0  0  0  0  0  0  0  0  0  0  0  0  # atno 17321 bound_to 7965
  140.7570  143.6031  150.8680 LP  0  0  0  0  0  0  0  0  0  0  0  0  # atno 17342 bound_to 10162
  139.9686  143.6082  152.2980 LP  0  0  0  0  0  0  0  0  0  0  0  0  # atno 17343 bound_to 10162
  156.2712  130.3722  149.8029 LP  0  0  0  0  0  0  0  0  0  0  0  0  # atno 17370 bound_to 10713
  156.5746  130.8439  151.3366 LP  0  0  0  0  0  0  0  0  0  0  0  0  # atno 17371 bound_to 10713
  140.1510  134.4849  155.7961 LP  0  0  0  0  0  0  0  0  0  0  0  0  # atno 17394 bound_to 11000
  141.2196  133.6862  156.7379 LP  0  0  0  0  0  0  0  0  0  0  0  0  # atno 17395 bound_to 11000

$$$$
