#       Name:                AV-unprocessed.smi:2012
#       Creating user name   scv26
#       Creation time:       Fri Mar 27 10:39:54 2020


#       File generated by GOLD software.
#

@<TRIPOS>MOLECULE
AV-unprocessed.smi:2012
    58    59     1
SMALL
NO_CHARGES


@<TRIPOS>ATOM
      1 ****        -2.3821  -4.8516   3.7600 C.3            1 S1                 0.0000
      2 ****        -1.9002  -3.9558   2.6239 C.2            1 S1                 0.0000
      3 ****        -1.5742  -4.4588   1.5502 O.2            1 S1                 0.0000
      4 ****        -1.8507  -2.6379   2.8893 N.am           1 S1                 0.0000
      5 ****        -1.4636  -1.5317   2.0023 C.3            1 S1                 0.0000
      6 ****         0.0639  -1.3434   1.9832 C.2            1 S1                 0.0000
      7 ****         0.8045  -2.2851   1.6991 O.2            1 S1                 0.0000
      8 ****         0.5211  -0.1114   2.2581 N.am           1 S1                 0.0000
      9 ****         1.9260   0.2802   2.2332 C.3            1 S1                 0.0000
     10 ****         2.4545   0.5283   0.8293 C.ar           1 S1                 0.0000
     11 ****         3.7126   0.0285   0.4437 C.ar           1 S1                 0.0000
     12 ****         4.1546   0.2776  -0.8676 C.ar           1 S1                 0.0000
     13 ****         3.4341   0.9739  -1.7711 N.ar           1 S1                 0.0000
     14 ****         2.2236   1.4698  -1.4153 C.ar           1 S1                 0.0000
     15 ****         1.5092   2.1813  -2.4085 N.3            1 S1                 0.0000
     16 ****         0.1726   2.6808  -2.0926 C.3            1 S1                 0.0000
     17 ****        -0.5648   3.1157  -3.3700 C.3            1 S1                 0.0000
     18 ****         0.2266   4.0537  -4.0891 O.3            1 S1                 0.0000
     19 ****         1.4602   3.4826  -4.5080 C.3            1 S1                 0.0000
     20 ****         2.2856   3.0649  -3.2793 C.3            1 S1                 0.0000
     21 ****         1.7036   1.2667  -0.1109 C.ar           1 S1                 0.0000
     22 ****        -2.1558  -1.5551   0.6028 C.3            1 S1                 0.0000
     23 ****        -1.7423  -0.3693  -0.2908 C.3            1 S1                 0.0000
     24 ****        -3.6918  -1.5939   0.7185 C.3            1 S1                 0.0000
     25 ****        -3.0265  -4.3051   4.4497 H              1 S1                 0.0000
     26 ****        -1.5299  -5.2398   4.3182 H              1 S1                 0.0000
     27 ****        -2.9478  -5.6961   3.3653 H              1 S1                 0.0000
     28 ****        -2.1300  -2.3618   3.8191 H              1 S1                 0.0000
     29 ****        -1.8621  -0.6525   2.5114 H              1 S1                 0.0000
     30 ****        -0.1514   0.6098   2.4743 H              1 S1                 0.0000
     31 ****         2.0346   1.2006   2.8072 H              1 S1                 0.0000
     32 ****         2.5324  -0.4730   2.7392 H              1 S1                 0.0000
     33 ****         4.3243  -0.5379   1.1305 H              1 S1                 0.0000
     34 ****         5.1122  -0.0932  -1.2017 H              1 S1                 0.0000
     35 ****        -0.4192   1.9063  -1.6058 H              1 S1                 0.0000
     36 ****         0.2558   3.5200  -1.4008 H              1 S1                 0.0000
     37 ****        -0.7903   2.2540  -4.0007 H              1 S1                 0.0000
     38 ****        -1.5178   3.5781  -3.1128 H              1 S1                 0.0000
     39 ****         1.2759   2.6280  -5.1611 H              1 S1                 0.0000
     40 ****         2.0099   4.2179  -5.0957 H              1 S1                 0.0000
     41 ****         2.5817   3.9463  -2.7098 H              1 S1                 0.0000
     42 ****         3.2011   2.5875  -3.6276 H              1 S1                 0.0000
     43 ****         0.7466   1.6643   0.1897 H              1 S1                 0.0000
     44 ****        -1.8456  -2.4522   0.0681 H              1 S1                 0.0000
     45 ****        -1.9456   0.5853   0.1955 H              1 S1                 0.0000
     46 ****        -2.2847  -0.3812  -1.2366 H              1 S1                 0.0000
     47 ****        -0.6815  -0.4023  -0.5389 H              1 S1                 0.0000
     48 ****        -4.0702  -0.7193   1.2482 H              1 S1                 0.0000
     49 ****        -4.0383  -2.4799   1.2497 H              1 S1                 0.0000
     50 ****        -4.1590  -1.6118  -0.2665 H              1 S1                 0.0000
     51 ****        -1.6260  -5.4498   1.4262 LP             1 S1                 0.0000
     52 ****        -1.2574  -3.8770   0.8012 LP             1 S1                 0.0000
     53 ****         0.4144  -3.1792   1.4789 LP             1 S1                 0.0000
     54 ****         1.7960  -2.1559   1.6887 LP             1 S1                 0.0000
     55 ****         3.7894   1.1227  -2.6939 LP             1 S1                 0.0000
     56 ****         1.2941   1.3921  -2.9838 LP             1 S1                 0.0000
     57 ****         0.4157   4.8388  -3.4993 LP             1 S1                 0.0000
     58 ****        -0.2814   4.3570  -4.8952 LP             1 S1                 0.0000
@<TRIPOS>BOND
    1    1    2 1     
    2    1   25 1     
    3    1   26 1     
    4    1   27 1     
    5    2    3 2     
    6    2    4 am    
    7    4    5 1     
    8    4   28 1     
    9    5    6 1     
   10    5   22 1     
   11    5   29 1     
   12    6    7 2     
   13    6    8 am    
   14    8    9 1     
   15    8   30 1     
   16    9   10 1     
   17    9   31 1     
   18    9   32 1     
   19   10   21 ar    
   20   10   11 ar    
   21   11   12 ar    
   22   11   33 1     
   23   12   13 ar    
   24   12   34 1     
   25   13   14 ar    
   26   14   15 1     
   27   14   21 ar    
   28   15   20 1     
   29   15   16 1     
   30   16   17 1     
   31   16   35 1     
   32   16   36 1     
   33   17   18 1     
   34   17   37 1     
   35   17   38 1     
   36   18   19 1     
   37   19   20 1     
   38   19   39 1     
   39   19   40 1     
   40   20   41 1     
   41   20   42 1     
   42   21   43 1     
   43   22   23 1     
   44   22   24 1     
   45   22   44 1     
   46   23   45 1     
   47   23   46 1     
   48   23   47 1     
   49   24   48 1     
   50   24   49 1     
   51   24   50 1     
   52    3   51 1     
   53    3   52 1     
   54    7   53 1     
   55    7   54 1     
   56   13   55 1     
   57   15   56 1     
   58   18   57 1     
   59   18   58 1     
@<TRIPOS>SUBSTRUCTURE
      1 S1             1
@<TRIPOS>SET
LONE_PAIRS      STATIC     ATOMS    <user>   **** ""
8 51 52 53 54 55 56 57 58
DONOR_HYDROGENS      STATIC     ATOMS    <user>   **** ""
2 28 30
ATOM$BLUE        STATIC     ATOMS    COLORGROUP SYSTEM
8 51 52 53 54 55 56 57 58
ATOM$RED        STATIC     ATOMS    COLORGROUP SYSTEM
2 28 30
