AV-unprocessed.smi:965|AV-procd|sdf|4282|dock3
  -GOLD-   22720 2193D 1   1.00000     0.00000
 Structure written by MMmdl.
 29 30  0  0  0  0  0  0  0  0  2 V2000
  153.4593  142.8286  164.2766 C   0  0  0  0  0  0  0  0  0  0  0  0
  152.0844  142.2257  163.9705 C   0  0  0  0  0  0  0  0  0  0  0  0
  151.5921  142.5859  162.6088 C   0  0  0  0  0  0  0  0  0  0  0  0
  152.1541  142.2761  161.4430 N   0  0  0  0  0  0  0  0  0  0  0  0
  151.3197  142.9102  160.5722 C   0  0  0  0  0  0  0  0  0  0  0  0
  151.5094  142.8724  159.0868 C   0  0  1  0  0  0  0  0  0  0  0  0
  151.6046  141.4318  158.5494 C   0  0  0  0  0  0  0  0  0  0  0  0
  151.7870  141.4397  157.0238 C   0  0  0  0  0  0  0  0  0  0  0  0
  150.6815  142.2633  156.3419 C   0  0  0  0  0  0  0  0  0  0  0  0
  150.6469  143.6407  156.8805 N   0  3  0  0  0  0  0  0  0  0  0  0
  150.4299  143.6853  158.3437 C   0  0  0  0  0  0  0  0  0  0  0  0
  150.3122  143.5787  161.1204 N   0  0  0  0  0  0  0  0  0  0  0  0
  150.4972  143.3753  162.4954 O   0  0  0  0  0  0  0  0  0  0  0  0
  153.7914  142.5515  165.2771 H   0  0  0  0  0  0  0  0  0  0  0  0
  153.4314  143.9174  164.2241 H   0  0  0  0  0  0  0  0  0  0  0  0
  154.2091  142.4773  163.5671 H   0  0  0  0  0  0  0  0  0  0  0  0
  152.1281  141.1391  164.0523 H   0  0  0  0  0  0  0  0  0  0  0  0
  151.3566  142.5664  164.7076 H   0  0  0  0  0  0  0  0  0  0  0  0
  152.4674  143.3514  158.8735 H   0  0  0  0  0  0  0  0  0  0  0  0
  152.4343  140.9046  159.0220 H   0  0  0  0  0  0  0  0  0  0  0  0
  150.6986  140.8789  158.8021 H   0  0  0  0  0  0  0  0  0  0  0  0
  152.7631  141.8574  156.7733 H   0  0  0  0  0  0  0  0  0  0  0  0
  151.7809  140.4183  156.6424 H   0  0  0  0  0  0  0  0  0  0  0  0
  150.8510  142.3060  155.2656 H   0  0  0  0  0  0  0  0  0  0  0  0
  149.7088  141.7933  156.4933 H   0  0  0  0  0  0  0  0  0  0  0  0
  151.5279  144.0885  156.6719 H   0  0  0  0  0  0  0  0  0  0  0  0
  149.4355  143.2945  158.5643 H   0  0  0  0  0  0  0  0  0  0  0  0
  150.4439  144.7256  158.6703 H   0  0  0  0  0  0  0  0  0  0  0  0
  149.9055  144.1530  156.4242 H   0  0  0  0  0  0  0  0  0  0  0  0
  1  2  1  0  0  0  0
  1 14  1  0  0  0  0
  1 15  1  0  0  0  0
  1 16  1  0  0  0  0
  2  3  1  0  0  0  0
  2 17  1  0  0  0  0
  2 18  1  0  0  0  0
  3 13  1  0  0  0  0
  3  4  2  0  0  0  0
  4  5  1  0  0  0  0
  5  6  1  0  0  0  0
  5 12  2  0  0  0  0
  6 11  1  0  0  0  0
  6  7  1  0  0  0  0
  6 19  1  0  0  0  0
  7  8  1  0  0  0  0
  7 20  1  0  0  0  0
  7 21  1  0  0  0  0
  8  9  1  0  0  0  0
  8 22  1  0  0  0  0
  8 23  1  0  0  0  0
  9 10  1  0  0  0  0
  9 24  1  0  0  0  0
  9 25  1  0  0  0  0
 10 11  1  0  0  0  0
 10 26  1  0  0  0  0
 10 29  1  0  0  0  0
 11 27  1  0  0  0  0
 11 28  1  0  0  0  0
 12 13  1  0  0  0  0
M  CHG  1  10   1
M  END
> <s_m_source_file>
AV-unprocessed.smi

> <i_m_source_file_index>
965

> <i_lp_mmshare_version>
43012

> <i_f3d_flags>
0

> <s_epik_input>
W0NIM11bQ0gyXWMxbmMobm8xKVtDQEBIXTJbQ0gyXVtDSDJdW0NIMl1bTkhdW0NIMl0y

> <s_epik_cmdline>
J2VwaWtfcHl0aG9uJywgJy1waCcsICc3LjAnLCAnLXRuJywgJzgnLCAnLW1hJywgJzIwMCcsICctbWV0YWxfYmluZGluZycsICctaW1hZScsICc8aW5maWxlLm1hZT4nLCAnLW9tYWUnLCAnPG91dGZpbGUubWFlPic=

> <r_lp_tautomer_probability>
1

> <r_epik_Ionization_Penalty>
0.000532935

> <r_epik_Ionization_Penalty_Charging>
0.000532935

> <r_epik_Ionization_Penalty_Neutral>
3.47051e-13

> <r_epik_State_Penalty>
0.000332992

> <r_epik_Charging_Adjusted_Penalty>
0.000865928

> <i_epik_Tot_Q>
1

> <i_epik_Tot_abs_Q>
1

> <r_epik_Metal_State_Penalty>
-0

> <b_epik_Metal_Only>
0

> <s_lp_Force_Field>
OPLS_2005

> <r_lp_Energy>
5.49554

> <b_lp_Chiralities_Consistent>
1

> <s_lp_Variant>
AV-unprocessed.smi:965-2

> <Gold.Version>
5.8.1

> <Gold.Id.Protein>
6NUR|6NUR_protein|mol2

> <Gold.PLP.Fitness>
35.3889

> <Gold.PLP.PLP>
-26.6025

> <Gold.PLP.part.hbond>
-3.4848

> <Gold.PLP.part.metal>
0.0000

> <Gold.PLP.part.buried>
-2.7882

> <Gold.PLP.part.nonpolar>
-19.9590

> <Gold.PLP.part.repulsive>
0.0735

> <Gold.PLP.ligand.clash>
0.0000

> <Gold.PLP.ligand.torsion>
0.0572

> <Gold.PLP.Chemscore.Hbond>
2.9500

> <Gold.PLP.Chemscore.CHOScore>
0.0000

> <Gold.PLP.Chemscore.Metal>
0.0000

> <Gold.Chemscore.Hbonds>
donor molecule, donor type, donor heavy atom, donor atom, acceptor molecule, acceptor atom, score
      L1  H    10    29       P1  8028  1.24

> <Gold.PLP.Chemscore.Internal.Correction>
0.0507

> <Gold.Rescore>
     Score         DG    S(hbond)    S(metal)    S(lipo)     H(rot)  DE(clash)    DE(int)     intcor
     13.43     -13.67       0.94        0.00      70.28       1.24       0.21       0.04       ----

> <Gold.Chemscore.Fitness>
13.4253

> <Gold.Chemscore.DG>
-13.6736

> <Gold.Chemscore.ZeroCoef>
-5.4800

> <Gold.Chemscore.Hbond>
0.9409

> <Gold.Chemscore.Metal>
0.0000

> <Gold.Chemscore.Lipo>
70.2839

> <Gold.Chemscore.Internal_Hbond>
0.0000

> <Gold.Chemscore.DEClash>
0.2076

> <Gold.Chemscore.DEInternal>
0.0407

> <Gold.Chemscore.Rot>
1.2392

> <Gold.Chemscore.Internal.Correction>
   9.000000E+99

> <Gold.Chemscore.Hbonds>
donor molecule, donor type, donor heavy atom, donor atom, acceptor molecule, acceptor atom, score
      L1  H    10    29       P1  8028  0.63

> <Gold.Chemscore.Hbond.Weighted>
-3.1427

> <Gold.Chemscore.Metal.Weighted>
-0.0000

> <Gold.Chemscore.Lipo.Weighted>
-8.2232

> <Gold.Chemscore.Internal_Hbond.Weighted>
0.0000

> <Gold.Chemscore.DEClash.Weighted>
0.2076

> <Gold.Chemscore.DEInternal.Weighted>
0.0407

> <Gold.Chemscore.Rot.Weighted>
3.1723

> <Gold.Chemscore.Internal.Correction.Weighted>
   9.000000E+99

> <Gold.Protein.RotatedTorsions>
[ 6907 6896 6895 6894 ] final   64.68 input  -60.11 | X-H torsion
[ 7974 7965 7964 7962 ] final  126.27 input  175.53 | X-H torsion
[ 8008 7997 7996 7995 ] final  128.22 input   59.86 | X-H torsion
[ 10167 10162 10161 10158 ] final    4.62 input  -65.29 | X-H torsion
[ 10718 10713 10712 10709 ] final -103.95 input   66.30 | X-H torsion
[ 10763 10752 10751 10750 ] final  132.56 input  -60.55 | X-H torsion
[ 11005 11000 10999 10996 ] final -158.35 input  -57.11 | X-H torsion

> <Gold.Protein.ActiveResidues>
 VAL166  LYS551  ARG553  GLY616  TRP617  ASP618  TYR619  PRO620  LYS621  CYS622 
 ASP623  PHE694  ASN695  SER759  ASP760  ASP761  ALA762  ILE779  LEU786  VAL792 
 PHE793  MET794  SER795  GLU796  ALA797  LYS798  CYS799  TRP800  GLU811  SER814 

> <Gold.Protein.RotatedAtoms>
  152.4350  134.5705  159.9919 H   0  0  0  0  0  0  0  0  0  0  0  0  # atno 6907 bound_to 6896
  151.5818  133.3371  159.3018 H   0  0  0  0  0  0  0  0  0  0  0  0  # atno 6908 bound_to 6896
  150.8247  134.7507  159.6867 H   0  0  0  0  0  0  0  0  0  0  0  0  # atno 6909 bound_to 6896
  145.0636  139.3785  143.4993 H   0  0  0  0  0  0  0  0  0  0  0  0  # atno 7974 bound_to 7965
  156.2910  140.2650  156.2400 H   0  0  0  0  0  0  0  0  0  0  0  0  # atno 8008 bound_to 7997
  154.9986  140.0388  157.2369 H   0  0  0  0  0  0  0  0  0  0  0  0  # atno 8009 bound_to 7997
  154.7621  140.2762  155.6210 H   0  0  0  0  0  0  0  0  0  0  0  0  # atno 8010 bound_to 7997
  140.6525  143.7509  150.7599 H   0  0  0  0  0  0  0  0  0  0  0  0  # atno 10167 bound_to 10162
  156.0285  130.5492  150.7326 H   0  0  0  0  0  0  0  0  0  0  0  0  # atno 10718 bound_to 10713
  153.7927  135.3153  155.3380 H   0  0  0  0  0  0  0  0  0  0  0  0  # atno 10763 bound_to 10752
  154.8119  135.4661  154.0543 H   0  0  0  0  0  0  0  0  0  0  0  0  # atno 10764 bound_to 10752
  153.1866  135.6902  153.8494 H   0  0  0  0  0  0  0  0  0  0  0  0  # atno 10765 bound_to 10752
  140.6546  134.4414  157.5235 H   0  0  0  0  0  0  0  0  0  0  0  0  # atno 11005 bound_to 11000
  146.3525  140.0347  142.8647 LP  0  0  0  0  0  0  0  0  0  0  0  0  # atno 17320 bound_to 7965
  145.1378  140.9554  143.4506 LP  0  0  0  0  0  0  0  0  0  0  0  0  # atno 17321 bound_to 7965
  140.1162  143.4654  152.2340 LP  0  0  0  0  0  0  0  0  0  0  0  0  # atno 17342 bound_to 10162
  139.5743  144.7479  151.3808 LP  0  0  0  0  0  0  0  0  0  0  0  0  # atno 17343 bound_to 10162
  157.4915  131.0911  151.0421 LP  0  0  0  0  0  0  0  0  0  0  0  0  # atno 17370 bound_to 10713
  157.0827  130.5909  149.5423 LP  0  0  0  0  0  0  0  0  0  0  0  0  # atno 17371 bound_to 10713
  139.9034  134.8504  156.1803 LP  0  0  0  0  0  0  0  0  0  0  0  0  # atno 17394 bound_to 11000
  141.0511  133.6888  156.1774 LP  0  0  0  0  0  0  0  0  0  0  0  0  # atno 17395 bound_to 11000

$$$$
