AV-unprocessed.smi:1110|AV-procd|sdf|4791|dock3
  -GOLD-   22720 3333D 1   1.00000     0.00000
 Structure written by MMmdl.
 44 45  0  0  0  0  0  0  0  0  2 V2000
  146.4441  138.6617  152.0302 C   0  0  0  0  0  0  0  0  0  0  0  0
  146.6081  139.0711  153.5010 C   0  0  0  0  0  0  0  0  0  0  0  0
  148.0749  139.3268  153.9419 C   0  0  1  0  0  0  0  0  0  0  0  0
  148.1423  140.1649  155.2447 C   0  0  0  0  0  0  0  0  0  0  0  0
  149.4551  140.7762  155.4182 N   0  0  0  0  0  0  0  0  0  0  0  0
  149.9335  141.2977  156.5593 C   0  0  0  0  0  0  0  0  0  0  0  0
  149.2900  141.3082  157.6074 O   0  0  0  0  0  0  0  0  0  0  0  0
  151.3419  141.9171  156.5374 C   0  0  0  0  0  0  0  0  0  0  0  0
  151.7981  142.4607  157.8301 N   0  0  0  0  0  0  0  0  0  0  0  0
  151.9395  143.8601  157.9174 C   0  0  0  0  0  0  0  0  0  0  0  0
  152.3598  144.4628  159.0408 C   0  0  0  0  0  0  0  0  0  0  0  0
  152.6688  143.6364  160.1837 C   0  0  0  0  0  0  0  0  0  0  0  0
  152.5417  142.2965  160.1095 C   0  0  0  0  0  0  0  0  0  0  0  0
  152.0912  141.6329  158.8808 C   0  0  0  0  0  0  0  0  0  0  0  0
  151.9950  140.4089  158.7962 O   0  0  0  0  0  0  0  0  0  0  0  0
  148.8096  138.0328  154.0819 N   0  3  0  0  0  0  0  0  0  0  0  0
  150.2849  138.1487  154.2154 C   0  0  0  0  0  0  0  0  0  0  0  0
  150.7378  137.0843  155.2242 C   0  0  0  0  0  0  0  0  0  0  0  0
  149.5189  136.1910  155.4185 C   0  0  0  0  0  0  0  0  0  0  0  0
  148.3568  137.1463  155.1773 C   0  0  0  0  0  0  0  0  0  0  0  0
  145.4144  138.3666  151.8272 H   0  0  0  0  0  0  0  0  0  0  0  0
  147.0854  137.8161  151.7803 H   0  0  0  0  0  0  0  0  0  0  0  0
  146.6811  139.4811  151.3517 H   0  0  0  0  0  0  0  0  0  0  0  0
  145.9955  139.9517  153.6990 H   0  0  0  0  0  0  0  0  0  0  0  0
  146.1741  138.2713  154.1003 H   0  0  0  0  0  0  0  0  0  0  0  0
  148.5708  139.9006  153.1571 H   0  0  0  0  0  0  0  0  0  0  0  0
  147.3615  140.9265  155.2415 H   0  0  0  0  0  0  0  0  0  0  0  0
  147.9270  139.5486  156.1168 H   0  0  0  0  0  0  0  0  0  0  0  0
  150.0571  140.7964  154.6075 H   0  0  0  0  0  0  0  0  0  0  0  0
  152.0405  141.1551  156.1884 H   0  0  0  0  0  0  0  0  0  0  0  0
  151.3662  142.6908  155.7680 H   0  0  0  0  0  0  0  0  0  0  0  0
  151.6908  144.4040  157.0176 H   0  0  0  0  0  0  0  0  0  0  0  0
  152.4635  145.5370  159.0892 H   0  0  0  0  0  0  0  0  0  0  0  0
  153.0011  144.0948  161.1036 H   0  0  0  0  0  0  0  0  0  0  0  0
  152.7759  141.6943  160.9754 H   0  0  0  0  0  0  0  0  0  0  0  0
  150.7448  137.9888  153.2397 H   0  0  0  0  0  0  0  0  0  0  0  0
  150.5847  139.1371  154.5672 H   0  0  0  0  0  0  0  0  0  0  0  0
  151.6127  136.5288  154.8853 H   0  0  0  0  0  0  0  0  0  0  0  0
  150.9954  137.5624  156.1704 H   0  0  0  0  0  0  0  0  0  0  0  0
  149.5128  135.4008  154.6664 H   0  0  0  0  0  0  0  0  0  0  0  0
  149.4868  135.7219  156.4025 H   0  0  0  0  0  0  0  0  0  0  0  0
  148.1728  137.7355  156.0775 H   0  0  0  0  0  0  0  0  0  0  0  0
  147.4401  136.6136  154.9231 H   0  0  0  0  0  0  0  0  0  0  0  0
  148.6486  137.5118  153.2319 H   0  0  0  0  0  0  0  0  0  0  0  0
  1  2  1  0  0  0  0
  1 21  1  0  0  0  0
  1 22  1  0  0  0  0
  1 23  1  0  0  0  0
  2  3  1  0  0  0  0
  2 24  1  0  0  0  0
  2 25  1  0  0  0  0
  3  4  1  0  0  0  0
  3 16  1  0  0  0  0
  3 26  1  0  0  0  0
  4  5  1  0  0  0  0
  4 27  1  0  0  0  0
  4 28  1  0  0  0  0
  5  6  1  0  0  0  0
  5 29  1  0  0  0  0
  6  7  2  0  0  0  0
  6  8  1  0  0  0  0
  8  9  1  0  0  0  0
  8 30  1  0  0  0  0
  8 31  1  0  0  0  0
  9 14  1  0  0  0  0
  9 10  1  0  0  0  0
 10 11  2  0  0  0  0
 10 32  1  0  0  0  0
 11 12  1  0  0  0  0
 11 33  1  0  0  0  0
 12 13  2  0  0  0  0
 12 34  1  0  0  0  0
 13 14  1  0  0  0  0
 13 35  1  0  0  0  0
 14 15  2  0  0  0  0
 16 20  1  0  0  0  0
 16 17  1  0  0  0  0
 16 44  1  0  0  0  0
 17 18  1  0  0  0  0
 17 36  1  0  0  0  0
 17 37  1  0  0  0  0
 18 19  1  0  0  0  0
 18 38  1  0  0  0  0
 18 39  1  0  0  0  0
 19 20  1  0  0  0  0
 19 40  1  0  0  0  0
 19 41  1  0  0  0  0
 20 42  1  0  0  0  0
 20 43  1  0  0  0  0
M  CHG  1  16   1
M  END
> <s_m_source_file>
AV-unprocessed.smi

> <i_m_source_file_index>
1110

> <i_lp_mmshare_version>
43012

> <i_f3d_flags>
0

> <s_epik_input>
W0NIMl0xW0NIMl1bQ0gyXVtDSDJdTjFbQ0BIXShbQ0gyXVtDSDNdKVtDSDJdW05IXUMoPU8pW0NIMl1uMltjSF1bY0hdW2NIXVtjSF1jMj1P

> <s_epik_cmdline>
J2VwaWtfcHl0aG9uJywgJy1waCcsICc3LjAnLCAnLXRuJywgJzgnLCAnLW1hJywgJzIwMCcsICctbWV0YWxfYmluZGluZycsICctaW1hZScsICc8aW5maWxlLm1hZT4nLCAnLW9tYWUnLCAnPG91dGZpbGUubWFlPic=

> <r_lp_tautomer_probability>
1

> <r_epik_Ionization_Penalty>
0.00361135

> <r_epik_Ionization_Penalty_Charging>
0.00361127

> <r_epik_Ionization_Penalty_Neutral>
7.8489e-08

> <r_epik_State_Penalty>
0.00256751

> <r_epik_Charging_Adjusted_Penalty>
0.00617878

> <i_epik_Tot_Q>
1

> <i_epik_Tot_abs_Q>
1

> <r_epik_Metal_State_Penalty>
-0

> <b_epik_Metal_Only>
0

> <s_lp_Force_Field>
OPLS_2005

> <r_lp_Energy>
49.2182

> <b_lp_Chiralities_Consistent>
1

> <s_lp_Variant>
AV-unprocessed.smi:1110-2

> <Gold.Version>
5.8.1

> <Gold.Id.Protein>
6NUR|6NUR_protein|mol2

> <Gold.PLP.Fitness>
48.4870

> <Gold.PLP.PLP>
-40.3543

> <Gold.PLP.part.hbond>
-1.0000

> <Gold.PLP.part.metal>
0.0000

> <Gold.PLP.part.buried>
-5.9915

> <Gold.PLP.part.nonpolar>
-35.0860

> <Gold.PLP.part.repulsive>
0.2194

> <Gold.PLP.ligand.clash>
0.0000

> <Gold.PLP.ligand.torsion>
0.5153

> <Gold.PLP.Chemscore.Hbond>
2.0000

> <Gold.PLP.Chemscore.CHOScore>
1.0000

> <Gold.PLP.Chemscore.Metal>
0.0000

> <Gold.Chemscore.Hbonds>
donor molecule, donor type, donor heavy atom, donor atom, acceptor molecule, acceptor atom, score
      L1  H    16    44       P1  7948  2.00

> <Gold.PLP.Chemscore.Internal.Correction>
0.1632

> <Gold.Rescore>
     Score         DG    S(hbond)    S(metal)    S(lipo)     H(rot)  DE(clash)    DE(int)     intcor
     14.92     -15.86       0.99        0.00     103.92       1.99       0.06       0.88       ----

> <Gold.Chemscore.Fitness>
14.9219

> <Gold.Chemscore.DG>
-15.8597

> <Gold.Chemscore.ZeroCoef>
-5.4800

> <Gold.Chemscore.Hbond>
0.9920

> <Gold.Chemscore.Metal>
0.0000

> <Gold.Chemscore.Lipo>
103.9234

> <Gold.Chemscore.Internal_Hbond>
0.0000

> <Gold.Chemscore.DEClash>
0.0614

> <Gold.Chemscore.DEInternal>
0.8764

> <Gold.Chemscore.Rot>
1.9893

> <Gold.Chemscore.Internal.Correction>
   9.000000E+99

> <Gold.Chemscore.Hbonds>
donor molecule, donor type, donor heavy atom, donor atom, acceptor molecule, acceptor atom, score
      L1  H    16    44       P1  7948  0.99

> <Gold.Chemscore.Hbond.Weighted>
-3.3133

> <Gold.Chemscore.Metal.Weighted>
-0.0000

> <Gold.Chemscore.Lipo.Weighted>
-12.1590

> <Gold.Chemscore.Internal_Hbond.Weighted>
0.0000

> <Gold.Chemscore.DEClash.Weighted>
0.0614

> <Gold.Chemscore.DEInternal.Weighted>
0.8764

> <Gold.Chemscore.Rot.Weighted>
5.0927

> <Gold.Chemscore.Internal.Correction.Weighted>
   9.000000E+99

> <Gold.Protein.RotatedTorsions>
[ 6907 6896 6895 6894 ] final  149.24 input  -60.11 | X-H torsion
[ 7974 7965 7964 7962 ] final   26.33 input  175.53 | X-H torsion
[ 8008 7997 7996 7995 ] final   31.47 input   59.86 | X-H torsion
[ 10167 10162 10161 10158 ] final  -29.34 input  -65.29 | X-H torsion
[ 10718 10713 10712 10709 ] final  -92.93 input   66.30 | X-H torsion
[ 10763 10752 10751 10750 ] final  -90.29 input  -60.55 | X-H torsion
[ 11005 11000 10999 10996 ] final -111.90 input  -57.11 | X-H torsion

> <Gold.Protein.ActiveResidues>
 VAL166  LYS551  ARG553  GLY616  TRP617  ASP618  TYR619  PRO620  LYS621  CYS622 
 ASP623  PHE694  ASN695  SER759  ASP760  ASP761  ALA762  ILE779  LEU786  VAL792 
 PHE793  MET794  SER795  GLU796  ALA797  LYS798  CYS799  TRP800  GLU811  SER814 

> <Gold.Protein.RotatedAtoms>
  152.1307  133.4406  159.4719 H   0  0  0  0  0  0  0  0  0  0  0  0  # atno 6907 bound_to 6896
  150.6878  134.2424  159.4487 H   0  0  0  0  0  0  0  0  0  0  0  0  # atno 6908 bound_to 6896
  152.0307  134.9769  160.0623 H   0  0  0  0  0  0  0  0  0  0  0  0  # atno 6909 bound_to 6896
  146.1843  139.7343  142.8878 H   0  0  0  0  0  0  0  0  0  0  0  0  # atno 7974 bound_to 7965
  155.1070  140.3235  155.4532 H   0  0  0  0  0  0  0  0  0  0  0  0  # atno 8008 bound_to 7997
  156.2701  140.2051  156.6142 H   0  0  0  0  0  0  0  0  0  0  0  0  # atno 8009 bound_to 7997
  154.6785  140.0529  157.0228 H   0  0  0  0  0  0  0  0  0  0  0  0  # atno 8010 bound_to 7997
  140.7261  143.3936  151.1386 H   0  0  0  0  0  0  0  0  0  0  0  0  # atno 10167 bound_to 10162
  156.0007  130.5007  150.5700 H   0  0  0  0  0  0  0  0  0  0  0  0  # atno 10718 bound_to 10713
  154.6642  135.5310  153.8056 H   0  0  0  0  0  0  0  0  0  0  0  0  # atno 10763 bound_to 10752
  153.0461  135.6513  154.0825 H   0  0  0  0  0  0  0  0  0  0  0  0  # atno 10764 bound_to 10752
  154.0730  135.2953  155.3284 H   0  0  0  0  0  0  0  0  0  0  0  0  # atno 10765 bound_to 10752
  141.0707  133.9384  157.2490 H   0  0  0  0  0  0  0  0  0  0  0  0  # atno 11005 bound_to 11000
  145.3985  141.0382  143.3084 LP  0  0  0  0  0  0  0  0  0  0  0  0  # atno 17320 bound_to 7965
  144.8369  139.5535  143.6918 LP  0  0  0  0  0  0  0  0  0  0  0  0  # atno 17321 bound_to 7965
  139.7545  143.8728  152.3085 LP  0  0  0  0  0  0  0  0  0  0  0  0  # atno 17342 bound_to 10162
  139.8593  144.7125  150.9119 LP  0  0  0  0  0  0  0  0  0  0  0  0  # atno 17343 bound_to 10162
  157.3596  131.0747  151.1647 LP  0  0  0  0  0  0  0  0  0  0  0  0  # atno 17370 bound_to 10713
  157.2436  130.6581  149.5900 LP  0  0  0  0  0  0  0  0  0  0  0  0  # atno 17371 bound_to 10713
  139.9520  135.0173  156.9022 LP  0  0  0  0  0  0  0  0  0  0  0  0  # atno 17394 bound_to 11000
  140.5679  134.0471  155.7420 LP  0  0  0  0  0  0  0  0  0  0  0  0  # atno 17395 bound_to 11000

$$$$
