#       Name:                AV-unprocessed.smi:297
#       Creating user name   scv26
#       Creation time:       Thu Mar 26 22:14:44 2020


#       File generated by GOLD software.
#

@<TRIPOS>MOLECULE
AV-unprocessed.smi:297
    36    37     1
SMALL
NO_CHARGES


@<TRIPOS>ATOM
      1 ****        -4.8372  -2.3554   0.5777 N.1            1 S1                 0.0000
      2 ****        -4.1865  -1.3995   0.5298 C.1            1 S1                 0.0000
      3 ****        -3.3680  -0.1982   0.4695 C.ar           1 S1                 0.0000
      4 ****        -2.0289  -0.3800   0.4467 N.ar           1 S1                 0.0000
      5 ****        -1.2210   0.7050   0.3864 C.ar           1 S1                 0.0000
      6 ****         0.1658   0.5023   0.3574 N.3            1 S1                 0.0000
      7 ****         0.6876  -0.1292   1.5622 C.3            1 S1                 0.0000
      8 ****         2.2215  -0.1974   1.4937 C.3            1 S1                 0.0000
      9 ****         2.6140  -0.8877   0.3112 O.3            1 S1                 0.0000
     10 ****         2.1693  -0.2328  -0.8789 C.3            1 S1                 0.0000
     11 ****         2.6972  -1.0004  -2.1001 C.2            1 S1                 0.0000
     12 ****         3.8648  -1.6367  -1.9689 N.am           1 S1                 0.0000
     13 ****         2.0716  -1.0088  -3.1589 O.2            1 S1                 0.0000
     14 ****         0.6259  -0.1513  -0.8620 C.3            1 S1                 0.0000
     15 ****        -1.7221   2.0215   0.3473 C.ar           1 S1                 0.0000
     16 ****        -3.1159   2.2131   0.3732 C.ar           1 S1                 0.0000
     17 ****        -3.9611   1.0881   0.4352 C.ar           1 S1                 0.0000
     18 ****        -5.6765   1.3171   0.4659 Cl             1 S1                 0.0000
     19 ****         0.3761   0.4370   2.4408 H              1 S1                 0.0000
     20 ****         0.2770  -1.1351   1.6622 H              1 S1                 0.0000
     21 ****         2.6580   0.8026   1.5068 H              1 S1                 0.0000
     22 ****         2.6131  -0.7281   2.3614 H              1 S1                 0.0000
     23 ****         2.5930   0.7724  -0.9136 H              1 S1                 0.0000
     24 ****         4.2475  -2.1477  -2.7512 H              1 S1                 0.0000
     25 ****         4.3615  -1.5992  -1.0908 H              1 S1                 0.0000
     26 ****         0.1968  -1.1528  -0.9259 H              1 S1                 0.0000
     27 ****         0.2668   0.4094  -1.7265 H              1 S1                 0.0000
     28 ****        -1.0538   2.8689   0.2980 H              1 S1                 0.0000
     29 ****        -3.5299   3.2103   0.3452 H              1 S1                 0.0000
     30 ****        -5.3995  -3.1813   0.6191 LP             1 S1                 0.0000
     31 ****        -1.6409  -1.3012   0.4740 LP             1 S1                 0.0000
     32 ****         0.5593   1.4216   0.3433 LP             1 S1                 0.0000
     33 ****         2.2260  -1.8090   0.3342 LP             1 S1                 0.0000
     34 ****         3.6120  -0.9467   0.2908 LP             1 S1                 0.0000
     35 ****         1.2071  -0.5115  -3.2328 LP             1 S1                 0.0000
     36 ****         2.4273  -1.5129  -3.9458 LP             1 S1                 0.0000
@<TRIPOS>BOND
    1    1    2 3     
    2    2    3 1     
    3    3   17 ar    
    4    3    4 ar    
    5    4    5 ar    
    6    5    6 1     
    7    5   15 ar    
    8    6   14 1     
    9    6    7 1     
   10    7    8 1     
   11    7   19 1     
   12    7   20 1     
   13    8    9 1     
   14    8   21 1     
   15    8   22 1     
   16    9   10 1     
   17   10   11 1     
   18   10   14 1     
   19   10   23 1     
   20   11   12 am    
   21   11   13 2     
   22   12   24 1     
   23   12   25 1     
   24   14   26 1     
   25   14   27 1     
   26   15   16 ar    
   27   15   28 1     
   28   16   17 ar    
   29   16   29 1     
   30   17   18 1     
   31    1   30 1     
   32    4   31 1     
   33    6   32 1     
   34    9   33 1     
   35    9   34 1     
   36   13   35 1     
   37   13   36 1     
@<TRIPOS>SUBSTRUCTURE
      1 S1             1
@<TRIPOS>SET
LONE_PAIRS      STATIC     ATOMS    <user>   **** ""
7 30 31 32 33 34 35 36
DONOR_HYDROGENS      STATIC     ATOMS    <user>   **** ""
2 24 25
ATOM$BLUE        STATIC     ATOMS    COLORGROUP SYSTEM
7 30 31 32 33 34 35 36
ATOM$RED        STATIC     ATOMS    COLORGROUP SYSTEM
2 24 25
