AV-unprocessed.smi:2717|AV-procd|sdf|10485|dock7
  -GOLD-   2272014533D 1   1.00000     0.00000
 Structure written by MMmdl.
 43 44  0  0  0  0  0  0  0  0  1 V2000
  150.9750  141.2856  157.7347 C   0  0  0  0  0  0  0  0  0  0  0  0
  150.7257  141.7324  156.2900 C   0  0  0  0  0  0  0  0  0  0  0  0
  150.0903  140.6665  155.4616 C   0  0  0  0  0  0  0  0  0  0  0  0
  148.9104  140.8124  154.8523 N   0  0  0  0  0  0  0  0  0  0  0  0
  148.5443  139.6840  154.1123 C   0  0  0  0  0  0  0  0  0  0  0  0
  147.2341  139.6585  153.3802 C   0  0  0  0  0  0  0  0  0  0  0  0
  146.3368  138.4645  153.7654 C   0  0  0  0  0  0  0  0  0  0  0  0
  146.6861  137.2368  153.0565 N   0  0  0  0  0  0  0  0  0  0  0  0
  145.8860  136.1702  152.9256 C   0  0  0  0  0  0  0  0  0  0  0  0
  144.7633  136.0842  153.4237 O   0  0  0  0  0  0  0  0  0  0  0  0
  146.4484  135.2188  152.1676 N   0  0  0  0  0  0  0  0  0  0  0  0
  145.8117  133.9624  151.7862 C   0  0  2  0  0  0  0  0  0  0  0  0
  146.5582  133.3491  150.5878 C   0  0  0  0  0  0  0  0  0  0  0  0
  145.8895  132.0477  150.1110 C   0  0  0  0  0  0  0  0  0  0  0  0
  144.3947  132.2421  149.7940 C   0  0  2  0  0  0  0  0  0  0  0  0
  144.2436  133.0274  148.6280 O   0  0  0  0  0  0  0  0  0  0  0  0
  143.6465  132.8973  150.9700 C   0  0  0  0  0  0  0  0  0  0  0  0
  144.3259  134.1939  151.4440 C   0  0  0  0  0  0  0  0  0  0  0  0
  149.4793  138.6797  154.1575 C   0  0  0  0  0  0  0  0  0  0  0  0
  150.8527  139.1139  155.1361 S   0  0  0  0  0  0  0  0  0  0  0  0
  151.4378  142.0846  158.3143 H   0  0  0  0  0  0  0  0  0  0  0  0
  151.6382  140.4208  157.7703 H   0  0  0  0  0  0  0  0  0  0  0  0
  150.0415  141.0133  158.2281 H   0  0  0  0  0  0  0  0  0  0  0  0
  150.0822  142.6126  156.2789 H   0  0  0  0  0  0  0  0  0  0  0  0
  151.6670  142.0272  155.8242 H   0  0  0  0  0  0  0  0  0  0  0  0
  146.6889  140.5857  153.5598 H   0  0  0  0  0  0  0  0  0  0  0  0
  147.4176  139.6356  152.3054 H   0  0  0  0  0  0  0  0  0  0  0  0
  146.4429  138.2626  154.8315 H   0  0  0  0  0  0  0  0  0  0  0  0
  145.2861  138.7078  153.6005 H   0  0  0  0  0  0  0  0  0  0  0  0
  147.5894  137.2132  152.6061 H   0  0  0  0  0  0  0  0  0  0  0  0
  147.3750  135.3870  151.8038 H   0  0  0  0  0  0  0  0  0  0  0  0
  145.8773  133.2615  152.6211 H   0  0  0  0  0  0  0  0  0  0  0  0
  146.5887  134.0648  149.7648 H   0  0  0  0  0  0  0  0  0  0  0  0
  147.5957  133.1478  150.8578 H   0  0  0  0  0  0  0  0  0  0  0  0
  146.4136  131.6540  149.2393 H   0  0  0  0  0  0  0  0  0  0  0  0
  145.9912  131.2929  150.8917 H   0  0  0  0  0  0  0  0  0  0  0  0
  143.9458  131.2709  149.5833 H   0  0  0  0  0  0  0  0  0  0  0  0
  144.9527  133.6507  148.5913 H   0  0  0  0  0  0  0  0  0  0  0  0
  142.6099  133.0964  150.6956 H   0  0  0  0  0  0  0  0  0  0  0  0
  143.6093  132.1940  151.8028 H   0  0  0  0  0  0  0  0  0  0  0  0
  143.7954  134.5839  152.3136 H   0  0  0  0  0  0  0  0  0  0  0  0
  144.2398  134.9550  150.6671 H   0  0  0  0  0  0  0  0  0  0  0  0
  149.4395  137.7122  153.6791 H   0  0  0  0  0  0  0  0  0  0  0  0
  1  2  1  0  0  0  0
  1 21  1  0  0  0  0
  1 22  1  0  0  0  0
  1 23  1  0  0  0  0
  2  3  1  0  0  0  0
  2 24  1  0  0  0  0
  2 25  1  0  0  0  0
  3 20  1  0  0  0  0
  3  4  2  0  0  0  0
  4  5  1  0  0  0  0
  5  6  1  0  0  0  0
  5 19  2  0  0  0  0
  6  7  1  0  0  0  0
  6 26  1  0  0  0  0
  6 27  1  0  0  0  0
  7  8  1  0  0  0  0
  7 28  1  0  0  0  0
  7 29  1  0  0  0  0
  8  9  1  0  0  0  0
  8 30  1  0  0  0  0
  9 10  2  0  0  0  0
  9 11  1  0  0  0  0
 11 12  1  0  0  0  0
 11 31  1  0  0  0  0
 12 18  1  0  0  0  0
 12 13  1  0  0  0  0
 12 32  1  0  0  0  0
 13 14  1  0  0  0  0
 13 33  1  0  0  0  0
 13 34  1  0  0  0  0
 14 15  1  0  0  0  0
 14 35  1  0  0  0  0
 14 36  1  0  0  0  0
 15 16  1  0  0  0  0
 15 17  1  0  0  0  0
 15 37  1  0  0  0  0
 16 38  1  0  0  0  0
 17 18  1  0  0  0  0
 17 39  1  0  0  0  0
 17 40  1  0  0  0  0
 18 41  1  0  0  0  0
 18 42  1  0  0  0  0
 19 20  1  0  0  0  0
 19 43  1  0  0  0  0
M  END
> <s_m_source_file>
AV-unprocessed.smi

> <i_m_source_file_index>
2717

> <i_lp_mmshare_version>
43012

> <i_f3d_flags>
0

> <s_epik_input>
W0NIM11bQ0gyXWMxbmMoW2NIXXMxKVtDSDJdW0NIMl1bTkhdQyg9TylbTkhdW0NAQEhdMltDSDJdW0NIMl1bQ0BASF0oW09IXSlbQ0gyXVtDSDJdMg==

> <s_epik_cmdline>
J2VwaWtfcHl0aG9uJywgJy1waCcsICc3LjAnLCAnLXRuJywgJzgnLCAnLW1hJywgJzIwMCcsICctbWV0YWxfYmluZGluZycsICctaW1hZScsICc8aW5maWxlLm1hZT4nLCAnLW9tYWUnLCAnPG91dGZpbGUubWFlPic=

> <r_epik_Ionization_Penalty>
0.00202099

> <r_epik_Ionization_Penalty_Charging>
0

> <r_epik_Ionization_Penalty_Neutral>
0.00202099

> <r_epik_State_Penalty>
0.00133629

> <r_epik_Charging_Adjusted_Penalty>
0.00133629

> <i_epik_Tot_Q>
0

> <i_epik_Tot_abs_Q>
0

> <r_epik_Metal_State_Penalty>
-0

> <b_epik_Metal_Only>
0

> <s_lp_Force_Field>
OPLS_2005

> <r_lp_Energy>
0.0101123

> <b_lp_Chiralities_Consistent>
1

> <s_lp_Variant>
AV-unprocessed.smi:2717-2

> <Gold.Version>
5.8.1

> <Gold.Id.Protein>
6NUR|6NUR_protein|mol2

> <Gold.PLP.Fitness>
49.7182

> <Gold.PLP.PLP>
-38.8060

> <Gold.PLP.part.hbond>
-3.0512

> <Gold.PLP.part.metal>
0.0000

> <Gold.PLP.part.buried>
-4.1383

> <Gold.PLP.part.nonpolar>
-31.4229

> <Gold.PLP.part.repulsive>
0.2449

> <Gold.PLP.ligand.clash>
0.0000

> <Gold.PLP.ligand.torsion>
0.5210

> <Gold.PLP.Chemscore.Hbond>
2.9760

> <Gold.PLP.Chemscore.CHOScore>
1.0000

> <Gold.PLP.Chemscore.Metal>
0.0000

> <Gold.Chemscore.Hbonds>
donor molecule, donor type, donor heavy atom, donor atom, acceptor molecule, acceptor atom, score
      L1  H     8    30       P1  7948  0.99
      L1  H    11    31       P1  7948  1.00
      L1  H    16    38       P1  7921  1.00
      L1  C    19    43       P1  7948  1.00

> <Gold.PLP.Chemscore.Internal.Correction>
0.0261

> <Gold.Rescore>
     Score         DG    S(hbond)    S(metal)    S(lipo)     H(rot)  DE(clash)    DE(int)     intcor
     18.49     -20.60       2.85        0.00      96.09       2.21       0.06       2.05       ----

> <Gold.Chemscore.Fitness>
18.4910

> <Gold.Chemscore.DG>
-20.5976

> <Gold.Chemscore.ZeroCoef>
-5.4800

> <Gold.Chemscore.Hbond>
2.8528

> <Gold.Chemscore.Metal>
0.0000

> <Gold.Chemscore.Lipo>
96.0910

> <Gold.Chemscore.Internal_Hbond>
0.0000

> <Gold.Chemscore.DEClash>
0.0573

> <Gold.Chemscore.DEInternal>
2.0493

> <Gold.Chemscore.Rot>
2.2084

> <Gold.Chemscore.Internal.Correction>
   9.000000E+99

> <Gold.Chemscore.Hbonds>
donor molecule, donor type, donor heavy atom, donor atom, acceptor molecule, acceptor atom, score
      L1  H     8    30       P1  7948  0.94
      L1  H    11    31       P1  7948  0.95
      L1  H    16    38       P1  7921  0.86

> <Gold.Chemscore.Hbond.Weighted>
-9.5285

> <Gold.Chemscore.Metal.Weighted>
-0.0000

> <Gold.Chemscore.Lipo.Weighted>
-11.2427

> <Gold.Chemscore.Internal_Hbond.Weighted>
0.0000

> <Gold.Chemscore.DEClash.Weighted>
0.0573

> <Gold.Chemscore.DEInternal.Weighted>
2.0493

> <Gold.Chemscore.Rot.Weighted>
5.6535

> <Gold.Chemscore.Internal.Correction.Weighted>
   9.000000E+99

> <Gold.Protein.RotatedTorsions>
[ 6907 6896 6895 6894 ] final -141.20 input  -60.11 | X-H torsion
[ 7974 7965 7964 7962 ] final  -87.58 input  175.53 | X-H torsion
[ 8008 7997 7996 7995 ] final -107.07 input   59.86 | X-H torsion
[ 10167 10162 10161 10158 ] final   84.15 input  -65.29 | X-H torsion
[ 10718 10713 10712 10709 ] final -141.81 input   66.30 | X-H torsion
[ 10763 10752 10751 10750 ] final -108.94 input  -60.55 | X-H torsion
[ 11005 11000 10999 10996 ] final  -78.82 input  -57.11 | X-H torsion

> <Gold.Protein.ActiveResidues>
 VAL166  LYS551  ARG553  GLY616  TRP617  ASP618  TYR619  PRO620  LYS621  CYS622 
 ASP623  PHE694  ASN695  SER759  ASP760  ASP761  ALA762  ILE779  LEU786  VAL792 
 PHE793  MET794  SER795  GLU796  ALA797  LYS798  CYS799  TRP800  GLU811  SER814 

> <Gold.Protein.RotatedAtoms>
  151.0707  133.5468  159.2627 H   0  0  0  0  0  0  0  0  0  0  0  0  # atno 6907 bound_to 6896
  151.2409  135.0588  159.9034 H   0  0  0  0  0  0  0  0  0  0  0  0  # atno 6908 bound_to 6896
  152.5411  134.0482  159.8152 H   0  0  0  0  0  0  0  0  0  0  0  0  # atno 6909 bound_to 6896
  145.4646  140.9560  143.1951 H   0  0  0  0  0  0  0  0  0  0  0  0  # atno 7974 bound_to 7965
  154.9238  140.0406  157.2012 H   0  0  0  0  0  0  0  0  0  0  0  0  # atno 8008 bound_to 7997
  154.8227  140.2886  155.5754 H   0  0  0  0  0  0  0  0  0  0  0  0  # atno 8009 bound_to 7997
  156.2981  140.2515  156.3138 H   0  0  0  0  0  0  0  0  0  0  0  0  # atno 8010 bound_to 7997
  139.9111  144.6271  150.8537 H   0  0  0  0  0  0  0  0  0  0  0  0  # atno 10167 bound_to 10162
  156.3384  130.7624  151.1755 H   0  0  0  0  0  0  0  0  0  0  0  0  # atno 10718 bound_to 10713
  154.8165  135.4619  154.0657 H   0  0  0  0  0  0  0  0  0  0  0  0  # atno 10763 bound_to 10752
  153.2046  135.6873  153.8195 H   0  0  0  0  0  0  0  0  0  0  0  0  # atno 10764 bound_to 10752
  153.7668  135.3276  155.3323 H   0  0  0  0  0  0  0  0  0  0  0  0  # atno 10765 bound_to 10752
  141.1666  133.7079  156.8029 H   0  0  0  0  0  0  0  0  0  0  0  0  # atno 11005 bound_to 11000
  144.7982  139.6192  143.7083 LP  0  0  0  0  0  0  0  0  0  0  0  0  # atno 17320 bound_to 7965
  146.2432  139.6043  142.9477 LP  0  0  0  0  0  0  0  0  0  0  0  0  # atno 17321 bound_to 7965
  140.7685  143.3365  151.2297 LP  0  0  0  0  0  0  0  0  0  0  0  0  # atno 17342 bound_to 10162
  139.6942  143.9641  152.2874 LP  0  0  0  0  0  0  0  0  0  0  0  0  # atno 17343 bound_to 10162
  157.7442  131.0461  150.4879 LP  0  0  0  0  0  0  0  0  0  0  0  0  # atno 17370 bound_to 10713
  156.5055  130.4127  149.6329 LP  0  0  0  0  0  0  0  0  0  0  0  0  # atno 17371 bound_to 10713
  140.2243  134.8734  157.3410 LP  0  0  0  0  0  0  0  0  0  0  0  0  # atno 17394 bound_to 11000
  140.1956  134.4318  155.7691 LP  0  0  0  0  0  0  0  0  0  0  0  0  # atno 17395 bound_to 11000

$$$$
