AV-unprocessed.smi:991|AV-procd|sdf|4328|dock8
  -GOLD-   22720 2233D 1   1.00000     0.00000
 Structure written by MMmdl.
 32 33  0  0  0  0  0  0  0  0  1 V2000
  153.2919  139.3181  157.4204 O   0  0  0  0  0  0  0  0  0  0  0  0
  152.2790  139.4553  158.1060 C   0  0  0  0  0  0  0  0  0  0  0  0
  150.9683  138.7972  157.6727 C   0  0  0  0  0  0  0  0  0  0  0  0
  150.7307  138.9822  156.2524 N   0  0  0  0  0  0  0  0  0  0  0  0
  150.6950  140.0944  155.5159 C   0  0  0  0  0  0  0  0  0  0  0  0
  150.4419  139.8784  154.2325 N   0  0  0  0  0  0  0  0  0  0  0  0
  150.3267  138.5168  154.2484 C   0  0  0  0  0  0  0  0  0  0  0  0
  150.4909  137.9301  155.4342 N   0  0  0  0  0  0  0  0  0  0  0  0
  152.2481  140.1614  159.2479 N   0  0  0  0  0  0  0  0  0  0  0  0
  153.3916  140.8484  159.8448 C   0  0  0  0  0  0  0  0  0  0  0  0
  153.0048  142.1389  160.5908 C   0  0  0  0  0  0  0  0  0  0  0  0
  153.1480  142.2083  161.8130 O   0  0  0  0  0  0  0  0  0  0  0  0
  152.5015  143.1633  159.8716 N   0  0  0  0  0  0  0  0  0  0  0  0
  152.0938  144.4631  160.4040 C   0  0  0  0  0  0  0  0  0  0  0  0
  151.8114  145.3406  159.1838 C   0  0  0  0  0  0  0  0  0  0  0  0
  151.4645  144.3480  158.0828 C   0  0  0  0  0  0  0  0  0  0  0  0
  152.2885  143.1073  158.4268 C   0  0  0  0  0  0  0  0  0  0  0  0
  150.9984  137.7276  157.8852 H   0  0  0  0  0  0  0  0  0  0  0  0
  150.1364  139.2154  158.2418 H   0  0  0  0  0  0  0  0  0  0  0  0
  150.8537  141.0806  155.9276 H   0  0  0  0  0  0  0  0  0  0  0  0
  150.1154  137.9406  153.3595 H   0  0  0  0  0  0  0  0  0  0  0  0
  151.3716  140.2172  159.7466 H   0  0  0  0  0  0  0  0  0  0  0  0
  153.9157  140.1653  160.5151 H   0  0  0  0  0  0  0  0  0  0  0  0
  154.0883  141.1025  159.0457 H   0  0  0  0  0  0  0  0  0  0  0  0
  151.1877  144.3375  160.9983 H   0  0  0  0  0  0  0  0  0  0  0  0
  152.8608  144.9092  161.0388 H   0  0  0  0  0  0  0  0  0  0  0  0
  151.0205  146.0701  159.3611 H   0  0  0  0  0  0  0  0  0  0  0  0
  152.7145  145.8872  158.9089 H   0  0  0  0  0  0  0  0  0  0  0  0
  150.4018  144.1060  158.1316 H   0  0  0  0  0  0  0  0  0  0  0  0
  151.6739  144.7315  157.0836 H   0  0  0  0  0  0  0  0  0  0  0  0
  153.2567  143.1381  157.9245 H   0  0  0  0  0  0  0  0  0  0  0  0
  151.7764  142.1935  158.1206 H   0  0  0  0  0  0  0  0  0  0  0  0
  1  2  2  0  0  0  0
  2  3  1  0  0  0  0
  2  9  1  0  0  0  0
  3  4  1  0  0  0  0
  3 18  1  0  0  0  0
  3 19  1  0  0  0  0
  4  8  1  0  0  0  0
  4  5  1  0  0  0  0
  5  6  2  0  0  0  0
  5 20  1  0  0  0  0
  6  7  1  0  0  0  0
  7  8  2  0  0  0  0
  7 21  1  0  0  0  0
  9 10  1  0  0  0  0
  9 22  1  0  0  0  0
 10 11  1  0  0  0  0
 10 23  1  0  0  0  0
 10 24  1  0  0  0  0
 11 12  2  0  0  0  0
 11 13  1  0  0  0  0
 13 17  1  0  0  0  0
 13 14  1  0  0  0  0
 14 15  1  0  0  0  0
 14 25  1  0  0  0  0
 14 26  1  0  0  0  0
 15 16  1  0  0  0  0
 15 27  1  0  0  0  0
 15 28  1  0  0  0  0
 16 17  1  0  0  0  0
 16 29  1  0  0  0  0
 16 30  1  0  0  0  0
 17 31  1  0  0  0  0
 17 32  1  0  0  0  0
M  END
> <s_m_source_file>
AV-unprocessed.smi

> <i_m_source_file_index>
991

> <i_lp_mmshare_version>
43012

> <i_f3d_flags>
0

> <s_epik_input>
bjFbY0hdbltjSF1uMVtDSDJdQyg9TylbTkhdW0NIMl1DKD1PKU4yW0NIMl1bQ0gyXVtDSDJdW0NIMl0y

> <s_epik_cmdline>
J2VwaWtfcHl0aG9uJywgJy1waCcsICc3LjAnLCAnLXRuJywgJzgnLCAnLW1hJywgJzIwMCcsICctbWV0YWxfYmluZGluZycsICctaW1hZScsICc8aW5maWxlLm1hZT4nLCAnLW9tYWUnLCAnPG91dGZpbGUubWFlPic=

> <r_lp_tautomer_probability>
1

> <r_epik_Ionization_Penalty>
7.3183e-06

> <r_epik_Ionization_Penalty_Charging>
0

> <r_epik_Ionization_Penalty_Neutral>
7.3183e-06

> <r_epik_State_Penalty>
-0

> <r_epik_Charging_Adjusted_Penalty>
0

> <i_epik_Tot_Q>
0

> <i_epik_Tot_abs_Q>
0

> <r_epik_Metal_State_Penalty>
-0

> <b_epik_Metal_Only>
0

> <s_lp_Force_Field>
OPLS_2005

> <r_lp_Energy>
26.0119

> <b_lp_Chiralities_Consistent>
1

> <s_lp_Variant>
AV-unprocessed.smi:991-1

> <Gold.Version>
5.8.1

> <Gold.Id.Protein>
6NUR|6NUR_protein|mol2

> <Gold.PLP.Fitness>
46.9889

> <Gold.PLP.PLP>
-38.6180

> <Gold.PLP.part.hbond>
-1.9959

> <Gold.PLP.part.metal>
0.0000

> <Gold.PLP.part.buried>
-5.9382

> <Gold.PLP.part.nonpolar>
-32.0609

> <Gold.PLP.part.repulsive>
0.3955

> <Gold.PLP.ligand.clash>
0.0000

> <Gold.PLP.ligand.torsion>
0.4529

> <Gold.PLP.Chemscore.Hbond>
2.0000

> <Gold.PLP.Chemscore.CHOScore>
1.0903

> <Gold.PLP.Chemscore.Metal>
0.0000

> <Gold.Chemscore.Hbonds>
donor molecule, donor type, donor heavy atom, donor atom, acceptor molecule, acceptor atom, score
      P1  H  7989  7998       L1     6  1.00
      P1  H  7997  8009       L1     1  0.99
      L1  C     7    21       P1  7948  1.00
      L1  C     7    21       P1  7949  0.02

> <Gold.PLP.Chemscore.Internal.Correction>
0.0057

> <Gold.Rescore>
     Score         DG    S(hbond)    S(metal)    S(lipo)     H(rot)  DE(clash)    DE(int)     intcor
     12.69     -13.07       1.94        0.00      65.04       2.54       0.01       0.38       ----

> <Gold.Chemscore.Fitness>
12.6864

> <Gold.Chemscore.DG>
-13.0739

> <Gold.Chemscore.ZeroCoef>
-5.4800

> <Gold.Chemscore.Hbond>
1.9395

> <Gold.Chemscore.Metal>
0.0000

> <Gold.Chemscore.Lipo>
65.0403

> <Gold.Chemscore.Internal_Hbond>
0.0000

> <Gold.Chemscore.DEClash>
0.0089

> <Gold.Chemscore.DEInternal>
0.3787

> <Gold.Chemscore.Rot>
2.5366

> <Gold.Chemscore.Internal.Correction>
   9.000000E+99

> <Gold.Chemscore.Hbonds>
donor molecule, donor type, donor heavy atom, donor atom, acceptor molecule, acceptor atom, score
      P1  H  7989  7998       L1     6  0.35
      P1  H  7997  8009       L1     1  0.93

> <Gold.Chemscore.Hbond.Weighted>
-6.4779

> <Gold.Chemscore.Metal.Weighted>
-0.0000

> <Gold.Chemscore.Lipo.Weighted>
-7.6097

> <Gold.Chemscore.Internal_Hbond.Weighted>
0.0000

> <Gold.Chemscore.DEClash.Weighted>
0.0089

> <Gold.Chemscore.DEInternal.Weighted>
0.3787

> <Gold.Chemscore.Rot.Weighted>
6.4937

> <Gold.Chemscore.Internal.Correction.Weighted>
   9.000000E+99

> <Gold.Protein.RotatedTorsions>
[ 6907 6896 6895 6894 ] final  -48.53 input  -60.11 | X-H torsion
[ 7974 7965 7964 7962 ] final  141.97 input  175.53 | X-H torsion
[ 8008 7997 7996 7995 ] final  179.78 input   59.86 | X-H torsion
[ 10167 10162 10161 10158 ] final  169.48 input  -65.29 | X-H torsion
[ 10718 10713 10712 10709 ] final  107.86 input   66.30 | X-H torsion
[ 10763 10752 10751 10750 ] final   65.74 input  -60.55 | X-H torsion
[ 11005 11000 10999 10996 ] final   80.04 input  -57.11 | X-H torsion

> <Gold.Protein.ActiveResidues>
 VAL166  LYS551  ARG553  GLY616  TRP617  ASP618  TYR619  PRO620  LYS621  CYS622 
 ASP623  PHE694  ASN695  SER759  ASP760  ASP761  ALA762  ILE779  LEU786  VAL792 
 PHE793  MET794  SER795  GLU796  ALA797  LYS798  CYS799  TRP800  GLU811  SER814 

> <Gold.Protein.RotatedAtoms>
  150.8897  134.8299  159.7283 H   0  0  0  0  0  0  0  0  0  0  0  0  # atno 6907 bound_to 6896
  152.4829  134.4668  159.9632 H   0  0  0  0  0  0  0  0  0  0  0  0  # atno 6908 bound_to 6896
  151.4732  133.3525  159.2862 H   0  0  0  0  0  0  0  0  0  0  0  0  # atno 6909 bound_to 6896
  144.9049  139.5372  143.5736 H   0  0  0  0  0  0  0  0  0  0  0  0  # atno 7974 bound_to 7965
  156.0395  140.1300  157.0171 H   0  0  0  0  0  0  0  0  0  0  0  0  # atno 8008 bound_to 7997
  154.4384  140.1033  156.6286 H   0  0  0  0  0  0  0  0  0  0  0  0  # atno 8009 bound_to 7997
  155.5688  140.3466  155.4512 H   0  0  0  0  0  0  0  0  0  0  0  0  # atno 8010 bound_to 7997
  139.4993  144.3701  151.9734 H   0  0  0  0  0  0  0  0  0  0  0  0  # atno 10167 bound_to 10162
  157.6611  131.0882  150.6220 H   0  0  0  0  0  0  0  0  0  0  0  0  # atno 10718 bound_to 10713
  153.0109  135.5346  154.6714 H   0  0  0  0  0  0  0  0  0  0  0  0  # atno 10763 bound_to 10752
  154.5897  135.2857  155.0650 H   0  0  0  0  0  0  0  0  0  0  0  0  # atno 10764 bound_to 10752
  154.1747  135.6526  153.5071 H   0  0  0  0  0  0  0  0  0  0  0  0  # atno 10765 bound_to 10752
  139.9149  134.7890  156.1857 H   0  0  0  0  0  0  0  0  0  0  0  0  # atno 11005 bound_to 11000
  146.3128  139.7809  142.9006 LP  0  0  0  0  0  0  0  0  0  0  0  0  # atno 17320 bound_to 7965
  145.3553  141.0315  143.3315 LP  0  0  0  0  0  0  0  0  0  0  0  0  # atno 17321 bound_to 7965
  140.3137  144.3508  150.6027 LP  0  0  0  0  0  0  0  0  0  0  0  0  # atno 17342 bound_to 10162
  140.5778  143.2175  151.7483 LP  0  0  0  0  0  0  0  0  0  0  0  0  # atno 17343 bound_to 10162
  156.6522  130.4488  149.5715 LP  0  0  0  0  0  0  0  0  0  0  0  0  # atno 17370 bound_to 10713
  156.2129  130.6690  151.1288 LP  0  0  0  0  0  0  0  0  0  0  0  0  # atno 17371 bound_to 10713
  141.0614  133.6840  156.1961 LP  0  0  0  0  0  0  0  0  0  0  0  0  # atno 17394 bound_to 11000
  140.6654  134.4924  157.5585 LP  0  0  0  0  0  0  0  0  0  0  0  0  # atno 17395 bound_to 11000

$$$$
