AV-unprocessed.smi:3149|AV-procd|sdf|12002|dock2
  -GOLD-   2272017403D 1   1.00000     0.00000
 Structure written by MMmdl.
 38 39  0  0  0  0  0  0  0  0  2 V2000
  153.0060  138.6274  158.3634 C   0  0  0  0  0  0  0  0  0  0  0  0
  151.8900  139.5865  157.9058 C   0  0  1  0  0  0  0  0  0  0  0  0
  151.8542  140.7777  158.7869 N   0  3  0  0  0  0  0  0  0  0  0  0
  153.1545  141.1875  159.3567 C   0  0  0  0  0  0  0  0  0  0  0  0
  152.9830  142.3099  160.3844 C   0  0  0  0  0  0  0  0  0  0  0  0
  153.1314  142.0870  161.5864 O   0  0  0  0  0  0  0  0  0  0  0  0
  152.7495  143.5973  159.8967 N   0  0  0  0  0  0  0  0  0  0  0  0
  151.8642  144.5233  160.5871 C   0  0  0  0  0  0  0  0  0  0  0  0
  151.5697  145.1054  159.2008 C   0  0  0  0  0  0  0  0  0  0  0  0
  152.1224  143.8083  158.6005 C   0  0  0  0  0  0  0  0  0  0  0  0
  152.0584  140.0298  156.4262 C   0  0  1  0  0  0  0  0  0  0  0  0
  152.5893  138.9095  155.5125 C   0  0  0  0  0  0  0  0  0  0  0  0
  150.8157  140.5572  155.8717 N   0  0  0  0  0  0  0  0  0  0  0  0
  149.9691  141.4975  156.4226 C   0  0  0  0  0  0  0  0  0  0  0  0
  148.9453  141.6929  155.5407 C   0  0  0  0  0  0  0  0  0  0  0  0
  149.2612  140.8268  154.4576 C   0  0  0  0  0  0  0  0  0  0  0  0
  150.3824  140.1530  154.6558 N   0  0  0  0  0  0  0  0  0  0  0  0
  153.0073  137.7051  157.7835 H   0  0  0  0  0  0  0  0  0  0  0  0
  152.8841  138.3347  159.4059 H   0  0  0  0  0  0  0  0  0  0  0  0
  153.9900  139.0865  158.2619 H   0  0  0  0  0  0  0  0  0  0  0  0
  150.9342  139.0680  157.9980 H   0  0  0  0  0  0  0  0  0  0  0  0
  151.4446  141.5536  158.2872 H   0  0  0  0  0  0  0  0  0  0  0  0
  153.6255  140.3356  159.8485 H   0  0  0  0  0  0  0  0  0  0  0  0
  153.8174  141.5180  158.5571 H   0  0  0  0  0  0  0  0  0  0  0  0
  150.9961  144.0424  161.0428 H   0  0  0  0  0  0  0  0  0  0  0  0
  152.3748  145.2066  161.2665 H   0  0  0  0  0  0  0  0  0  0  0  0
  150.5110  145.2754  159.0023 H   0  0  0  0  0  0  0  0  0  0  0  0
  152.1729  145.9838  158.9629 H   0  0  0  0  0  0  0  0  0  0  0  0
  152.8306  143.9500  157.7833 H   0  0  0  0  0  0  0  0  0  0  0  0
  151.3447  143.0790  158.3641 H   0  0  0  0  0  0  0  0  0  0  0  0
  152.7831  140.8453  156.3997 H   0  0  0  0  0  0  0  0  0  0  0  0
  153.5988  138.6057  155.7871 H   0  0  0  0  0  0  0  0  0  0  0  0
  152.6307  139.2399  154.4739 H   0  0  0  0  0  0  0  0  0  0  0  0
  151.9504  138.0266  155.5524 H   0  0  0  0  0  0  0  0  0  0  0  0
  150.1619  141.9447  157.3868 H   0  0  0  0  0  0  0  0  0  0  0  0
  148.1018  142.3587  155.6500 H   0  0  0  0  0  0  0  0  0  0  0  0
  148.7148  140.6710  153.5391 H   0  0  0  0  0  0  0  0  0  0  0  0
  151.2561  140.5534  159.5699 H   0  0  0  0  0  0  0  0  0  0  0  0
  1  2  1  0  0  0  0
  1 18  1  0  0  0  0
  1 19  1  0  0  0  0
  1 20  1  0  0  0  0
  2  3  1  0  0  0  0
  2 11  1  0  0  0  0
  2 21  1  0  0  0  0
  3  4  1  0  0  0  0
  3 22  1  0  0  0  0
  3 38  1  0  0  0  0
  4  5  1  0  0  0  0
  4 23  1  0  0  0  0
  4 24  1  0  0  0  0
  5  6  2  0  0  0  0
  5  7  1  0  0  0  0
  7 10  1  0  0  0  0
  7  8  1  0  0  0  0
  8  9  1  0  0  0  0
  8 25  1  0  0  0  0
  8 26  1  0  0  0  0
  9 10  1  0  0  0  0
  9 27  1  0  0  0  0
  9 28  1  0  0  0  0
 10 29  1  0  0  0  0
 10 30  1  0  0  0  0
 11 12  1  0  0  0  0
 11 13  1  0  0  0  0
 11 31  1  0  0  0  0
 12 32  1  0  0  0  0
 12 33  1  0  0  0  0
 12 34  1  0  0  0  0
 13 17  1  0  0  0  0
 13 14  1  0  0  0  0
 14 15  2  0  0  0  0
 14 35  1  0  0  0  0
 15 16  1  0  0  0  0
 15 36  1  0  0  0  0
 16 17  2  0  0  0  0
 16 37  1  0  0  0  0
M  CHG  1   3   1
M  END
> <s_m_source_file>
AV-unprocessed.smi

> <i_m_source_file_index>
3149

> <i_lp_mmshare_version>
43012

> <i_f3d_flags>
0

> <s_epik_input>
bjFbY0hdW2NIXVtjSF1uMVtDQEBIXShbQ0gzXSlbQ0BIXShbQ0gzXSlbTkhdW0NIMl1DKD1PKU4yW0NIMl1bQ0gyXVtDSDJdMg==

> <s_epik_cmdline>
J2VwaWtfcHl0aG9uJywgJy1waCcsICc3LjAnLCAnLXRuJywgJzgnLCAnLW1hJywgJzIwMCcsICctbWV0YWxfYmluZGluZycsICctaW1hZScsICc8aW5maWxlLm1hZT4nLCAnLW9tYWUnLCAnPG91dGZpbGUubWFlPic=

> <r_lp_tautomer_probability>
1

> <r_epik_Ionization_Penalty>
0.141739

> <r_epik_Ionization_Penalty_Charging>
0.141731

> <r_epik_Ionization_Penalty_Neutral>
8.82171e-06

> <r_epik_State_Penalty>
0.131043

> <r_epik_Charging_Adjusted_Penalty>
0.272773

> <i_epik_Tot_Q>
1

> <i_epik_Tot_abs_Q>
1

> <r_epik_Metal_State_Penalty>
0.131384

> <b_epik_Metal_Only>
0

> <s_lp_Force_Field>
OPLS_2005

> <r_lp_Energy>
20.424

> <b_lp_Chiralities_Consistent>
1

> <s_lp_Variant>
AV-unprocessed.smi:3149-4

> <Gold.Version>
5.8.1

> <Gold.Id.Protein>
6NUR|6NUR_protein|mol2

> <Gold.PLP.Fitness>
46.3818

> <Gold.PLP.PLP>
-42.4723

> <Gold.PLP.part.hbond>
-1.0000

> <Gold.PLP.part.metal>
0.0000

> <Gold.PLP.part.buried>
-2.9622

> <Gold.PLP.part.nonpolar>
-39.1361

> <Gold.PLP.part.repulsive>
0.2431

> <Gold.PLP.ligand.clash>
0.0000

> <Gold.PLP.ligand.torsion>
1.5297

> <Gold.PLP.Chemscore.Hbond>
1.0000

> <Gold.PLP.Chemscore.CHOScore>
0.9823

> <Gold.PLP.Chemscore.Metal>
0.0000

> <Gold.Chemscore.Hbonds>
donor molecule, donor type, donor heavy atom, donor atom, acceptor molecule, acceptor atom, score
      P1  H  7989  7998       L1    17  1.00
      L1  C    16    37       P1  7957  0.78

> <Gold.PLP.Chemscore.Internal.Correction>
1.0220

> <Gold.Rescore>
     Score         DG    S(hbond)    S(metal)    S(lipo)     H(rot)  DE(clash)    DE(int)     intcor
     12.04     -13.94       0.82        0.00      89.61       1.85       0.02       1.88       ----

> <Gold.Chemscore.Fitness>
12.0409

> <Gold.Chemscore.DG>
-13.9397

> <Gold.Chemscore.ZeroCoef>
-5.4800

> <Gold.Chemscore.Hbond>
0.8152

> <Gold.Chemscore.Metal>
0.0000

> <Gold.Chemscore.Lipo>
89.6076

> <Gold.Chemscore.Internal_Hbond>
0.0000

> <Gold.Chemscore.DEClash>
0.0197

> <Gold.Chemscore.DEInternal>
1.8791

> <Gold.Chemscore.Rot>
1.8544

> <Gold.Chemscore.Internal.Correction>
   9.000000E+99

> <Gold.Chemscore.Hbonds>
donor molecule, donor type, donor heavy atom, donor atom, acceptor molecule, acceptor atom, score
      P1  H  7989  7998       L1    17  0.25

> <Gold.Chemscore.Hbond.Weighted>
-2.7227

> <Gold.Chemscore.Metal.Weighted>
-0.0000

> <Gold.Chemscore.Lipo.Weighted>
-10.4841

> <Gold.Chemscore.Internal_Hbond.Weighted>
0.0000

> <Gold.Chemscore.DEClash.Weighted>
0.0197

> <Gold.Chemscore.DEInternal.Weighted>
1.8791

> <Gold.Chemscore.Rot.Weighted>
4.7472

> <Gold.Chemscore.Internal.Correction.Weighted>
   9.000000E+99

> <Gold.Protein.RotatedTorsions>
[ 6907 6896 6895 6894 ] final -149.81 input  -60.11 | X-H torsion
[ 7974 7965 7964 7962 ] final -138.39 input  175.53 | X-H torsion
[ 8008 7997 7996 7995 ] final   62.67 input   59.86 | X-H torsion
[ 10167 10162 10161 10158 ] final   11.58 input  -65.29 | X-H torsion
[ 10718 10713 10712 10709 ] final   81.32 input   66.30 | X-H torsion
[ 10763 10752 10751 10750 ] final   84.81 input  -60.55 | X-H torsion
[ 11005 11000 10999 10996 ] final  152.51 input  -57.11 | X-H torsion

> <Gold.Protein.ActiveResidues>
 VAL166  LYS551  ARG553  GLY616  TRP617  ASP618  TYR619  PRO620  LYS621  CYS622 
 ASP623  PHE694  ASN695  SER759  ASP760  ASP761  ALA762  ILE779  LEU786  VAL792 
 PHE793  MET794  SER795  GLU796  ALA797  LYS798  CYS799  TRP800  GLU811  SER814 

> <Gold.Protein.RotatedAtoms>
  151.1895  133.4676  159.2594 H   0  0  0  0  0  0  0  0  0  0  0  0  # atno 6907 bound_to 6896
  151.1178  135.0062  159.8534 H   0  0  0  0  0  0  0  0  0  0  0  0  # atno 6908 bound_to 6896
  152.5454  134.1809  159.8688 H   0  0  0  0  0  0  0  0  0  0  0  0  # atno 6909 bound_to 6896
  144.8762  140.6441  143.5235 H   0  0  0  0  0  0  0  0  0  0  0  0  # atno 7974 bound_to 7965
  155.6181  140.3495  155.4643 H   0  0  0  0  0  0  0  0  0  0  0  0  # atno 8008 bound_to 7997
  156.0101  140.1231  157.0486 H   0  0  0  0  0  0  0  0  0  0  0  0  # atno 8009 bound_to 7997
  154.4278  140.1083  156.5804 H   0  0  0  0  0  0  0  0  0  0  0  0  # atno 8010 bound_to 7997
  140.6122  143.8383  150.7079 H   0  0  0  0  0  0  0  0  0  0  0  0  # atno 10167 bound_to 10162
  157.6830  130.9999  150.2209 H   0  0  0  0  0  0  0  0  0  0  0  0  # atno 10718 bound_to 10713
  153.1416  135.4640  154.9504 H   0  0  0  0  0  0  0  0  0  0  0  0  # atno 10763 bound_to 10752
  154.7751  135.3171  154.8110 H   0  0  0  0  0  0  0  0  0  0  0  0  # atno 10764 bound_to 10752
  153.8632  135.6910  153.4835 H   0  0  0  0  0  0  0  0  0  0  0  0  # atno 10765 bound_to 10752
  140.1314  134.8799  157.2209 H   0  0  0  0  0  0  0  0  0  0  0  0  # atno 11005 bound_to 11000
  145.4037  139.1593  143.4163 LP  0  0  0  0  0  0  0  0  0  0  0  0  # atno 17320 bound_to 7965
  146.2964  140.4136  142.8720 LP  0  0  0  0  0  0  0  0  0  0  0  0  # atno 17321 bound_to 7965
  140.1954  143.4002  152.1832 LP  0  0  0  0  0  0  0  0  0  0  0  0  # atno 17342 bound_to 10162
  139.5370  144.7220  151.4858 LP  0  0  0  0  0  0  0  0  0  0  0  0  # atno 17343 bound_to 10162
  156.2861  130.3739  149.7887 LP  0  0  0  0  0  0  0  0  0  0  0  0  # atno 17370 bound_to 10713
  156.5561  130.8363  151.3314 LP  0  0  0  0  0  0  0  0  0  0  0  0  # atno 17371 bound_to 10713
  140.2837  134.3320  155.7335 LP  0  0  0  0  0  0  0  0  0  0  0  0  # atno 17394 bound_to 11000
  141.2171  133.7493  156.9402 LP  0  0  0  0  0  0  0  0  0  0  0  0  # atno 17395 bound_to 11000

$$$$
