#       Name:                AV-unprocessed.smi:572
#       Creating user name   scv26
#       Creation time:       Thu Mar 26 23:47:10 2020


#       File generated by GOLD software.
#

@<TRIPOS>MOLECULE
AV-unprocessed.smi:572
    53    55     1
SMALL
NO_CHARGES


@<TRIPOS>ATOM
      1 ****        -0.3053   3.4298  -3.2579 C.3            1 S1                 0.0000
      2 ****        -0.5245   3.2115  -1.8751 O.3            1 S1                 0.0000
      3 ****        -0.8931   1.8739  -1.5897 C.3            1 S1                 0.0000
      4 ****        -1.0741   1.7232  -0.0749 C.3            1 S1                 0.0000
      5 ****        -1.4322   0.3459   0.2938 N.pl3          1 S1                 0.0000
      6 ****        -0.6564  -0.7343   0.5902 C.2            1 S1                 0.0000
      7 ****         0.8127  -0.7734   0.6272 C.ar           1 S1                 0.0000
      8 ****         1.5356   0.0772   1.4876 C.ar           1 S1                 0.0000
      9 ****         2.9506   0.0465   1.5265 C.ar           1 S1                 0.0000
     10 ****         3.7133   0.8556   2.3441 O.3            1 S1                 0.0000
     11 ****         3.0442   1.7859   3.1829 C.3            1 S1                 0.0000
     12 ****         3.6345  -0.8585   0.6868 C.ar           1 S1                 0.0000
     13 ****         5.0001  -0.8951   0.7148 O.3            1 S1                 0.0000
     14 ****         2.9329  -1.7239  -0.1804 C.ar           1 S1                 0.0000
     15 ****         3.6783  -2.5760  -0.9697 O.3            1 S1                 0.0000
     16 ****         2.9938  -3.4205  -1.8831 C.3            1 S1                 0.0000
     17 ****         1.5177  -1.6733  -0.1966 C.ar           1 S1                 0.0000
     18 ****        -1.4665  -1.8016   0.8220 N.pl3          1 S1                 1.0000
     19 ****        -2.7961  -1.3982   0.6805 C.ar           1 S1                 0.0000
     20 ****        -3.9816  -2.1132   0.8201 C.ar           1 S1                 0.0000
     21 ****        -5.1795  -1.4037   0.5950 C.ar           1 S1                 0.0000
     22 ****        -5.1698  -0.0385   0.2428 C.ar           1 S1                 0.0000
     23 ****        -3.9627   0.6780   0.1039 C.ar           1 S1                 0.0000
     24 ****        -2.7817  -0.0271   0.3348 C.ar           1 S1                 0.0000
     25 ****        -0.0305   4.4711  -3.4254 H              1 S1                 0.0000
     26 ****        -1.2050   3.2212  -3.8383 H              1 S1                 0.0000
     27 ****         0.5063   2.8042  -3.6320 H              1 S1                 0.0000
     28 ****        -1.8192   1.6223  -2.1093 H              1 S1                 0.0000
     29 ****        -0.1192   1.1898  -1.9421 H              1 S1                 0.0000
     30 ****        -0.1501   1.9856   0.4386 H              1 S1                 0.0000
     31 ****        -1.8358   2.4064   0.3013 H              1 S1                 0.0000
     32 ****         0.9763   0.7506   2.1192 H              1 S1                 0.0000
     33 ****         3.7812   2.3488   3.7554 H              1 S1                 0.0000
     34 ****         2.3895   1.2818   3.8950 H              1 S1                 0.0000
     35 ****         2.4625   2.5016   2.6002 H              1 S1                 0.0000
     36 ****         5.3694  -0.2735   1.3234 H              1 S1                 0.0000
     37 ****         3.7210  -4.0100  -2.4412 H              1 S1                 0.0000
     38 ****         2.4161  -2.8415  -2.6046 H              1 S1                 0.0000
     39 ****         2.3335  -4.1166  -1.3646 H              1 S1                 0.0000
     40 ****         0.9450  -2.3178  -0.8460 H              1 S1                 0.0000
     41 ****        -3.9926  -3.1601   1.0858 H              1 S1                 0.0000
     42 ****        -6.1249  -1.9176   0.6920 H              1 S1                 0.0000
     43 ****        -6.1082   0.4702   0.0752 H              1 S1                 0.0000
     44 ****        -3.9690   1.7230  -0.1685 H              1 S1                 0.0000
     45 ****        -1.1352  -2.7278   1.0591 H              1 S1                 0.0000
     46 ****        -1.2566   3.8188  -1.5665 LP             1 S1                 0.0000
     47 ****         0.3171   3.4251  -1.3791 LP             1 S1                 0.0000
     48 ****         4.3281   1.3782   1.7535 LP             1 S1                 0.0000
     49 ****         4.2506   0.2555   2.9368 LP             1 S1                 0.0000
     50 ****         5.3444  -0.6892  -0.2012 LP             1 S1                 0.0000
     51 ****         5.2900  -1.8144   0.9811 LP             1 S1                 0.0000
     52 ****         4.2012  -3.1669  -0.3553 LP             1 S1                 0.0000
     53 ****         4.3070  -2.0107  -1.5036 LP             1 S1                 0.0000
@<TRIPOS>BOND
    1    1    2 1     
    2    1   25 1     
    3    1   26 1     
    4    1   27 1     
    5    2    3 1     
    6    3    4 1     
    7    3   28 1     
    8    3   29 1     
    9    4    5 1     
   10    4   30 1     
   11    4   31 1     
   12    5   24 1     
   13    5    6 1     
   14    6    7 1     
   15    6   18 2     
   16    7   17 ar    
   17    7    8 ar    
   18    8    9 ar    
   19    8   32 1     
   20    9   10 1     
   21    9   12 ar    
   22   10   11 1     
   23   11   33 1     
   24   11   34 1     
   25   11   35 1     
   26   12   13 1     
   27   12   14 ar    
   28   13   36 1     
   29   14   15 1     
   30   14   17 ar    
   31   15   16 1     
   32   16   37 1     
   33   16   38 1     
   34   16   39 1     
   35   17   40 1     
   36   18   19 1     
   37   18   45 1     
   38   19   24 ar    
   39   19   20 ar    
   40   20   21 ar    
   41   20   41 1     
   42   21   22 ar    
   43   21   42 1     
   44   22   23 ar    
   45   22   43 1     
   46   23   24 ar    
   47   23   44 1     
   48    2   46 1     
   49    2   47 1     
   50   10   48 1     
   51   10   49 1     
   52   13   50 1     
   53   13   51 1     
   54   15   52 1     
   55   15   53 1     
@<TRIPOS>SUBSTRUCTURE
      1 S1             1
@<TRIPOS>SET
LONE_PAIRS      STATIC     ATOMS    <user>   **** ""
8 46 47 48 49 50 51 52 53
DONOR_HYDROGENS      STATIC     ATOMS    <user>   **** ""
2 36 45
ATOM$BLUE        STATIC     ATOMS    COLORGROUP SYSTEM
8 46 47 48 49 50 51 52 53
ATOM$RED        STATIC     ATOMS    COLORGROUP SYSTEM
2 36 45
