AV-unprocessed.smi:164|AV-procd|sdf|1384|dock4
  -GOLD-   2262019113D 1   1.00000     0.00000
 Structure written by MMmdl.
 53 55  0  0  0  0  0  0  0  0  1 V2000
  152.9643  143.5469  163.2166 C   0  0  0  0  0  0  0  0  0  0  0  0
  152.5706  143.4872  161.7507 C   0  0  0  0  0  0  0  0  0  0  0  0
  151.8214  144.5479  161.2019 C   0  0  0  0  0  0  0  0  0  0  0  0
  151.4355  144.5226  159.8504 C   0  0  0  0  0  0  0  0  0  0  0  0
  151.8046  143.4397  159.0293 C   0  0  0  0  0  0  0  0  0  0  0  0
  151.3740  143.4206  157.5745 C   0  0  0  0  0  0  0  0  0  0  0  0
  152.5720  142.3800  159.5653 C   0  0  0  0  0  0  0  0  0  0  0  0
  152.9378  141.3390  158.7512 O   0  0  0  0  0  0  0  0  0  0  0  0
  152.1760  140.1587  158.9645 C   0  0  0  0  0  0  0  0  0  0  0  0
  153.0466  138.9346  158.6469 C   0  0  2  0  0  0  0  0  0  0  0  0
  154.3896  139.3067  158.8819 O   0  0  0  0  0  0  0  0  0  0  0  0
  152.8968  138.4867  157.1758 C   0  0  0  0  0  0  0  0  0  0  0  0
  151.5274  138.1704  156.8053 N   0  0  0  0  0  0  0  0  0  0  0  0
  151.0010  138.7624  155.6319 C   0  0  0  0  0  0  0  0  0  0  0  0
  151.6524  139.5481  154.9414 O   0  0  0  0  0  0  0  0  0  0  0  0
  149.6410  138.3495  155.3070 C   0  0  0  0  0  0  0  0  0  0  0  0
  149.0514  138.8214  154.1954 F   0  0  0  0  0  0  0  0  0  0  0  0
  148.9659  137.4851  156.0948 C   0  0  0  0  0  0  0  0  0  0  0  0
  149.4922  136.9453  157.2599 N   0  0  0  0  0  0  0  0  0  0  0  0
  148.7540  135.9063  158.0910 C   0  0  1  0  0  0  0  0  0  0  0  0
  148.5690  136.2900  159.5651 C   0  0  0  0  0  0  0  0  0  0  0  0
  147.1641  136.8859  159.5994 C   0  0  0  0  0  0  0  0  0  0  0  0
  146.6519  136.7639  158.1601 C   0  0  0  0  0  0  0  0  0  0  0  0
  147.4697  135.7598  157.5751 O   0  0  0  0  0  0  0  0  0  0  0  0
  150.8254  137.2482  157.6175 C   0  0  0  0  0  0  0  0  0  0  0  0
  151.3535  136.7205  158.5995 O   0  0  0  0  0  0  0  0  0  0  0  0
  152.9405  142.3891  160.9343 C   0  0  0  0  0  0  0  0  0  0  0  0
  153.7287  141.2270  161.5237 C   0  0  0  0  0  0  0  0  0  0  0  0
  152.7420  144.5235  163.6480 H   0  0  0  0  0  0  0  0  0  0  0  0
  154.0328  143.3666  163.3378 H   0  0  0  0  0  0  0  0  0  0  0  0
  152.4177  142.7957  163.7870 H   0  0  0  0  0  0  0  0  0  0  0  0
  151.5333  145.3867  161.8184 H   0  0  0  0  0  0  0  0  0  0  0  0
  150.8550  145.3395  159.4474 H   0  0  0  0  0  0  0  0  0  0  0  0
  150.9190  142.4621  157.3237 H   0  0  0  0  0  0  0  0  0  0  0  0
  152.2323  143.5762  156.9211 H   0  0  0  0  0  0  0  0  0  0  0  0
  150.6430  144.2023  157.3669 H   0  0  0  0  0  0  0  0  0  0  0  0
  151.8111  140.1089  159.9920 H   0  0  0  0  0  0  0  0  0  0  0  0
  151.3009  140.1749  158.3130 H   0  0  0  0  0  0  0  0  0  0  0  0
  152.7850  138.1282  159.3330 H   0  0  0  0  0  0  0  0  0  0  0  0
  154.6705  138.9199  159.6971 H   0  0  0  0  0  0  0  0  0  0  0  0
  153.2168  139.2718  156.4888 H   0  0  0  0  0  0  0  0  0  0  0  0
  153.5411  137.6414  156.9291 H   0  0  0  0  0  0  0  0  0  0  0  0
  147.9755  137.2066  155.7717 H   0  0  0  0  0  0  0  0  0  0  0  0
  149.3354  134.9884  157.9897 H   0  0  0  0  0  0  0  0  0  0  0  0
  148.5916  135.3753  160.1586 H   0  0  0  0  0  0  0  0  0  0  0  0
  149.3602  136.9417  159.9354 H   0  0  0  0  0  0  0  0  0  0  0  0
  146.5328  136.3151  160.2813 H   0  0  0  0  0  0  0  0  0  0  0  0
  147.1624  137.9233  159.9350 H   0  0  0  0  0  0  0  0  0  0  0  0
  145.5975  136.4919  158.1139 H   0  0  0  0  0  0  0  0  0  0  0  0
  146.7793  137.7028  157.6199 H   0  0  0  0  0  0  0  0  0  0  0  0
  153.7068  140.3467  160.8818 H   0  0  0  0  0  0  0  0  0  0  0  0
  153.3183  140.9263  162.4876 H   0  0  0  0  0  0  0  0  0  0  0  0
  154.7700  141.5152  161.6680 H   0  0  0  0  0  0  0  0  0  0  0  0
  1  2  1  0  0  0  0
  1 29  1  0  0  0  0
  1 30  1  0  0  0  0
  1 31  1  0  0  0  0
  2 27  1  0  0  0  0
  2  3  2  0  0  0  0
  3  4  1  0  0  0  0
  3 32  1  0  0  0  0
  4  5  2  0  0  0  0
  4 33  1  0  0  0  0
  5  6  1  0  0  0  0
  5  7  1  0  0  0  0
  6 34  1  0  0  0  0
  6 35  1  0  0  0  0
  6 36  1  0  0  0  0
  7  8  1  0  0  0  0
  7 27  2  0  0  0  0
  8  9  1  0  0  0  0
  9 10  1  0  0  0  0
  9 37  1  0  0  0  0
  9 38  1  0  0  0  0
 10 11  1  0  0  0  0
 10 12  1  0  0  0  0
 10 39  1  0  0  0  0
 11 40  1  0  0  0  0
 12 13  1  0  0  0  0
 12 41  1  0  0  0  0
 12 42  1  0  0  0  0
 13 25  1  0  0  0  0
 13 14  1  0  0  0  0
 14 15  2  0  0  0  0
 14 16  1  0  0  0  0
 16 17  1  0  0  0  0
 16 18  2  0  0  0  0
 18 19  1  0  0  0  0
 18 43  1  0  0  0  0
 19 20  1  0  0  0  0
 19 25  1  0  0  0  0
 20 24  1  0  0  0  0
 20 21  1  0  0  0  0
 20 44  1  0  0  0  0
 21 22  1  0  0  0  0
 21 45  1  0  0  0  0
 21 46  1  0  0  0  0
 22 23  1  0  0  0  0
 22 47  1  0  0  0  0
 22 48  1  0  0  0  0
 23 24  1  0  0  0  0
 23 49  1  0  0  0  0
 23 50  1  0  0  0  0
 25 26  2  0  0  0  0
 27 28  1  0  0  0  0
 28 51  1  0  0  0  0
 28 52  1  0  0  0  0
 28 53  1  0  0  0  0
M  END
> <s_m_source_file>
AV-unprocessed.smi

> <i_m_source_file_index>
164

> <i_lp_mmshare_version>
43012

> <i_f3d_flags>
0

> <s_epik_input>
W0NIM11jMVtjSF1bY0hdYyhbQ0gzXSljKGMxW0NIM10pT1tDSDJdW0NASF0oW09IXSlbQ0gyXW4yYyg9TyljKEYpW2NIXW4oYzI9TylbQ0BASF0zW0NIMl1bQ0gyXVtDSDJdTzM=

> <s_epik_cmdline>
J2VwaWtfcHl0aG9uJywgJy1waCcsICc3LjAnLCAnLXRuJywgJzgnLCAnLW1hJywgJzIwMCcsICctbWV0YWxfYmluZGluZycsICctaW1hZScsICc8aW5maWxlLm1hZT4nLCAnLW9tYWUnLCAnPG91dGZpbGUubWFlPic=

> <r_lp_tautomer_probability>
1

> <r_epik_Ionization_Penalty>
1.45842e-07

> <r_epik_Ionization_Penalty_Charging>
2.86622e-08

> <r_epik_Ionization_Penalty_Neutral>
1.1718e-07

> <r_epik_State_Penalty>
-0

> <r_epik_Charging_Adjusted_Penalty>
2.86622e-08

> <i_epik_Tot_Q>
0

> <i_epik_Tot_abs_Q>
0

> <r_epik_Metal_State_Penalty>
-0

> <b_epik_Metal_Only>
0

> <s_epik_Chemistry_Notes>
This compound contains an acetal/aminal-like group ( X-CH(R)-Y where X, Y are N, S, or O) that may be acid/base labile, releasing an aldehyde.

> <s_lp_Force_Field>
OPLS_2005

> <r_lp_Energy>
42.2677

> <b_lp_Chiralities_Consistent>
1

> <s_lp_Variant>
AV-unprocessed.smi:164-3

> <Gold.Version>
5.8.1

> <Gold.Id.Protein>
6NUR|6NUR_protein|mol2

> <Gold.PLP.Fitness>
55.4583

> <Gold.PLP.PLP>
-48.7509

> <Gold.PLP.part.hbond>
-3.1134

> <Gold.PLP.part.metal>
0.0000

> <Gold.PLP.part.buried>
-5.8725

> <Gold.PLP.part.nonpolar>
-38.9479

> <Gold.PLP.part.repulsive>
0.0339

> <Gold.PLP.ligand.clash>
0.0000

> <Gold.PLP.ligand.torsion>
0.9197

> <Gold.PLP.Chemscore.Hbond>
2.7680

> <Gold.PLP.Chemscore.CHOScore>
0.0000

> <Gold.PLP.Chemscore.Metal>
0.0000

> <Gold.Chemscore.Hbonds>
donor molecule, donor type, donor heavy atom, donor atom, acceptor molecule, acceptor atom, score
      P1  H  6896  6908       L1    26  0.80
      P1  H  7989  7998       L1    15  1.00
      P1  H  7997  8008       L1    11  1.00

> <Gold.PLP.Chemscore.Internal.Correction>
0.2429

> <Gold.Rescore>
     Score         DG    S(hbond)    S(metal)    S(lipo)     H(rot)  DE(clash)    DE(int)     intcor
     20.36     -22.81       2.69        0.00     131.10       2.73       0.12       2.33       ----

> <Gold.Chemscore.Fitness>
20.3572

> <Gold.Chemscore.DG>
-22.8150

> <Gold.Chemscore.ZeroCoef>
-5.4800

> <Gold.Chemscore.Hbond>
2.6913

> <Gold.Chemscore.Metal>
0.0000

> <Gold.Chemscore.Lipo>
131.0976

> <Gold.Chemscore.Internal_Hbond>
0.0000

> <Gold.Chemscore.DEClash>
0.1243

> <Gold.Chemscore.DEInternal>
2.3335

> <Gold.Chemscore.Rot>
2.7315

> <Gold.Chemscore.Internal.Correction>
   9.000000E+99

> <Gold.Chemscore.Hbonds>
donor molecule, donor type, donor heavy atom, donor atom, acceptor molecule, acceptor atom, score
      P1  H  6896  6908       L1    26  0.74
      P1  H  7989  7998       L1    15  0.97
      P1  H  7997  8008       L1    11  0.74

> <Gold.Chemscore.Hbond.Weighted>
-8.9891

> <Gold.Chemscore.Metal.Weighted>
-0.0000

> <Gold.Chemscore.Lipo.Weighted>
-15.3384

> <Gold.Chemscore.Internal_Hbond.Weighted>
0.0000

> <Gold.Chemscore.DEClash.Weighted>
0.1243

> <Gold.Chemscore.DEInternal.Weighted>
2.3335

> <Gold.Chemscore.Rot.Weighted>
6.9925

> <Gold.Chemscore.Internal.Correction.Weighted>
   9.000000E+99

> <Gold.Protein.RotatedTorsions>
[ 6907 6896 6895 6894 ] final -139.01 input  -60.11 | X-H torsion
[ 7974 7965 7964 7962 ] final  -26.67 input  175.53 | X-H torsion
[ 8008 7997 7996 7995 ] final -121.39 input   59.86 | X-H torsion
[ 10167 10162 10161 10158 ] final  106.85 input  -65.29 | X-H torsion
[ 10718 10713 10712 10709 ] final   -4.95 input   66.30 | X-H torsion
[ 10763 10752 10751 10750 ] final  -44.67 input  -60.55 | X-H torsion
[ 11005 11000 10999 10996 ] final  138.77 input  -57.11 | X-H torsion

> <Gold.Protein.ActiveResidues>
 VAL166  LYS551  ARG553  GLY616  TRP617  ASP618  TYR619  PRO620  LYS621  CYS622 
 ASP623  PHE694  ASN695  SER759  ASP760  ASP761  ALA762  ILE779  LEU786  VAL792 
 PHE793  MET794  SER795  GLU796  ALA797  LYS798  CYS799  TRP800  GLU811  SER814 

> <Gold.Protein.RotatedAtoms>
  151.0423  133.5696  159.2649 H   0  0  0  0  0  0  0  0  0  0  0  0  # atno 6907 bound_to 6896
  151.2738  135.0692  159.9153 H   0  0  0  0  0  0  0  0  0  0  0  0  # atno 6908 bound_to 6896
  152.5366  134.0149  159.8009 H   0  0  0  0  0  0  0  0  0  0  0  0  # atno 6909 bound_to 6896
  146.1410  140.5050  142.8652 H   0  0  0  0  0  0  0  0  0  0  0  0  # atno 7974 bound_to 7965
  155.1473  140.0403  157.2813 H   0  0  0  0  0  0  0  0  0  0  0  0  # atno 8008 bound_to 7997
  154.6429  140.2551  155.7274 H   0  0  0  0  0  0  0  0  0  0  0  0  # atno 8009 bound_to 7997
  156.2541  140.2852  156.0831 H   0  0  0  0  0  0  0  0  0  0  0  0  # atno 8010 bound_to 7997
  139.6975  144.7099  151.1242 H   0  0  0  0  0  0  0  0  0  0  0  0  # atno 10167 bound_to 10162
  156.7538  130.5248  149.5798 H   0  0  0  0  0  0  0  0  0  0  0  0  # atno 10718 bound_to 10713
  154.0160  135.6675  153.4769 H   0  0  0  0  0  0  0  0  0  0  0  0  # atno 10763 bound_to 10752
  153.0600  135.5033  154.8068 H   0  0  0  0  0  0  0  0  0  0  0  0  # atno 10764 bound_to 10752
  154.6967  135.3071  154.9366 H   0  0  0  0  0  0  0  0  0  0  0  0  # atno 10765 bound_to 10752
  140.0207  134.9398  157.0469 H   0  0  0  0  0  0  0  0  0  0  0  0  # atno 11005 bound_to 11000
  144.7792  140.5805  143.6617 LP  0  0  0  0  0  0  0  0  0  0  0  0  # atno 17320 bound_to 7965
  145.5047  139.1482  143.3638 LP  0  0  0  0  0  0  0  0  0  0  0  0  # atno 17321 bound_to 7965
  140.7700  143.5471  150.9247 LP  0  0  0  0  0  0  0  0  0  0  0  0  # atno 17342 bound_to 10162
  139.9151  143.6673  152.3108 LP  0  0  0  0  0  0  0  0  0  0  0  0  # atno 17343 bound_to 10162
  156.1384  130.6227  151.0432 LP  0  0  0  0  0  0  0  0  0  0  0  0  # atno 17370 bound_to 10713
  157.6765  131.0849  150.7480 LP  0  0  0  0  0  0  0  0  0  0  0  0  # atno 17371 bound_to 10713
  140.4392  134.1699  155.7172 LP  0  0  0  0  0  0  0  0  0  0  0  0  # atno 17394 bound_to 11000
  141.1772  133.8489  157.1381 LP  0  0  0  0  0  0  0  0  0  0  0  0  # atno 17395 bound_to 11000

$$$$
