AV-unprocessed.smi:2351|AV-procd|sdf|9374|dock3
  -GOLD-   2272013 03D 1   1.00000     0.00000
 Structure written by MMmdl.
 47 49  0  0  0  0  0  0  0  0  2 V2000
  150.8797  140.7616  156.5091 O   0  0  0  0  0  0  0  0  0  0  0  0
  150.2516  141.8201  156.4749 C   0  0  0  0  0  0  0  0  0  0  0  0
  150.3708  142.8151  157.3690 N   0  0  0  0  0  0  0  0  0  0  0  0
  151.2087  142.8347  158.5136 C   0  0  0  0  0  0  0  0  0  0  0  0
  151.7255  141.6099  158.9838 C   0  0  0  0  0  0  0  0  0  0  0  0
  152.5768  141.6213  160.1069 C   0  0  0  0  0  0  0  0  0  0  0  0
  152.9390  142.7502  160.7522 N   0  0  0  0  0  0  0  0  0  0  0  0
  152.4634  143.9240  160.2839 C   0  0  0  0  0  0  0  0  0  0  0  0
  151.6077  144.0263  159.1682 C   0  0  0  0  0  0  0  0  0  0  0  0
  151.2147  145.2472  158.7319 F   0  0  0  0  0  0  0  0  0  0  0  0
  149.3684  142.1265  155.5135 N   0  0  0  0  0  0  0  0  0  0  0  0
  149.0142  141.2582  154.3944 C   0  0  2  0  0  0  0  0  0  0  0  0
  147.7038  141.7398  153.7524 C   0  0  0  0  0  0  0  0  0  0  0  0
  147.2571  140.7946  152.6245 C   0  0  0  0  0  0  0  0  0  0  0  0
  147.1113  139.4001  153.1166 N   0  3  1  0  0  0  0  0  0  0  0  0
  146.5472  138.4943  152.0831 C   0  0  0  0  0  0  0  0  0  0  0  0
  145.8172  137.2811  152.6927 C   0  0  2  0  0  0  0  0  0  0  0  0
  145.3586  136.2671  151.6641 C   0  0  0  0  0  0  0  0  0  0  0  0
  144.3010  135.4863  152.4388 C   0  0  0  0  0  0  0  0  0  0  0  0
  143.7264  136.4158  153.3531 O   0  0  0  0  0  0  0  0  0  0  0  0
  144.4887  137.6185  153.3721 C   0  0  0  0  0  0  0  0  0  0  0  0
  148.3797  138.8975  153.7085 C   0  0  0  0  0  0  0  0  0  0  0  0
  148.8512  139.7998  154.8604 C   0  0  0  0  0  0  0  0  0  0  0  0
  149.8972  143.6800  157.1532 H   0  0  0  0  0  0  0  0  0  0  0  0
  151.4692  140.6767  158.5037 H   0  0  0  0  0  0  0  0  0  0  0  0
  152.9795  140.6978  160.4960 H   0  0  0  0  0  0  0  0  0  0  0  0
  152.7866  144.8122  160.8066 H   0  0  0  0  0  0  0  0  0  0  0  0
  148.9053  143.0225  155.5614 H   0  0  0  0  0  0  0  0  0  0  0  0
  149.8034  141.3069  153.6412 H   0  0  0  0  0  0  0  0  0  0  0  0
  146.9185  141.7979  154.5078 H   0  0  0  0  0  0  0  0  0  0  0  0
  147.8289  142.7492  153.3585 H   0  0  0  0  0  0  0  0  0  0  0  0
  146.3056  141.1459  152.2237 H   0  0  0  0  0  0  0  0  0  0  0  0
  147.9758  140.8196  151.8037 H   0  0  0  0  0  0  0  0  0  0  0  0
  145.8384  139.0444  151.4622 H   0  0  0  0  0  0  0  0  0  0  0  0
  147.3435  138.1654  151.4137 H   0  0  0  0  0  0  0  0  0  0  0  0
  146.4585  136.7629  153.4059 H   0  0  0  0  0  0  0  0  0  0  0  0
  144.8996  136.7679  150.8102 H   0  0  0  0  0  0  0  0  0  0  0  0
  146.1661  135.6343  151.2946 H   0  0  0  0  0  0  0  0  0  0  0  0
  143.5454  135.0482  151.7863 H   0  0  0  0  0  0  0  0  0  0  0  0
  144.7643  134.6806  153.0096 H   0  0  0  0  0  0  0  0  0  0  0  0
  144.6221  137.9867  154.3897 H   0  0  0  0  0  0  0  0  0  0  0  0
  143.9449  138.3774  152.8076 H   0  0  0  0  0  0  0  0  0  0  0  0
  148.2487  137.8852  154.0881 H   0  0  0  0  0  0  0  0  0  0  0  0
  149.1486  138.8463  152.9360 H   0  0  0  0  0  0  0  0  0  0  0  0
  149.7945  139.4212  155.2562 H   0  0  0  0  0  0  0  0  0  0  0  0
  148.1311  139.7490  155.6786 H   0  0  0  0  0  0  0  0  0  0  0  0
  146.4321  139.4376  153.8633 H   0  0  0  0  0  0  0  0  0  0  0  0
  1  2  2  0  0  0  0
  2  3  1  0  0  0  0
  2 11  1  0  0  0  0
  3  4  1  0  0  0  0
  3 24  1  0  0  0  0
  4  9  1  0  0  0  0
  4  5  2  0  0  0  0
  5  6  1  0  0  0  0
  5 25  1  0  0  0  0
  6  7  2  0  0  0  0
  6 26  1  0  0  0  0
  7  8  1  0  0  0  0
  8  9  2  0  0  0  0
  8 27  1  0  0  0  0
  9 10  1  0  0  0  0
 11 12  1  0  0  0  0
 11 28  1  0  0  0  0
 12 23  1  0  0  0  0
 12 13  1  0  0  0  0
 12 29  1  0  0  0  0
 13 14  1  0  0  0  0
 13 30  1  0  0  0  0
 13 31  1  0  0  0  0
 14 15  1  0  0  0  0
 14 32  1  0  0  0  0
 14 33  1  0  0  0  0
 15 16  1  0  0  0  0
 15 22  1  0  0  0  0
 15 47  1  0  0  0  0
 16 17  1  0  0  0  0
 16 34  1  0  0  0  0
 16 35  1  0  0  0  0
 17 21  1  0  0  0  0
 17 18  1  0  0  0  0
 17 36  1  0  0  0  0
 18 19  1  0  0  0  0
 18 37  1  0  0  0  0
 18 38  1  0  0  0  0
 19 20  1  0  0  0  0
 19 39  1  0  0  0  0
 19 40  1  0  0  0  0
 20 21  1  0  0  0  0
 21 41  1  0  0  0  0
 21 42  1  0  0  0  0
 22 23  1  0  0  0  0
 22 43  1  0  0  0  0
 22 44  1  0  0  0  0
 23 45  1  0  0  0  0
 23 46  1  0  0  0  0
M  CHG  1  15   1
M  END
> <s_m_source_file>
AV-unprocessed.smi

> <i_m_source_file_index>
2351

> <i_lp_mmshare_version>
43012

> <i_f3d_flags>
0

> <s_epik_input>
RmMxW2NIXW5bY0hdW2NIXWMxW05IXUMoPU8pW05IXVtDSF0yW0NIMl1bQ0gyXU4oW0NIMl1bQ0gyXTIpW0NIMl1bQ0BASF0zW0NIMl1bQ0gyXU9bQ0gyXTM=

> <s_epik_cmdline>
J2VwaWtfcHl0aG9uJywgJy1waCcsICc3LjAnLCAnLXRuJywgJzgnLCAnLW1hJywgJzIwMCcsICctbWV0YWxfYmluZGluZycsICctaW1hZScsICc8aW5maWxlLm1hZT4nLCAnLW9tYWUnLCAnPG91dGZpbGUubWFlPic=

> <r_epik_Ionization_Penalty>
0.0102464

> <r_epik_Ionization_Penalty_Charging>
0.00747775

> <r_epik_Ionization_Penalty_Neutral>
0.00276864

> <r_epik_State_Penalty>
0.00558817

> <r_epik_Charging_Adjusted_Penalty>
0.0130659

> <i_epik_Tot_Q>
1

> <i_epik_Tot_abs_Q>
1

> <r_epik_Metal_State_Penalty>
-0

> <b_epik_Metal_Only>
0

> <s_lp_Force_Field>
OPLS_2005

> <r_lp_Energy>
40.2239

> <b_lp_Chiralities_Consistent>
1

> <s_lp_Variant>
AV-unprocessed.smi:2351-1

> <Gold.Version>
5.8.1

> <Gold.Id.Protein>
6NUR|6NUR_protein|mol2

> <Gold.PLP.Fitness>
48.1675

> <Gold.PLP.PLP>
-43.7549

> <Gold.PLP.part.hbond>
-2.1661

> <Gold.PLP.part.metal>
0.0000

> <Gold.PLP.part.buried>
-3.9933

> <Gold.PLP.part.nonpolar>
-37.0623

> <Gold.PLP.part.repulsive>
0.2985

> <Gold.PLP.ligand.clash>
0.0212

> <Gold.PLP.ligand.torsion>
0.5747

> <Gold.PLP.Chemscore.Hbond>
1.8063

> <Gold.PLP.Chemscore.CHOScore>
0.0000

> <Gold.PLP.Chemscore.Metal>
0.0000

> <Gold.Chemscore.Hbonds>
donor molecule, donor type, donor heavy atom, donor atom, acceptor molecule, acceptor atom, score
      L1  H     3    24       P1  8028  0.82
      L1  H    11    28       P1  8028  1.00

> <Gold.PLP.Chemscore.Internal.Correction>
0.1642

> <Gold.Rescore>
     Score         DG    S(hbond)    S(metal)    S(lipo)     H(rot)  DE(clash)    DE(int)     intcor
     17.78     -21.22       1.94        0.00     110.78       1.45       0.13       3.31       ----

> <Gold.Chemscore.Fitness>
17.7782

> <Gold.Chemscore.DG>
-21.2232

> <Gold.Chemscore.ZeroCoef>
-5.4800

> <Gold.Chemscore.Hbond>
1.9431

> <Gold.Chemscore.Metal>
0.0000

> <Gold.Chemscore.Lipo>
110.7781

> <Gold.Chemscore.Internal_Hbond>
0.0000

> <Gold.Chemscore.DEClash>
0.1334

> <Gold.Chemscore.DEInternal>
3.3116

> <Gold.Chemscore.Rot>
1.4483

> <Gold.Chemscore.Internal.Correction>
   9.000000E+99

> <Gold.Chemscore.Hbonds>
donor molecule, donor type, donor heavy atom, donor atom, acceptor molecule, acceptor atom, score
      L1  H     3    24       P1  8028  0.72
      L1  H    11    28       P1  8028  0.98

> <Gold.Chemscore.Hbond.Weighted>
-6.4898

> <Gold.Chemscore.Metal.Weighted>
-0.0000

> <Gold.Chemscore.Lipo.Weighted>
-12.9610

> <Gold.Chemscore.Internal_Hbond.Weighted>
0.0000

> <Gold.Chemscore.DEClash.Weighted>
0.1334

> <Gold.Chemscore.DEInternal.Weighted>
3.3116

> <Gold.Chemscore.Rot.Weighted>
3.7077

> <Gold.Chemscore.Internal.Correction.Weighted>
   9.000000E+99

> <Gold.Protein.RotatedTorsions>
[ 6907 6896 6895 6894 ] final  -90.50 input  -60.11 | X-H torsion
[ 7974 7965 7964 7962 ] final  110.86 input  175.53 | X-H torsion
[ 8008 7997 7996 7995 ] final   75.83 input   59.86 | X-H torsion
[ 10167 10162 10161 10158 ] final -140.27 input  -65.29 | X-H torsion
[ 10718 10713 10712 10709 ] final -150.10 input   66.30 | X-H torsion
[ 10763 10752 10751 10750 ] final  -77.18 input  -60.55 | X-H torsion
[ 11005 11000 10999 10996 ] final  -51.85 input  -57.11 | X-H torsion

> <Gold.Protein.ActiveResidues>
 VAL166  LYS551  ARG553  GLY616  TRP617  ASP618  TYR619  PRO620  LYS621  CYS622 
 ASP623  PHE694  ASN695  SER759  ASP760  ASP761  ALA762  ILE779  LEU786  VAL792 
 PHE793  MET794  SER795  GLU796  ALA797  LYS798  CYS799  TRP800  GLU811  SER814 

> <Gold.Protein.RotatedAtoms>
  150.6882  134.2422  159.4476 H   0  0  0  0  0  0  0  0  0  0  0  0  # atno 6907 bound_to 6896
  152.0365  134.9734  160.0582 H   0  0  0  0  0  0  0  0  0  0  0  0  # atno 6908 bound_to 6896
  152.1252  133.4341  159.4731 H   0  0  0  0  0  0  0  0  0  0  0  0  # atno 6909 bound_to 6896
  145.2495  139.2745  143.4075 H   0  0  0  0  0  0  0  0  0  0  0  0  # atno 7974 bound_to 7965
  155.8186  140.3470  155.5500 H   0  0  0  0  0  0  0  0  0  0  0  0  # atno 8008 bound_to 7997
  155.8366  140.0935  157.1780 H   0  0  0  0  0  0  0  0  0  0  0  0  # atno 8009 bound_to 7997
  154.4004  140.1402  156.3665 H   0  0  0  0  0  0  0  0  0  0  0  0  # atno 8010 bound_to 7997
  139.8298  143.7463  152.2666 H   0  0  0  0  0  0  0  0  0  0  0  0  # atno 10167 bound_to 10162
  156.4418  130.8125  151.2355 H   0  0  0  0  0  0  0  0  0  0  0  0  # atno 10718 bound_to 10713
  154.5096  135.5772  153.6594 H   0  0  0  0  0  0  0  0  0  0  0  0  # atno 10763 bound_to 10752
  152.9894  135.6155  154.2896 H   0  0  0  0  0  0  0  0  0  0  0  0  # atno 10764 bound_to 10752
  154.2810  135.2851  155.2676 H   0  0  0  0  0  0  0  0  0  0  0  0  # atno 10765 bound_to 10752
  141.0893  133.6636  156.3937 H   0  0  0  0  0  0  0  0  0  0  0  0  # atno 11005 bound_to 11000
  146.3306  140.2882  142.8614 LP  0  0  0  0  0  0  0  0  0  0  0  0  # atno 17320 bound_to 7965
  144.9515  140.8183  143.5569 LP  0  0  0  0  0  0  0  0  0  0  0  0  # atno 17321 bound_to 7965
  139.7667  144.7490  151.0285 LP  0  0  0  0  0  0  0  0  0  0  0  0  # atno 17342 bound_to 10162
  140.7807  143.4691  151.0171 LP  0  0  0  0  0  0  0  0  0  0  0  0  # atno 17343 bound_to 10162
  157.7506  131.0166  150.3550 LP  0  0  0  0  0  0  0  0  0  0  0  0  # atno 17370 bound_to 10713
  156.3909  130.3898  149.7030 LP  0  0  0  0  0  0  0  0  0  0  0  0  # atno 17371 bound_to 10713
  140.5290  134.6231  157.5343 LP  0  0  0  0  0  0  0  0  0  0  0  0  # atno 17394 bound_to 11000
  139.9716  134.7283  156.0030 LP  0  0  0  0  0  0  0  0  0  0  0  0  # atno 17395 bound_to 11000

$$$$
