AV-unprocessed.smi:2083|AV-procd|sdf|8496|dock3
  -GOLD-   2272011203D 1   1.00000     0.00000
 Structure written by MMmdl.
 45 46  0  0  0  0  0  0  0  0  2 V2000
  152.3504  139.8407  155.5146 C   0  0  0  0  0  0  0  0  0  0  0  0
  151.8402  138.4629  155.2656 C   0  0  0  0  0  0  0  0  0  0  0  0
  150.8352  137.9709  154.4810 C   0  0  0  0  0  0  0  0  0  0  0  0
  150.8961  136.5730  154.7230 C   0  0  0  0  0  0  0  0  0  0  0  0
  149.9971  135.6838  154.0811 N   0  0  0  0  0  0  0  0  0  0  0  0
  149.7796  134.3904  154.3732 C   0  0  0  0  0  0  0  0  0  0  0  0
  150.3316  133.7636  155.2780 O   0  0  0  0  0  0  0  0  0  0  0  0
  148.8725  133.8469  153.5485 N   0  0  0  0  0  0  0  0  0  0  0  0
  148.4119  132.4625  153.6142 C   0  0  0  0  0  0  0  0  0  0  0  0
  146.9474  132.3286  154.1218 C   0  0  2  0  0  0  0  0  0  0  0  0
  146.8336  131.1439  155.1082 C   0  0  0  0  0  0  0  0  0  0  0  0
  145.9264  132.1851  153.0307 N   0  3  2  0  0  0  0  0  0  0  0  0
  146.0589  130.9731  152.1698 C   0  0  0  0  0  0  0  0  0  0  0  0
  144.8992  130.8576  151.1666 C   0  0  0  0  0  0  0  0  0  0  0  0
  144.7757  132.1178  150.3061 C   0  0  0  0  0  0  0  0  0  0  0  0
  144.6429  133.3527  151.2084 C   0  0  2  0  0  0  0  0  0  0  0  0
  144.5283  134.6408  150.3808 C   0  0  0  0  0  0  0  0  0  0  0  0
  145.8281  133.4153  152.1917 C   0  0  0  0  0  0  0  0  0  0  0  0
  151.8538  136.2407  155.5752 N   0  0  0  0  0  0  0  0  0  0  0  0
  152.4631  137.4506  155.9280 O   0  0  0  0  0  0  0  0  0  0  0  0
  151.9034  140.5529  154.8211 H   0  0  0  0  0  0  0  0  0  0  0  0
  153.4326  139.8817  155.3901 H   0  0  0  0  0  0  0  0  0  0  0  0
  152.1131  140.1620  156.5286 H   0  0  0  0  0  0  0  0  0  0  0  0
  150.1655  138.5249  153.8400 H   0  0  0  0  0  0  0  0  0  0  0  0
  149.4642  136.0758  153.3190 H   0  0  0  0  0  0  0  0  0  0  0  0
  148.4668  134.4313  152.8319 H   0  0  0  0  0  0  0  0  0  0  0  0
  148.5295  132.0384  152.6161 H   0  0  0  0  0  0  0  0  0  0  0  0
  149.0892  131.9166  154.2719 H   0  0  0  0  0  0  0  0  0  0  0  0
  146.7124  133.2466  154.6629 H   0  0  0  0  0  0  0  0  0  0  0  0
  147.5212  131.2483  155.9473 H   0  0  0  0  0  0  0  0  0  0  0  0
  147.0617  130.1996  154.6131 H   0  0  0  0  0  0  0  0  0  0  0  0
  145.8406  131.0533  155.5448 H   0  0  0  0  0  0  0  0  0  0  0  0
  147.0149  130.9988  151.6439 H   0  0  0  0  0  0  0  0  0  0  0  0
  146.0405  130.0650  152.7710 H   0  0  0  0  0  0  0  0  0  0  0  0
  145.0456  129.9853  150.5286 H   0  0  0  0  0  0  0  0  0  0  0  0
  143.9658  130.6912  151.7058 H   0  0  0  0  0  0  0  0  0  0  0  0
  145.6525  132.2132  149.6638 H   0  0  0  0  0  0  0  0  0  0  0  0
  143.9114  132.0337  149.6461 H   0  0  0  0  0  0  0  0  0  0  0  0
  143.7248  133.2538  151.7898 H   0  0  0  0  0  0  0  0  0  0  0  0
  145.4204  134.8047  149.7755 H   0  0  0  0  0  0  0  0  0  0  0  0
  144.3979  135.5113  151.0240 H   0  0  0  0  0  0  0  0  0  0  0  0
  143.6720  134.5994  149.7068 H   0  0  0  0  0  0  0  0  0  0  0  0
  145.7091  134.2981  152.8174 H   0  0  0  0  0  0  0  0  0  0  0  0
  146.7615  133.5517  151.6426 H   0  0  0  0  0  0  0  0  0  0  0  0
  145.0382  132.0827  153.5003 H   0  0  0  0  0  0  0  0  0  0  0  0
  1  2  1  0  0  0  0
  1 21  1  0  0  0  0
  1 22  1  0  0  0  0
  1 23  1  0  0  0  0
  2 20  1  0  0  0  0
  2  3  2  0  0  0  0
  3  4  1  0  0  0  0
  3 24  1  0  0  0  0
  4  5  1  0  0  0  0
  4 19  2  0  0  0  0
  5  6  1  0  0  0  0
  5 25  1  0  0  0  0
  6  7  2  0  0  0  0
  6  8  1  0  0  0  0
  8  9  1  0  0  0  0
  8 26  1  0  0  0  0
  9 10  1  0  0  0  0
  9 27  1  0  0  0  0
  9 28  1  0  0  0  0
 10 11  1  0  0  0  0
 10 12  1  0  0  0  0
 10 29  1  0  0  0  0
 11 30  1  0  0  0  0
 11 31  1  0  0  0  0
 11 32  1  0  0  0  0
 12 18  1  0  0  0  0
 12 13  1  0  0  0  0
 12 45  1  0  0  0  0
 13 14  1  0  0  0  0
 13 33  1  0  0  0  0
 13 34  1  0  0  0  0
 14 15  1  0  0  0  0
 14 35  1  0  0  0  0
 14 36  1  0  0  0  0
 15 16  1  0  0  0  0
 15 37  1  0  0  0  0
 15 38  1  0  0  0  0
 16 17  1  0  0  0  0
 16 18  1  0  0  0  0
 16 39  1  0  0  0  0
 17 40  1  0  0  0  0
 17 41  1  0  0  0  0
 17 42  1  0  0  0  0
 18 43  1  0  0  0  0
 18 44  1  0  0  0  0
 19 20  1  0  0  0  0
M  CHG  1  12   1
M  END
> <s_m_source_file>
AV-unprocessed.smi

> <i_m_source_file_index>
2083

> <i_lp_mmshare_version>
43012

> <i_f3d_flags>
0

> <s_epik_input>
W0NIM11jMVtjSF1jKG5vMSlbTkhdQyg9TylbTkhdW0NIMl1bQ0BIXShbQ0gzXSlOMltDSDJdW0NIMl1bQ0gyXVtDQEBIXShbQ0gzXSlbQ0gyXTI=

> <s_epik_cmdline>
J2VwaWtfcHl0aG9uJywgJy1waCcsICc3LjAnLCAnLXRuJywgJzgnLCAnLW1hJywgJzIwMCcsICctbWV0YWxfYmluZGluZycsICctaW1hZScsICc8aW5maWxlLm1hZT4nLCAnLW9tYWUnLCAnPG91dGZpbGUubWFlPic=

> <r_epik_Ionization_Penalty>
0.00216453

> <r_epik_Ionization_Penalty_Charging>
0.00212879

> <r_epik_Ionization_Penalty_Neutral>
3.57418e-05

> <r_epik_State_Penalty>
0.00146033

> <r_epik_Charging_Adjusted_Penalty>
0.00358912

> <i_epik_Tot_Q>
1

> <i_epik_Tot_abs_Q>
1

> <r_epik_Metal_State_Penalty>
0.0215827

> <b_epik_Metal_Only>
0

> <s_lp_Force_Field>
OPLS_2005

> <r_lp_Energy>
18.748

> <b_lp_Chiralities_Consistent>
1

> <s_lp_Variant>
AV-unprocessed.smi:2083-7

> <Gold.Version>
5.8.1

> <Gold.Id.Protein>
6NUR|6NUR_protein|mol2

> <Gold.PLP.Fitness>
40.5550

> <Gold.PLP.PLP>
-33.7541

> <Gold.PLP.part.hbond>
-4.3568

> <Gold.PLP.part.metal>
0.0000

> <Gold.PLP.part.buried>
-1.1552

> <Gold.PLP.part.nonpolar>
-26.6348

> <Gold.PLP.part.repulsive>
0.1721

> <Gold.PLP.ligand.clash>
0.0000

> <Gold.PLP.ligand.torsion>
0.6837

> <Gold.PLP.Chemscore.Hbond>
2.7020

> <Gold.PLP.Chemscore.CHOScore>
0.0000

> <Gold.PLP.Chemscore.Metal>
0.0000

> <Gold.Chemscore.Hbonds>
donor molecule, donor type, donor heavy atom, donor atom, acceptor molecule, acceptor atom, score
      L1  H     5    25       P1  7948  0.98
      L1  H     8    26       P1  7948  0.62
      P1  H 10752 10765       L1    19  1.00

> <Gold.PLP.Chemscore.Internal.Correction>
0.0623

> <Gold.Rescore>
     Score         DG    S(hbond)    S(metal)    S(lipo)     H(rot)  DE(clash)    DE(int)     intcor
     13.76     -15.77       1.64        0.00      75.08       1.55       0.10       1.91       ----

> <Gold.Chemscore.Fitness>
13.7555

> <Gold.Chemscore.DG>
-15.7707

> <Gold.Chemscore.ZeroCoef>
-5.4800

> <Gold.Chemscore.Hbond>
1.6369

> <Gold.Chemscore.Metal>
0.0000

> <Gold.Chemscore.Lipo>
75.0813

> <Gold.Chemscore.Internal_Hbond>
0.0000

> <Gold.Chemscore.DEClash>
0.1013

> <Gold.Chemscore.DEInternal>
1.9139

> <Gold.Chemscore.Rot>
1.5474

> <Gold.Chemscore.Internal.Correction>
   9.000000E+99

> <Gold.Chemscore.Hbonds>
donor molecule, donor type, donor heavy atom, donor atom, acceptor molecule, acceptor atom, score
      L1  H     5    25       P1  7948  0.35
      L1  H     8    26       P1  7948  0.12
      P1  H 10752 10765       L1    19  0.17

> <Gold.Chemscore.Hbond.Weighted>
-5.4674

> <Gold.Chemscore.Metal.Weighted>
-0.0000

> <Gold.Chemscore.Lipo.Weighted>
-8.7845

> <Gold.Chemscore.Internal_Hbond.Weighted>
0.0000

> <Gold.Chemscore.DEClash.Weighted>
0.1013

> <Gold.Chemscore.DEInternal.Weighted>
1.9139

> <Gold.Chemscore.Rot.Weighted>
3.9612

> <Gold.Chemscore.Internal.Correction.Weighted>
   9.000000E+99

> <Gold.Protein.RotatedTorsions>
[ 6907 6896 6895 6894 ] final   65.13 input  -60.11 | X-H torsion
[ 7974 7965 7964 7962 ] final   59.62 input  175.53 | X-H torsion
[ 8008 7997 7996 7995 ] final  -69.74 input   59.86 | X-H torsion
[ 10167 10162 10161 10158 ] final  161.47 input  -65.29 | X-H torsion
[ 10718 10713 10712 10709 ] final -129.90 input   66.30 | X-H torsion
[ 10763 10752 10751 10750 ] final -174.08 input  -60.55 | X-H torsion
[ 11005 11000 10999 10996 ] final -124.11 input  -57.11 | X-H torsion

> <Gold.Protein.ActiveResidues>
 VAL166  LYS551  ARG553  GLY616  TRP617  ASP618  TYR619  PRO620  LYS621  CYS622 
 ASP623  PHE694  ASN695  SER759  ASP760  ASP761  ALA762  ILE779  LEU786  VAL792 
 PHE793  MET794  SER795  GLU796  ALA797  LYS798  CYS799  TRP800  GLU811  SER814 

> <Gold.Protein.RotatedAtoms>
  152.4384  134.5640  159.9902 H   0  0  0  0  0  0  0  0  0  0  0  0  # atno 6907 bound_to 6896
  151.5744  133.3380  159.3004 H   0  0  0  0  0  0  0  0  0  0  0  0  # atno 6908 bound_to 6896
  150.8286  134.7563  159.6898 H   0  0  0  0  0  0  0  0  0  0  0  0  # atno 6909 bound_to 6896
  145.9051  139.3611  143.0569 H   0  0  0  0  0  0  0  0  0  0  0  0  # atno 7974 bound_to 7965
  154.4960  140.0848  156.7698 H   0  0  0  0  0  0  0  0  0  0  0  0  # atno 8008 bound_to 7997
  155.4115  140.3441  155.4246 H   0  0  0  0  0  0  0  0  0  0  0  0  # atno 8009 bound_to 7997
  156.1394  140.1525  156.8931 H   0  0  0  0  0  0  0  0  0  0  0  0  # atno 8010 bound_to 7997
  139.4850  144.4533  151.8801 H   0  0  0  0  0  0  0  0  0  0  0  0  # atno 10167 bound_to 10162
  156.2091  130.6907  151.0629 H   0  0  0  0  0  0  0  0  0  0  0  0  # atno 10718 bound_to 10713
  154.6004  135.2854  155.0541 H   0  0  0  0  0  0  0  0  0  0  0  0  # atno 10763 bound_to 10752
  154.1808  135.6457  153.5037 H   0  0  0  0  0  0  0  0  0  0  0  0  # atno 10764 bound_to 10752
  153.0155  135.5423  154.6721 H   0  0  0  0  0  0  0  0  0  0  0  0  # atno 10765 bound_to 10752
  140.9866  134.0598  157.3703 H   0  0  0  0  0  0  0  0  0  0  0  0  # atno 11005 bound_to 11000
  145.8742  140.9402  143.0635 LP  0  0  0  0  0  0  0  0  0  0  0  0  # atno 17320 bound_to 7965
  144.6738  140.0694  143.7473 LP  0  0  0  0  0  0  0  0  0  0  0  0  # atno 17321 bound_to 7965
  140.3991  144.2516  150.5894 LP  0  0  0  0  0  0  0  0  0  0  0  0  # atno 17342 bound_to 10162
  140.5074  143.2300  151.8588 LP  0  0  0  0  0  0  0  0  0  0  0  0  # atno 17343 bound_to 10162
  157.7029  131.0769  150.6763 LP  0  0  0  0  0  0  0  0  0  0  0  0  # atno 17370 bound_to 10713
  156.6822  130.4570  149.5624 LP  0  0  0  0  0  0  0  0  0  0  0  0  # atno 17371 bound_to 10713
  139.8973  135.0150  156.7095 LP  0  0  0  0  0  0  0  0  0  0  0  0  # atno 17394 bound_to 11000
  140.7104  133.9228  155.8081 LP  0  0  0  0  0  0  0  0  0  0  0  0  # atno 17395 bound_to 11000

$$$$
