AV-unprocessed.smi:480|AV-procd|sdf|2679|dock1
  -GOLD-   2262023103D 1   1.00000     0.00000
 Structure written by MMmdl.
 47 49  0  0  0  0  0  0  0  0  2 V2000
  148.1135  141.7322  154.6971 C   0  0  0  0  0  0  0  0  0  0  0  0
  149.5870  141.3195  154.6130 C   0  0  0  0  0  0  0  0  0  0  0  0
  150.3137  141.6221  155.8831 C   0  0  0  0  0  0  0  0  0  0  0  0
  150.3833  142.8415  156.4885 N   0  3  0  0  0  0  0  0  0  0  0  0
  151.1619  142.7525  157.6430 C   0  0  0  0  0  0  0  0  0  0  0  0
  151.5147  143.7173  158.5816 C   0  0  0  0  0  0  0  0  0  0  0  0
  152.3305  143.2916  159.6505 C   0  0  0  0  0  0  0  0  0  0  0  0
  152.7636  141.9538  159.7564 C   0  0  0  0  0  0  0  0  0  0  0  0
  152.3994  140.9847  158.7983 C   0  0  0  0  0  0  0  0  0  0  0  0
  151.5924  141.4141  157.7453 C   0  0  0  0  0  0  0  0  0  0  0  0
  151.0469  140.7541  156.6391 N   0  0  0  0  0  0  0  0  0  0  0  0
  151.3185  139.3193  156.4565 C   0  0  0  0  0  0  0  0  0  0  0  0
  151.8492  138.9818  155.0484 C   0  0  1  0  0  0  0  0  0  0  0  0
  153.2614  138.9226  155.0927 O   0  0  0  0  0  0  0  0  0  0  0  0
  151.3169  137.6312  154.5446 C   0  0  0  0  0  0  0  0  0  0  0  0
  151.6041  136.6341  155.5163 O   0  0  0  0  0  0  0  0  0  0  0  0
  150.8581  135.4748  155.5040 C   0  0  0  0  0  0  0  0  0  0  0  0
  149.8092  135.2102  154.5871 C   0  0  0  0  0  0  0  0  0  0  0  0
  149.0996  133.9948  154.6465 C   0  0  0  0  0  0  0  0  0  0  0  0
  149.4248  133.0290  155.6191 C   0  0  0  0  0  0  0  0  0  0  0  0
  148.6628  131.7214  155.6808 C   0  0  0  0  0  0  0  0  0  0  0  0
  148.8416  130.9200  154.4607 C   0  0  0  0  0  0  0  0  0  0  0  0
  148.9822  130.2896  153.5008 N   0  0  0  0  0  0  0  0  0  0  0  0
  150.4652  133.2852  156.5330 C   0  0  0  0  0  0  0  0  0  0  0  0
  151.1742  134.5004  156.4729 C   0  0  0  0  0  0  0  0  0  0  0  0
  147.5935  141.5062  153.7660 H   0  0  0  0  0  0  0  0  0  0  0  0
  148.0127  142.8020  154.8827 H   0  0  0  0  0  0  0  0  0  0  0  0
  147.6017  141.2029  155.5015 H   0  0  0  0  0  0  0  0  0  0  0  0
  149.6637  140.2519  154.4043 H   0  0  0  0  0  0  0  0  0  0  0  0
  150.0750  141.8343  153.7852 H   0  0  0  0  0  0  0  0  0  0  0  0
  151.1842  144.7426  158.5024 H   0  0  0  0  0  0  0  0  0  0  0  0
  152.6303  144.0057  160.4039 H   0  0  0  0  0  0  0  0  0  0  0  0
  153.3877  141.6645  160.5897 H   0  0  0  0  0  0  0  0  0  0  0  0
  152.7353  139.9622  158.8885 H   0  0  0  0  0  0  0  0  0  0  0  0
  152.0394  139.0156  157.2161 H   0  0  0  0  0  0  0  0  0  0  0  0
  150.4018  138.7679  156.6703 H   0  0  0  0  0  0  0  0  0  0  0  0
  151.5530  139.7701  154.3557 H   0  0  0  0  0  0  0  0  0  0  0  0
  153.5874  138.9030  154.2056 H   0  0  0  0  0  0  0  0  0  0  0  0
  150.2483  137.6909  154.3287 H   0  0  0  0  0  0  0  0  0  0  0  0
  151.8306  137.3656  153.6193 H   0  0  0  0  0  0  0  0  0  0  0  0
  149.5294  135.9231  153.8266 H   0  0  0  0  0  0  0  0  0  0  0  0
  148.3043  133.8054  153.9405 H   0  0  0  0  0  0  0  0  0  0  0  0
  149.0010  131.1320  156.5335 H   0  0  0  0  0  0  0  0  0  0  0  0
  147.5978  131.9120  155.8153 H   0  0  0  0  0  0  0  0  0  0  0  0
  150.7230  132.5500  157.2813 H   0  0  0  0  0  0  0  0  0  0  0  0
  151.9709  134.6858  157.1783 H   0  0  0  0  0  0  0  0  0  0  0  0
  149.9292  143.6733  156.1339 H   0  0  0  0  0  0  0  0  0  0  0  0
  1  2  1  0  0  0  0
  1 26  1  0  0  0  0
  1 27  1  0  0  0  0
  1 28  1  0  0  0  0
  2  3  1  0  0  0  0
  2 29  1  0  0  0  0
  2 30  1  0  0  0  0
  3 11  1  0  0  0  0
  3  4  2  0  0  0  0
  4  5  1  0  0  0  0
  4 47  1  0  0  0  0
  5 10  2  0  0  0  0
  5  6  1  0  0  0  0
  6  7  2  0  0  0  0
  6 31  1  0  0  0  0
  7  8  1  0  0  0  0
  7 32  1  0  0  0  0
  8  9  2  0  0  0  0
  8 33  1  0  0  0  0
  9 10  1  0  0  0  0
  9 34  1  0  0  0  0
 10 11  1  0  0  0  0
 11 12  1  0  0  0  0
 12 13  1  0  0  0  0
 12 35  1  0  0  0  0
 12 36  1  0  0  0  0
 13 14  1  0  0  0  0
 13 15  1  0  0  0  0
 13 37  1  0  0  0  0
 14 38  1  0  0  0  0
 15 16  1  0  0  0  0
 15 39  1  0  0  0  0
 15 40  1  0  0  0  0
 16 17  1  0  0  0  0
 17 25  1  0  0  0  0
 17 18  2  0  0  0  0
 18 19  1  0  0  0  0
 18 41  1  0  0  0  0
 19 20  2  0  0  0  0
 19 42  1  0  0  0  0
 20 21  1  0  0  0  0
 20 24  1  0  0  0  0
 21 22  1  0  0  0  0
 21 43  1  0  0  0  0
 21 44  1  0  0  0  0
 22 23  3  0  0  0  0
 24 25  2  0  0  0  0
 24 45  1  0  0  0  0
 25 46  1  0  0  0  0
M  CHG  1   4   1
M  END
> <s_m_source_file>
AV-unprocessed.smi

> <i_m_source_file_index>
480

> <i_lp_mmshare_version>
43012

> <i_f3d_flags>
0

> <s_epik_input>
W2NIXTFbY0hdW2NIXVtjSF1jKGMxMiluKGMobjIpW0NIMl1bQ0gzXSlbQ0gyXVtDQEhdKFtPSF0pW0NIMl1PYzNbY0hdW2NIXWMoW0NIMl1DI04pW2NIXVtjSF0z

> <s_epik_cmdline>
J2VwaWtfcHl0aG9uJywgJy1waCcsICc3LjAnLCAnLXRuJywgJzgnLCAnLW1hJywgJzIwMCcsICctbWV0YWxfYmluZGluZycsICctaW1hZScsICc8aW5maWxlLm1hZT4nLCAnLW9tYWUnLCAnPG91dGZpbGUubWFlPic=

> <r_lp_tautomer_probability>
1

> <r_epik_Ionization_Penalty>
1.03158

> <r_epik_Ionization_Penalty_Charging>
1.03158

> <r_epik_Ionization_Penalty_Neutral>
2.3994e-06

> <r_epik_State_Penalty>
1.08278

> <r_epik_Charging_Adjusted_Penalty>
2.11436

> <i_epik_Tot_Q>
1

> <i_epik_Tot_abs_Q>
1

> <r_epik_Metal_State_Penalty>
5.07177

> <b_epik_Metal_Only>
0

> <s_lp_Force_Field>
OPLS_2005

> <r_lp_Energy>
21.7936

> <b_lp_Chiralities_Consistent>
1

> <s_lp_Variant>
AV-unprocessed.smi:480-4

> <Gold.Version>
5.8.1

> <Gold.Id.Protein>
6NUR|6NUR_protein|mol2

> <Gold.PLP.Fitness>
59.5005

> <Gold.PLP.PLP>
-50.7232

> <Gold.PLP.part.hbond>
-3.0000

> <Gold.PLP.part.metal>
0.0000

> <Gold.PLP.part.buried>
-4.0975

> <Gold.PLP.part.nonpolar>
-44.4674

> <Gold.PLP.part.repulsive>
0.2563

> <Gold.PLP.ligand.clash>
0.0000

> <Gold.PLP.ligand.torsion>
0.7342

> <Gold.PLP.Chemscore.Hbond>
3.2500

> <Gold.PLP.Chemscore.CHOScore>
0.0000

> <Gold.PLP.Chemscore.Metal>
0.0000

> <Gold.Chemscore.Hbonds>
donor molecule, donor type, donor heavy atom, donor atom, acceptor molecule, acceptor atom, score
      L1  H     4    47       P1  8028  2.00
      P1  H  7997  8009       L1    14  1.00
      P1  H 10752 10763       L1    16  0.25

> <Gold.PLP.Chemscore.Internal.Correction>
0.4956

> <Gold.Rescore>
     Score         DG    S(hbond)    S(metal)    S(lipo)     H(rot)  DE(clash)    DE(int)     intcor
     19.21     -20.01       1.90        0.00     128.49       2.67       0.13       0.68       ----

> <Gold.Chemscore.Fitness>
19.2071

> <Gold.Chemscore.DG>
-20.0141

> <Gold.Chemscore.ZeroCoef>
-5.4800

> <Gold.Chemscore.Hbond>
1.8976

> <Gold.Chemscore.Metal>
0.0000

> <Gold.Chemscore.Lipo>
128.4939

> <Gold.Chemscore.Internal_Hbond>
0.0000

> <Gold.Chemscore.DEClash>
0.1266

> <Gold.Chemscore.DEInternal>
0.6804

> <Gold.Chemscore.Rot>
2.6710

> <Gold.Chemscore.Internal.Correction>
   9.000000E+99

> <Gold.Chemscore.Hbonds>
donor molecule, donor type, donor heavy atom, donor atom, acceptor molecule, acceptor atom, score
      L1  H     4    47       P1  8028  0.94
      P1  H  7997  8009       L1    14  0.58

> <Gold.Chemscore.Hbond.Weighted>
-6.3380

> <Gold.Chemscore.Metal.Weighted>
-0.0000

> <Gold.Chemscore.Lipo.Weighted>
-15.0338

> <Gold.Chemscore.Internal_Hbond.Weighted>
0.0000

> <Gold.Chemscore.DEClash.Weighted>
0.1266

> <Gold.Chemscore.DEInternal.Weighted>
0.6804

> <Gold.Chemscore.Rot.Weighted>
6.8377

> <Gold.Chemscore.Internal.Correction.Weighted>
   9.000000E+99

> <Gold.Protein.RotatedTorsions>
[ 6907 6896 6895 6894 ] final   27.65 input  -60.11 | X-H torsion
[ 7974 7965 7964 7962 ] final -175.14 input  175.53 | X-H torsion
[ 8008 7997 7996 7995 ] final -149.82 input   59.86 | X-H torsion
[ 10167 10162 10161 10158 ] final  111.91 input  -65.29 | X-H torsion
[ 10718 10713 10712 10709 ] final -132.51 input   66.30 | X-H torsion
[ 10763 10752 10751 10750 ] final   70.20 input  -60.55 | X-H torsion
[ 11005 11000 10999 10996 ] final  -93.10 input  -57.11 | X-H torsion

> <Gold.Protein.ActiveResidues>
 VAL166  LYS551  ARG553  GLY616  TRP617  ASP618  TYR619  PRO620  LYS621  CYS622 
 ASP623  PHE694  ASN695  SER759  ASP760  ASP761  ALA762  ILE779  LEU786  VAL792 
 PHE793  MET794  SER795  GLU796  ALA797  LYS798  CYS799  TRP800  GLU811  SER814 

> <Gold.Protein.RotatedAtoms>
  152.0054  134.9905  160.0566 H   0  0  0  0  0  0  0  0  0  0  0  0  # atno 6907 bound_to 6896
  152.1479  133.4499  159.4807 H   0  0  0  0  0  0  0  0  0  0  0  0  # atno 6908 bound_to 6896
  150.6872  134.2143  159.4414 H   0  0  0  0  0  0  0  0  0  0  0  0  # atno 6909 bound_to 6896
  144.7129  140.1366  143.6395 H   0  0  0  0  0  0  0  0  0  0  0  0  # atno 7974 bound_to 7965
  155.6137  140.0674  157.2698 H   0  0  0  0  0  0  0  0  0  0  0  0  # atno 8008 bound_to 7997
  154.4247  140.1797  156.1347 H   0  0  0  0  0  0  0  0  0  0  0  0  # atno 8009 bound_to 7997
  156.0065  140.3331  155.6900 H   0  0  0  0  0  0  0  0  0  0  0  0  # atno 8010 bound_to 7997
  139.6575  144.7129  151.1928 H   0  0  0  0  0  0  0  0  0  0  0  0  # atno 10167 bound_to 10162
  156.2353  130.7062  151.0901 H   0  0  0  0  0  0  0  0  0  0  0  0  # atno 10718 bound_to 10713
  153.0328  135.5182  154.7405 H   0  0  0  0  0  0  0  0  0  0  0  0  # atno 10763 bound_to 10752
  154.6405  135.2912  155.0111 H   0  0  0  0  0  0  0  0  0  0  0  0  # atno 10764 bound_to 10752
  154.1030  135.6633  153.4924 H   0  0  0  0  0  0  0  0  0  0  0  0  # atno 10765 bound_to 10752
  141.1505  133.7865  157.0113 H   0  0  0  0  0  0  0  0  0  0  0  0  # atno 11005 bound_to 11000
  145.9239  139.2563  143.1365 LP  0  0  0  0  0  0  0  0  0  0  0  0  # atno 17320 bound_to 7965
  145.9592  140.8849  143.0219 LP  0  0  0  0  0  0  0  0  0  0  0  0  # atno 17321 bound_to 7965
  140.7565  143.6048  150.8664 LP  0  0  0  0  0  0  0  0  0  0  0  0  # atno 17342 bound_to 10162
  139.9702  143.6065  152.2976 LP  0  0  0  0  0  0  0  0  0  0  0  0  # atno 17343 bound_to 10162
  157.7151  131.0714  150.6356 LP  0  0  0  0  0  0  0  0  0  0  0  0  # atno 17370 bound_to 10713
  156.6425  130.4462  149.5747 LP  0  0  0  0  0  0  0  0  0  0  0  0  # atno 17371 bound_to 10713
  140.0876  134.9611  157.1725 LP  0  0  0  0  0  0  0  0  0  0  0  0  # atno 17394 bound_to 11000
  140.3490  134.2619  155.7201 LP  0  0  0  0  0  0  0  0  0  0  0  0  # atno 17395 bound_to 11000

$$$$
