AV-unprocessed.smi:235|AV-procd|sdf|1807|dock7
  -GOLD-   2262020383D 1   1.00000     0.00000
 Structure written by MMmdl.
 54 58  0  0  0  0  0  0  0  0  1 V2000
  151.3113  140.9404  157.5435 O   0  0  0  0  0  0  0  0  0  0  0  0
  150.6291  141.7317  156.8909 C   0  0  0  0  0  0  0  0  0  0  0  0
  150.4416  143.0118  157.2436 N   0  0  0  0  0  0  0  0  0  0  0  0
  150.9961  143.6454  158.3954 C   0  0  0  0  0  0  0  0  0  0  0  0
  152.0596  144.6994  158.1725 C   0  0  0  0  0  0  0  0  0  0  0  0
  152.4441  143.3551  158.7267 C   0  0  0  0  0  0  0  0  0  0  0  0
  149.9222  141.2774  155.6059 C   0  0  2  0  0  0  0  0  0  0  0  0
  148.7357  142.1813  155.2480 C   0  0  0  0  0  0  0  0  0  0  0  0
  147.8648  141.2737  154.3880 C   0  0  0  0  0  0  0  0  0  0  0  0
  148.0460  139.9023  155.0392 C   0  0  0  0  0  0  0  0  0  0  0  0
  149.3240  139.9480  155.7446 N   0  0  0  0  0  0  0  0  0  0  0  0
  150.1583  138.9095  155.5173 C   0  0  0  0  0  0  0  0  0  0  0  0
  151.3302  139.1797  154.8928 N   0  0  0  0  0  0  0  0  0  0  0  0
  152.1899  138.1901  154.6308 C   0  0  0  0  0  0  0  0  0  0  0  0
  152.0730  136.8877  154.9016 N   0  0  0  0  0  0  0  0  0  0  0  0
  150.8933  136.6166  155.5303 C   0  0  0  0  0  0  0  0  0  0  0  0
  149.8859  137.5596  155.8756 C   0  0  0  0  0  0  0  0  0  0  0  0
  148.8263  136.9159  156.5039 N   0  0  0  0  0  0  0  0  0  0  0  0
  149.1883  135.6619  156.5299 C   0  0  0  0  0  0  0  0  0  0  0  0
  150.4154  135.3944  155.9663 N   0  0  0  0  0  0  0  0  0  0  0  0
  151.0628  134.0997  155.8590 C   0  0  0  0  0  0  0  0  0  0  0  0
  150.1470  132.9490  156.3183 C   0  0  1  0  0  0  0  0  0  0  0  0
  149.2982  132.5356  155.2637 O   0  0  0  0  0  0  0  0  0  0  0  0
  150.9326  131.7459  156.8772 C   0  0  1  0  0  0  0  0  0  0  0  0
  151.8125  130.9846  155.8703 C   0  0  0  0  0  0  0  0  0  0  0  0
  153.1789  130.9493  156.5350 C   0  0  0  0  0  0  0  0  0  0  0  0
  152.8574  131.2066  158.0019 C   0  0  0  0  0  0  0  0  0  0  0  0
  151.7985  132.1466  157.9340 O   0  0  0  0  0  0  0  0  0  0  0  0
  149.8617  143.5837  156.6469 H   0  0  0  0  0  0  0  0  0  0  0  0
  150.3346  143.8070  159.2454 H   0  0  0  0  0  0  0  0  0  0  0  0
  152.3510  144.9214  157.1476 H   0  0  0  0  0  0  0  0  0  0  0  0
  152.0768  145.5472  158.8548 H   0  0  0  0  0  0  0  0  0  0  0  0
  152.7167  143.3047  159.7788 H   0  0  0  0  0  0  0  0  0  0  0  0
  152.9901  142.6784  158.0719 H   0  0  0  0  0  0  0  0  0  0  0  0
  150.6335  141.2837  154.7775 H   0  0  0  0  0  0  0  0  0  0  0  0
  148.1843  142.4809  156.1413 H   0  0  0  0  0  0  0  0  0  0  0  0
  149.0406  143.0861  154.7211 H   0  0  0  0  0  0  0  0  0  0  0  0
  146.8227  141.5920  154.3487 H   0  0  0  0  0  0  0  0  0  0  0  0
  148.2520  141.2526  153.3684 H   0  0  0  0  0  0  0  0  0  0  0  0
  147.2636  139.7315  155.7794 H   0  0  0  0  0  0  0  0  0  0  0  0
  147.9759  139.0993  154.3033 H   0  0  0  0  0  0  0  0  0  0  0  0
  153.1014  138.4845  154.1318 H   0  0  0  0  0  0  0  0  0  0  0  0
  148.5673  134.8930  156.9662 H   0  0  0  0  0  0  0  0  0  0  0  0
  151.3778  133.9531  154.8251 H   0  0  0  0  0  0  0  0  0  0  0  0
  151.9712  134.1223  156.4620 H   0  0  0  0  0  0  0  0  0  0  0  0
  149.4975  133.3205  157.1121 H   0  0  0  0  0  0  0  0  0  0  0  0
  148.4331  132.3934  155.6169 H   0  0  0  0  0  0  0  0  0  0  0  0
  150.2221  131.0382  157.3079 H   0  0  0  0  0  0  0  0  0  0  0  0
  151.4271  129.9742  155.7274 H   0  0  0  0  0  0  0  0  0  0  0  0
  151.8613  131.4564  154.8885 H   0  0  0  0  0  0  0  0  0  0  0  0
  153.7091  130.0103  156.3741 H   0  0  0  0  0  0  0  0  0  0  0  0
  153.7980  131.7594  156.1476 H   0  0  0  0  0  0  0  0  0  0  0  0
  152.5095  130.2960  158.4921 H   0  0  0  0  0  0  0  0  0  0  0  0
  153.7089  131.5973  158.5594 H   0  0  0  0  0  0  0  0  0  0  0  0
  1  2  2  0  0  0  0
  2  3  1  0  0  0  0
  2  7  1  0  0  0  0
  3  4  1  0  0  0  0
  3 29  1  0  0  0  0
  4  6  1  0  0  0  0
  4  5  1  0  0  0  0
  4 30  1  0  0  0  0
  5  6  1  0  0  0  0
  5 31  1  0  0  0  0
  5 32  1  0  0  0  0
  6 33  1  0  0  0  0
  6 34  1  0  0  0  0
  7 11  1  0  0  0  0
  7  8  1  0  0  0  0
  7 35  1  0  0  0  0
  8  9  1  0  0  0  0
  8 36  1  0  0  0  0
  8 37  1  0  0  0  0
  9 10  1  0  0  0  0
  9 38  1  0  0  0  0
  9 39  1  0  0  0  0
 10 11  1  0  0  0  0
 10 40  1  0  0  0  0
 10 41  1  0  0  0  0
 11 12  1  0  0  0  0
 12 17  1  0  0  0  0
 12 13  2  0  0  0  0
 13 14  1  0  0  0  0
 14 15  2  0  0  0  0
 14 42  1  0  0  0  0
 15 16  1  0  0  0  0
 16 20  1  0  0  0  0
 16 17  2  0  0  0  0
 17 18  1  0  0  0  0
 18 19  2  0  0  0  0
 19 20  1  0  0  0  0
 19 43  1  0  0  0  0
 20 21  1  0  0  0  0
 21 22  1  0  0  0  0
 21 44  1  0  0  0  0
 21 45  1  0  0  0  0
 22 23  1  0  0  0  0
 22 24  1  0  0  0  0
 22 46  1  0  0  0  0
 23 47  1  0  0  0  0
 24 28  1  0  0  0  0
 24 25  1  0  0  0  0
 24 48  1  0  0  0  0
 25 26  1  0  0  0  0
 25 49  1  0  0  0  0
 25 50  1  0  0  0  0
 26 27  1  0  0  0  0
 26 51  1  0  0  0  0
 26 52  1  0  0  0  0
 27 28  1  0  0  0  0
 27 53  1  0  0  0  0
 27 54  1  0  0  0  0
M  END
> <s_m_source_file>
AV-unprocessed.smi

> <i_m_source_file_index>
235

> <i_lp_mmshare_version>
43012

> <i_f3d_flags>
0

> <s_epik_input>
W0NIMl0xW0NIMl1bQ0hdMVtOSF1DKD1PKVtDQEBIXTJbQ0gyXVtDSDJdW0NIMl1OMmMobltjSF1uMyljKGMzNCluW2NIXW40W0NIMl1bQ0BIXShbT0hdKVtDQEBIXTVbQ0gyXVtDSDJdW0NIMl1PNQ==

> <s_epik_cmdline>
J2VwaWtfcHl0aG9uJywgJy1waCcsICc3LjAnLCAnLXRuJywgJzgnLCAnLW1hJywgJzIwMCcsICctbWV0YWxfYmluZGluZycsICctaW1hZScsICc8aW5maWxlLm1hZT4nLCAnLW9tYWUnLCAnPG91dGZpbGUubWFlPic=

> <r_lp_tautomer_probability>
1

> <r_epik_Ionization_Penalty>
0.000526714

> <r_epik_Ionization_Penalty_Charging>
0

> <r_epik_Ionization_Penalty_Neutral>
0.000526714

> <r_epik_State_Penalty>
0.000272704

> <r_epik_Charging_Adjusted_Penalty>
0.000272704

> <i_epik_Tot_Q>
0

> <i_epik_Tot_abs_Q>
0

> <r_epik_Metal_State_Penalty>
-0

> <b_epik_Metal_Only>
0

> <s_lp_Force_Field>
OPLS_2005

> <r_lp_Energy>
60.9584

> <b_lp_Chiralities_Consistent>
1

> <s_lp_Variant>
AV-unprocessed.smi:235-7

> <Gold.Version>
5.8.1

> <Gold.Id.Protein>
6NUR|6NUR_protein|mol2

> <Gold.PLP.Fitness>
52.4508

> <Gold.PLP.PLP>
-42.7702

> <Gold.PLP.part.hbond>
-4.0000

> <Gold.PLP.part.metal>
0.0000

> <Gold.PLP.part.buried>
-2.5120

> <Gold.PLP.part.nonpolar>
-36.9500

> <Gold.PLP.part.repulsive>
0.3057

> <Gold.PLP.ligand.clash>
0.0000

> <Gold.PLP.ligand.torsion>
1.2805

> <Gold.PLP.Chemscore.Hbond>
4.0000

> <Gold.PLP.Chemscore.CHOScore>
0.0000

> <Gold.PLP.Chemscore.Metal>
0.0000

> <Gold.Chemscore.Hbonds>
donor molecule, donor type, donor heavy atom, donor atom, acceptor molecule, acceptor atom, score
      L1  H     3    29       P1  8028  1.00
      P1  H  6896  6908       L1    28  1.00
      P1  H  7989  7998       L1    13  0.57
      P1  H 10752 10763       L1    15  0.94

> <Gold.PLP.Chemscore.Internal.Correction>
0.2416

> <Gold.Rescore>
     Score         DG    S(hbond)    S(metal)    S(lipo)     H(rot)  DE(clash)    DE(int)     intcor
     17.06     -20.97       3.58        0.00      95.96       3.00       1.78       2.14       ----

> <Gold.Chemscore.Fitness>
17.0585

> <Gold.Chemscore.DG>
-20.9731

> <Gold.Chemscore.ZeroCoef>
-5.4800

> <Gold.Chemscore.Hbond>
3.5759

> <Gold.Chemscore.Metal>
0.0000

> <Gold.Chemscore.Lipo>
95.9569

> <Gold.Chemscore.Internal_Hbond>
0.0000

> <Gold.Chemscore.DEClash>
1.7793

> <Gold.Chemscore.DEInternal>
2.1352

> <Gold.Chemscore.Rot>
2.9989

> <Gold.Chemscore.Internal.Correction>
   9.000000E+99

> <Gold.Chemscore.Hbonds>
donor molecule, donor type, donor heavy atom, donor atom, acceptor molecule, acceptor atom, score
      L1  H     3    29       P1  8028  1.00
      P1  H  6896  6908       L1    28  0.94
      P1  H  7989  7998       L1    13  0.42
      P1  H 10752 10763       L1    15  0.84

> <Gold.Chemscore.Hbond.Weighted>
-11.9434

> <Gold.Chemscore.Metal.Weighted>
-0.0000

> <Gold.Chemscore.Lipo.Weighted>
-11.2270

> <Gold.Chemscore.Internal_Hbond.Weighted>
0.0000

> <Gold.Chemscore.DEClash.Weighted>
1.7793

> <Gold.Chemscore.DEInternal.Weighted>
2.1352

> <Gold.Chemscore.Rot.Weighted>
7.6772

> <Gold.Chemscore.Internal.Correction.Weighted>
   9.000000E+99

> <Gold.Protein.RotatedTorsions>
[ 6907 6896 6895 6894 ] final   59.41 input  -60.11 | X-H torsion
[ 7974 7965 7964 7962 ] final  131.78 input  175.53 | X-H torsion
[ 8008 7997 7996 7995 ] final  -54.36 input   59.86 | X-H torsion
[ 10167 10162 10161 10158 ] final   23.04 input  -65.29 | X-H torsion
[ 10718 10713 10712 10709 ] final   -4.58 input   66.30 | X-H torsion
[ 10763 10752 10751 10750 ] final   48.33 input  -60.55 | X-H torsion
[ 11005 11000 10999 10996 ] final   69.84 input  -57.11 | X-H torsion

> <Gold.Protein.ActiveResidues>
 VAL166  LYS551  ARG553  GLY616  TRP617  ASP618  TYR619  PRO620  LYS621  CYS622 
 ASP623  PHE694  ASN695  SER759  ASP760  ASP761  ALA762  ILE779  LEU786  VAL792 
 PHE793  MET794  SER795  GLU796  ALA797  LYS798  CYS799  TRP800  GLU811  SER814 

> <Gold.Protein.RotatedAtoms>
  152.3912  134.6438  160.0106 H   0  0  0  0  0  0  0  0  0  0  0  0  # atno 6907 bound_to 6896
  151.6671  133.3309  159.3195 H   0  0  0  0  0  0  0  0  0  0  0  0  # atno 6908 bound_to 6896
  150.7828  134.6831  159.6500 H   0  0  0  0  0  0  0  0  0  0  0  0  # atno 6909 bound_to 6896
  145.0037  139.4286  143.5279 H   0  0  0  0  0  0  0  0  0  0  0  0  # atno 7974 bound_to 7965
  154.4160  140.1178  156.5303 H   0  0  0  0  0  0  0  0  0  0  0  0  # atno 8008 bound_to 7997
  155.6612  140.3496  155.4764 H   0  0  0  0  0  0  0  0  0  0  0  0  # atno 8009 bound_to 7997
  155.9711  140.1141  157.0801 H   0  0  0  0  0  0  0  0  0  0  0  0  # atno 8010 bound_to 7997
  140.5301  143.9857  150.6461 H   0  0  0  0  0  0  0  0  0  0  0  0  # atno 10167 bound_to 10162
  156.7592  130.5264  149.5788 H   0  0  0  0  0  0  0  0  0  0  0  0  # atno 10718 bound_to 10713
  152.9793  135.5947  154.3908 H   0  0  0  0  0  0  0  0  0  0  0  0  # atno 10763 bound_to 10752
  154.3564  135.2767  155.2346 H   0  0  0  0  0  0  0  0  0  0  0  0  # atno 10764 bound_to 10752
  154.4363  135.6024  153.6155 H   0  0  0  0  0  0  0  0  0  0  0  0  # atno 10765 bound_to 10752
  139.9631  134.7027  156.0603 H   0  0  0  0  0  0  0  0  0  0  0  0  # atno 11005 bound_to 11000
  146.3457  139.9441  142.8737 LP  0  0  0  0  0  0  0  0  0  0  0  0  # atno 17320 bound_to 7965
  145.2117  140.9898  143.4097 LP  0  0  0  0  0  0  0  0  0  0  0  0  # atno 17321 bound_to 7965
  140.3229  143.3126  152.0766 LP  0  0  0  0  0  0  0  0  0  0  0  0  # atno 17342 bound_to 10162
  139.4951  144.6561  151.6568 LP  0  0  0  0  0  0  0  0  0  0  0  0  # atno 17343 bound_to 10162
  156.1350  130.6205  151.0388 LP  0  0  0  0  0  0  0  0  0  0  0  0  # atno 17370 bound_to 10713
  157.6742  131.0854  150.7536 LP  0  0  0  0  0  0  0  0  0  0  0  0  # atno 17371 bound_to 10713
  141.1310  133.6586  156.3463 LP  0  0  0  0  0  0  0  0  0  0  0  0  # atno 17394 bound_to 11000
  140.5456  134.6078  157.5393 LP  0  0  0  0  0  0  0  0  0  0  0  0  # atno 17395 bound_to 11000

$$$$
