#       Name:                AV-unprocessed.smi:1346
#       Creating user name   scv26
#       Creation time:       Fri Mar 27 05:09:55 2020


#       File generated by GOLD software.
#

@<TRIPOS>MOLECULE
AV-unprocessed.smi:1346
    54    55     1
SMALL
NO_CHARGES


@<TRIPOS>ATOM
      1 ****        -3.2606   4.1479  -1.8821 C.3            1 S1                 0.0000
      2 ****        -3.0611   2.9659  -2.7870 C.2            1 S1                 0.0000
      3 ****        -3.4349   3.0418  -4.0532 N.2            1 S1                 0.0000
      4 ****        -3.1235   1.8021  -4.6194 O.3            1 S1                 0.0000
      5 ****        -2.5681   1.0187  -3.6603 C.2            1 S1                 0.0000
      6 ****        -2.1656  -0.3565  -4.0736 C.3            1 S1                 0.0000
      7 ****        -2.5004   1.6946  -2.4726 C.2            1 S1                 0.0000
      8 ****        -1.9664   1.2210  -1.1455 C.3            1 S1                 0.0000
      9 ****        -0.4663   1.5026  -1.0628 C.2            1 S1                 0.0000
     10 ****        -0.0666   2.6233  -0.7480 O.2            1 S1                 0.0000
     11 ****         0.3518   0.4776  -1.3457 N.am           1 S1                 0.0000
     12 ****         1.8092   0.5294  -1.3157 C.3            1 S1                 0.0000
     13 ****         2.3506   0.4627   0.1192 C.3            1 S1                 0.0000
     14 ****         1.9665  -0.7731   0.7028 O.3            1 S1                 0.0000
     15 ****         2.3071  -0.9026   2.0788 C.3            1 S1                 0.0000
     16 ****         3.0992  -2.2124   2.2495 C.3            1 S1                 0.0000
     17 ****         2.2315  -3.4520   1.9728 C.3            1 S1                 0.0000
     18 ****         0.9625  -3.4499   2.8380 C.3            1 S1                 0.0000
     19 ****         0.1614  -2.1520   2.6484 C.3            1 S1                 0.0000
     20 ****         1.0239  -0.9087   2.9432 C.3            1 S1                 0.0000
     21 ****         0.2137   0.3898   2.8101 C.3            1 S1                 0.0000
     22 ****        -2.3722   4.3316  -1.2781 H              1 S1                 0.0000
     23 ****        -4.0957   3.9797  -1.2020 H              1 S1                 0.0000
     24 ****        -3.4686   5.0582  -2.4455 H              1 S1                 0.0000
     25 ****        -1.3479  -0.7266  -3.4556 H              1 S1                 0.0000
     26 ****        -1.8330  -0.3693  -5.1116 H              1 S1                 0.0000
     27 ****        -3.0025  -1.0481  -3.9773 H              1 S1                 0.0000
     28 ****        -2.4614   1.7259  -0.3152 H              1 S1                 0.0000
     29 ****        -2.1496   0.1555  -1.0000 H              1 S1                 0.0000
     30 ****        -0.0659  -0.4092  -1.5880 H              1 S1                 0.0000
     31 ****         2.1966  -0.3068  -1.8981 H              1 S1                 0.0000
     32 ****         2.1573   1.4390  -1.8078 H              1 S1                 0.0000
     33 ****         3.4389   0.5356   0.1090 H              1 S1                 0.0000
     34 ****         1.9758   1.3022   0.7063 H              1 S1                 0.0000
     35 ****         2.9496  -0.0797   2.3995 H              1 S1                 0.0000
     36 ****         3.9679  -2.2111   1.5903 H              1 S1                 0.0000
     37 ****         3.4880  -2.2675   3.2670 H              1 S1                 0.0000
     38 ****         1.9543  -3.4788   0.9181 H              1 S1                 0.0000
     39 ****         2.8082  -4.3578   2.1621 H              1 S1                 0.0000
     40 ****         0.3414  -4.3106   2.5891 H              1 S1                 0.0000
     41 ****         1.2359  -3.5597   3.8882 H              1 S1                 0.0000
     42 ****        -0.2219  -2.1044   1.6281 H              1 S1                 0.0000
     43 ****        -0.7104  -2.1650   3.3034 H              1 S1                 0.0000
     44 ****         1.3398  -0.9737   3.9854 H              1 S1                 0.0000
     45 ****        -0.1832   0.5106   1.8023 H              1 S1                 0.0000
     46 ****         0.8280   1.2621   3.0346 H              1 S1                 0.0000
     47 ****        -0.6313   0.3963   3.4989 H              1 S1                 0.0000
     48 ****        -3.8544   3.8253  -4.5117 LP             1 S1                 0.0000
     49 ****        -2.4750   1.9274  -5.3702 LP             1 S1                 0.0000
     50 ****        -3.9563   1.3711  -4.9668 LP             1 S1                 0.0000
     51 ****        -0.7233   3.3500  -0.5462 LP             1 S1                 0.0000
     52 ****         0.9148   2.8072  -0.6940 LP             1 S1                 0.0000
     53 ****         2.4155  -1.5105   0.1983 LP             1 S1                 0.0000
     54 ****         0.9746  -0.8656   0.6157 LP             1 S1                 0.0000
@<TRIPOS>BOND
    1    1    2 1     
    2    1   22 1     
    3    1   23 1     
    4    1   24 1     
    5    2    7 1     
    6    2    3 2     
    7    3    4 1     
    8    4    5 1     
    9    5    6 1     
   10    5    7 2     
   11    6   25 1     
   12    6   26 1     
   13    6   27 1     
   14    7    8 1     
   15    8    9 1     
   16    8   28 1     
   17    8   29 1     
   18    9   10 2     
   19    9   11 am    
   20   11   12 1     
   21   11   30 1     
   22   12   13 1     
   23   12   31 1     
   24   12   32 1     
   25   13   14 1     
   26   13   33 1     
   27   13   34 1     
   28   14   15 1     
   29   15   20 1     
   30   15   16 1     
   31   15   35 1     
   32   16   17 1     
   33   16   36 1     
   34   16   37 1     
   35   17   18 1     
   36   17   38 1     
   37   17   39 1     
   38   18   19 1     
   39   18   40 1     
   40   18   41 1     
   41   19   20 1     
   42   19   42 1     
   43   19   43 1     
   44   20   21 1     
   45   20   44 1     
   46   21   45 1     
   47   21   46 1     
   48   21   47 1     
   49    3   48 1     
   50    4   49 1     
   51    4   50 1     
   52   10   51 1     
   53   10   52 1     
   54   14   53 1     
   55   14   54 1     
@<TRIPOS>SUBSTRUCTURE
      1 S1             1
@<TRIPOS>SET
LONE_PAIRS      STATIC     ATOMS    <user>   **** ""
7 48 49 50 51 52 53 54
DONOR_HYDROGENS      STATIC     ATOMS    <user>   **** ""
1 30
ATOM$BLUE        STATIC     ATOMS    COLORGROUP SYSTEM
7 48 49 50 51 52 53 54
ATOM$RED        STATIC     ATOMS    COLORGROUP SYSTEM
1 30
