#       Name:                AV-unprocessed.smi:1235
#       Creating user name   scv26
#       Creation time:       Fri Mar 27 04:25:23 2020


#       File generated by GOLD software.
#

@<TRIPOS>MOLECULE
AV-unprocessed.smi:1235
    57    58     1
SMALL
NO_CHARGES


@<TRIPOS>ATOM
      1 ****        -6.2173  -2.3740   1.8044 C.3            1 S1                 0.0000
      2 ****        -5.6431  -2.1475   0.5290 O.3            1 S1                 0.0000
      3 ****        -5.2646  -0.7951   0.3366 C.3            1 S1                 0.0000
      4 ****        -4.6632  -0.6432  -1.0687 C.3            1 S1                 0.0000
      5 ****        -4.1956   0.7254  -1.3097 N.am           1 S1                 0.0000
      6 ****        -2.8421   0.9070  -1.0808 N.2            1 S1                 0.0000
      7 ****        -2.3029   2.0702  -1.2554 C.2            1 S1                 0.0000
      8 ****        -0.8503   2.3036  -1.0218 C.2            1 S1                 0.0000
      9 ****        -0.3279   3.4044  -1.2036 O.2            1 S1                 0.0000
     10 ****        -0.1565   1.2318  -0.6016 N.am           1 S1                 0.0000
     11 ****         1.2716   1.2273  -0.3186 C.3            1 S1                 0.0000
     12 ****         1.6704  -0.0846   0.3782 C.3            1 S1                 0.0000
     13 ****         3.1054  -0.1386   0.7689 N.4            1 S1                 1.0000
     14 ****         3.3823  -1.2635   1.7032 C.3            1 S1                 0.0000
     15 ****         4.8080  -1.1857   2.2716 C.3            1 S1                 0.0000
     16 ****         5.8471  -1.1450   1.1463 C.3            1 S1                 0.0000
     17 ****         5.5305   0.0114   0.1883 C.3            1 S1                 0.0000
     18 ****         4.0884  -0.0599  -0.3582 C.3            1 S1                 0.0000
     19 ****         3.9180  -1.1781  -1.4093 C.3            1 S1                 0.0000
     20 ****        -3.1021   3.2032  -1.6900 C.2            1 S1                 0.0000
     21 ****        -4.4226   3.0121  -1.9032 C.2            1 S1                 0.0000
     22 ****        -5.0581   1.7074  -1.7107 C.2            1 S1                 0.0000
     23 ****        -6.2596   1.5106  -1.8898 O.2            1 S1                 0.0000
     24 ****        -6.4849  -3.4261   1.9042 H              1 S1                 0.0000
     25 ****        -7.1232  -1.7817   1.9400 H              1 S1                 0.0000
     26 ****        -5.5154  -2.1286   2.6025 H              1 S1                 0.0000
     27 ****        -6.1340  -0.1455   0.4504 H              1 S1                 0.0000
     28 ****        -4.5327  -0.5032   1.0918 H              1 S1                 0.0000
     29 ****        -3.8339  -1.3437  -1.1844 H              1 S1                 0.0000
     30 ****        -5.3957  -0.9351  -1.8233 H              1 S1                 0.0000
     31 ****        -0.6571   0.3633  -0.4768 H              1 S1                 0.0000
     32 ****         1.7992   1.3493  -1.2646 H              1 S1                 0.0000
     33 ****         1.5277   2.0798   0.3130 H              1 S1                 0.0000
     34 ****         1.0677  -0.1768   1.2829 H              1 S1                 0.0000
     35 ****         1.4128  -0.9448  -0.2401 H              1 S1                 0.0000
     36 ****         2.6739  -1.2339   2.5319 H              1 S1                 0.0000
     37 ****         3.2264  -2.2171   1.1977 H              1 S1                 0.0000
     38 ****         4.9064  -0.2951   2.8937 H              1 S1                 0.0000
     39 ****         4.9971  -2.0399   2.9225 H              1 S1                 0.0000
     40 ****         6.8475  -1.0239   1.5627 H              1 S1                 0.0000
     41 ****         5.8491  -2.0924   0.6064 H              1 S1                 0.0000
     42 ****         5.6648   0.9557   0.7179 H              1 S1                 0.0000
     43 ****         6.2476   0.0232  -0.6333 H              1 S1                 0.0000
     44 ****         3.9262   0.8852  -0.8747 H              1 S1                 0.0000
     45 ****         4.6711  -1.0863  -2.1924 H              1 S1                 0.0000
     46 ****         2.9484  -1.1257  -1.9035 H              1 S1                 0.0000
     47 ****         4.0202  -2.1735  -0.9783 H              1 S1                 0.0000
     48 ****        -2.6597   4.1775  -1.8397 H              1 S1                 0.0000
     49 ****        -5.0295   3.8455  -2.2256 H              1 S1                 0.0000
     50 ****         3.2623   0.6969   1.3146 H              1 S1                 0.0000
     51 ****        -6.3111  -2.3965  -0.1723 LP             1 S1                 0.0000
     52 ****        -4.8314  -2.7241   0.4357 LP             1 S1                 0.0000
     53 ****        -2.2796   0.1369  -0.7797 LP             1 S1                 0.0000
     54 ****        -0.8822   4.1752  -1.5175 LP             1 S1                 0.0000
     55 ****         0.6505   3.5271  -1.0373 LP             1 S1                 0.0000
     56 ****        -6.6446   0.5996  -1.7416 LP             1 S1                 0.0000
     57 ****        -6.8509   2.2616  -2.1836 LP             1 S1                 0.0000
@<TRIPOS>BOND
    1    1    2 1     
    2    1   24 1     
    3    1   25 1     
    4    1   26 1     
    5    2    3 1     
    6    3    4 1     
    7    3   27 1     
    8    3   28 1     
    9    4    5 1     
   10    4   29 1     
   11    4   30 1     
   12    5   22 am    
   13    5    6 1     
   14    6    7 2     
   15    7    8 1     
   16    7   20 1     
   17    8    9 2     
   18    8   10 am    
   19   10   11 1     
   20   10   31 1     
   21   11   12 1     
   22   11   32 1     
   23   11   33 1     
   24   12   13 1     
   25   12   34 1     
   26   12   35 1     
   27   13   18 1     
   28   13   14 1     
   29   13   50 1     
   30   14   15 1     
   31   14   36 1     
   32   14   37 1     
   33   15   16 1     
   34   15   38 1     
   35   15   39 1     
   36   16   17 1     
   37   16   40 1     
   38   16   41 1     
   39   17   18 1     
   40   17   42 1     
   41   17   43 1     
   42   18   19 1     
   43   18   44 1     
   44   19   45 1     
   45   19   46 1     
   46   19   47 1     
   47   20   21 2     
   48   20   48 1     
   49   21   22 1     
   50   21   49 1     
   51   22   23 2     
   52    2   51 1     
   53    2   52 1     
   54    6   53 1     
   55    9   54 1     
   56    9   55 1     
   57   23   56 1     
   58   23   57 1     
@<TRIPOS>SUBSTRUCTURE
      1 S1             1
@<TRIPOS>SET
LONE_PAIRS      STATIC     ATOMS    <user>   **** ""
7 51 52 53 54 55 56 57
DONOR_HYDROGENS      STATIC     ATOMS    <user>   **** ""
2 31 50
ATOM$BLUE        STATIC     ATOMS    COLORGROUP SYSTEM
7 51 52 53 54 55 56 57
ATOM$RED        STATIC     ATOMS    COLORGROUP SYSTEM
2 31 50
