AV-unprocessed.smi:81|AV-procd|sdf|791|dock4
  -GOLD-   2262017163D 1   1.00000     0.00000
 Structure written by MMmdl.
 64 67  0  0  0  0  0  0  0  0  2 V2000
  147.7800  136.8278  159.4747 C   0  0  0  0  0  0  0  0  0  0  0  0
  148.8171  136.3554  158.4427 C   0  0  0  0  0  0  0  0  0  0  0  0
  149.7637  137.5152  158.0982 C   0  0  0  0  0  0  0  0  0  0  0  0
  148.1793  135.7943  157.1466 C   0  0  0  0  0  0  0  0  0  0  0  0
  149.1141  135.1986  156.1808 N   0  0  0  0  0  0  0  0  0  0  0  0
  149.2620  133.8660  156.3826 C   0  0  0  0  0  0  0  0  0  0  0  0
  149.5350  133.3929  157.6275 N   0  0  0  0  0  0  0  0  0  0  0  0
  149.7007  132.0811  157.8222 C   0  0  0  0  0  0  0  0  0  0  0  0
  149.6401  131.0907  156.9293 N   0  0  0  0  0  0  0  0  0  0  0  0
  149.3675  131.5642  155.6793 C   0  0  0  0  0  0  0  0  0  0  0  0
  149.1625  132.9256  155.3231 C   0  0  0  0  0  0  0  0  0  0  0  0
  148.8935  133.0298  153.9647 N   0  0  0  0  0  0  0  0  0  0  0  0
  148.9497  131.7977  153.5376 C   0  0  0  0  0  0  0  0  0  0  0  0
  149.2416  130.8545  154.4979 N   0  0  0  0  0  0  0  0  0  0  0  0
  149.3809  129.4205  154.2954 C   0  0  0  0  0  0  0  0  0  0  0  0
  148.0498  128.7191  153.9279 C   0  0  2  0  0  0  0  0  0  0  0  0
  147.1910  128.7780  155.0548 O   0  0  0  0  0  0  0  0  0  0  0  0
  148.2559  127.2457  153.5617 C   0  0  0  0  0  0  0  0  0  0  0  0
  147.9517  127.1888  152.0694 C   0  0  0  0  0  0  0  0  0  0  0  0
  146.9529  128.1806  151.9133 O   0  0  0  0  0  0  0  0  0  0  0  0
  147.3715  129.3105  152.6643 C   0  0  1  0  0  0  0  0  0  0  0  0
  146.1992  130.2811  152.8838 C   0  0  0  0  0  0  0  0  0  0  0  0
  149.2565  135.7001  154.8003 C   0  0  2  0  0  0  0  0  0  0  0  0
  150.7068  136.1293  154.4574 C   0  0  0  0  0  0  0  0  0  0  0  0
  151.1420  137.3657  155.2652 C   0  0  0  0  0  0  0  0  0  0  0  0
  150.2225  138.5062  155.0304 N   0  3  2  0  0  0  0  0  0  0  0  0
  150.6589  139.7329  155.7306 C   0  0  0  0  0  0  0  0  0  0  0  0
  148.8093  138.1608  155.3232 C   0  0  0  0  0  0  0  0  0  0  0  0
  148.3620  136.9280  154.5155 C   0  0  0  0  0  0  0  0  0  0  0  0
  147.1196  137.5857  159.0533 H   0  0  0  0  0  0  0  0  0  0  0  0
  148.2688  137.2658  160.3453 H   0  0  0  0  0  0  0  0  0  0  0  0
  147.1626  136.0111  159.8408 H   0  0  0  0  0  0  0  0  0  0  0  0
  149.4306  135.5843  158.9079 H   0  0  0  0  0  0  0  0  0  0  0  0
  149.2273  138.3392  157.6267 H   0  0  0  0  0  0  0  0  0  0  0  0
  150.5476  137.1927  157.4123 H   0  0  0  0  0  0  0  0  0  0  0  0
  150.2541  137.9039  158.9913 H   0  0  0  0  0  0  0  0  0  0  0  0
  147.3893  135.0871  157.3941 H   0  0  0  0  0  0  0  0  0  0  0  0
  147.6571  136.6060  156.6386 H   0  0  0  0  0  0  0  0  0  0  0  0
  149.9149  131.7824  158.8378 H   0  0  0  0  0  0  0  0  0  0  0  0
  148.7886  131.5411  152.5004 H   0  0  0  0  0  0  0  0  0  0  0  0
  150.1195  129.2556  153.5099 H   0  0  0  0  0  0  0  0  0  0  0  0
  149.8015  128.9865  155.2036 H   0  0  0  0  0  0  0  0  0  0  0  0
  146.4341  129.2952  154.8253 H   0  0  0  0  0  0  0  0  0  0  0  0
  149.2565  126.8767  153.7900 H   0  0  0  0  0  0  0  0  0  0  0  0
  147.5476  126.6055  154.0904 H   0  0  0  0  0  0  0  0  0  0  0  0
  148.8306  127.4540  151.4795 H   0  0  0  0  0  0  0  0  0  0  0  0
  147.6018  126.2080  151.7473 H   0  0  0  0  0  0  0  0  0  0  0  0
  148.1237  129.8118  152.0540 H   0  0  0  0  0  0  0  0  0  0  0  0
  146.5045  131.1411  153.4801 H   0  0  0  0  0  0  0  0  0  0  0  0
  145.3645  129.7970  153.3908 H   0  0  0  0  0  0  0  0  0  0  0  0
  145.8288  130.6572  151.9303 H   0  0  0  0  0  0  0  0  0  0  0  0
  148.9783  134.8940  154.1223 H   0  0  0  0  0  0  0  0  0  0  0  0
  151.4209  135.3202  154.6067 H   0  0  0  0  0  0  0  0  0  0  0  0
  150.7656  136.3644  153.3937 H   0  0  0  0  0  0  0  0  0  0  0  0
  151.1747  137.1323  156.3306 H   0  0  0  0  0  0  0  0  0  0  0  0
  152.1536  137.6512  154.9746 H   0  0  0  0  0  0  0  0  0  0  0  0
  150.6420  139.5931  156.8122 H   0  0  0  0  0  0  0  0  0  0  0  0
  150.0061  140.5705  155.4828 H   0  0  0  0  0  0  0  0  0  0  0  0
  151.6733  140.0039  155.4361 H   0  0  0  0  0  0  0  0  0  0  0  0
  148.6895  137.9805  156.3928 H   0  0  0  0  0  0  0  0  0  0  0  0
  148.1708  139.0090  155.0738 H   0  0  0  0  0  0  0  0  0  0  0  0
  148.4138  137.1658  153.4521 H   0  0  0  0  0  0  0  0  0  0  0  0
  147.3116  136.7129  154.7053 H   0  0  0  0  0  0  0  0  0  0  0  0
  150.2672  138.7090  154.0418 H   0  0  0  0  0  0  0  0  0  0  0  0
  1  2  1  0  0  0  0
  1 30  1  0  0  0  0
  1 31  1  0  0  0  0
  1 32  1  0  0  0  0
  2  3  1  0  0  0  0
  2  4  1  0  0  0  0
  2 33  1  0  0  0  0
  3 34  1  0  0  0  0
  3 35  1  0  0  0  0
  3 36  1  0  0  0  0
  4  5  1  0  0  0  0
  4 37  1  0  0  0  0
  4 38  1  0  0  0  0
  5  6  1  0  0  0  0
  5 23  1  0  0  0  0
  6 11  1  0  0  0  0
  6  7  2  0  0  0  0
  7  8  1  0  0  0  0
  8  9  2  0  0  0  0
  8 39  1  0  0  0  0
  9 10  1  0  0  0  0
 10 14  1  0  0  0  0
 10 11  2  0  0  0  0
 11 12  1  0  0  0  0
 12 13  2  0  0  0  0
 13 14  1  0  0  0  0
 13 40  1  0  0  0  0
 14 15  1  0  0  0  0
 15 16  1  0  0  0  0
 15 41  1  0  0  0  0
 15 42  1  0  0  0  0
 16 21  1  0  0  0  0
 16 17  1  0  0  0  0
 16 18  1  0  0  0  0
 17 43  1  0  0  0  0
 18 19  1  0  0  0  0
 18 44  1  0  0  0  0
 18 45  1  0  0  0  0
 19 20  1  0  0  0  0
 19 46  1  0  0  0  0
 19 47  1  0  0  0  0
 20 21  1  0  0  0  0
 21 22  1  0  0  0  0
 21 48  1  0  0  0  0
 22 49  1  0  0  0  0
 22 50  1  0  0  0  0
 22 51  1  0  0  0  0
 23 29  1  0  0  0  0
 23 24  1  0  0  0  0
 23 52  1  0  0  0  0
 24 25  1  0  0  0  0
 24 53  1  0  0  0  0
 24 54  1  0  0  0  0
 25 26  1  0  0  0  0
 25 55  1  0  0  0  0
 25 56  1  0  0  0  0
 26 27  1  0  0  0  0
 26 28  1  0  0  0  0
 26 64  1  0  0  0  0
 27 57  1  0  0  0  0
 27 58  1  0  0  0  0
 27 59  1  0  0  0  0
 28 29  1  0  0  0  0
 28 60  1  0  0  0  0
 28 61  1  0  0  0  0
 29 62  1  0  0  0  0
 29 63  1  0  0  0  0
M  CHG  1  26   1
M  END
> <s_m_source_file>
AV-unprocessed.smi

> <i_m_source_file_index>
81

> <i_lp_mmshare_version>
43012

> <i_f3d_flags>
0

> <s_epik_input>
W0NIMl0xW0NIMl1OKFtDSDNdKVtDSDJdW0NIMl1bQ0hdMU4oW0NIMl1bQ0hdKFtDSDNdKVtDSDNdKWMobltjSF1uMiljKGMyMyluW2NIXW4zW0NIMl1bQ0BAXTQoW09IXSlbQ0gyXVtDSDJdT1tDQEhdNFtDSDNd

> <s_epik_cmdline>
J2VwaWtfcHl0aG9uJywgJy1waCcsICc3LjAnLCAnLXRuJywgJzgnLCAnLW1hJywgJzIwMCcsICctbWV0YWxfYmluZGluZycsICctaW1hZScsICc8aW5maWxlLm1hZT4nLCAnLW9tYWUnLCAnPG91dGZpbGUubWFlPic=

> <r_lp_tautomer_probability>
1

> <r_epik_Ionization_Penalty>
0.00272708

> <r_epik_Ionization_Penalty_Charging>
0.00158983

> <r_epik_Ionization_Penalty_Neutral>
0.00113725

> <r_epik_State_Penalty>
-0

> <r_epik_Charging_Adjusted_Penalty>
0.00158983

> <i_epik_Tot_Q>
1

> <i_epik_Tot_abs_Q>
1

> <r_epik_Metal_State_Penalty>
-0

> <b_epik_Metal_Only>
0

> <s_lp_Force_Field>
OPLS_2005

> <r_lp_Energy>
49.6566

> <b_lp_Chiralities_Consistent>
1

> <s_lp_Variant>
AV-unprocessed.smi:81-6

> <Gold.Version>
5.8.1

> <Gold.Id.Protein>
6NUR|6NUR_protein|mol2

> <Gold.PLP.Fitness>
38.1629

> <Gold.PLP.PLP>
-33.1864

> <Gold.PLP.part.hbond>
-1.0000

> <Gold.PLP.part.metal>
0.0000

> <Gold.PLP.part.buried>
-2.9014

> <Gold.PLP.part.nonpolar>
-29.5193

> <Gold.PLP.part.repulsive>
0.2378

> <Gold.PLP.ligand.clash>
0.0000

> <Gold.PLP.ligand.torsion>
1.1768

> <Gold.PLP.Chemscore.Hbond>
1.0000

> <Gold.PLP.Chemscore.CHOScore>
1.0000

> <Gold.PLP.Chemscore.Metal>
0.0000

> <Gold.Chemscore.Hbonds>
donor molecule, donor type, donor heavy atom, donor atom, acceptor molecule, acceptor atom, score
      P1  H  6896  6909       L1     7  0.37
      L1  C    13    40       P1 10747  1.00

> <Gold.PLP.Chemscore.Internal.Correction>
1.3302

> <Gold.Rescore>
     Score         DG    S(hbond)    S(metal)    S(lipo)     H(rot)  DE(clash)    DE(int)     intcor
      6.57     -10.11       0.47        0.00      76.95       2.32       0.06       3.48       ----

> <Gold.Chemscore.Fitness>
6.5729

> <Gold.Chemscore.DG>
-10.1136

> <Gold.Chemscore.ZeroCoef>
-5.4800

> <Gold.Chemscore.Hbond>
0.4670

> <Gold.Chemscore.Metal>
0.0000

> <Gold.Chemscore.Lipo>
76.9542

> <Gold.Chemscore.Internal_Hbond>
0.0000

> <Gold.Chemscore.DEClash>
0.0640

> <Gold.Chemscore.DEInternal>
3.4767

> <Gold.Chemscore.Rot>
2.3163

> <Gold.Chemscore.Internal.Correction>
   9.000000E+99

> <Gold.Chemscore.Hbonds>
donor molecule, donor type, donor heavy atom, donor atom, acceptor molecule, acceptor atom, score
      P1  H  6896  6909       L1     7  0.01

> <Gold.Chemscore.Hbond.Weighted>
-1.5597

> <Gold.Chemscore.Metal.Weighted>
-0.0000

> <Gold.Chemscore.Lipo.Weighted>
-9.0036

> <Gold.Chemscore.Internal_Hbond.Weighted>
0.0000

> <Gold.Chemscore.DEClash.Weighted>
0.0640

> <Gold.Chemscore.DEInternal.Weighted>
3.4767

> <Gold.Chemscore.Rot.Weighted>
5.9297

> <Gold.Chemscore.Internal.Correction.Weighted>
   9.000000E+99

> <Gold.Protein.RotatedTorsions>
[ 6907 6896 6895 6894 ] final   -3.27 input  -60.11 | X-H torsion
[ 7974 7965 7964 7962 ] final   77.39 input  175.53 | X-H torsion
[ 8008 7997 7996 7995 ] final -169.00 input   59.86 | X-H torsion
[ 10167 10162 10161 10158 ] final -146.40 input  -65.29 | X-H torsion
[ 10718 10713 10712 10709 ] final   27.37 input   66.30 | X-H torsion
[ 10763 10752 10751 10750 ] final  -62.94 input  -60.55 | X-H torsion
[ 11005 11000 10999 10996 ] final  -57.14 input  -57.11 | X-H torsion

> <Gold.Protein.ActiveResidues>
 VAL166  LYS551  ARG553  GLY616  TRP617  ASP618  TYR619  PRO620  LYS621  CYS622 
 ASP623  PHE694  ASN695  SER759  ASP760  ASP761  ALA762  ILE779  LEU786  VAL792 
 PHE793  MET794  SER795  GLU796  ALA797  LYS798  CYS799  TRP800  GLU811  SER814 

> <Gold.Protein.RotatedAtoms>
  151.5164  135.1066  159.9866 H   0  0  0  0  0  0  0  0  0  0  0  0  # atno 6907 bound_to 6896
  152.4639  133.7878  159.6896 H   0  0  0  0  0  0  0  0  0  0  0  0  # atno 6908 bound_to 6896
  150.8614  133.7574  159.3016 H   0  0  0  0  0  0  0  0  0  0  0  0  # atno 6909 bound_to 6896
  145.6906  139.2551  143.1762 H   0  0  0  0  0  0  0  0  0  0  0  0  # atno 7974 bound_to 7965
  155.8991  140.1038  157.1363 H   0  0  0  0  0  0  0  0  0  0  0  0  # atno 8008 bound_to 7997
  154.4024  140.1296  156.4477 H   0  0  0  0  0  0  0  0  0  0  0  0  # atno 8009 bound_to 7997
  155.7444  140.3466  155.5122 H   0  0  0  0  0  0  0  0  0  0  0  0  # atno 8010 bound_to 7997
  139.7717  143.8229  152.2625 H   0  0  0  0  0  0  0  0  0  0  0  0  # atno 10167 bound_to 10162
  157.2193  130.6971  149.6263 H   0  0  0  0  0  0  0  0  0  0  0  0  # atno 10718 bound_to 10713
  154.3075  135.6222  153.5451 H   0  0  0  0  0  0  0  0  0  0  0  0  # atno 10763 bound_to 10752
  152.9833  135.5693  154.5215 H   0  0  0  0  0  0  0  0  0  0  0  0  # atno 10764 bound_to 10752
  154.4858  135.2865  155.1512 H   0  0  0  0  0  0  0  0  0  0  0  0  # atno 10765 bound_to 10752
  141.1151  133.6610  156.4725 H   0  0  0  0  0  0  0  0  0  0  0  0  # atno 11005 bound_to 11000
  146.0885  140.7683  142.9607 LP  0  0  0  0  0  0  0  0  0  0  0  0  # atno 17320 bound_to 7965
  144.6998  140.3600  143.7165 LP  0  0  0  0  0  0  0  0  0  0  0  0  # atno 17321 bound_to 7965
  139.8265  144.7273  150.9505 LP  0  0  0  0  0  0  0  0  0  0  0  0  # atno 17342 bound_to 10162
  140.7814  143.4110  151.0993 LP  0  0  0  0  0  0  0  0  0  0  0  0  # atno 17343 bound_to 10162
  155.9683  130.4525  150.5777 LP  0  0  0  0  0  0  0  0  0  0  0  0  # atno 17370 bound_to 10713
  157.3592  131.0747  151.1650 LP  0  0  0  0  0  0  0  0  0  0  0  0  # atno 17371 bound_to 10713
  140.4667  134.6791  157.5110 LP  0  0  0  0  0  0  0  0  0  0  0  0  # atno 17394 bound_to 11000
  140.0069  134.6750  155.9441 LP  0  0  0  0  0  0  0  0  0  0  0  0  # atno 17395 bound_to 11000

$$$$
