AV-unprocessed.smi:2121|AV-procd|sdf|8644|dock4
  -GOLD-   2272011393D 1   1.00000     0.00000
 Structure written by MMmdl.
 49 50  0  0  0  0  0  0  0  0  1 V2000
  153.0715  141.9827  161.6727 C   0  0  0  0  0  0  0  0  0  0  0  0
  152.8038  142.3958  160.2216 C   0  0  1  0  0  0  0  0  0  0  0  0
  152.3645  141.2008  159.3568 C   0  0  0  0  0  0  0  0  0  0  0  0
  151.9965  141.6498  158.0180 N   0  0  0  0  0  0  0  0  0  0  0  0
  151.8889  140.6337  157.0443 C   0  0  0  0  0  0  0  0  0  0  0  0
  150.7553  140.5785  156.1993 C   0  0  0  0  0  0  0  0  0  0  0  0
  150.6728  139.5650  155.2261 C   0  0  0  0  0  0  0  0  0  0  0  0
  151.7175  138.6263  155.1216 C   0  0  0  0  0  0  0  0  0  0  0  0
  151.6534  137.5350  154.0608 C   0  0  0  0  0  0  0  0  0  0  0  0
  150.5659  136.5779  154.2339 N   0  0  0  0  0  0  0  0  0  0  0  0
  150.5382  135.6046  155.1565 C   0  0  0  0  0  0  0  0  0  0  0  0
  151.4366  135.4309  155.9817 O   0  0  0  0  0  0  0  0  0  0  0  0
  149.2992  134.6958  155.1453 C   0  0  2  0  0  0  0  0  0  0  0  0
  149.7601  133.2562  154.8632 C   0  0  0  0  0  0  0  0  0  0  0  0
  148.3801  135.0974  154.0816 N   0  0  0  0  0  0  0  0  0  0  0  0
  147.0654  135.3088  154.2417 C   0  0  0  0  0  0  0  0  0  0  0  0
  146.4712  135.6883  153.1100 N   0  0  0  0  0  0  0  0  0  0  0  0
  146.4620  135.1742  155.3047 O   0  0  0  0  0  0  0  0  0  0  0  0
  152.8064  138.7554  156.0114 C   0  0  0  0  0  0  0  0  0  0  0  0
  152.8910  139.7256  156.9460 N   0  0  0  0  0  0  0  0  0  0  0  0
  150.9838  142.7034  158.0256 C   0  0  0  0  0  0  0  0  0  0  0  0
  151.4073  143.8736  158.9352 C   0  0  2  0  0  0  0  0  0  0  0  0
  152.4977  144.7679  158.3186 C   0  0  0  0  0  0  0  0  0  0  0  0
  151.7767  143.3868  160.2275 O   0  0  0  0  0  0  0  0  0  0  0  0
  153.8577  141.2294  161.7281 H   0  0  0  0  0  0  0  0  0  0  0  0
  152.1762  141.5676  162.1366 H   0  0  0  0  0  0  0  0  0  0  0  0
  153.3890  142.8387  162.2686 H   0  0  0  0  0  0  0  0  0  0  0  0
  153.7231  142.8205  159.8180 H   0  0  0  0  0  0  0  0  0  0  0  0
  153.1677  140.4657  159.3295 H   0  0  0  0  0  0  0  0  0  0  0  0
  151.5023  140.7079  159.8079 H   0  0  0  0  0  0  0  0  0  0  0  0
  149.9495  141.2910  156.2929 H   0  0  0  0  0  0  0  0  0  0  0  0
  149.8163  139.5106  154.5702 H   0  0  0  0  0  0  0  0  0  0  0  0
  151.5882  137.9892  153.0705 H   0  0  0  0  0  0  0  0  0  0  0  0
  152.5937  136.9840  154.0842 H   0  0  0  0  0  0  0  0  0  0  0  0
  149.7854  136.6518  153.5976 H   0  0  0  0  0  0  0  0  0  0  0  0
  148.7901  134.7347  156.1106 H   0  0  0  0  0  0  0  0  0  0  0  0
  150.4481  132.9035  155.6328 H   0  0  0  0  0  0  0  0  0  0  0  0
  150.2664  133.1717  153.9002 H   0  0  0  0  0  0  0  0  0  0  0  0
  148.9114  132.5716  154.8498 H   0  0  0  0  0  0  0  0  0  0  0  0
  148.7807  135.2442  153.1669 H   0  0  0  0  0  0  0  0  0  0  0  0
  145.4792  135.8736  153.0940 H   0  0  0  0  0  0  0  0  0  0  0  0
  147.0201  135.7829  152.2679 H   0  0  0  0  0  0  0  0  0  0  0  0
  153.6406  138.0703  155.9756 H   0  0  0  0  0  0  0  0  0  0  0  0
  150.8043  143.0707  157.0143 H   0  0  0  0  0  0  0  0  0  0  0  0
  150.0446  142.2817  158.3861 H   0  0  0  0  0  0  0  0  0  0  0  0
  150.5325  144.5062  159.0879 H   0  0  0  0  0  0  0  0  0  0  0  0
  152.1398  145.2332  157.3999 H   0  0  0  0  0  0  0  0  0  0  0  0
  153.3987  144.2092  158.0668 H   0  0  0  0  0  0  0  0  0  0  0  0
  152.7785  145.5668  159.0050 H   0  0  0  0  0  0  0  0  0  0  0  0
  1  2  1  0  0  0  0
  1 25  1  0  0  0  0
  1 26  1  0  0  0  0
  1 27  1  0  0  0  0
  2 24  1  0  0  0  0
  2  3  1  0  0  0  0
  2 28  1  0  0  0  0
  3  4  1  0  0  0  0
  3 29  1  0  0  0  0
  3 30  1  0  0  0  0
  4  5  1  0  0  0  0
  4 21  1  0  0  0  0
  5 20  1  0  0  0  0
  5  6  2  0  0  0  0
  6  7  1  0  0  0  0
  6 31  1  0  0  0  0
  7  8  2  0  0  0  0
  7 32  1  0  0  0  0
  8  9  1  0  0  0  0
  8 19  1  0  0  0  0
  9 10  1  0  0  0  0
  9 33  1  0  0  0  0
  9 34  1  0  0  0  0
 10 11  1  0  0  0  0
 10 35  1  0  0  0  0
 11 12  2  0  0  0  0
 11 13  1  0  0  0  0
 13 14  1  0  0  0  0
 13 15  1  0  0  0  0
 13 36  1  0  0  0  0
 14 37  1  0  0  0  0
 14 38  1  0  0  0  0
 14 39  1  0  0  0  0
 15 16  1  0  0  0  0
 15 40  1  0  0  0  0
 16 17  1  0  0  0  0
 16 18  2  0  0  0  0
 17 41  1  0  0  0  0
 17 42  1  0  0  0  0
 19 20  2  0  0  0  0
 19 43  1  0  0  0  0
 21 22  1  0  0  0  0
 21 44  1  0  0  0  0
 21 45  1  0  0  0  0
 22 23  1  0  0  0  0
 22 24  1  0  0  0  0
 22 46  1  0  0  0  0
 23 47  1  0  0  0  0
 23 48  1  0  0  0  0
 23 49  1  0  0  0  0
M  END
> <s_m_source_file>
AV-unprocessed.smi

> <i_m_source_file_index>
2121

> <i_lp_mmshare_version>
43012

> <i_f3d_flags>
0

> <s_epik_input>
W0NIM11bQ0BASF0xW0NIMl1OKFtDSDJdW0NASF0oTzEpW0NIM10pYzJbY0hdW2NIXWMoW2NIXW4yKVtDSDJdW05IXUMoPU8pW0NASF0oW0NIM10pW05IXUMoPU8pW05IMl0=

> <s_epik_cmdline>
J2VwaWtfcHl0aG9uJywgJy1waCcsICc3LjAnLCAnLXRuJywgJzgnLCAnLW1hJywgJzIwMCcsICctbWV0YWxfYmluZGluZycsICctaW1hZScsICc8aW5maWxlLm1hZT4nLCAnLW9tYWUnLCAnPG91dGZpbGUubWFlPic=

> <r_lp_tautomer_probability>
1

> <r_epik_Ionization_Penalty>
0.0063713

> <r_epik_Ionization_Penalty_Charging>
0

> <r_epik_Ionization_Penalty_Neutral>
0.0063713

> <r_epik_State_Penalty>
0.00467069

> <r_epik_Charging_Adjusted_Penalty>
0.00467069

> <i_epik_Tot_Q>
0

> <i_epik_Tot_abs_Q>
0

> <r_epik_Metal_State_Penalty>
-0

> <b_epik_Metal_Only>
0

> <s_lp_Force_Field>
OPLS_2005

> <r_lp_Energy>
13.1908

> <b_lp_Chiralities_Consistent>
1

> <s_lp_Variant>
AV-unprocessed.smi:2121-5

> <Gold.Version>
5.8.1

> <Gold.Id.Protein>
6NUR|6NUR_protein|mol2

> <Gold.PLP.Fitness>
58.5899

> <Gold.PLP.PLP>
-44.8021

> <Gold.PLP.part.hbond>
-6.0000

> <Gold.PLP.part.metal>
0.0000

> <Gold.PLP.part.buried>
-0.6263

> <Gold.PLP.part.nonpolar>
-38.5574

> <Gold.PLP.part.repulsive>
0.1755

> <Gold.PLP.ligand.clash>
0.0000

> <Gold.PLP.ligand.torsion>
0.3668

> <Gold.PLP.Chemscore.Hbond>
4.7200

> <Gold.PLP.Chemscore.CHOScore>
0.0000

> <Gold.PLP.Chemscore.Metal>
0.0000

> <Gold.Chemscore.Hbonds>
donor molecule, donor type, donor heavy atom, donor atom, acceptor molecule, acceptor atom, score
      L1  H    10    35       P1  7948  0.96
      L1  H    15    40       P1  7948  0.99
      L1  H    17    42       P1  7948  0.72
      P1  H  7997  8008       L1    20  1.00
      P1  H 10752 10765       L1    12  1.00

> <Gold.PLP.Chemscore.Internal.Correction>
0.3614

> <Gold.Rescore>
     Score         DG    S(hbond)    S(metal)    S(lipo)     H(rot)  DE(clash)    DE(int)     intcor
     21.11     -22.02       3.03        0.00     111.42       2.58       0.47       0.44       ----

> <Gold.Chemscore.Fitness>
21.1074

> <Gold.Chemscore.DG>
-22.0208

> <Gold.Chemscore.ZeroCoef>
-5.4800

> <Gold.Chemscore.Hbond>
3.0298

> <Gold.Chemscore.Metal>
0.0000

> <Gold.Chemscore.Lipo>
111.4155

> <Gold.Chemscore.Internal_Hbond>
0.0000

> <Gold.Chemscore.DEClash>
0.4699

> <Gold.Chemscore.DEInternal>
0.4436

> <Gold.Chemscore.Rot>
2.5838

> <Gold.Chemscore.Internal.Correction>
   9.000000E+99

> <Gold.Chemscore.Hbonds>
donor molecule, donor type, donor heavy atom, donor atom, acceptor molecule, acceptor atom, score
      L1  H    10    35       P1  7948  0.41
      L1  H    15    40       P1  7948  0.61
      L1  H    17    42       P1  7948  0.69
      P1  H  7997  8008       L1    20  0.24
      P1  H 10752 10765       L1    12  0.72

> <Gold.Chemscore.Hbond.Weighted>
-10.1197

> <Gold.Chemscore.Metal.Weighted>
-0.0000

> <Gold.Chemscore.Lipo.Weighted>
-13.0356

> <Gold.Chemscore.Internal_Hbond.Weighted>
0.0000

> <Gold.Chemscore.DEClash.Weighted>
0.4699

> <Gold.Chemscore.DEInternal.Weighted>
0.4436

> <Gold.Chemscore.Rot.Weighted>
6.6145

> <Gold.Chemscore.Internal.Correction.Weighted>
   9.000000E+99

> <Gold.Protein.RotatedTorsions>
[ 6907 6896 6895 6894 ] final  129.71 input  -60.11 | X-H torsion
[ 7974 7965 7964 7962 ] final -143.44 input  175.53 | X-H torsion
[ 8008 7997 7996 7995 ] final  -75.01 input   59.86 | X-H torsion
[ 10167 10162 10161 10158 ] final   12.36 input  -65.29 | X-H torsion
[ 10718 10713 10712 10709 ] final  123.96 input   66.30 | X-H torsion
[ 10763 10752 10751 10750 ] final -147.39 input  -60.55 | X-H torsion
[ 11005 11000 10999 10996 ] final  -32.59 input  -57.11 | X-H torsion

> <Gold.Protein.ActiveResidues>
 VAL166  LYS551  ARG553  GLY616  TRP617  ASP618  TYR619  PRO620  LYS621  CYS622 
 ASP623  PHE694  ASN695  SER759  ASP760  ASP761  ALA762  ILE779  LEU786  VAL792 
 PHE793  MET794  SER795  GLU796  ALA797  LYS798  CYS799  TRP800  GLU811  SER814 

> <Gold.Protein.RotatedAtoms>
  152.3598  133.6282  159.6005 H   0  0  0  0  0  0  0  0  0  0  0  0  # atno 6907 bound_to 6896
  150.7593  133.9442  159.3474 H   0  0  0  0  0  0  0  0  0  0  0  0  # atno 6908 bound_to 6896
  151.7282  135.0881  160.0347 H   0  0  0  0  0  0  0  0  0  0  0  0  # atno 6909 bound_to 6896
  144.8369  140.5834  143.5478 H   0  0  0  0  0  0  0  0  0  0  0  0  # atno 7974 bound_to 7965
  154.5379  140.0751  156.8460 H   0  0  0  0  0  0  0  0  0  0  0  0  # atno 8008 bound_to 7997
  155.3240  140.3398  155.4222 H   0  0  0  0  0  0  0  0  0  0  0  0  # atno 8009 bound_to 7997
  156.1846  140.1664  156.8196 H   0  0  0  0  0  0  0  0  0  0  0  0  # atno 8010 bound_to 7997
  140.6073  143.8482  150.7027 H   0  0  0  0  0  0  0  0  0  0  0  0  # atno 10167 bound_to 10162
  157.5623  131.1089  150.8516 H   0  0  0  0  0  0  0  0  0  0  0  0  # atno 10718 bound_to 10713
  154.8288  135.3361  154.6811 H   0  0  0  0  0  0  0  0  0  0  0  0  # atno 10763 bound_to 10752
  153.7433  135.6944  153.4966 H   0  0  0  0  0  0  0  0  0  0  0  0  # atno 10764 bound_to 10752
  153.2228  135.4443  155.0459 H   0  0  0  0  0  0  0  0  0  0  0  0  # atno 10765 bound_to 10752
  140.9565  133.7190  156.1301 H   0  0  0  0  0  0  0  0  0  0  0  0  # atno 11005 bound_to 11000
  145.4775  139.1498  143.3780 LP  0  0  0  0  0  0  0  0  0  0  0  0  # atno 17320 bound_to 7965
  146.2667  140.4910  142.8831 LP  0  0  0  0  0  0  0  0  0  0  0  0  # atno 17321 bound_to 7965
  140.2042  143.3935  152.1768 LP  0  0  0  0  0  0  0  0  0  0  0  0  # atno 17342 bound_to 10162
  139.5334  144.7184  151.4976 LP  0  0  0  0  0  0  0  0  0  0  0  0  # atno 17343 bound_to 10162
  156.9011  130.5247  149.5283 LP  0  0  0  0  0  0  0  0  0  0  0  0  # atno 17370 bound_to 10713
  156.0674  130.5715  150.9316 LP  0  0  0  0  0  0  0  0  0  0  0  0  # atno 17371 bound_to 10713
  140.7529  134.4025  157.5538 LP  0  0  0  0  0  0  0  0  0  0  0  0  # atno 17394 bound_to 11000
  139.8864  134.8911  156.2588 LP  0  0  0  0  0  0  0  0  0  0  0  0  # atno 17395 bound_to 11000

$$$$
