AV-unprocessed.smi:2245|AV-procd|sdf|9081|dock4
  -GOLD-   2272012283D 1   1.00000     0.00000
 Structure written by MMmdl.
 45 46  0  0  0  0  0  0  0  0  2 V2000
  152.3634  144.7883  160.3711 C   0  0  0  0  0  0  0  0  0  0  0  0
  152.0820  143.5840  159.4972 C   0  0  0  0  0  0  0  0  0  0  0  0
  152.7666  142.3712  159.7018 C   0  0  0  0  0  0  0  0  0  0  0  0
  152.4667  141.2870  158.8538 C   0  0  0  0  0  0  0  0  0  0  0  0
  153.1624  139.9523  159.0194 C   0  0  0  0  0  0  0  0  0  0  0  0
  151.5563  141.3596  157.8594 N   0  0  0  0  0  0  0  0  0  0  0  0
  150.8908  142.5228  157.6529 C   0  0  0  0  0  0  0  0  0  0  0  0
  149.9179  142.7027  156.6338 N   0  0  0  0  0  0  0  0  0  0  0  0
  149.2289  141.7587  155.9688 C   0  0  0  0  0  0  0  0  0  0  0  0
  149.3190  140.5450  156.1552 O   0  0  0  0  0  0  0  0  0  0  0  0
  148.4147  142.3040  155.0532 N   0  0  0  0  0  0  0  0  0  0  0  0
  147.5240  141.5562  154.1710 C   0  0  0  0  0  0  0  0  0  0  0  0
  146.0666  142.0539  154.2446 C   0  0  1  0  0  0  0  0  0  0  0  0
  145.5312  142.2042  155.6673 C   0  0  0  0  0  0  0  0  0  0  0  0
  144.3826  143.2144  155.5413 C   0  0  0  0  0  0  0  0  0  0  0  0
  144.5333  143.8756  154.2221 N   0  3  1  0  0  0  0  0  0  0  0  0
  144.3225  145.3435  154.2142 C   0  0  0  0  0  0  0  0  0  0  0  0
  142.9239  145.7433  154.7166 C   0  0  0  0  0  0  0  0  0  0  0  0
  142.6342  146.9641  154.2692 F   0  0  0  0  0  0  0  0  0  0  0  0
  142.0111  144.8899  154.2529 F   0  0  0  0  0  0  0  0  0  0  0  0
  142.8742  145.7586  156.0481 F   0  0  0  0  0  0  0  0  0  0  0  0
  145.8308  143.4477  153.6627 C   0  0  0  0  0  0  0  0  0  0  0  0
  151.1329  143.6588  158.4575 C   0  0  0  0  0  0  0  0  0  0  0  0
  152.7764  144.4852  161.3337 H   0  0  0  0  0  0  0  0  0  0  0  0
  151.4488  145.3516  160.5576 H   0  0  0  0  0  0  0  0  0  0  0  0
  153.0802  145.4477  159.8813 H   0  0  0  0  0  0  0  0  0  0  0  0
  153.5018  142.2749  160.4876 H   0  0  0  0  0  0  0  0  0  0  0  0
  153.9931  140.0246  159.7223 H   0  0  0  0  0  0  0  0  0  0  0  0
  153.5563  139.6053  158.0636 H   0  0  0  0  0  0  0  0  0  0  0  0
  152.4612  139.2061  159.3936 H   0  0  0  0  0  0  0  0  0  0  0  0
  149.7304  143.6611  156.3797 H   0  0  0  0  0  0  0  0  0  0  0  0
  148.3974  143.3101  154.9716 H   0  0  0  0  0  0  0  0  0  0  0  0
  147.8915  141.6156  153.1452 H   0  0  0  0  0  0  0  0  0  0  0  0
  147.5762  140.5049  154.4554 H   0  0  0  0  0  0  0  0  0  0  0  0
  145.4178  141.3514  153.7186 H   0  0  0  0  0  0  0  0  0  0  0  0
  145.2090  141.2544  156.0953 H   0  0  0  0  0  0  0  0  0  0  0  0
  146.3054  142.6141  156.3177 H   0  0  0  0  0  0  0  0  0  0  0  0
  143.4152  142.7124  155.5712 H   0  0  0  0  0  0  0  0  0  0  0  0
  144.4126  143.9264  156.3670 H   0  0  0  0  0  0  0  0  0  0  0  0
  145.1020  145.8394  154.7949 H   0  0  0  0  0  0  0  0  0  0  0  0
  144.4294  145.6965  153.1874 H   0  0  0  0  0  0  0  0  0  0  0  0
  146.6174  144.1290  153.9926 H   0  0  0  0  0  0  0  0  0  0  0  0
  145.8144  143.4506  152.5722 H   0  0  0  0  0  0  0  0  0  0  0  0
  150.5967  144.5803  158.2814 H   0  0  0  0  0  0  0  0  0  0  0  0
  143.8293  143.4712  153.6207 H   0  0  0  0  0  0  0  0  0  0  0  0
  1  2  1  0  0  0  0
  1 24  1  0  0  0  0
  1 25  1  0  0  0  0
  1 26  1  0  0  0  0
  2 23  1  0  0  0  0
  2  3  2  0  0  0  0
  3  4  1  0  0  0  0
  3 27  1  0  0  0  0
  4  5  1  0  0  0  0
  4  6  2  0  0  0  0
  5 28  1  0  0  0  0
  5 29  1  0  0  0  0
  5 30  1  0  0  0  0
  6  7  1  0  0  0  0
  7  8  1  0  0  0  0
  7 23  2  0  0  0  0
  8  9  1  0  0  0  0
  8 31  1  0  0  0  0
  9 10  2  0  0  0  0
  9 11  1  0  0  0  0
 11 12  1  0  0  0  0
 11 32  1  0  0  0  0
 12 13  1  0  0  0  0
 12 33  1  0  0  0  0
 12 34  1  0  0  0  0
 13 22  1  0  0  0  0
 13 14  1  0  0  0  0
 13 35  1  0  0  0  0
 14 15  1  0  0  0  0
 14 36  1  0  0  0  0
 14 37  1  0  0  0  0
 15 16  1  0  0  0  0
 15 38  1  0  0  0  0
 15 39  1  0  0  0  0
 16 17  1  0  0  0  0
 16 22  1  0  0  0  0
 16 45  1  0  0  0  0
 17 18  1  0  0  0  0
 17 40  1  0  0  0  0
 17 41  1  0  0  0  0
 18 19  1  0  0  0  0
 18 20  1  0  0  0  0
 18 21  1  0  0  0  0
 22 42  1  0  0  0  0
 22 43  1  0  0  0  0
 23 44  1  0  0  0  0
M  CHG  1  16   1
M  END
> <s_m_source_file>
AV-unprocessed.smi

> <i_m_source_file_index>
2245

> <i_lp_mmshare_version>
43012

> <i_f3d_flags>
0

> <s_epik_input>
W0NIM11jMVtjSF1jKFtDSDNdKW5jKFtjSF0xKVtOSF1DKD1PKVtOSF1bQ0gyXVtDQEBIXTJbQ0gyXVtDSDJdTihbQ0gyXTIpW0NIMl1DKEYpKEYpRg==

> <s_epik_cmdline>
J2VwaWtfcHl0aG9uJywgJy1waCcsICc3LjAnLCAnLXRuJywgJzgnLCAnLW1hJywgJzIwMCcsICctbWV0YWxfYmluZGluZycsICctaW1hZScsICc8aW5maWxlLm1hZT4nLCAnLW9tYWUnLCAnPG91dGZpbGUubWFlPic=

> <r_epik_Ionization_Penalty>
0.628315

> <r_epik_Ionization_Penalty_Charging>
0.628113

> <r_epik_Ionization_Penalty_Neutral>
0.000202271

> <r_epik_State_Penalty>
0.644725

> <r_epik_Charging_Adjusted_Penalty>
1.27284

> <i_epik_Tot_Q>
1

> <i_epik_Tot_abs_Q>
1

> <r_epik_Metal_State_Penalty>
0.644752

> <b_epik_Metal_Only>
0

> <s_lp_Force_Field>
OPLS_2005

> <r_lp_Energy>
28.8991

> <b_lp_Chiralities_Consistent>
1

> <s_lp_Variant>
AV-unprocessed.smi:2245-6

> <Gold.Version>
5.8.1

> <Gold.Id.Protein>
6NUR|6NUR_protein|mol2

> <Gold.PLP.Fitness>
54.3757

> <Gold.PLP.PLP>
-43.0508

> <Gold.PLP.part.hbond>
-2.7657

> <Gold.PLP.part.metal>
0.0000

> <Gold.PLP.part.buried>
-4.9381

> <Gold.PLP.part.nonpolar>
-36.1093

> <Gold.PLP.part.repulsive>
0.3517

> <Gold.PLP.ligand.clash>
0.0000

> <Gold.PLP.ligand.torsion>
0.4649

> <Gold.PLP.Chemscore.Hbond>
3.9440

> <Gold.PLP.Chemscore.CHOScore>
0.0000

> <Gold.PLP.Chemscore.Metal>
0.0000

> <Gold.Chemscore.Hbonds>
donor molecule, donor type, donor heavy atom, donor atom, acceptor molecule, acceptor atom, score
      L1  H     8    31       P1  8028  0.99
      L1  H    11    32       P1  8028  0.93
      L1  H    16    45       P1 10174  1.53

> <Gold.PLP.Chemscore.Internal.Correction>
0.4226

> <Gold.Rescore>
     Score         DG    S(hbond)    S(metal)    S(lipo)     H(rot)  DE(clash)    DE(int)     intcor
     18.54     -20.55       2.38        0.00      96.17       1.61       0.16       1.84       ----

> <Gold.Chemscore.Fitness>
18.5426

> <Gold.Chemscore.DG>
-20.5463

> <Gold.Chemscore.ZeroCoef>
-5.4800

> <Gold.Chemscore.Hbond>
2.3792

> <Gold.Chemscore.Metal>
0.0000

> <Gold.Chemscore.Lipo>
96.1724

> <Gold.Chemscore.Internal_Hbond>
0.0000

> <Gold.Chemscore.DEClash>
0.1612

> <Gold.Chemscore.DEInternal>
1.8426

> <Gold.Chemscore.Rot>
1.6143

> <Gold.Chemscore.Internal.Correction>
   9.000000E+99

> <Gold.Chemscore.Hbonds>
donor molecule, donor type, donor heavy atom, donor atom, acceptor molecule, acceptor atom, score
      L1  H     8    31       P1  8028  0.89
      L1  H    11    32       P1  8028  0.90
      L1  H    16    45       P1 10174  0.42

> <Gold.Chemscore.Hbond.Weighted>
-7.9466

> <Gold.Chemscore.Metal.Weighted>
-0.0000

> <Gold.Chemscore.Lipo.Weighted>
-11.2522

> <Gold.Chemscore.Internal_Hbond.Weighted>
0.0000

> <Gold.Chemscore.DEClash.Weighted>
0.1612

> <Gold.Chemscore.DEInternal.Weighted>
1.8426

> <Gold.Chemscore.Rot.Weighted>
4.1325

> <Gold.Chemscore.Internal.Correction.Weighted>
   9.000000E+99

> <Gold.Protein.RotatedTorsions>
[ 6907 6896 6895 6894 ] final  139.77 input  -60.11 | X-H torsion
[ 7974 7965 7964 7962 ] final  -11.71 input  175.53 | X-H torsion
[ 8008 7997 7996 7995 ] final -168.53 input   59.86 | X-H torsion
[ 10167 10162 10161 10158 ] final   48.63 input  -65.29 | X-H torsion
[ 10718 10713 10712 10709 ] final  -61.69 input   66.30 | X-H torsion
[ 10763 10752 10751 10750 ] final -148.98 input  -60.55 | X-H torsion
[ 11005 11000 10999 10996 ] final   25.24 input  -57.11 | X-H torsion

> <Gold.Protein.ActiveResidues>
 VAL166  LYS551  ARG553  GLY616  TRP617  ASP618  TYR619  PRO620  LYS621  CYS622 
 ASP623  PHE694  ASN695  SER759  ASP760  ASP761  ALA762  ILE779  LEU786  VAL792 
 PHE793  MET794  SER795  GLU796  ALA797  LYS798  CYS799  TRP800  GLU811  SER814 

> <Gold.Protein.RotatedAtoms>
  152.2510  133.5215  159.5325 H   0  0  0  0  0  0  0  0  0  0  0  0  # atno 6907 bound_to 6896
  150.7093  134.0960  159.3957 H   0  0  0  0  0  0  0  0  0  0  0  0  # atno 6908 bound_to 6896
  151.8879  135.0428  160.0546 H   0  0  0  0  0  0  0  0  0  0  0  0  # atno 6909 bound_to 6896
  146.2178  140.2951  142.8371 H   0  0  0  0  0  0  0  0  0  0  0  0  # atno 7974 bound_to 7965
  155.8926  140.1027  157.1408 H   0  0  0  0  0  0  0  0  0  0  0  0  # atno 8008 bound_to 7997
  154.4016  140.1308  156.4399 H   0  0  0  0  0  0  0  0  0  0  0  0  # atno 8009 bound_to 7997
  155.7516  140.3465  155.5155 H   0  0  0  0  0  0  0  0  0  0  0  0  # atno 8010 bound_to 7997
  140.2913  144.3043  150.6240 H   0  0  0  0  0  0  0  0  0  0  0  0  # atno 10167 bound_to 10162
  156.0904  130.4201  150.1030 H   0  0  0  0  0  0  0  0  0  0  0  0  # atno 10718 bound_to 10713
  154.8203  135.3321  154.7058 H   0  0  0  0  0  0  0  0  0  0  0  0  # atno 10763 bound_to 10752
  153.7692  135.6927  153.4914 H   0  0  0  0  0  0  0  0  0  0  0  0  # atno 10764 bound_to 10752
  153.2057  135.4500  155.0268 H   0  0  0  0  0  0  0  0  0  0  0  0  # atno 10765 bound_to 10752
  140.3500  134.2240  155.7681 H   0  0  0  0  0  0  0  0  0  0  0  0  # atno 11005 bound_to 11000
  144.9098  140.7743  143.5814 LP  0  0  0  0  0  0  0  0  0  0  0  0  # atno 17320 bound_to 7965
  145.2881  139.1893  143.4755 LP  0  0  0  0  0  0  0  0  0  0  0  0  # atno 17321 bound_to 7965
  140.5730  143.2179  151.7566 LP  0  0  0  0  0  0  0  0  0  0  0  0  # atno 17342 bound_to 10162
  139.4937  144.4190  151.9998 LP  0  0  0  0  0  0  0  0  0  0  0  0  # atno 17343 bound_to 10162
  156.9041  130.9630  151.3572 LP  0  0  0  0  0  0  0  0  0  0  0  0  # atno 17370 bound_to 10713
  157.6052  130.8542  149.8864 LP  0  0  0  0  0  0  0  0  0  0  0  0  # atno 17371 bound_to 10713
  141.2015  133.7961  157.0438 LP  0  0  0  0  0  0  0  0  0  0  0  0  # atno 17394 bound_to 11000
  140.0711  134.9701  157.1469 LP  0  0  0  0  0  0  0  0  0  0  0  0  # atno 17395 bound_to 11000

$$$$
