AV-unprocessed.smi:1433|AV-procd|sdf|5840|dock7
  -GOLD-   22720 5503D 1   1.00000     0.00000
 Structure written by MMmdl.
 44 45  0  0  0  0  0  0  0  0  1 V2000
  148.6264  140.6673  154.0080 C   0  0  0  0  0  0  0  0  0  0  0  0
  149.5257  139.7553  154.8490 C   0  0  1  0  0  0  0  0  0  0  0  0
  149.2604  138.2649  154.5696 C   0  0  0  0  0  0  0  0  0  0  0  0
  150.1681  137.3766  155.3016 N   0  0  0  0  0  0  0  0  0  0  0  0
  149.9026  135.9416  155.0431 C   0  0  1  0  0  0  0  0  0  0  0  0
  150.6446  135.0082  156.0357 C   0  0  0  0  0  0  0  0  0  0  0  0
  148.3906  135.5829  155.0534 C   0  0  0  0  0  0  0  0  0  0  0  0
  148.0005  134.8122  153.8793 N   0  0  0  0  0  0  0  0  0  0  0  0
  147.2653  133.6909  153.9008 C   0  0  0  0  0  0  0  0  0  0  0  0
  146.7847  133.2129  154.9279 O   0  0  0  0  0  0  0  0  0  0  0  0
  147.0405  132.9996  152.5546 C   0  0  0  0  0  0  0  0  0  0  0  0
  146.0454  133.7024  151.7625 N   0  0  0  0  0  0  0  0  0  0  0  0
  145.9997  135.0425  151.4385 C   0  0  0  0  0  0  0  0  0  0  0  0
  144.8732  135.2424  150.6933 C   0  0  0  0  0  0  0  0  0  0  0  0
  144.2867  133.9484  150.6128 C   0  0  0  0  0  0  0  0  0  0  0  0
  144.9897  133.0286  151.2539 N   0  0  0  0  0  0  0  0  0  0  0  0
  151.5439  137.7616  154.9658 C   0  0  0  0  0  0  0  0  0  0  0  0
  151.8451  139.2550  155.2013 C   0  0  2  0  0  0  0  0  0  0  0  0
  151.9809  139.6227  156.6890 C   0  0  0  0  0  0  0  0  0  0  0  0
  150.8792  140.0664  154.5378 O   0  0  0  0  0  0  0  0  0  0  0  0
  147.5726  140.4806  154.2158 H   0  0  0  0  0  0  0  0  0  0  0  0
  148.7905  140.5088  152.9418 H   0  0  0  0  0  0  0  0  0  0  0  0
  148.8262  141.7173  154.2233 H   0  0  0  0  0  0  0  0  0  0  0  0
  149.3362  139.9672  155.9017 H   0  0  0  0  0  0  0  0  0  0  0  0
  148.2268  138.0756  154.8515 H   0  0  0  0  0  0  0  0  0  0  0  0
  149.3388  138.0711  153.4986 H   0  0  0  0  0  0  0  0  0  0  0  0
  150.2767  135.7061  154.0454 H   0  0  0  0  0  0  0  0  0  0  0  0
  150.4066  133.9559  155.8826 H   0  0  0  0  0  0  0  0  0  0  0  0
  150.3920  135.2520  157.0682 H   0  0  0  0  0  0  0  0  0  0  0  0
  151.7266  135.0681  155.9300 H   0  0  0  0  0  0  0  0  0  0  0  0
  148.1493  135.0318  155.9644 H   0  0  0  0  0  0  0  0  0  0  0  0
  147.7626  136.4720  155.0391 H   0  0  0  0  0  0  0  0  0  0  0  0
  148.3508  135.1304  152.9870 H   0  0  0  0  0  0  0  0  0  0  0  0
  147.9737  132.9629  151.9910 H   0  0  0  0  0  0  0  0  0  0  0  0
  146.7205  131.9688  152.7156 H   0  0  0  0  0  0  0  0  0  0  0  0
  146.7629  135.7338  151.7653 H   0  0  0  0  0  0  0  0  0  0  0  0
  144.5213  136.1715  150.2705 H   0  0  0  0  0  0  0  0  0  0  0  0
  143.3767  133.6525  150.1118 H   0  0  0  0  0  0  0  0  0  0  0  0
  152.2620  137.1919  155.5530 H   0  0  0  0  0  0  0  0  0  0  0  0
  151.7394  137.5235  153.9190 H   0  0  0  0  0  0  0  0  0  0  0  0
  152.8033  139.4794  154.7322 H   0  0  0  0  0  0  0  0  0  0  0  0
  152.8085  139.0808  157.1471 H   0  0  0  0  0  0  0  0  0  0  0  0
  151.0822  139.3810  157.2561 H   0  0  0  0  0  0  0  0  0  0  0  0
  152.1771  140.6881  156.8099 H   0  0  0  0  0  0  0  0  0  0  0  0
  1  2  1  0  0  0  0
  1 21  1  0  0  0  0
  1 22  1  0  0  0  0
  1 23  1  0  0  0  0
  2 20  1  0  0  0  0
  2  3  1  0  0  0  0
  2 24  1  0  0  0  0
  3  4  1  0  0  0  0
  3 25  1  0  0  0  0
  3 26  1  0  0  0  0
  4  5  1  0  0  0  0
  4 17  1  0  0  0  0
  5  6  1  0  0  0  0
  5  7  1  0  0  0  0
  5 27  1  0  0  0  0
  6 28  1  0  0  0  0
  6 29  1  0  0  0  0
  6 30  1  0  0  0  0
  7  8  1  0  0  0  0
  7 31  1  0  0  0  0
  7 32  1  0  0  0  0
  8  9  1  0  0  0  0
  8 33  1  0  0  0  0
  9 10  2  0  0  0  0
  9 11  1  0  0  0  0
 11 12  1  0  0  0  0
 11 34  1  0  0  0  0
 11 35  1  0  0  0  0
 12 16  1  0  0  0  0
 12 13  1  0  0  0  0
 13 14  2  0  0  0  0
 13 36  1  0  0  0  0
 14 15  1  0  0  0  0
 14 37  1  0  0  0  0
 15 16  2  0  0  0  0
 15 38  1  0  0  0  0
 17 18  1  0  0  0  0
 17 39  1  0  0  0  0
 17 40  1  0  0  0  0
 18 19  1  0  0  0  0
 18 20  1  0  0  0  0
 18 41  1  0  0  0  0
 19 42  1  0  0  0  0
 19 43  1  0  0  0  0
 19 44  1  0  0  0  0
M  END
> <s_m_source_file>
AV-unprocessed.smi

> <i_m_source_file_index>
1433

> <i_lp_mmshare_version>
43012

> <i_f3d_flags>
0

> <s_epik_input>
W0NIM11bQ0BASF0xW0NIMl1OKFtDSDJdW0NASF0oTzEpW0NIM10pW0NASF0oW0NIM10pW0NIMl1bTkhdQyg9TylbQ0gyXW4yW2NIXVtjSF1bY0hdbjI=

> <s_epik_cmdline>
J2VwaWtfcHl0aG9uJywgJy1waCcsICc3LjAnLCAnLXRuJywgJzgnLCAnLW1hJywgJzIwMCcsICctbWV0YWxfYmluZGluZycsICctaW1hZScsICc8aW5maWxlLm1hZT4nLCAnLW9tYWUnLCAnPG91dGZpbGUubWFlPic=

> <r_lp_tautomer_probability>
1

> <r_epik_Ionization_Penalty>
0.196927

> <r_epik_Ionization_Penalty_Charging>
0

> <r_epik_Ionization_Penalty_Neutral>
0.196927

> <r_epik_State_Penalty>
0.186684

> <r_epik_Charging_Adjusted_Penalty>
0.186684

> <i_epik_Tot_Q>
0

> <i_epik_Tot_abs_Q>
0

> <r_epik_Metal_State_Penalty>
0.186682

> <b_epik_Metal_Only>
0

> <s_lp_Force_Field>
OPLS_2005

> <r_lp_Energy>
30.3055

> <b_lp_Chiralities_Consistent>
1

> <s_lp_Variant>
AV-unprocessed.smi:1433-6

> <Gold.Version>
5.8.1

> <Gold.Id.Protein>
6NUR|6NUR_protein|mol2

> <Gold.PLP.Fitness>
42.0506

> <Gold.PLP.PLP>
-32.3739

> <Gold.PLP.part.hbond>
-1.9670

> <Gold.PLP.part.metal>
0.0000

> <Gold.PLP.part.buried>
-3.6972

> <Gold.PLP.part.nonpolar>
-27.7241

> <Gold.PLP.part.repulsive>
0.3471

> <Gold.PLP.ligand.clash>
0.0000

> <Gold.PLP.ligand.torsion>
1.1734

> <Gold.PLP.Chemscore.Hbond>
1.9913

> <Gold.PLP.Chemscore.CHOScore>
2.0000

> <Gold.PLP.Chemscore.Metal>
0.0000

> <Gold.Chemscore.Hbonds>
donor molecule, donor type, donor heavy atom, donor atom, acceptor molecule, acceptor atom, score
      L1  H     8    33       P1  7948  1.00
      P1  H  7989  7998       L1    20  0.96
      L1  C    13    36       P1  7948  1.00
      L1  C    15    38       P1 10186  0.94

> <Gold.PLP.Chemscore.Internal.Correction>
0.0496

> <Gold.Rescore>
     Score         DG    S(hbond)    S(metal)    S(lipo)     H(rot)  DE(clash)    DE(int)     intcor
     14.87     -15.99       1.91        0.00      74.84       1.80       0.06       1.06       ----

> <Gold.Chemscore.Fitness>
14.8732

> <Gold.Chemscore.DG>
-15.9929

> <Gold.Chemscore.ZeroCoef>
-5.4800

> <Gold.Chemscore.Hbond>
1.9085

> <Gold.Chemscore.Metal>
0.0000

> <Gold.Chemscore.Lipo>
74.8409

> <Gold.Chemscore.Internal_Hbond>
0.0000

> <Gold.Chemscore.DEClash>
0.0637

> <Gold.Chemscore.DEInternal>
1.0561

> <Gold.Chemscore.Rot>
1.8038

> <Gold.Chemscore.Internal.Correction>
   9.000000E+99

> <Gold.Chemscore.Hbonds>
donor molecule, donor type, donor heavy atom, donor atom, acceptor molecule, acceptor atom, score
      L1  H     8    33       P1  7948  0.87
      P1  H  7989  7998       L1    20  0.55

> <Gold.Chemscore.Hbond.Weighted>
-6.3743

> <Gold.Chemscore.Metal.Weighted>
-0.0000

> <Gold.Chemscore.Lipo.Weighted>
-8.7564

> <Gold.Chemscore.Internal_Hbond.Weighted>
0.0000

> <Gold.Chemscore.DEClash.Weighted>
0.0637

> <Gold.Chemscore.DEInternal.Weighted>
1.0561

> <Gold.Chemscore.Rot.Weighted>
4.6178

> <Gold.Chemscore.Internal.Correction.Weighted>
   9.000000E+99

> <Gold.Protein.RotatedTorsions>
[ 6907 6896 6895 6894 ] final  -36.18 input  -60.11 | X-H torsion
[ 7974 7965 7964 7962 ] final  141.55 input  175.53 | X-H torsion
[ 8008 7997 7996 7995 ] final  150.36 input   59.86 | X-H torsion
[ 10167 10162 10161 10158 ] final   26.75 input  -65.29 | X-H torsion
[ 10718 10713 10712 10709 ] final   -8.69 input   66.30 | X-H torsion
[ 10763 10752 10751 10750 ] final  -38.55 input  -60.55 | X-H torsion
[ 11005 11000 10999 10996 ] final  132.57 input  -57.11 | X-H torsion

> <Gold.Protein.ActiveResidues>
 VAL166  LYS551  ARG553  GLY616  TRP617  ASP618  TYR619  PRO620  LYS621  CYS622 
 ASP623  PHE694  ASN695  SER759  ASP760  ASP761  ALA762  ILE779  LEU786  VAL792 
 PHE793  MET794  SER795  GLU796  ALA797  LYS798  CYS799  TRP800  GLU811  SER814 

> <Gold.Protein.RotatedAtoms>
  151.0304  134.9535  159.8107 H   0  0  0  0  0  0  0  0  0  0  0  0  # atno 6907 bound_to 6896
  152.5344  134.2787  159.9009 H   0  0  0  0  0  0  0  0  0  0  0  0  # atno 6908 bound_to 6896
  151.2796  133.4173  159.2660 H   0  0  0  0  0  0  0  0  0  0  0  0  # atno 6909 bound_to 6896
  144.9086  139.5324  143.5719 H   0  0  0  0  0  0  0  0  0  0  0  0  # atno 7974 bound_to 7965
  156.2719  140.2077  156.6004 H   0  0  0  0  0  0  0  0  0  0  0  0  # atno 8008 bound_to 7997
  154.6911  140.0530  157.0388 H   0  0  0  0  0  0  0  0  0  0  0  0  # atno 8009 bound_to 7997
  155.0865  140.3192  155.4589 H   0  0  0  0  0  0  0  0  0  0  0  0  # atno 8010 bound_to 7997
  140.4996  144.0336  150.6328 H   0  0  0  0  0  0  0  0  0  0  0  0  # atno 10167 bound_to 10162
  156.6988  130.5087  149.5923 H   0  0  0  0  0  0  0  0  0  0  0  0  # atno 10718 bound_to 10713
  153.9148  135.6788  153.4749 H   0  0  0  0  0  0  0  0  0  0  0  0  # atno 10763 bound_to 10752
  153.1059  135.4805  154.8948 H   0  0  0  0  0  0  0  0  0  0  0  0  # atno 10764 bound_to 10752
  154.7508  135.3184  154.8516 H   0  0  0  0  0  0  0  0  0  0  0  0  # atno 10765 bound_to 10752
  139.9798  134.9552  156.9600 H   0  0  0  0  0  0  0  0  0  0  0  0  # atno 11005 bound_to 11000
  146.3147  139.7874  142.8993 LP  0  0  0  0  0  0  0  0  0  0  0  0  # atno 17320 bound_to 7965
  145.3493  141.0304  143.3348 LP  0  0  0  0  0  0  0  0  0  0  0  0  # atno 17321 bound_to 7965
  140.3628  143.2898  152.0365 LP  0  0  0  0  0  0  0  0  0  0  0  0  # atno 17342 bound_to 10162
  139.4869  144.6290  151.7108 LP  0  0  0  0  0  0  0  0  0  0  0  0  # atno 17343 bound_to 10162
  156.1743  130.6458  151.0876 LP  0  0  0  0  0  0  0  0  0  0  0  0  # atno 17370 bound_to 10713
  157.6981  131.0786  150.6907 LP  0  0  0  0  0  0  0  0  0  0  0  0  # atno 17371 bound_to 10713
  140.5120  134.0993  155.7272 LP  0  0  0  0  0  0  0  0  0  0  0  0  # atno 17394 bound_to 11000
  141.1471  133.9035  157.2188 LP  0  0  0  0  0  0  0  0  0  0  0  0  # atno 17395 bound_to 11000

$$$$
