AV-unprocessed.smi:2973|AV-procd|sdf|11337|dock7
  -GOLD-   2272016243D 1   1.00000     0.00000
 Structure written by MMmdl.
 49 51  0  0  0  0  0  0  0  0  1 V2000
  146.1512  133.2819  153.6072 C   0  0  0  0  0  0  0  0  0  0  0  0
  145.3661  132.7961  152.3703 C   0  0  2  0  0  0  0  0  0  0  0  0
  146.3212  132.5410  151.1841 C   0  0  0  0  0  0  0  0  0  0  0  0
  145.5769  131.9658  149.9691 C   0  0  0  0  0  0  0  0  0  0  0  0
  144.4214  132.8781  149.5347 C   0  0  0  0  0  0  0  0  0  0  0  0
  143.4546  133.1452  150.7020 C   0  0  0  0  0  0  0  0  0  0  0  0
  144.1624  133.7042  151.9624 C   0  0  1  0  0  0  0  0  0  0  0  0
  143.2035  133.8209  153.0473 N   0  0  0  0  0  0  0  0  0  0  0  0
  143.0184  135.0819  153.4562 C   0  0  0  0  0  0  0  0  0  0  0  0
  142.2631  135.4296  154.3626 O   0  0  0  0  0  0  0  0  0  0  0  0
  143.8005  135.8855  152.7145 N   0  0  0  0  0  0  0  0  0  0  0  0
  143.9022  137.3384  152.9041 C   0  0  0  0  0  0  0  0  0  0  0  0
  145.2104  137.7718  153.5815 C   0  0  0  0  0  0  0  0  0  0  0  0
  146.0658  136.9443  153.9004 O   0  0  0  0  0  0  0  0  0  0  0  0
  145.3519  139.0895  153.7873 N   0  0  0  0  0  0  0  0  0  0  0  0
  146.4969  139.7203  154.4333 C   0  0  0  0  0  0  0  0  0  0  0  0
  147.7953  139.5010  153.6394 C   0  0  0  0  0  0  0  0  0  0  0  0
  149.0234  139.8933  154.4387 C   0  0  0  0  0  0  0  0  0  0  0  0
  150.1115  139.0040  154.5697 C   0  0  0  0  0  0  0  0  0  0  0  0
  151.2354  139.4234  155.3075 C   0  0  0  0  0  0  0  0  0  0  0  0
  151.2284  140.7091  155.8821 C   0  0  0  0  0  0  0  0  0  0  0  0
  150.0928  141.5216  155.6929 C   0  0  0  0  0  0  0  0  0  0  0  0
  149.0104  141.1294  154.9870 N   0  0  0  0  0  0  0  0  0  0  0  0
  144.5112  135.1875  151.8180 C   0  0  0  0  0  0  0  0  0  0  0  0
  145.3227  135.6399  151.0099 O   0  0  0  0  0  0  0  0  0  0  0  0
  146.6534  134.2317  153.4216 H   0  0  0  0  0  0  0  0  0  0  0  0
  146.9181  132.5595  153.8870 H   0  0  0  0  0  0  0  0  0  0  0  0
  145.5018  133.4115  154.4728 H   0  0  0  0  0  0  0  0  0  0  0  0
  144.9458  131.8272  152.6450 H   0  0  0  0  0  0  0  0  0  0  0  0
  146.8309  133.4621  150.9008 H   0  0  0  0  0  0  0  0  0  0  0  0
  147.1047  131.8443  151.4843 H   0  0  0  0  0  0  0  0  0  0  0  0
  146.2711  131.8263  149.1401 H   0  0  0  0  0  0  0  0  0  0  0  0
  145.1876  130.9771  150.2151 H   0  0  0  0  0  0  0  0  0  0  0  0
  144.8188  133.8174  149.1500 H   0  0  0  0  0  0  0  0  0  0  0  0
  143.8801  132.4177  148.7078 H   0  0  0  0  0  0  0  0  0  0  0  0
  142.6701  133.8273  150.3700 H   0  0  0  0  0  0  0  0  0  0  0  0
  142.9481  132.2136  150.9584 H   0  0  0  0  0  0  0  0  0  0  0  0
  142.7348  133.0212  153.4480 H   0  0  0  0  0  0  0  0  0  0  0  0
  143.8209  137.8542  151.9460 H   0  0  0  0  0  0  0  0  0  0  0  0
  143.0573  137.6871  153.5009 H   0  0  0  0  0  0  0  0  0  0  0  0
  144.6032  139.6986  153.4899 H   0  0  0  0  0  0  0  0  0  0  0  0
  146.2899  140.7877  154.5142 H   0  0  0  0  0  0  0  0  0  0  0  0
  146.6028  139.3471  155.4535 H   0  0  0  0  0  0  0  0  0  0  0  0
  147.8870  138.4547  153.3442 H   0  0  0  0  0  0  0  0  0  0  0  0
  147.7699  140.0787  152.7142 H   0  0  0  0  0  0  0  0  0  0  0  0
  150.0892  138.0254  154.1126 H   0  0  0  0  0  0  0  0  0  0  0  0
  152.0876  138.7711  155.4282 H   0  0  0  0  0  0  0  0  0  0  0  0
  152.0728  141.0650  156.4536 H   0  0  0  0  0  0  0  0  0  0  0  0
  150.0539  142.5136  156.1182 H   0  0  0  0  0  0  0  0  0  0  0  0
  1  2  1  0  0  0  0
  1 26  1  0  0  0  0
  1 27  1  0  0  0  0
  1 28  1  0  0  0  0
  2  7  1  0  0  0  0
  2  3  1  0  0  0  0
  2 29  1  0  0  0  0
  3  4  1  0  0  0  0
  3 30  1  0  0  0  0
  3 31  1  0  0  0  0
  4  5  1  0  0  0  0
  4 32  1  0  0  0  0
  4 33  1  0  0  0  0
  5  6  1  0  0  0  0
  5 34  1  0  0  0  0
  5 35  1  0  0  0  0
  6  7  1  0  0  0  0
  6 36  1  0  0  0  0
  6 37  1  0  0  0  0
  7 24  1  0  0  0  0
  7  8  1  0  0  0  0
  8  9  1  0  0  0  0
  8 38  1  0  0  0  0
  9 10  2  0  0  0  0
  9 11  1  0  0  0  0
 11 12  1  0  0  0  0
 11 24  1  0  0  0  0
 12 13  1  0  0  0  0
 12 39  1  0  0  0  0
 12 40  1  0  0  0  0
 13 14  2  0  0  0  0
 13 15  1  0  0  0  0
 15 16  1  0  0  0  0
 15 41  1  0  0  0  0
 16 17  1  0  0  0  0
 16 42  1  0  0  0  0
 16 43  1  0  0  0  0
 17 18  1  0  0  0  0
 17 44  1  0  0  0  0
 17 45  1  0  0  0  0
 18 23  1  0  0  0  0
 18 19  2  0  0  0  0
 19 20  1  0  0  0  0
 19 46  1  0  0  0  0
 20 21  2  0  0  0  0
 20 47  1  0  0  0  0
 21 22  1  0  0  0  0
 21 48  1  0  0  0  0
 22 23  2  0  0  0  0
 22 49  1  0  0  0  0
 24 25  2  0  0  0  0
M  END
> <s_m_source_file>
AV-unprocessed.smi

> <i_m_source_file_index>
2973

> <i_lp_mmshare_version>
43012

> <i_f3d_flags>
0

> <s_epik_input>
W0NIMl0xW0NIMl1bQ0gyXVtDSDJdW0NAQEhdKFtDSDNdKVtDQF0xMltOSF1DKD1PKU4oQzI9TylbQ0gyXUMoPU8pW05IXVtDSDJdW0NIMl1jM1tjSF1bY0hdW2NIXVtjSF1uMw==

> <s_epik_cmdline>
J2VwaWtfcHl0aG9uJywgJy1waCcsICc3LjAnLCAnLXRuJywgJzgnLCAnLW1hJywgJzIwMCcsICctbWV0YWxfYmluZGluZycsICctaW1hZScsICc8aW5maWxlLm1hZT4nLCAnLW9tYWUnLCAnPG91dGZpbGUubWFlPic=

> <r_lp_tautomer_probability>
1

> <r_epik_Ionization_Penalty>
0.0245152

> <r_epik_Ionization_Penalty_Charging>
0

> <r_epik_Ionization_Penalty_Neutral>
0.0245152

> <r_epik_State_Penalty>
0.0198648

> <r_epik_Charging_Adjusted_Penalty>
0.0198648

> <i_epik_Tot_Q>
0

> <i_epik_Tot_abs_Q>
0

> <r_epik_Metal_State_Penalty>
0.0400162

> <b_epik_Metal_Only>
0

> <s_lp_Force_Field>
OPLS_2005

> <r_lp_Energy>
16.1581

> <b_lp_Chiralities_Consistent>
1

> <s_lp_Variant>
AV-unprocessed.smi:2973-1

> <Gold.Version>
5.8.1

> <Gold.Id.Protein>
6NUR|6NUR_protein|mol2

> <Gold.PLP.Fitness>
50.4449

> <Gold.PLP.PLP>
-41.9388

> <Gold.PLP.part.hbond>
-2.2549

> <Gold.PLP.part.metal>
0.0000

> <Gold.PLP.part.buried>
-2.2529

> <Gold.PLP.part.nonpolar>
-36.8858

> <Gold.PLP.part.repulsive>
0.5410

> <Gold.PLP.ligand.clash>
0.0000

> <Gold.PLP.ligand.torsion>
0.2674

> <Gold.PLP.Chemscore.Hbond>
2.0000

> <Gold.PLP.Chemscore.CHOScore>
1.0000

> <Gold.PLP.Chemscore.Metal>
0.0000

> <Gold.Chemscore.Hbonds>
donor molecule, donor type, donor heavy atom, donor atom, acceptor molecule, acceptor atom, score
      L1  H     8    38       P1 10957  0.99
      L1  H    15    41       P1 10175  1.00
      L1  C    22    49       P1  8028  0.98

> <Gold.PLP.Chemscore.Internal.Correction>
0.0409

> <Gold.Rescore>
     Score         DG    S(hbond)    S(metal)    S(lipo)     H(rot)  DE(clash)    DE(int)     intcor
     18.33     -18.58       1.90        0.00      98.28       1.86       0.00       0.25       ----

> <Gold.Chemscore.Fitness>
18.3344

> <Gold.Chemscore.DG>
-18.5823

> <Gold.Chemscore.ZeroCoef>
-5.4800

> <Gold.Chemscore.Hbond>
1.9023

> <Gold.Chemscore.Metal>
0.0000

> <Gold.Chemscore.Lipo>
98.2767

> <Gold.Chemscore.Internal_Hbond>
0.0000

> <Gold.Chemscore.DEClash>
0.0029

> <Gold.Chemscore.DEInternal>
0.2450

> <Gold.Chemscore.Rot>
1.8553

> <Gold.Chemscore.Internal.Correction>
   9.000000E+99

> <Gold.Chemscore.Hbonds>
donor molecule, donor type, donor heavy atom, donor atom, acceptor molecule, acceptor atom, score
      L1  H     8    38       P1 10957  0.82
      L1  H    15    41       P1 10175  0.96

> <Gold.Chemscore.Hbond.Weighted>
-6.3537

> <Gold.Chemscore.Metal.Weighted>
-0.0000

> <Gold.Chemscore.Lipo.Weighted>
-11.4984

> <Gold.Chemscore.Internal_Hbond.Weighted>
0.0000

> <Gold.Chemscore.DEClash.Weighted>
0.0029

> <Gold.Chemscore.DEInternal.Weighted>
0.2450

> <Gold.Chemscore.Rot.Weighted>
4.7497

> <Gold.Chemscore.Internal.Correction.Weighted>
   9.000000E+99

> <Gold.Protein.RotatedTorsions>
[ 6907 6896 6895 6894 ] final  154.51 input  -60.11 | X-H torsion
[ 7974 7965 7964 7962 ] final   39.79 input  175.53 | X-H torsion
[ 8008 7997 7996 7995 ] final   65.73 input   59.86 | X-H torsion
[ 10167 10162 10161 10158 ] final -105.94 input  -65.29 | X-H torsion
[ 10718 10713 10712 10709 ] final -101.16 input   66.30 | X-H torsion
[ 10763 10752 10751 10750 ] final    5.18 input  -60.55 | X-H torsion
[ 11005 11000 10999 10996 ] final   34.01 input  -57.11 | X-H torsion

> <Gold.Protein.ActiveResidues>
 VAL166  LYS551  ARG553  GLY616  TRP617  ASP618  TYR619  PRO620  LYS621  CYS622 
 ASP623  PHE694  ASN695  SER759  ASP760  ASP761  ALA762  ILE779  LEU786  VAL792 
 PHE793  MET794  SER795  GLU796  ALA797  LYS798  CYS799  TRP800  GLU811  SER814 

> <Gold.Protein.RotatedAtoms>
  152.0575  133.4047  159.4403 H   0  0  0  0  0  0  0  0  0  0  0  0  # atno 6907 bound_to 6896
  150.6867  134.3238  159.4807 H   0  0  0  0  0  0  0  0  0  0  0  0  # atno 6908 bound_to 6896
  152.1055  134.9311  160.0619 H   0  0  0  0  0  0  0  0  0  0  0  0  # atno 6909 bound_to 6896
  146.0956  139.5610  142.9447 H   0  0  0  0  0  0  0  0  0  0  0  0  # atno 7974 bound_to 7965
  155.6662  140.3497  155.4801 H   0  0  0  0  0  0  0  0  0  0  0  0  # atno 8008 bound_to 7997
  155.9726  140.1159  157.0821 H   0  0  0  0  0  0  0  0  0  0  0  0  # atno 8009 bound_to 7997
  154.4170  140.1154  156.5314 H   0  0  0  0  0  0  0  0  0  0  0  0  # atno 8010 bound_to 7997
  140.1931  143.3876  152.1190 H   0  0  0  0  0  0  0  0  0  0  0  0  # atno 10167 bound_to 10162
  156.0185  130.5360  150.6922 H   0  0  0  0  0  0  0  0  0  0  0  0  # atno 10718 bound_to 10713
  153.2624  135.6924  153.7565 H   0  0  0  0  0  0  0  0  0  0  0  0  # atno 10763 bound_to 10752
  153.6619  135.3359  155.3130 H   0  0  0  0  0  0  0  0  0  0  0  0  # atno 10764 bound_to 10752
  154.8435  135.4479  154.1619 H   0  0  0  0  0  0  0  0  0  0  0  0  # atno 10765 bound_to 10752
  140.2572  134.3234  155.7870 H   0  0  0  0  0  0  0  0  0  0  0  0  # atno 11005 bound_to 11000
  145.5954  141.0363  143.2047 LP  0  0  0  0  0  0  0  0  0  0  0  0  # atno 17320 bound_to 7965
  144.7393  139.7494  143.7317 LP  0  0  0  0  0  0  0  0  0  0  0  0  # atno 17321 bound_to 7965
  139.5248  144.7088  151.5272 LP  0  0  0  0  0  0  0  0  0  0  0  0  # atno 17342 bound_to 10162
  140.6442  143.8828  150.6721 LP  0  0  0  0  0  0  0  0  0  0  0  0  # atno 17343 bound_to 10162
  157.4601  131.0882  151.0755 LP  0  0  0  0  0  0  0  0  0  0  0  0  # atno 17370 bound_to 10713
  157.1245  130.6076  149.5513 LP  0  0  0  0  0  0  0  0  0  0  0  0  # atno 17371 bound_to 10713
  141.2194  133.7388  156.9130 LP  0  0  0  0  0  0  0  0  0  0  0  0  # atno 17394 bound_to 11000
  140.1500  134.9236  157.2580 LP  0  0  0  0  0  0  0  0  0  0  0  0  # atno 17395 bound_to 11000

$$$$
