AV-unprocessed.smi:2764|AV-procd|sdf|10643|dock8
  -GOLD-   2272015 93D 1   1.00000     0.00000
 Structure written by MMmdl.
 47 49  0  0  0  0  0  0  0  0  2 V2000
  149.3850  140.2267  156.4862 O   0  0  0  0  0  0  0  0  0  0  0  0
  149.3285  141.4344  156.2538 C   0  0  0  0  0  0  0  0  0  0  0  0
  149.9845  142.3905  156.9349 N   0  0  0  0  0  0  0  0  0  0  0  0
  150.8737  142.2338  158.0315 C   0  0  0  0  0  0  0  0  0  0  0  0
  151.4125  143.4372  158.5412 C   0  0  0  0  0  0  0  0  0  0  0  0
  152.3059  143.3905  159.6293 C   0  0  0  0  0  0  0  0  0  0  0  0
  152.6364  142.1390  160.1788 C   0  0  0  0  0  0  0  0  0  0  0  0
  153.4898  142.0441  161.2257 F   0  0  0  0  0  0  0  0  0  0  0  0
  152.0571  140.9884  159.6127 C   0  0  0  0  0  0  0  0  0  0  0  0
  151.2011  141.0319  158.5694 N   0  0  0  0  0  0  0  0  0  0  0  0
  148.5891  141.9612  155.2662 N   0  0  0  0  0  0  0  0  0  0  0  0
  147.7444  141.2012  154.3448 C   0  0  2  0  0  0  0  0  0  0  0  0
  147.0654  142.1090  153.3008 C   0  0  0  0  0  0  0  0  0  0  0  0
  145.9794  142.9990  153.9297 C   0  0  0  0  0  0  0  0  0  0  0  0
  144.9618  142.1873  154.6483 N   0  3  2  0  0  0  0  0  0  0  0  0
  143.8315  143.0171  155.1444 C   0  0  0  0  0  0  0  0  0  0  0  0
  144.2452  144.4652  155.4822 C   0  0  1  0  0  0  0  0  0  0  0  0
  144.1955  145.4598  154.3247 C   0  0  0  0  0  0  0  0  0  0  0  0
  143.6741  146.7589  154.9481 C   0  0  0  0  0  0  0  0  0  0  0  0
  143.6020  146.5044  156.3426 O   0  0  0  0  0  0  0  0  0  0  0  0
  143.3206  145.1263  156.5034 C   0  0  0  0  0  0  0  0  0  0  0  0
  145.5871  141.3464  155.7038 C   0  0  0  0  0  0  0  0  0  0  0  0
  146.6696  140.4201  155.1192 C   0  0  0  0  0  0  0  0  0  0  0  0
  149.8337  143.3417  156.6333 H   0  0  0  0  0  0  0  0  0  0  0  0
  151.1465  144.3900  158.1068 H   0  0  0  0  0  0  0  0  0  0  0  0
  152.7284  144.2983  160.0338 H   0  0  0  0  0  0  0  0  0  0  0  0
  152.2850  140.0087  160.0062 H   0  0  0  0  0  0  0  0  0  0  0  0
  148.5976  142.9645  155.1542 H   0  0  0  0  0  0  0  0  0  0  0  0
  148.3796  140.4806  153.8261 H   0  0  0  0  0  0  0  0  0  0  0  0
  147.8031  142.7263  152.7869 H   0  0  0  0  0  0  0  0  0  0  0  0
  146.6099  141.4855  152.5301 H   0  0  0  0  0  0  0  0  0  0  0  0
  146.4277  143.7180  154.6174 H   0  0  0  0  0  0  0  0  0  0  0  0
  145.4998  143.5763  153.1382 H   0  0  0  0  0  0  0  0  0  0  0  0
  142.9926  142.9893  154.4476 H   0  0  0  0  0  0  0  0  0  0  0  0
  143.4602  142.5715  156.0685 H   0  0  0  0  0  0  0  0  0  0  0  0
  145.2513  144.4687  155.9054 H   0  0  0  0  0  0  0  0  0  0  0  0
  145.1827  145.5987  153.8835 H   0  0  0  0  0  0  0  0  0  0  0  0
  143.5176  145.1327  153.5355 H   0  0  0  0  0  0  0  0  0  0  0  0
  144.3212  147.6118  154.7419 H   0  0  0  0  0  0  0  0  0  0  0  0
  142.6767  146.9904  154.5722 H   0  0  0  0  0  0  0  0  0  0  0  0
  142.2704  144.9372  156.2737 H   0  0  0  0  0  0  0  0  0  0  0  0
  143.5160  144.7951  157.5237 H   0  0  0  0  0  0  0  0  0  0  0  0
  146.0142  141.9877  156.4761 H   0  0  0  0  0  0  0  0  0  0  0  0
  144.8363  140.7290  156.1913 H   0  0  0  0  0  0  0  0  0  0  0  0
  146.1969  139.7024  154.4474 H   0  0  0  0  0  0  0  0  0  0  0  0
  147.1291  139.8312  155.9142 H   0  0  0  0  0  0  0  0  0  0  0  0
  144.5728  141.5589  153.9599 H   0  0  0  0  0  0  0  0  0  0  0  0
  1  2  2  0  0  0  0
  2  3  1  0  0  0  0
  2 11  1  0  0  0  0
  3  4  1  0  0  0  0
  3 24  1  0  0  0  0
  4 10  1  0  0  0  0
  4  5  2  0  0  0  0
  5  6  1  0  0  0  0
  5 25  1  0  0  0  0
  6  7  2  0  0  0  0
  6 26  1  0  0  0  0
  7  8  1  0  0  0  0
  7  9  1  0  0  0  0
  9 10  2  0  0  0  0
  9 27  1  0  0  0  0
 11 12  1  0  0  0  0
 11 28  1  0  0  0  0
 12 23  1  0  0  0  0
 12 13  1  0  0  0  0
 12 29  1  0  0  0  0
 13 14  1  0  0  0  0
 13 30  1  0  0  0  0
 13 31  1  0  0  0  0
 14 15  1  0  0  0  0
 14 32  1  0  0  0  0
 14 33  1  0  0  0  0
 15 16  1  0  0  0  0
 15 22  1  0  0  0  0
 15 47  1  0  0  0  0
 16 17  1  0  0  0  0
 16 34  1  0  0  0  0
 16 35  1  0  0  0  0
 17 21  1  0  0  0  0
 17 18  1  0  0  0  0
 17 36  1  0  0  0  0
 18 19  1  0  0  0  0
 18 37  1  0  0  0  0
 18 38  1  0  0  0  0
 19 20  1  0  0  0  0
 19 39  1  0  0  0  0
 19 40  1  0  0  0  0
 20 21  1  0  0  0  0
 21 41  1  0  0  0  0
 21 42  1  0  0  0  0
 22 23  1  0  0  0  0
 22 43  1  0  0  0  0
 22 44  1  0  0  0  0
 23 45  1  0  0  0  0
 23 46  1  0  0  0  0
M  CHG  1  15   1
M  END
> <s_m_source_file>
AV-unprocessed.smi

> <i_m_source_file_index>
2764

> <i_lp_mmshare_version>
43012

> <i_f3d_flags>
0

> <s_epik_input>
bjFbY0hdYyhGKVtjSF1bY0hdYzFbTkhdQyg9TylbTkhdW0NIXTJbQ0gyXVtDSDJdTihbQ0gyXVtDSDJdMilbQ0gyXVtDQEBIXTNbQ0gyXVtDSDJdT1tDSDJdMw==

> <s_epik_cmdline>
J2VwaWtfcHl0aG9uJywgJy1waCcsICc3LjAnLCAnLXRuJywgJzgnLCAnLW1hJywgJzIwMCcsICctbWV0YWxfYmluZGluZycsICctaW1hZScsICc8aW5maWxlLm1hZT4nLCAnLW9tYWUnLCAnPG91dGZpbGUubWFlPic=

> <r_epik_Ionization_Penalty>
0.0075076

> <r_epik_Ionization_Penalty_Charging>
0.00747775

> <r_epik_Ionization_Penalty_Neutral>
2.98483e-05

> <r_epik_State_Penalty>
0.00558817

> <r_epik_Charging_Adjusted_Penalty>
0.0130659

> <i_epik_Tot_Q>
1

> <i_epik_Tot_abs_Q>
1

> <r_epik_Metal_State_Penalty>
-0

> <b_epik_Metal_Only>
0

> <s_lp_Force_Field>
OPLS_2005

> <r_lp_Energy>
38.1344

> <b_lp_Chiralities_Consistent>
1

> <s_lp_Variant>
AV-unprocessed.smi:2764-4

> <Gold.Version>
5.8.1

> <Gold.Id.Protein>
6NUR|6NUR_protein|mol2

> <Gold.PLP.Fitness>
51.9600

> <Gold.PLP.PLP>
-41.4167

> <Gold.PLP.part.hbond>
-2.9984

> <Gold.PLP.part.metal>
0.0000

> <Gold.PLP.part.buried>
-7.6480

> <Gold.PLP.part.nonpolar>
-31.8411

> <Gold.PLP.part.repulsive>
0.2315

> <Gold.PLP.ligand.clash>
0.0000

> <Gold.PLP.ligand.torsion>
0.7399

> <Gold.PLP.Chemscore.Hbond>
4.0000

> <Gold.PLP.Chemscore.CHOScore>
0.0000

> <Gold.PLP.Chemscore.Metal>
0.0000

> <Gold.Chemscore.Hbonds>
donor molecule, donor type, donor heavy atom, donor atom, acceptor molecule, acceptor atom, score
      L1  H     3    24       P1  8028  1.00
      L1  H    11    28       P1  8028  1.00
      L1  H    15    47       P1 10175  1.80

> <Gold.PLP.Chemscore.Internal.Correction>
0.0231

> <Gold.Rescore>
     Score         DG    S(hbond)    S(metal)    S(lipo)     H(rot)  DE(clash)    DE(int)     intcor
     18.33     -21.84       2.78        0.00      93.01       1.49       1.41       2.09       ----

> <Gold.Chemscore.Fitness>
18.3330

> <Gold.Chemscore.DG>
-21.8377

> <Gold.Chemscore.ZeroCoef>
-5.4800

> <Gold.Chemscore.Hbond>
2.7807

> <Gold.Chemscore.Metal>
0.0000

> <Gold.Chemscore.Lipo>
93.0120

> <Gold.Chemscore.Internal_Hbond>
0.0000

> <Gold.Chemscore.DEClash>
1.4108

> <Gold.Chemscore.DEInternal>
2.0939

> <Gold.Chemscore.Rot>
1.4891

> <Gold.Chemscore.Internal.Correction>
   9.000000E+99

> <Gold.Chemscore.Hbonds>
donor molecule, donor type, donor heavy atom, donor atom, acceptor molecule, acceptor atom, score
      L1  H     3    24       P1  8028  0.97
      L1  H    11    28       P1  8028  0.99
      L1  H    15    47       P1 10175  0.17

> <Gold.Chemscore.Hbond.Weighted>
-9.2874

> <Gold.Chemscore.Metal.Weighted>
-0.0000

> <Gold.Chemscore.Lipo.Weighted>
-10.8824

> <Gold.Chemscore.Internal_Hbond.Weighted>
0.0000

> <Gold.Chemscore.DEClash.Weighted>
1.4108

> <Gold.Chemscore.DEInternal.Weighted>
2.0939

> <Gold.Chemscore.Rot.Weighted>
3.8121

> <Gold.Chemscore.Internal.Correction.Weighted>
   9.000000E+99

> <Gold.Protein.RotatedTorsions>
[ 6907 6896 6895 6894 ] final    3.65 input  -60.11 | X-H torsion
[ 7974 7965 7964 7962 ] final   66.73 input  175.53 | X-H torsion
[ 8008 7997 7996 7995 ] final   72.54 input   59.86 | X-H torsion
[ 10167 10162 10161 10158 ] final   78.27 input  -65.29 | X-H torsion
[ 10718 10713 10712 10709 ] final -121.95 input   66.30 | X-H torsion
[ 10763 10752 10751 10750 ] final  -11.93 input  -60.55 | X-H torsion
[ 11005 11000 10999 10996 ] final   -6.16 input  -57.11 | X-H torsion

> <Gold.Protein.ActiveResidues>
 VAL166  LYS551  ARG553  GLY616  TRP617  ASP618  TYR619  PRO620  LYS621  CYS622 
 ASP623  PHE694  ASN695  SER759  ASP760  ASP761  ALA762  ILE779  LEU786  VAL792 
 PHE793  MET794  SER795  GLU796  ALA797  LYS798  CYS799  TRP800  GLU811  SER814 

> <Gold.Protein.RotatedAtoms>
  151.6285  135.1025  160.0116 H   0  0  0  0  0  0  0  0  0  0  0  0  # atno 6907 bound_to 6896
  152.4119  133.6973  159.6414 H   0  0  0  0  0  0  0  0  0  0  0  0  # atno 6908 bound_to 6896
  150.8009  133.8525  159.3250 H   0  0  0  0  0  0  0  0  0  0  0  0  # atno 6909 bound_to 6896
  145.8231  139.3096  143.1031 H   0  0  0  0  0  0  0  0  0  0  0  0  # atno 7974 bound_to 7965
  155.7703  140.3484  155.5243 H   0  0  0  0  0  0  0  0  0  0  0  0  # atno 8008 bound_to 7997
  155.8828  140.1005  157.1494 H   0  0  0  0  0  0  0  0  0  0  0  0  # atno 8009 bound_to 7997
  154.4026  140.1319  156.4205 H   0  0  0  0  0  0  0  0  0  0  0  0  # atno 8010 bound_to 7997
  139.9727  144.5883  150.7971 H   0  0  0  0  0  0  0  0  0  0  0  0  # atno 10167 bound_to 10162
  156.1379  130.6444  150.9725 H   0  0  0  0  0  0  0  0  0  0  0  0  # atno 10718 bound_to 10713
  153.4910  135.7017  153.5884 H   0  0  0  0  0  0  0  0  0  0  0  0  # atno 10763 bound_to 10752
  153.4056  135.3861  155.2017 H   0  0  0  0  0  0  0  0  0  0  0  0  # atno 10764 bound_to 10752
  154.8717  135.3892  154.4370 H   0  0  0  0  0  0  0  0  0  0  0  0  # atno 10765 bound_to 10752
  140.6989  133.9006  155.8670 H   0  0  0  0  0  0  0  0  0  0  0  0  # atno 11005 bound_to 11000
  145.9653  140.8803  143.0190 LP  0  0  0  0  0  0  0  0  0  0  0  0  # atno 17320 bound_to 7965
  144.6746  140.1869  143.7400 LP  0  0  0  0  0  0  0  0  0  0  0  0  # atno 17321 bound_to 7965
  140.7516  143.2976  151.3164 LP  0  0  0  0  0  0  0  0  0  0  0  0  # atno 17342 bound_to 10162
  139.6469  144.0435  152.2597 LP  0  0  0  0  0  0  0  0  0  0  0  0  # atno 17343 bound_to 10162
  157.6549  131.0891  150.7969 LP  0  0  0  0  0  0  0  0  0  0  0  0  # atno 17370 bound_to 10713
  156.8048  130.4933  149.5364 LP  0  0  0  0  0  0  0  0  0  0  0  0  # atno 17371 bound_to 10713
  141.0180  134.0929  157.4151 LP  0  0  0  0  0  0  0  0  0  0  0  0  # atno 17394 bound_to 11000
  139.8902  135.0110  156.6723 LP  0  0  0  0  0  0  0  0  0  0  0  0  # atno 17395 bound_to 11000

$$$$
