AV-unprocessed.smi:2137|AV-procd|sdf|8708|dock4
  -GOLD-   2272011473D 1   1.00000     0.00000
 Structure written by MMmdl.
 50 51  0  0  0  0  0  0  0  0  2 V2000
  146.8075  135.0614  154.2293 C   0  0  0  0  0  0  0  0  0  0  0  0
  145.5262  135.6807  153.6433 C   0  0  2  0  0  0  0  0  0  0  0  0
  145.0550  134.9755  152.3580 C   0  0  0  0  0  0  0  0  0  0  0  0
  145.9481  135.3385  151.1634 C   0  0  0  0  0  0  0  0  0  0  0  0
  146.0609  136.8626  151.0021 C   0  0  0  0  0  0  0  0  0  0  0  0
  146.5581  137.4970  152.2503 N   0  3  1  0  0  0  0  0  0  0  0  0
  146.8248  138.9476  152.0788 C   0  0  0  0  0  0  0  0  0  0  0  0
  147.0953  139.6547  153.4181 C   0  0  0  0  0  0  0  0  0  0  0  0
  148.5911  139.9036  153.6531 C   0  0  0  0  0  0  0  0  0  0  0  0
  148.8864  139.9302  155.0797 N   0  0  0  0  0  0  0  0  0  0  0  0
  150.0904  140.1954  155.6067 C   0  0  0  0  0  0  0  0  0  0  0  0
  151.0911  140.4214  154.9252 O   0  0  0  0  0  0  0  0  0  0  0  0
  150.1778  140.1796  157.1384 C   0  0  0  0  0  0  0  0  0  0  0  0
  150.8394  141.3741  157.6784 N   0  0  0  0  0  0  0  0  0  0  0  0
  150.4829  142.6264  157.2123 C   0  0  0  0  0  0  0  0  0  0  0  0
  151.0411  143.7732  157.6576 C   0  0  0  0  0  0  0  0  0  0  0  0
  152.0750  143.7527  158.6851 C   0  0  0  0  0  0  0  0  0  0  0  0
  152.6285  144.7709  159.1026 O   0  0  0  0  0  0  0  0  0  0  0  0
  152.4073  142.4612  159.1584 N   0  0  0  0  0  0  0  0  0  0  0  0
  153.4395  142.3511  160.1686 C   0  0  0  0  0  0  0  0  0  0  0  0
  151.8335  141.2635  158.6748 C   0  0  0  0  0  0  0  0  0  0  0  0
  152.1808  140.1557  159.0920 O   0  0  0  0  0  0  0  0  0  0  0  0
  145.6686  137.1984  153.4063 C   0  0  0  0  0  0  0  0  0  0  0  0
  147.6625  135.1878  153.5653 H   0  0  0  0  0  0  0  0  0  0  0  0
  146.6805  133.9931  154.4071 H   0  0  0  0  0  0  0  0  0  0  0  0
  147.0627  135.5224  155.1841 H   0  0  0  0  0  0  0  0  0  0  0  0
  144.7472  135.5387  154.3937 H   0  0  0  0  0  0  0  0  0  0  0  0
  145.0310  133.8944  152.4994 H   0  0  0  0  0  0  0  0  0  0  0  0
  144.0297  135.2772  152.1390 H   0  0  0  0  0  0  0  0  0  0  0  0
  146.9411  134.9072  151.2947 H   0  0  0  0  0  0  0  0  0  0  0  0
  145.5430  134.8980  150.2518 H   0  0  0  0  0  0  0  0  0  0  0  0
  146.7412  137.0816  150.1781 H   0  0  0  0  0  0  0  0  0  0  0  0
  145.0921  137.2883  150.7360 H   0  0  0  0  0  0  0  0  0  0  0  0
  147.7051  139.0801  151.4484 H   0  0  0  0  0  0  0  0  0  0  0  0
  145.9946  139.4179  151.5495 H   0  0  0  0  0  0  0  0  0  0  0  0
  146.5727  140.6103  153.4557 H   0  0  0  0  0  0  0  0  0  0  0  0
  146.6945  139.0511  154.2338 H   0  0  0  0  0  0  0  0  0  0  0  0
  149.1867  139.1191  153.1847 H   0  0  0  0  0  0  0  0  0  0  0  0
  148.8805  140.8482  153.1889 H   0  0  0  0  0  0  0  0  0  0  0  0
  148.1214  139.7453  155.7123 H   0  0  0  0  0  0  0  0  0  0  0  0
  149.1812  140.0767  157.5720 H   0  0  0  0  0  0  0  0  0  0  0  0
  150.7225  139.2831  157.4372 H   0  0  0  0  0  0  0  0  0  0  0  0
  149.7189  142.6951  156.4516 H   0  0  0  0  0  0  0  0  0  0  0  0
  150.7190  144.7189  157.2469 H   0  0  0  0  0  0  0  0  0  0  0  0
  153.2138  141.5090  160.8249 H   0  0  0  0  0  0  0  0  0  0  0  0
  153.4583  143.2550  160.7789 H   0  0  0  0  0  0  0  0  0  0  0  0
  154.3836  142.2062  159.6418 H   0  0  0  0  0  0  0  0  0  0  0  0
  144.6860  137.6345  153.2190 H   0  0  0  0  0  0  0  0  0  0  0  0
  146.0448  137.6691  154.3140 H   0  0  0  0  0  0  0  0  0  0  0  0
  147.4500  137.0650  152.4454 H   0  0  0  0  0  0  0  0  0  0  0  0
  1  2  1  0  0  0  0
  1 24  1  0  0  0  0
  1 25  1  0  0  0  0
  1 26  1  0  0  0  0
  2 23  1  0  0  0  0
  2  3  1  0  0  0  0
  2 27  1  0  0  0  0
  3  4  1  0  0  0  0
  3 28  1  0  0  0  0
  3 29  1  0  0  0  0
  4  5  1  0  0  0  0
  4 30  1  0  0  0  0
  4 31  1  0  0  0  0
  5  6  1  0  0  0  0
  5 32  1  0  0  0  0
  5 33  1  0  0  0  0
  6  7  1  0  0  0  0
  6 23  1  0  0  0  0
  6 50  1  0  0  0  0
  7  8  1  0  0  0  0
  7 34  1  0  0  0  0
  7 35  1  0  0  0  0
  8  9  1  0  0  0  0
  8 36  1  0  0  0  0
  8 37  1  0  0  0  0
  9 10  1  0  0  0  0
  9 38  1  0  0  0  0
  9 39  1  0  0  0  0
 10 11  1  0  0  0  0
 10 40  1  0  0  0  0
 11 12  2  0  0  0  0
 11 13  1  0  0  0  0
 13 14  1  0  0  0  0
 13 41  1  0  0  0  0
 13 42  1  0  0  0  0
 14 21  1  0  0  0  0
 14 15  1  0  0  0  0
 15 16  2  0  0  0  0
 15 43  1  0  0  0  0
 16 17  1  0  0  0  0
 16 44  1  0  0  0  0
 17 18  2  0  0  0  0
 17 19  1  0  0  0  0
 19 20  1  0  0  0  0
 19 21  1  0  0  0  0
 20 45  1  0  0  0  0
 20 46  1  0  0  0  0
 20 47  1  0  0  0  0
 21 22  2  0  0  0  0
 23 48  1  0  0  0  0
 23 49  1  0  0  0  0
M  CHG  1   6   1
M  END
> <s_m_source_file>
AV-unprocessed.smi

> <i_m_source_file_index>
2137

> <i_lp_mmshare_version>
43012

> <i_f3d_flags>
0

> <s_epik_input>
W0NIM11bQ0BASF0xW0NIMl1bQ0gyXVtDSDJdTihbQ0gyXTEpW0NIMl1bQ0gyXVtDSDJdW05IXUMoPU8pW0NIMl1uMltjSF1bY0hdYyg9TyluKFtDSDNdKWMyPU8=

> <s_epik_cmdline>
J2VwaWtfcHl0aG9uJywgJy1waCcsICc3LjAnLCAnLXRuJywgJzgnLCAnLW1hJywgJzIwMCcsICctbWV0YWxfYmluZGluZycsICctaW1hZScsICc8aW5maWxlLm1hZT4nLCAnLW9tYWUnLCAnPG91dGZpbGUubWFlPic=

> <r_lp_tautomer_probability>
1

> <r_epik_Ionization_Penalty>
0.000384839

> <r_epik_Ionization_Penalty_Charging>
0.000384812

> <r_epik_Ionization_Penalty_Neutral>
2.6907e-08

> <r_epik_State_Penalty>
0.000235226

> <r_epik_Charging_Adjusted_Penalty>
0.000620038

> <i_epik_Tot_Q>
1

> <i_epik_Tot_abs_Q>
1

> <r_epik_Metal_State_Penalty>
-0

> <b_epik_Metal_Only>
0

> <s_lp_Force_Field>
OPLS_2005

> <r_lp_Energy>
28.7219

> <b_lp_Chiralities_Consistent>
1

> <s_lp_Variant>
AV-unprocessed.smi:2137-3

> <Gold.Version>
5.8.1

> <Gold.Id.Protein>
6NUR|6NUR_protein|mol2

> <Gold.PLP.Fitness>
48.8820

> <Gold.PLP.PLP>
-38.6256

> <Gold.PLP.part.hbond>
-2.0000

> <Gold.PLP.part.metal>
0.0000

> <Gold.PLP.part.buried>
3.1436

> <Gold.PLP.part.nonpolar>
-40.7889

> <Gold.PLP.part.repulsive>
0.1791

> <Gold.PLP.ligand.clash>
0.0000

> <Gold.PLP.ligand.torsion>
0.8303

> <Gold.PLP.Chemscore.Hbond>
3.0000

> <Gold.PLP.Chemscore.CHOScore>
0.9579

> <Gold.PLP.Chemscore.Metal>
0.0000

> <Gold.Chemscore.Hbonds>
donor molecule, donor type, donor heavy atom, donor atom, acceptor molecule, acceptor atom, score
      L1  H     6    50       P1  7948  1.95
      P1  H  7989  7998       L1    12  1.00
      L1  C    15    43       P1  8028  0.86

> <Gold.PLP.Chemscore.Internal.Correction>
0.0435

> <Gold.Rescore>
     Score         DG    S(hbond)    S(metal)    S(lipo)     H(rot)  DE(clash)    DE(int)     intcor
     12.67     -14.88       1.98        0.00      73.66       2.27       1.41       0.81       ----

> <Gold.Chemscore.Fitness>
12.6684

> <Gold.Chemscore.DG>
-14.8832

> <Gold.Chemscore.ZeroCoef>
-5.4800

> <Gold.Chemscore.Hbond>
1.9786

> <Gold.Chemscore.Metal>
0.0000

> <Gold.Chemscore.Lipo>
73.6575

> <Gold.Chemscore.Internal_Hbond>
0.0000

> <Gold.Chemscore.DEClash>
1.4093

> <Gold.Chemscore.DEInternal>
0.8054

> <Gold.Chemscore.Rot>
2.2748

> <Gold.Chemscore.Internal.Correction>
   9.000000E+99

> <Gold.Chemscore.Hbonds>
donor molecule, donor type, donor heavy atom, donor atom, acceptor molecule, acceptor atom, score
      L1  H     6    50       P1  7948  0.93
      P1  H  7989  7998       L1    12  0.95

> <Gold.Chemscore.Hbond.Weighted>
-6.6086

> <Gold.Chemscore.Metal.Weighted>
-0.0000

> <Gold.Chemscore.Lipo.Weighted>
-8.6179

> <Gold.Chemscore.Internal_Hbond.Weighted>
0.0000

> <Gold.Chemscore.DEClash.Weighted>
1.4093

> <Gold.Chemscore.DEInternal.Weighted>
0.8054

> <Gold.Chemscore.Rot.Weighted>
5.8234

> <Gold.Chemscore.Internal.Correction.Weighted>
   9.000000E+99

> <Gold.Protein.RotatedTorsions>
[ 6907 6896 6895 6894 ] final -179.64 input  -60.11 | X-H torsion
[ 7974 7965 7964 7962 ] final  -26.22 input  175.53 | X-H torsion
[ 8008 7997 7996 7995 ] final  167.10 input   59.86 | X-H torsion
[ 10167 10162 10161 10158 ] final  -58.87 input  -65.29 | X-H torsion
[ 10718 10713 10712 10709 ] final -115.80 input   66.30 | X-H torsion
[ 10763 10752 10751 10750 ] final -175.76 input  -60.55 | X-H torsion
[ 11005 11000 10999 10996 ] final  149.30 input  -57.11 | X-H torsion

> <Gold.Protein.ActiveResidues>
 VAL166  LYS551  ARG553  GLY616  TRP617  ASP618  TYR619  PRO620  LYS621  CYS622 
 ASP623  PHE694  ASN695  SER759  ASP760  ASP761  ALA762  ILE779  LEU786  VAL792 
 PHE793  MET794  SER795  GLU796  ALA797  LYS798  CYS799  TRP800  GLU811  SER814 

> <Gold.Protein.RotatedAtoms>
  151.6568  133.3318  159.3164 H   0  0  0  0  0  0  0  0  0  0  0  0  # atno 6907 bound_to 6896
  150.7933  134.6977  159.6542 H   0  0  0  0  0  0  0  0  0  0  0  0  # atno 6908 bound_to 6896
  152.4016  134.6280  160.0119 H   0  0  0  0  0  0  0  0  0  0  0  0  # atno 6909 bound_to 6896
  146.1440  140.4991  142.8640 H   0  0  0  0  0  0  0  0  0  0  0  0  # atno 7974 bound_to 7965
  156.1662  140.1626  156.8527 H   0  0  0  0  0  0  0  0  0  0  0  0  # atno 8008 bound_to 7997
  154.5210  140.0778  156.8207 H   0  0  0  0  0  0  0  0  0  0  0  0  # atno 8009 bound_to 7997
  155.3606  140.3395  155.4243 H   0  0  0  0  0  0  0  0  0  0  0  0  # atno 8010 bound_to 7997
  140.6170  143.2406  151.5572 H   0  0  0  0  0  0  0  0  0  0  0  0  # atno 10167 bound_to 10162
  156.0920  130.6101  150.8954 H   0  0  0  0  0  0  0  0  0  0  0  0  # atno 10718 bound_to 10713
  154.5805  135.2836  155.0737 H   0  0  0  0  0  0  0  0  0  0  0  0  # atno 10763 bound_to 10752
  154.2075  135.6413  153.5109 H   0  0  0  0  0  0  0  0  0  0  0  0  # atno 10764 bound_to 10752
  153.0087  135.5484  154.6458 H   0  0  0  0  0  0  0  0  0  0  0  0  # atno 10765 bound_to 10752
  140.1033  134.8970  157.1828 H   0  0  0  0  0  0  0  0  0  0  0  0  # atno 11005 bound_to 11000
  144.7824  140.5868  143.6596 LP  0  0  0  0  0  0  0  0  0  0  0  0  # atno 17320 bound_to 7965
  145.4981  139.1485  143.3672 LP  0  0  0  0  0  0  0  0  0  0  0  0  # atno 17321 bound_to 7965
  139.5407  144.2656  152.1344 LP  0  0  0  0  0  0  0  0  0  0  0  0  # atno 17342 bound_to 10162
  140.1867  144.4791  150.6500 LP  0  0  0  0  0  0  0  0  0  0  0  0  # atno 17343 bound_to 10162
  157.6072  131.0938  150.8858 LP  0  0  0  0  0  0  0  0  0  0  0  0  # atno 17370 bound_to 10713
  156.9005  130.5245  149.5283 LP  0  0  0  0  0  0  0  0  0  0  0  0  # atno 17371 bound_to 10713
  140.3190  134.2938  155.7250 LP  0  0  0  0  0  0  0  0  0  0  0  0  # atno 17394 bound_to 11000
  141.2111  133.7698  156.9884 LP  0  0  0  0  0  0  0  0  0  0  0  0  # atno 17395 bound_to 11000

$$$$
