AV-unprocessed.smi:34|AV-procd|sdf|242|dock5
  -GOLD-   2262015593D 1   1.00000     0.00000
 Structure written by MMmdl.
 54 58  0  0  0  0  0  0  0  0  2 V2000
  153.3709  140.7196  160.9872 O   0  0  0  0  0  0  0  0  0  0  0  0
  153.0353  141.0575  159.8500 C   0  0  0  0  0  0  0  0  0  0  0  0
  153.1410  140.3402  158.7027 N   0  5  0  0  0  0  0  0  0  0  0  0
  152.0810  139.6564  158.2453 C   0  0  0  0  0  0  0  0  0  0  0  0
  151.0788  139.2978  159.0882 N   0  0  0  0  0  0  0  0  0  0  0  0
  150.0179  138.6226  158.6297 C   0  0  0  0  0  0  0  0  0  0  0  0
  149.7606  138.2047  157.3862 N   0  0  0  0  0  0  0  0  0  0  0  0
  150.7689  138.5477  156.5332 C   0  0  0  0  0  0  0  0  0  0  0  0
  151.9493  139.2635  156.8852 C   0  0  0  0  0  0  0  0  0  0  0  0
  152.7600  139.4486  155.7754 N   0  0  0  0  0  0  0  0  0  0  0  0
  152.0470  138.8560  154.8197 C   0  0  0  0  0  0  0  0  0  0  0  0
  150.8735  138.2917  155.1772 N   0  0  0  0  0  0  0  0  0  0  0  0
  149.8573  137.5874  154.3302 C   0  0  1  0  0  0  0  0  0  0  0  0
  149.6459  136.3123  154.8599 O   0  0  0  0  0  0  0  0  0  0  0  0
  148.5398  136.3607  155.7507 C   0  0  2  0  0  0  0  0  0  0  0  0
  148.0032  134.9478  156.0036 C   0  0  0  0  0  0  0  0  0  0  0  0
  147.2461  134.9356  157.2025 O   0  0  0  0  0  0  0  0  0  0  0  0
  147.8629  134.7582  158.3870 C   0  0  0  0  0  0  0  0  0  0  0  0
  149.0718  134.5464  158.5009 O   0  0  0  0  0  0  0  0  0  0  0  0
  146.9303  134.8480  159.5472 C   0  0  0  0  0  0  0  0  0  0  0  0
  147.3485  134.3687  160.8108 C   0  0  0  0  0  0  0  0  0  0  0  0
  146.4912  134.4425  161.9258 C   0  0  0  0  0  0  0  0  0  0  0  0
  145.2043  134.9948  161.7907 C   0  0  0  0  0  0  0  0  0  0  0  0
  144.7755  135.4727  160.5386 C   0  0  0  0  0  0  0  0  0  0  0  0
  145.6317  135.4007  159.4223 C   0  0  0  0  0  0  0  0  0  0  0  0
  147.5783  137.2814  155.0044 C   0  0  1  0  0  0  0  0  0  0  0  0
  146.6841  137.8364  155.8234 F   0  0  0  0  0  0  0  0  0  0  0  0
  148.5049  138.3260  154.3950 C   0  0  2  0  0  0  0  0  0  0  0  0
  148.0410  138.7123  153.1176 O   0  0  0  0  0  0  0  0  0  0  0  0
  152.4948  142.4459  159.6375 C   0  0  0  0  0  0  0  0  0  0  0  0
  152.2932  143.2960  160.7487 C   0  0  0  0  0  0  0  0  0  0  0  0
  151.7617  144.5886  160.5746 C   0  0  0  0  0  0  0  0  0  0  0  0
  151.4165  145.0414  159.2876 C   0  0  0  0  0  0  0  0  0  0  0  0
  151.6002  144.1992  158.1750 C   0  0  0  0  0  0  0  0  0  0  0  0
  152.1326  142.9065  158.3480 C   0  0  0  0  0  0  0  0  0  0  0  0
  149.2654  138.3834  159.3662 H   0  0  0  0  0  0  0  0  0  0  0  0
  152.4033  138.8364  153.8004 H   0  0  0  0  0  0  0  0  0  0  0  0
  150.3127  137.5429  153.3397 H   0  0  0  0  0  0  0  0  0  0  0  0
  148.8557  136.8205  156.6886 H   0  0  0  0  0  0  0  0  0  0  0  0
  147.3891  134.6192  155.1639 H   0  0  0  0  0  0  0  0  0  0  0  0
  148.8343  134.2474  156.0965 H   0  0  0  0  0  0  0  0  0  0  0  0
  148.3324  133.9405  160.9394 H   0  0  0  0  0  0  0  0  0  0  0  0
  146.8225  134.0751  162.8860 H   0  0  0  0  0  0  0  0  0  0  0  0
  144.5470  135.0515  162.6458 H   0  0  0  0  0  0  0  0  0  0  0  0
  143.7874  135.8963  160.4337 H   0  0  0  0  0  0  0  0  0  0  0  0
  145.2706  135.7756  158.4757 H   0  0  0  0  0  0  0  0  0  0  0  0
  147.0381  136.7269  154.2354 H   0  0  0  0  0  0  0  0  0  0  0  0
  148.5818  139.2010  155.0426 H   0  0  0  0  0  0  0  0  0  0  0  0
  148.1322  137.9780  152.5300 H   0  0  0  0  0  0  0  0  0  0  0  0
  152.5511  142.9625  161.7436 H   0  0  0  0  0  0  0  0  0  0  0  0
  151.6169  145.2314  161.4301 H   0  0  0  0  0  0  0  0  0  0  0  0
  151.0073  146.0319  159.1543 H   0  0  0  0  0  0  0  0  0  0  0  0
  151.3290  144.5423  157.1875 H   0  0  0  0  0  0  0  0  0  0  0  0
  152.2549  142.2715  157.4823 H   0  0  0  0  0  0  0  0  0  0  0  0
  1  2  2  0  0  0  0
  2  3  1  0  0  0  0
  2 30  1  0  0  0  0
  3  4  1  0  0  0  0
  4  9  1  0  0  0  0
  4  5  2  0  0  0  0
  5  6  1  0  0  0  0
  6  7  2  0  0  0  0
  6 36  1  0  0  0  0
  7  8  1  0  0  0  0
  8 12  1  0  0  0  0
  8  9  2  0  0  0  0
  9 10  1  0  0  0  0
 10 11  2  0  0  0  0
 11 12  1  0  0  0  0
 11 37  1  0  0  0  0
 12 13  1  0  0  0  0
 13 28  1  0  0  0  0
 13 14  1  0  0  0  0
 13 38  1  0  0  0  0
 14 15  1  0  0  0  0
 15 16  1  0  0  0  0
 15 26  1  0  0  0  0
 15 39  1  0  0  0  0
 16 17  1  0  0  0  0
 16 40  1  0  0  0  0
 16 41  1  0  0  0  0
 17 18  1  0  0  0  0
 18 19  2  0  0  0  0
 18 20  1  0  0  0  0
 20 25  1  0  0  0  0
 20 21  2  0  0  0  0
 21 22  1  0  0  0  0
 21 42  1  0  0  0  0
 22 23  2  0  0  0  0
 22 43  1  0  0  0  0
 23 24  1  0  0  0  0
 23 44  1  0  0  0  0
 24 25  2  0  0  0  0
 24 45  1  0  0  0  0
 25 46  1  0  0  0  0
 26 27  1  0  0  0  0
 26 28  1  0  0  0  0
 26 47  1  0  0  0  0
 28 29  1  0  0  0  0
 28 48  1  0  0  0  0
 29 49  1  0  0  0  0
 30 35  1  0  0  0  0
 30 31  2  0  0  0  0
 31 32  1  0  0  0  0
 31 50  1  0  0  0  0
 32 33  2  0  0  0  0
 32 51  1  0  0  0  0
 33 34  1  0  0  0  0
 33 52  1  0  0  0  0
 34 35  2  0  0  0  0
 34 53  1  0  0  0  0
 35 54  1  0  0  0  0
M  CHG  1   3  -1
M  END
> <s_m_source_file>
AV-unprocessed.smi

> <i_m_source_file_index>
34

> <i_lp_mmshare_version>
43012

> <i_f3d_flags>
0

> <s_epik_input>
W2NIXTFbY0hdW2NIXVtjSF1bY0hdYzFDKD1PKVtOSF1jKG5bY0hdbjIpYyhjMjMpbltjSF1uM1tDQEBIXTRPW0NASF0oW0NAQEhdKEYpW0NASF00W09IXSlbQ0gyXU9DKD1PKWM1W2NIXVtjSF1bY0hdW2NIXVtjSF01

> <s_epik_cmdline>
J2VwaWtfcHl0aG9uJywgJy1waCcsICc3LjAnLCAnLXRuJywgJzgnLCAnLW1hJywgJzIwMCcsICctbWV0YWxfYmluZGluZycsICctaW1hZScsICc8aW5maWxlLm1hZT4nLCAnLW9tYWUnLCAnPG91dGZpbGUubWFlPic=

> <r_lp_tautomer_probability>
1

> <r_epik_Ionization_Penalty>
4.33227

> <r_epik_Ionization_Penalty_Charging>
3.41027

> <r_epik_Ionization_Penalty_Neutral>
0.922001

> <r_epik_State_Penalty>
3.41358

> <r_epik_Charging_Adjusted_Penalty>
6.82385

> <i_epik_Tot_Q>
-1

> <i_epik_Tot_abs_Q>
1

> <r_epik_Metal_State_Penalty>
0.496292

> <b_epik_Metal_Only>
1

> <s_epik_Chemistry_Notes>
This compound has an ester and may undergo hydrolysis at high or low pH. This compound contains an acetal/aminal-like group ( X-CH(R)-Y where X, Y are N, S, or O) that may be acid/base labile, releasing an aldehyde.

> <s_lp_Force_Field>
OPLS_2005

> <r_lp_Energy>
39.213

> <b_lp_Chiralities_Consistent>
1

> <s_lp_Variant>
AV-unprocessed.smi:34-28

> <Gold.Version>
5.8.1

> <Gold.Id.Protein>
6NUR|6NUR_protein|mol2

> <Gold.PLP.Fitness>
62.4388

> <Gold.PLP.PLP>
-53.1624

> <Gold.PLP.part.hbond>
-4.8918

> <Gold.PLP.part.metal>
0.0000

> <Gold.PLP.part.buried>
-5.2828

> <Gold.PLP.part.nonpolar>
-43.2355

> <Gold.PLP.part.repulsive>
0.1690

> <Gold.PLP.ligand.clash>
0.0000

> <Gold.PLP.ligand.torsion>
1.3702

> <Gold.PLP.Chemscore.Hbond>
3.8080

> <Gold.PLP.Chemscore.CHOScore>
0.0000

> <Gold.PLP.Chemscore.Metal>
0.0000

> <Gold.Chemscore.Hbonds>
donor molecule, donor type, donor heavy atom, donor atom, acceptor molecule, acceptor atom, score
      L1  H    29    49       P1  7948  1.00
      P1  H  6896  6907       L1    19  1.00
      P1  H  7997  8008       L1    10  0.09
      P1  H  7997  8010       L1     3  0.76

> <Gold.PLP.Chemscore.Internal.Correction>
0.5928

> <Gold.Rescore>
     Score         DG    S(hbond)    S(metal)    S(lipo)     H(rot)  DE(clash)    DE(int)     intcor
     19.19     -22.29       3.10        0.00     114.13       2.69       0.17       2.93       ----

> <Gold.Chemscore.Fitness>
19.1853

> <Gold.Chemscore.DG>
-22.2892

> <Gold.Chemscore.ZeroCoef>
-5.4800

> <Gold.Chemscore.Hbond>
3.0999

> <Gold.Chemscore.Metal>
0.0000

> <Gold.Chemscore.Lipo>
114.1293

> <Gold.Chemscore.Internal_Hbond>
0.0000

> <Gold.Chemscore.DEClash>
0.1748

> <Gold.Chemscore.DEInternal>
2.9291

> <Gold.Chemscore.Rot>
2.6944

> <Gold.Chemscore.Internal.Correction>
   9.000000E+99

> <Gold.Chemscore.Hbonds>
donor molecule, donor type, donor heavy atom, donor atom, acceptor molecule, acceptor atom, score
      L1  H    29    49       P1  7948  0.93
      P1  H  6896  6907       L1    19  0.99
      P1  H  7997  8008       L1    10  0.09
      P1  H  7997  8010       L1     3  0.21

> <Gold.Chemscore.Hbond.Weighted>
-10.3536

> <Gold.Chemscore.Metal.Weighted>
-0.0000

> <Gold.Chemscore.Lipo.Weighted>
-13.3531

> <Gold.Chemscore.Internal_Hbond.Weighted>
0.0000

> <Gold.Chemscore.DEClash.Weighted>
0.1748

> <Gold.Chemscore.DEInternal.Weighted>
2.9291

> <Gold.Chemscore.Rot.Weighted>
6.8975

> <Gold.Chemscore.Internal.Correction.Weighted>
   9.000000E+99

> <Gold.Protein.RotatedTorsions>
[ 6907 6896 6895 6894 ] final  -74.33 input  -60.11 | X-H torsion
[ 7974 7965 7964 7962 ] final  126.15 input  175.53 | X-H torsion
[ 8008 7997 7996 7995 ] final   19.67 input   59.86 | X-H torsion
[ 10167 10162 10161 10158 ] final -159.85 input  -65.29 | X-H torsion
[ 10718 10713 10712 10709 ] final  165.32 input   66.30 | X-H torsion
[ 10763 10752 10751 10750 ] final   71.30 input  -60.55 | X-H torsion
[ 11005 11000 10999 10996 ] final   14.44 input  -57.11 | X-H torsion

> <Gold.Protein.ActiveResidues>
 VAL166  LYS551  ARG553  GLY616  TRP617  ASP618  TYR619  PRO620  LYS621  CYS622 
 ASP623  PHE694  ASN695  SER759  ASP760  ASP761  ALA762  ILE779  LEU786  VAL792 
 PHE793  MET794  SER795  GLU796  ALA797  LYS798  CYS799  TRP800  GLU811  SER814 

> <Gold.Protein.RotatedAtoms>
  150.7097  134.4885  159.5503 H   0  0  0  0  0  0  0  0  0  0  0  0  # atno 6907 bound_to 6896
  152.2507  134.8132  160.0455 H   0  0  0  0  0  0  0  0  0  0  0  0  # atno 6908 bound_to 6896
  151.8881  133.3475  159.3826 H   0  0  0  0  0  0  0  0  0  0  0  0  # atno 6909 bound_to 6896
  145.0650  139.3775  143.4987 H   0  0  0  0  0  0  0  0  0  0  0  0  # atno 7974 bound_to 7965
  154.9241  140.3031  155.5201 H   0  0  0  0  0  0  0  0  0  0  0  0  # atno 8008 bound_to 7997
  156.3008  140.2366  156.4231 H   0  0  0  0  0  0  0  0  0  0  0  0  # atno 8009 bound_to 7997
  154.8301  140.0419  157.1460 H   0  0  0  0  0  0  0  0  0  0  0  0  # atno 8010 bound_to 7997
  139.6584  143.9957  152.2209 H   0  0  0  0  0  0  0  0  0  0  0  0  # atno 10167 bound_to 10162
  157.0818  131.0394  151.2572 H   0  0  0  0  0  0  0  0  0  0  0  0  # atno 10718 bound_to 10713
  153.0391  135.5142  154.7573 H   0  0  0  0  0  0  0  0  0  0  0  0  # atno 10763 bound_to 10752
  154.6525  135.2927  154.9971 H   0  0  0  0  0  0  0  0  0  0  0  0  # atno 10764 bound_to 10752
  154.0851  135.6658  153.4896 H   0  0  0  0  0  0  0  0  0  0  0  0  # atno 10765 bound_to 10752
  140.4695  134.1046  155.7730 H   0  0  0  0  0  0  0  0  0  0  0  0  # atno 11005 bound_to 11000
  146.3526  140.0366  142.8646 LP  0  0  0  0  0  0  0  0  0  0  0  0  # atno 17320 bound_to 7965
  145.1362  140.9546  143.4515 LP  0  0  0  0  0  0  0  0  0  0  0  0  # atno 17321 bound_to 7965
  139.9689  144.6507  150.8007 LP  0  0  0  0  0  0  0  0  0  0  0  0  # atno 17342 bound_to 10162
  140.7569  143.3076  151.2924 LP  0  0  0  0  0  0  0  0  0  0  0  0  # atno 17343 bound_to 10162
  157.4794  130.7756  149.7399 LP  0  0  0  0  0  0  0  0  0  0  0  0  # atno 17370 bound_to 10713
  155.9921  130.3933  150.2954 LP  0  0  0  0  0  0  0  0  0  0  0  0  # atno 17371 bound_to 10713
  141.1584  133.8840  157.1916 LP  0  0  0  0  0  0  0  0  0  0  0  0  # atno 17394 bound_to 11000
  139.9894  135.0070  156.9940 LP  0  0  0  0  0  0  0  0  0  0  0  0  # atno 17395 bound_to 11000

$$$$
