AV-unprocessed.smi:423|AV-procd|sdf|2538|dock8
  -GOLD-   2262022503D 1   1.00000     0.00000
 Structure written by MMmdl.
 47 48  0  0  0  0  0  0  0  0  1 V2000
  152.7810  137.9846  156.0841 C   0  0  0  0  0  0  0  0  0  0  0  0
  151.8943  139.1897  155.9556 C   0  0  0  0  0  0  0  0  0  0  0  0
  152.2344  140.3113  156.5668 N   0  0  0  0  0  0  0  0  0  0  0  0
  151.2459  141.1813  156.2726 N   0  0  0  0  0  0  0  0  0  0  0  0
  151.3095  142.5316  156.8123 C   0  0  0  0  0  0  0  0  0  0  0  0
  151.3619  142.5721  158.3552 C   0  0  0  0  0  0  0  0  0  0  0  0
  151.5016  144.0175  158.8549 C   0  0  0  0  0  0  0  0  0  0  0  0
  152.4683  141.6799  158.9447 C   0  0  0  0  0  0  0  0  0  0  0  0
  150.2853  140.6079  155.4588 C   0  0  0  0  0  0  0  0  0  0  0  0
  149.0785  141.3524  154.9836 C   0  0  0  0  0  0  0  0  0  0  0  0
  150.6719  139.3136  155.2332 C   0  0  0  0  0  0  0  0  0  0  0  0
  149.9758  138.2507  154.4173 C   0  0  0  0  0  0  0  0  0  0  0  0
  150.0011  136.8820  155.1218 C   0  0  0  0  0  0  0  0  0  0  0  0
  150.2482  136.8007  156.3247 O   0  0  0  0  0  0  0  0  0  0  0  0
  149.7527  135.7759  154.4006 N   0  0  0  0  0  0  0  0  0  0  0  0
  149.7294  134.3941  154.8771 C   0  0  0  0  0  0  0  0  0  0  0  0
  149.4877  133.3961  153.7240 C   0  0  0  0  0  0  0  0  0  0  0  0
  148.3223  132.5070  154.1630 C   0  0  0  0  0  0  0  0  0  0  0  0
  147.5094  133.3857  155.1075 C   0  0  0  0  0  0  0  0  0  0  0  0
  148.5655  134.1909  155.8640 C   0  0  0  0  0  0  0  0  0  0  0  0
  152.1920  137.0686  156.1338 H   0  0  0  0  0  0  0  0  0  0  0  0
  153.3926  138.0300  156.9862 H   0  0  0  0  0  0  0  0  0  0  0  0
  153.4528  137.9028  155.2300 H   0  0  0  0  0  0  0  0  0  0  0  0
  152.1870  143.0319  156.3982 H   0  0  0  0  0  0  0  0  0  0  0  0
  150.4456  143.0880  156.4480 H   0  0  0  0  0  0  0  0  0  0  0  0
  150.4111  142.1943  158.7316 H   0  0  0  0  0  0  0  0  0  0  0  0
  152.4379  144.4637  158.5182 H   0  0  0  0  0  0  0  0  0  0  0  0
  151.4851  144.0613  159.9443 H   0  0  0  0  0  0  0  0  0  0  0  0
  150.6850  144.6408  158.4893 H   0  0  0  0  0  0  0  0  0  0  0  0
  153.4512  141.9731  158.5747 H   0  0  0  0  0  0  0  0  0  0  0  0
  152.3156  140.6303  158.6921 H   0  0  0  0  0  0  0  0  0  0  0  0
  152.4883  141.7478  160.0326 H   0  0  0  0  0  0  0  0  0  0  0  0
  148.5713  140.8118  154.1847 H   0  0  0  0  0  0  0  0  0  0  0  0
  149.3471  142.3351  154.5968 H   0  0  0  0  0  0  0  0  0  0  0  0
  148.3646  141.4881  155.7955 H   0  0  0  0  0  0  0  0  0  0  0  0
  148.9431  138.5390  154.2249 H   0  0  0  0  0  0  0  0  0  0  0  0
  150.4467  138.1422  153.4400 H   0  0  0  0  0  0  0  0  0  0  0  0
  149.5585  135.9079  153.4185 H   0  0  0  0  0  0  0  0  0  0  0  0
  150.6622  134.1631  155.3935 H   0  0  0  0  0  0  0  0  0  0  0  0
  149.2097  133.9227  152.8096 H   0  0  0  0  0  0  0  0  0  0  0  0
  150.3775  132.8084  153.4974 H   0  0  0  0  0  0  0  0  0  0  0  0
  147.7352  132.1384  153.3212 H   0  0  0  0  0  0  0  0  0  0  0  0
  148.7045  131.6418  154.7065 H   0  0  0  0  0  0  0  0  0  0  0  0
  146.8753  134.0594  154.5293 H   0  0  0  0  0  0  0  0  0  0  0  0
  146.8663  132.8076  155.7717 H   0  0  0  0  0  0  0  0  0  0  0  0
  148.9162  133.6060  156.7156 H   0  0  0  0  0  0  0  0  0  0  0  0
  148.1651  135.1243  156.2624 H   0  0  0  0  0  0  0  0  0  0  0  0
  1  2  1  0  0  0  0
  1 21  1  0  0  0  0
  1 22  1  0  0  0  0
  1 23  1  0  0  0  0
  2 11  1  0  0  0  0
  2  3  2  0  0  0  0
  3  4  1  0  0  0  0
  4  5  1  0  0  0  0
  4  9  1  0  0  0  0
  5  6  1  0  0  0  0
  5 24  1  0  0  0  0
  5 25  1  0  0  0  0
  6  7  1  0  0  0  0
  6  8  1  0  0  0  0
  6 26  1  0  0  0  0
  7 27  1  0  0  0  0
  7 28  1  0  0  0  0
  7 29  1  0  0  0  0
  8 30  1  0  0  0  0
  8 31  1  0  0  0  0
  8 32  1  0  0  0  0
  9 10  1  0  0  0  0
  9 11  2  0  0  0  0
 10 33  1  0  0  0  0
 10 34  1  0  0  0  0
 10 35  1  0  0  0  0
 11 12  1  0  0  0  0
 12 13  1  0  0  0  0
 12 36  1  0  0  0  0
 12 37  1  0  0  0  0
 13 14  2  0  0  0  0
 13 15  1  0  0  0  0
 15 16  1  0  0  0  0
 15 38  1  0  0  0  0
 16 20  1  0  0  0  0
 16 17  1  0  0  0  0
 16 39  1  0  0  0  0
 17 18  1  0  0  0  0
 17 40  1  0  0  0  0
 17 41  1  0  0  0  0
 18 19  1  0  0  0  0
 18 42  1  0  0  0  0
 18 43  1  0  0  0  0
 19 20  1  0  0  0  0
 19 44  1  0  0  0  0
 19 45  1  0  0  0  0
 20 46  1  0  0  0  0
 20 47  1  0  0  0  0
M  END
> <s_m_source_file>
AV-unprocessed.smi

> <i_m_source_file_index>
423

> <i_lp_mmshare_version>
43012

> <i_f3d_flags>
0

> <s_epik_input>
W0NIM11jMW5uKFtDSDJdW0NIXShbQ0gzXSlbQ0gzXSljKFtDSDNdKWMxW0NIMl1DKD1PKVtOSF1bQ0hdMltDSDJdW0NIMl1bQ0gyXVtDSDJdMg==

> <s_epik_cmdline>
J2VwaWtfcHl0aG9uJywgJy1waCcsICc3LjAnLCAnLXRuJywgJzgnLCAnLW1hJywgJzIwMCcsICctbWV0YWxfYmluZGluZycsICctaW1hZScsICc8aW5maWxlLm1hZT4nLCAnLW9tYWUnLCAnPG91dGZpbGUubWFlPic=

> <r_lp_tautomer_probability>
1

> <r_epik_Ionization_Penalty>
0.00323157

> <r_epik_Ionization_Penalty_Charging>
0

> <r_epik_Ionization_Penalty_Neutral>
0.00323157

> <r_epik_State_Penalty>
0.00228044

> <r_epik_Charging_Adjusted_Penalty>
0.00228044

> <i_epik_Tot_Q>
0

> <i_epik_Tot_abs_Q>
0

> <r_epik_Metal_State_Penalty>
-0

> <b_epik_Metal_Only>
0

> <s_lp_Force_Field>
OPLS_2005

> <r_lp_Energy>
20.2574

> <b_lp_Chiralities_Consistent>
1

> <s_lp_Variant>
AV-unprocessed.smi:423-1

> <Gold.Version>
5.8.1

> <Gold.Id.Protein>
6NUR|6NUR_protein|mol2

> <Gold.PLP.Fitness>
39.5252

> <Gold.PLP.PLP>
-34.6197

> <Gold.PLP.part.hbond>
-2.3413

> <Gold.PLP.part.metal>
0.0000

> <Gold.PLP.part.buried>
-2.9773

> <Gold.PLP.part.nonpolar>
-30.1509

> <Gold.PLP.part.repulsive>
0.0611

> <Gold.PLP.ligand.clash>
0.0000

> <Gold.PLP.ligand.torsion>
0.5216

> <Gold.PLP.Chemscore.Hbond>
1.9750

> <Gold.PLP.Chemscore.CHOScore>
0.0000

> <Gold.PLP.Chemscore.Metal>
0.0000

> <Gold.Chemscore.Hbonds>
donor molecule, donor type, donor heavy atom, donor atom, acceptor molecule, acceptor atom, score
      L1  H    15    38       P1  7948  1.00
      P1  H  7997  8008       L1     3  0.76

> <Gold.PLP.Chemscore.Internal.Correction>
0.0237

> <Gold.Rescore>
     Score         DG    S(hbond)    S(metal)    S(lipo)     H(rot)  DE(clash)    DE(int)     intcor
     15.12     -19.05       1.85        0.00      94.49       1.43       1.31       2.61       ----

> <Gold.Chemscore.Fitness>
15.1247

> <Gold.Chemscore.DG>
-19.0467

> <Gold.Chemscore.ZeroCoef>
-5.4800

> <Gold.Chemscore.Hbond>
1.8491

> <Gold.Chemscore.Metal>
0.0000

> <Gold.Chemscore.Lipo>
94.4931

> <Gold.Chemscore.Internal_Hbond>
0.0000

> <Gold.Chemscore.DEClash>
1.3134

> <Gold.Chemscore.DEInternal>
2.6086

> <Gold.Chemscore.Rot>
1.4316

> <Gold.Chemscore.Internal.Correction>
   9.000000E+99

> <Gold.Chemscore.Hbonds>
donor molecule, donor type, donor heavy atom, donor atom, acceptor molecule, acceptor atom, score
      L1  H    15    38       P1  7948  0.26
      P1  H  7997  8008       L1     3  0.16

> <Gold.Chemscore.Hbond.Weighted>
-6.1760

> <Gold.Chemscore.Metal.Weighted>
-0.0000

> <Gold.Chemscore.Lipo.Weighted>
-11.0557

> <Gold.Chemscore.Internal_Hbond.Weighted>
0.0000

> <Gold.Chemscore.DEClash.Weighted>
1.3134

> <Gold.Chemscore.DEInternal.Weighted>
2.6086

> <Gold.Chemscore.Rot.Weighted>
3.6649

> <Gold.Chemscore.Internal.Correction.Weighted>
   9.000000E+99

> <Gold.Protein.RotatedTorsions>
[ 6907 6896 6895 6894 ] final  117.18 input  -60.11 | X-H torsion
[ 7974 7965 7964 7962 ] final  123.56 input  175.53 | X-H torsion
[ 8008 7997 7996 7995 ] final  -44.76 input   59.86 | X-H torsion
[ 10167 10162 10161 10158 ] final  -95.16 input  -65.29 | X-H torsion
[ 10718 10713 10712 10709 ] final   56.07 input   66.30 | X-H torsion
[ 10763 10752 10751 10750 ] final -126.57 input  -60.55 | X-H torsion
[ 11005 11000 10999 10996 ] final  108.92 input  -57.11 | X-H torsion

> <Gold.Protein.ActiveResidues>
 VAL166  LYS551  ARG553  GLY616  TRP617  ASP618  TYR619  PRO620  LYS621  CYS622 
 ASP623  PHE694  ASN695  SER759  ASP760  ASP761  ALA762  ILE779  LEU786  VAL792 
 PHE793  MET794  SER795  GLU796  ALA797  LYS798  CYS799  TRP800  GLU811  SER814 

> <Gold.Protein.RotatedAtoms>
  152.4629  133.7860  159.6876 H   0  0  0  0  0  0  0  0  0  0  0  0  # atno 6907 bound_to 6896
  150.8581  133.7675  159.3008 H   0  0  0  0  0  0  0  0  0  0  0  0  # atno 6908 bound_to 6896
  151.5250  135.1071  159.9940 H   0  0  0  0  0  0  0  0  0  0  0  0  # atno 6909 bound_to 6896
  145.0946  139.3562  143.4843 H   0  0  0  0  0  0  0  0  0  0  0  0  # atno 7974 bound_to 7965
  154.3998  140.1414  156.3736 H   0  0  0  0  0  0  0  0  0  0  0  0  # atno 8008 bound_to 7997
  155.8070  140.3474  155.5414 H   0  0  0  0  0  0  0  0  0  0  0  0  # atno 8009 bound_to 7997
  155.8426  140.0929  157.1715 H   0  0  0  0  0  0  0  0  0  0  0  0  # atno 8010 bound_to 7997
  140.3070  143.3128  152.0188 H   0  0  0  0  0  0  0  0  0  0  0  0  # atno 10167 bound_to 10162
  157.5400  130.8690  149.8808 H   0  0  0  0  0  0  0  0  0  0  0  0  # atno 10718 bound_to 10713
  154.8746  135.3991  154.3452 H   0  0  0  0  0  0  0  0  0  0  0  0  # atno 10763 bound_to 10752
  153.4246  135.7024  153.6277 H   0  0  0  0  0  0  0  0  0  0  0  0  # atno 10764 bound_to 10752
  153.4924  135.3745  155.2468 H   0  0  0  0  0  0  0  0  0  0  0  0  # atno 10765 bound_to 10752
  139.8852  134.9444  156.6047 H   0  0  0  0  0  0  0  0  0  0  0  0  # atno 11005 bound_to 11000
  146.3531  140.0795  142.8618 LP  0  0  0  0  0  0  0  0  0  0  0  0  # atno 17320 bound_to 7965
  145.1026  140.9355  143.4703 LP  0  0  0  0  0  0  0  0  0  0  0  0  # atno 17321 bound_to 7965
  139.4902  144.6413  151.6871 LP  0  0  0  0  0  0  0  0  0  0  0  0  # atno 17342 bound_to 10162
  140.5601  144.0282  150.6166 LP  0  0  0  0  0  0  0  0  0  0  0  0  # atno 17343 bound_to 10162
  156.0489  130.3722  150.1250 LP  0  0  0  0  0  0  0  0  0  0  0  0  # atno 17370 bound_to 10713
  156.9430  130.9750  151.3512 LP  0  0  0  0  0  0  0  0  0  0  0  0  # atno 17371 bound_to 10713
  140.7857  133.8623  155.8604 LP  0  0  0  0  0  0  0  0  0  0  0  0  # atno 17394 bound_to 11000
  140.9721  134.1517  157.4567 LP  0  0  0  0  0  0  0  0  0  0  0  0  # atno 17395 bound_to 11000

$$$$
