AV-unprocessed.smi:88|AV-procd|sdf|824|dock9
  -GOLD-   2262017233D 1   1.00000     0.00000
 Structure written by MMmdl.
 56 60  0  0  0  0  0  0  0  0  1 V2000
  143.6936  132.9869  149.3935 C   0  0  0  0  0  0  0  0  0  0  0  0
  145.0464  133.0943  149.9447 N   0  0  0  0  0  0  0  0  0  0  0  0
  146.0691  132.2901  149.6117 C   0  0  0  0  0  0  0  0  0  0  0  0
  146.0359  131.3505  148.8190 O   0  0  0  0  0  0  0  0  0  0  0  0
  147.1490  132.6796  150.2872 N   0  0  0  0  0  0  0  0  0  0  0  0
  146.9128  133.8163  151.1462 C   0  0  0  0  0  0  0  0  0  0  0  0
  145.4166  134.1254  150.9234 C   0  0  0  0  0  0  0  0  0  0  0  0
  145.2034  135.5511  150.3554 C   0  0  0  0  0  0  0  0  0  0  0  0
  145.5244  136.6356  151.3995 C   0  0  0  0  0  0  0  0  0  0  0  0
  144.7621  136.4157  152.6254 N   0  0  0  0  0  0  0  0  0  0  0  0
  144.8578  137.4325  153.5070 C   0  0  0  0  0  0  0  0  0  0  0  0
  143.9469  137.4712  154.5096 N   0  0  0  0  0  0  0  0  0  0  0  0
  143.9920  138.4544  155.4139 C   0  0  0  0  0  0  0  0  0  0  0  0
  144.8489  139.4752  155.4971 N   0  0  0  0  0  0  0  0  0  0  0  0
  145.7658  139.4370  154.4873 C   0  0  0  0  0  0  0  0  0  0  0  0
  145.8430  138.4587  153.4568 C   0  0  0  0  0  0  0  0  0  0  0  0
  146.9056  138.7456  152.6082 N   0  0  0  0  0  0  0  0  0  0  0  0
  147.4263  139.8330  153.1083 C   0  0  0  0  0  0  0  0  0  0  0  0
  146.8013  140.3196  154.2345 N   0  0  0  0  0  0  0  0  0  0  0  0
  147.1688  141.5071  154.9904 C   0  0  0  0  0  0  0  0  0  0  0  0
  148.2567  141.2548  156.0633 C   0  0  0  0  0  0  0  0  0  0  0  0
  148.1421  142.2775  157.0382 O   0  0  0  0  0  0  0  0  0  0  0  0
  148.0956  139.8884  156.7654 C   0  0  0  0  0  0  0  0  0  0  0  0
  149.2927  139.5592  157.6753 C   0  0  0  0  0  0  0  0  0  0  0  0
  150.5061  139.6293  156.9363 O   0  0  0  0  0  0  0  0  0  0  0  0
  150.7659  140.9317  156.4270 C   0  0  0  0  0  0  0  0  0  0  0  0
  149.6619  141.3370  155.4343 C   0  0  0  0  0  0  0  0  0  0  0  0
  144.9372  135.1018  153.2375 C   0  0  0  0  0  0  0  0  0  0  0  0
  144.6024  133.9835  152.2341 C   0  0  0  0  0  0  0  0  0  0  0  0
  143.5913  132.1400  148.7140 H   0  0  0  0  0  0  0  0  0  0  0  0
  143.4318  133.8825  148.8313 H   0  0  0  0  0  0  0  0  0  0  0  0
  142.9575  132.8512  150.1846 H   0  0  0  0  0  0  0  0  0  0  0  0
  148.0519  132.2340  150.2115 H   0  0  0  0  0  0  0  0  0  0  0  0
  147.1462  133.5489  152.1772 H   0  0  0  0  0  0  0  0  0  0  0  0
  147.5674  134.6370  150.8512 H   0  0  0  0  0  0  0  0  0  0  0  0
  145.8094  135.7029  149.4613 H   0  0  0  0  0  0  0  0  0  0  0  0
  144.1658  135.6799  150.0466 H   0  0  0  0  0  0  0  0  0  0  0  0
  146.5914  136.6374  151.6228 H   0  0  0  0  0  0  0  0  0  0  0  0
  145.2853  137.6190  150.9921 H   0  0  0  0  0  0  0  0  0  0  0  0
  143.2324  138.4176  156.1807 H   0  0  0  0  0  0  0  0  0  0  0  0
  148.2840  140.3172  152.6642 H   0  0  0  0  0  0  0  0  0  0  0  0
  147.5104  142.2643  154.2836 H   0  0  0  0  0  0  0  0  0  0  0  0
  146.2662  141.9104  155.4520 H   0  0  0  0  0  0  0  0  0  0  0  0
  148.2893  143.1111  156.6177 H   0  0  0  0  0  0  0  0  0  0  0  0
  147.1742  139.8548  157.3482 H   0  0  0  0  0  0  0  0  0  0  0  0
  148.0092  139.1059  156.0106 H   0  0  0  0  0  0  0  0  0  0  0  0
  149.3353  140.2360  158.5300 H   0  0  0  0  0  0  0  0  0  0  0  0
  149.1863  138.5516  158.0775 H   0  0  0  0  0  0  0  0  0  0  0  0
  150.8431  141.6483  157.2460 H   0  0  0  0  0  0  0  0  0  0  0  0
  151.7330  140.9240  155.9242 H   0  0  0  0  0  0  0  0  0  0  0  0
  149.7115  140.6673  154.5747 H   0  0  0  0  0  0  0  0  0  0  0  0
  149.8527  142.3401  155.0504 H   0  0  0  0  0  0  0  0  0  0  0  0
  145.9624  134.9943  153.5927 H   0  0  0  0  0  0  0  0  0  0  0  0
  144.2899  135.0158  154.1113 H   0  0  0  0  0  0  0  0  0  0  0  0
  143.5348  134.0351  152.0205 H   0  0  0  0  0  0  0  0  0  0  0  0
  144.7756  133.0080  152.6901 H   0  0  0  0  0  0  0  0  0  0  0  0
  1  2  1  0  0  0  0
  1 30  1  0  0  0  0
  1 31  1  0  0  0  0
  1 32  1  0  0  0  0
  2  7  1  0  0  0  0
  2  3  1  0  0  0  0
  3  4  2  0  0  0  0
  3  5  1  0  0  0  0
  5  6  1  0  0  0  0
  5 33  1  0  0  0  0
  6  7  1  0  0  0  0
  6 34  1  0  0  0  0
  6 35  1  0  0  0  0
  7 29  1  0  0  0  0
  7  8  1  0  0  0  0
  8  9  1  0  0  0  0
  8 36  1  0  0  0  0
  8 37  1  0  0  0  0
  9 10  1  0  0  0  0
  9 38  1  0  0  0  0
  9 39  1  0  0  0  0
 10 11  1  0  0  0  0
 10 28  1  0  0  0  0
 11 16  1  0  0  0  0
 11 12  2  0  0  0  0
 12 13  1  0  0  0  0
 13 14  2  0  0  0  0
 13 40  1  0  0  0  0
 14 15  1  0  0  0  0
 15 19  1  0  0  0  0
 15 16  2  0  0  0  0
 16 17  1  0  0  0  0
 17 18  2  0  0  0  0
 18 19  1  0  0  0  0
 18 41  1  0  0  0  0
 19 20  1  0  0  0  0
 20 21  1  0  0  0  0
 20 42  1  0  0  0  0
 20 43  1  0  0  0  0
 21 27  1  0  0  0  0
 21 22  1  0  0  0  0
 21 23  1  0  0  0  0
 22 44  1  0  0  0  0
 23 24  1  0  0  0  0
 23 45  1  0  0  0  0
 23 46  1  0  0  0  0
 24 25  1  0  0  0  0
 24 47  1  0  0  0  0
 24 48  1  0  0  0  0
 25 26  1  0  0  0  0
 26 27  1  0  0  0  0
 26 49  1  0  0  0  0
 26 50  1  0  0  0  0
 27 51  1  0  0  0  0
 27 52  1  0  0  0  0
 28 29  1  0  0  0  0
 28 53  1  0  0  0  0
 28 54  1  0  0  0  0
 29 55  1  0  0  0  0
 29 56  1  0  0  0  0
M  END
> <s_m_source_file>
AV-unprocessed.smi

> <i_m_source_file_index>
88

> <i_lp_mmshare_version>
43012

> <i_f3d_flags>
0

> <s_epik_input>
W0NIMl0xW05IXUMoPU8pTihbQ0gzXSlDMTJbQ0gyXVtDSDJdTihbQ0gyXVtDSDJdMiljKG5bY0hdbjMpYyhjMzQpbltjSF1uNFtDSDJdQzUoW09IXSlbQ0gyXVtDSDJdT1tDSDJdW0NIMl01

> <s_epik_cmdline>
J2VwaWtfcHl0aG9uJywgJy1waCcsICc3LjAnLCAnLXRuJywgJzgnLCAnLW1hJywgJzIwMCcsICctbWV0YWxfYmluZGluZycsICctaW1hZScsICc8aW5maWxlLm1hZT4nLCAnLW9tYWUnLCAnPG91dGZpbGUubWFlPic=

> <r_lp_tautomer_probability>
1

> <r_epik_Ionization_Penalty>
0.00363326

> <r_epik_Ionization_Penalty_Charging>
0

> <r_epik_Ionization_Penalty_Neutral>
0.00363326

> <r_epik_State_Penalty>
0.00246926

> <r_epik_Charging_Adjusted_Penalty>
0.00246926

> <i_epik_Tot_Q>
0

> <i_epik_Tot_abs_Q>
0

> <r_epik_Metal_State_Penalty>
-0

> <b_epik_Metal_Only>
0

> <s_lp_Force_Field>
OPLS_2005

> <r_lp_Energy>
63.3868

> <b_lp_Chiralities_Consistent>
1

> <s_lp_Variant>
AV-unprocessed.smi:88-1

> <Gold.Version>
5.8.1

> <Gold.Id.Protein>
6NUR|6NUR_protein|mol2

> <Gold.PLP.Fitness>
41.8856

> <Gold.PLP.PLP>
-34.5582

> <Gold.PLP.part.hbond>
-2.9869

> <Gold.PLP.part.metal>
0.0000

> <Gold.PLP.part.buried>
-1.8746

> <Gold.PLP.part.nonpolar>
-30.7642

> <Gold.PLP.part.repulsive>
0.7976

> <Gold.PLP.ligand.clash>
0.0000

> <Gold.PLP.ligand.torsion>
0.9302

> <Gold.PLP.Chemscore.Hbond>
2.0000

> <Gold.PLP.Chemscore.CHOScore>
1.0000

> <Gold.PLP.Chemscore.Metal>
0.0000

> <Gold.Chemscore.Hbonds>
donor molecule, donor type, donor heavy atom, donor atom, acceptor molecule, acceptor atom, score
      L1  H     5    33       P1 10747  1.00
      L1  H    22    44       P1  8028  1.00
      L1  C    18    41       P1  7957  0.96

> <Gold.PLP.Chemscore.Internal.Correction>
0.1877

> <Gold.Rescore>
     Score         DG    S(hbond)    S(metal)    S(lipo)     H(rot)  DE(clash)    DE(int)     intcor
      9.85     -13.87       1.89        0.00      65.63       2.18       1.65       2.36       ----

> <Gold.Chemscore.Fitness>
9.8546

> <Gold.Chemscore.DG>
-13.8663

> <Gold.Chemscore.ZeroCoef>
-5.4800

> <Gold.Chemscore.Hbond>
1.8855

> <Gold.Chemscore.Metal>
0.0000

> <Gold.Chemscore.Lipo>
65.6335

> <Gold.Chemscore.Internal_Hbond>
0.0000

> <Gold.Chemscore.DEClash>
1.6471

> <Gold.Chemscore.DEInternal>
2.3646

> <Gold.Chemscore.Rot>
2.1838

> <Gold.Chemscore.Internal.Correction>
   9.000000E+99

> <Gold.Chemscore.Hbonds>
donor molecule, donor type, donor heavy atom, donor atom, acceptor molecule, acceptor atom, score
      L1  H     5    33       P1 10747  0.95
      L1  H    22    44       P1  8028  0.44

> <Gold.Chemscore.Hbond.Weighted>
-6.2977

> <Gold.Chemscore.Metal.Weighted>
-0.0000

> <Gold.Chemscore.Lipo.Weighted>
-7.6791

> <Gold.Chemscore.Internal_Hbond.Weighted>
0.0000

> <Gold.Chemscore.DEClash.Weighted>
1.6471

> <Gold.Chemscore.DEInternal.Weighted>
2.3646

> <Gold.Chemscore.Rot.Weighted>
5.5905

> <Gold.Chemscore.Internal.Correction.Weighted>
   9.000000E+99

> <Gold.Protein.RotatedTorsions>
[ 6907 6896 6895 6894 ] final  170.23 input  -60.11 | X-H torsion
[ 7974 7965 7964 7962 ] final  158.03 input  175.53 | X-H torsion
[ 8008 7997 7996 7995 ] final   22.61 input   59.86 | X-H torsion
[ 10167 10162 10161 10158 ] final -106.45 input  -65.29 | X-H torsion
[ 10718 10713 10712 10709 ] final   27.12 input   66.30 | X-H torsion
[ 10763 10752 10751 10750 ] final  -58.14 input  -60.55 | X-H torsion
[ 11005 11000 10999 10996 ] final  -32.72 input  -57.11 | X-H torsion

> <Gold.Protein.ActiveResidues>
 VAL166  LYS551  ARG553  GLY616  TRP617  ASP618  TYR619  PRO620  LYS621  CYS622 
 ASP623  PHE694  ASN695  SER759  ASP760  ASP761  ALA762  ILE779  LEU786  VAL792 
 PHE793  MET794  SER795  GLU796  ALA797  LYS798  CYS799  TRP800  GLU811  SER814 

> <Gold.Protein.RotatedAtoms>
  151.8194  133.3392  159.3579 H   0  0  0  0  0  0  0  0  0  0  0  0  # atno 6907 bound_to 6896
  150.7299  134.5588  159.5841 H   0  0  0  0  0  0  0  0  0  0  0  0  # atno 6908 bound_to 6896
  152.3017  134.7604  160.0407 H   0  0  0  0  0  0  0  0  0  0  0  0  # atno 6909 bound_to 6896
  144.7869  139.7422  143.6237 H   0  0  0  0  0  0  0  0  0  0  0  0  # atno 7974 bound_to 7965
  154.9684  140.3087  155.4999 H   0  0  0  0  0  0  0  0  0  0  0  0  # atno 8008 bound_to 7997
  156.2969  140.2288  156.4714 H   0  0  0  0  0  0  0  0  0  0  0  0  # atno 8009 bound_to 7997
  154.7899  140.0440  157.1181 H   0  0  0  0  0  0  0  0  0  0  0  0  # atno 8010 bound_to 7997
  140.1876  143.3917  152.1232 H   0  0  0  0  0  0  0  0  0  0  0  0  # atno 10167 bound_to 10162
  157.2160  130.6956  149.6249 H   0  0  0  0  0  0  0  0  0  0  0  0  # atno 10718 bound_to 10713
  154.2334  135.6356  153.5183 H   0  0  0  0  0  0  0  0  0  0  0  0  # atno 10763 bound_to 10752
  152.9944  135.5525  154.5988 H   0  0  0  0  0  0  0  0  0  0  0  0  # atno 10764 bound_to 10752
  154.5476  135.2899  155.1012 H   0  0  0  0  0  0  0  0  0  0  0  0  # atno 10765 bound_to 10752
  140.9576  133.7184  156.1317 H   0  0  0  0  0  0  0  0  0  0  0  0  # atno 11005 bound_to 11000
  146.2105  139.5457  142.9684 LP  0  0  0  0  0  0  0  0  0  0  0  0  # atno 17320 bound_to 7965
  145.5898  141.0371  143.2076 LP  0  0  0  0  0  0  0  0  0  0  0  0  # atno 17321 bound_to 7965
  139.5269  144.7113  151.5196 LP  0  0  0  0  0  0  0  0  0  0  0  0  # atno 17342 bound_to 10162
  140.6477  143.8760  150.6754 LP  0  0  0  0  0  0  0  0  0  0  0  0  # atno 17343 bound_to 10162
  155.9686  130.4535  150.5816 LP  0  0  0  0  0  0  0  0  0  0  0  0  # atno 17370 bound_to 10713
  157.3624  131.0752  151.1625 LP  0  0  0  0  0  0  0  0  0  0  0  0  # atno 17371 bound_to 10713
  140.7514  134.4041  157.5540 LP  0  0  0  0  0  0  0  0  0  0  0  0  # atno 17394 bound_to 11000
  139.8867  134.8902  156.2569 LP  0  0  0  0  0  0  0  0  0  0  0  0  # atno 17395 bound_to 11000

$$$$
