AV-unprocessed.smi:1526|AV-procd|sdf|6146|dock5
  -GOLD-   22720 6293D 1   1.00000     0.00000
 Structure written by MMmdl.
 34 35  0  0  0  0  0  0  0  0  3 V2000
  147.0886  142.6962  159.9159 O   0  0  0  0  0  0  0  0  0  0  0  0
  147.5228  142.7878  158.7684 C   0  0  0  0  0  0  0  0  0  0  0  0
  146.7399  142.1315  157.6174 C   0  0  0  0  0  0  0  0  0  0  0  0
  147.5411  141.8178  156.4194 N   0  0  0  0  0  0  0  0  0  0  0  0
  148.7251  141.0805  156.6185 C   0  0  0  0  0  0  0  0  0  0  0  0
  149.5317  140.7308  155.5973 C   0  0  0  0  0  0  0  0  0  0  0  0
  150.7392  139.9662  155.8199 N   0  3  0  0  0  0  0  0  0  0  0  0
  151.4409  139.6805  154.8550 O   0  0  0  0  0  0  0  0  0  0  0  0
  151.0257  139.6253  156.9635 O   0  5  0  0  0  0  0  0  0  0  0  0
  149.1450  141.1426  154.2617 C   0  0  0  0  0  0  0  0  0  0  0  0
  148.0116  141.8441  154.0638 C   0  0  0  0  0  0  0  0  0  0  0  0
  147.1318  142.2174  155.1762 C   0  0  0  0  0  0  0  0  0  0  0  0
  146.0874  142.8446  155.0004 O   0  0  0  0  0  0  0  0  0  0  0  0
  148.6598  143.4378  158.4742 N   0  0  0  0  0  0  0  0  0  0  0  0
  149.5258  144.0852  159.4472 C   0  0  0  0  0  0  0  0  0  0  0  0
  150.8248  144.5200  158.7801 C   0  0  0  0  0  0  0  0  0  0  0  0
  151.7500  143.4668  158.1500 C   0  0  0  0  0  0  0  0  0  0  0  0
  152.9428  144.3177  158.5943 C   0  0  0  0  0  0  0  0  0  0  0  0
  152.0211  144.9428  159.6453 C   0  0  0  0  0  0  0  0  0  0  0  0
  146.2589  141.2289  157.9981 H   0  0  0  0  0  0  0  0  0  0  0  0
  145.9151  142.7946  157.3524 H   0  0  0  0  0  0  0  0  0  0  0  0
  148.9203  140.8171  157.6484 H   0  0  0  0  0  0  0  0  0  0  0  0
  149.7610  140.8915  153.4108 H   0  0  0  0  0  0  0  0  0  0  0  0
  147.7422  142.1404  153.0606 H   0  0  0  0  0  0  0  0  0  0  0  0
  148.9534  143.4724  157.5091 H   0  0  0  0  0  0  0  0  0  0  0  0
  149.0096  144.9457  159.8747 H   0  0  0  0  0  0  0  0  0  0  0  0
  149.7284  143.3945  160.2673 H   0  0  0  0  0  0  0  0  0  0  0  0
  150.6362  145.3035  158.0422 H   0  0  0  0  0  0  0  0  0  0  0  0
  151.7059  142.5034  158.6611 H   0  0  0  0  0  0  0  0  0  0  0  0
  151.6434  143.3535  157.0706 H   0  0  0  0  0  0  0  0  0  0  0  0
  153.7822  143.7524  159.0006 H   0  0  0  0  0  0  0  0  0  0  0  0
  153.2619  145.0305  157.8322 H   0  0  0  0  0  0  0  0  0  0  0  0
  152.1355  146.0198  159.7717 H   0  0  0  0  0  0  0  0  0  0  0  0
  152.0593  144.4196  160.6024 H   0  0  0  0  0  0  0  0  0  0  0  0
  1  2  2  0  0  0  0
  2  3  1  0  0  0  0
  2 14  1  0  0  0  0
  3  4  1  0  0  0  0
  3 20  1  0  0  0  0
  3 21  1  0  0  0  0
  4 12  1  0  0  0  0
  4  5  1  0  0  0  0
  5  6  2  0  0  0  0
  5 22  1  0  0  0  0
  6  7  1  0  0  0  0
  6 10  1  0  0  0  0
  7  8  2  0  0  0  0
  7  9  1  0  0  0  0
 10 11  2  0  0  0  0
 10 23  1  0  0  0  0
 11 12  1  0  0  0  0
 11 24  1  0  0  0  0
 12 13  2  0  0  0  0
 14 15  1  0  0  0  0
 14 25  1  0  0  0  0
 15 16  1  0  0  0  0
 15 26  1  0  0  0  0
 15 27  1  0  0  0  0
 16 19  1  0  0  0  0
 16 17  1  0  0  0  0
 16 28  1  0  0  0  0
 17 18  1  0  0  0  0
 17 29  1  0  0  0  0
 17 30  1  0  0  0  0
 18 19  1  0  0  0  0
 18 31  1  0  0  0  0
 18 32  1  0  0  0  0
 19 33  1  0  0  0  0
 19 34  1  0  0  0  0
M  CHG  1   7   1
M  CHG  1   9  -1
M  END
> <s_m_source_file>
AV-unprocessed.smi

> <i_m_source_file_index>
1526

> <i_lp_mmshare_version>
43012

> <i_f3d_flags>
0

> <s_epik_input>
W0NIMl0xW0NIMl1bQ0gyXVtDSF0xW0NIMl1bTkhdQyg9TylbQ0gyXW4yW2NIXWMoW04rXSg9TylbTy1dKVtjSF1bY0hdYzI9Tw==

> <s_epik_cmdline>
J2VwaWtfcHl0aG9uJywgJy1waCcsICc3LjAnLCAnLXRuJywgJzgnLCAnLW1hJywgJzIwMCcsICctbWV0YWxfYmluZGluZycsICctaW1hZScsICc8aW5maWxlLm1hZT4nLCAnLW9tYWUnLCAnPG91dGZpbGUubWFlPic=

> <r_lp_tautomer_probability>
1

> <r_epik_Ionization_Penalty>
1.93777e-08

> <r_epik_Ionization_Penalty_Charging>
7.59562e-11

> <r_epik_Ionization_Penalty_Neutral>
1.93017e-08

> <r_epik_State_Penalty>
-0

> <r_epik_Charging_Adjusted_Penalty>
7.59562e-11

> <i_epik_Tot_Q>
0

> <i_epik_Tot_abs_Q>
2

> <r_epik_Metal_State_Penalty>
-0

> <b_epik_Metal_Only>
0

> <s_lp_Force_Field>
OPLS_2005

> <r_lp_Energy>
24.467

> <b_lp_Chiralities_Consistent>
1

> <s_lp_Variant>
AV-unprocessed.smi:1526-1

> <Gold.Version>
5.8.1

> <Gold.Id.Protein>
6NUR|6NUR_protein|mol2

> <Gold.PLP.Fitness>
46.9727

> <Gold.PLP.PLP>
-38.1317

> <Gold.PLP.part.hbond>
-5.0000

> <Gold.PLP.part.metal>
0.0000

> <Gold.PLP.part.buried>
-2.0997

> <Gold.PLP.part.nonpolar>
-31.9962

> <Gold.PLP.part.repulsive>
0.3759

> <Gold.PLP.ligand.clash>
0.0000

> <Gold.PLP.ligand.torsion>
0.4854

> <Gold.PLP.Chemscore.Hbond>
3.2358

> <Gold.PLP.Chemscore.CHOScore>
0.0000

> <Gold.PLP.Chemscore.Metal>
0.0000

> <Gold.Chemscore.Hbonds>
donor molecule, donor type, donor heavy atom, donor atom, acceptor molecule, acceptor atom, score
      L1  H    14    25       P1  8028  0.45
      P1  H  6933  6944       L1     1  0.64
      P1  H  6934  6946       L1     1  0.83
      P1  H  7989  7998       L1     8  1.00

> <Gold.PLP.Chemscore.Internal.Correction>
0.1043

> <Gold.Rescore>
     Score         DG    S(hbond)    S(metal)    S(lipo)     H(rot)  DE(clash)    DE(int)     intcor
     18.50     -18.98       2.54        0.00      82.52       1.82       0.05       0.43       ----

> <Gold.Chemscore.Fitness>
18.4970

> <Gold.Chemscore.DG>
-18.9781

> <Gold.Chemscore.ZeroCoef>
-5.4800

> <Gold.Chemscore.Hbond>
2.5449

> <Gold.Chemscore.Metal>
0.0000

> <Gold.Chemscore.Lipo>
82.5195

> <Gold.Chemscore.Internal_Hbond>
0.0000

> <Gold.Chemscore.DEClash>
0.0515

> <Gold.Chemscore.DEInternal>
0.4296

> <Gold.Chemscore.Rot>
1.8190

> <Gold.Chemscore.Internal.Correction>
   9.000000E+99

> <Gold.Chemscore.Hbonds>
donor molecule, donor type, donor heavy atom, donor atom, acceptor molecule, acceptor atom, score
      L1  H    14    25       P1  8028  0.12
      P1  H  6933  6944       L1     1  0.59
      P1  H  6934  6946       L1     1  0.75
      P1  H  7989  7998       L1     8  0.98

> <Gold.Chemscore.Hbond.Weighted>
-8.5000

> <Gold.Chemscore.Metal.Weighted>
-0.0000

> <Gold.Chemscore.Lipo.Weighted>
-9.6548

> <Gold.Chemscore.Internal_Hbond.Weighted>
0.0000

> <Gold.Chemscore.DEClash.Weighted>
0.0515

> <Gold.Chemscore.DEInternal.Weighted>
0.4296

> <Gold.Chemscore.Rot.Weighted>
4.6567

> <Gold.Chemscore.Internal.Correction.Weighted>
   9.000000E+99

> <Gold.Protein.RotatedTorsions>
[ 6907 6896 6895 6894 ] final   61.90 input  -60.11 | X-H torsion
[ 7974 7965 7964 7962 ] final -136.71 input  175.53 | X-H torsion
[ 8008 7997 7996 7995 ] final  -20.36 input   59.86 | X-H torsion
[ 10167 10162 10161 10158 ] final -124.95 input  -65.29 | X-H torsion
[ 10718 10713 10712 10709 ] final  -38.49 input   66.30 | X-H torsion
[ 10763 10752 10751 10750 ] final -157.23 input  -60.55 | X-H torsion
[ 11005 11000 10999 10996 ] final  -29.18 input  -57.11 | X-H torsion

> <Gold.Protein.ActiveResidues>
 VAL166  LYS551  ARG553  GLY616  TRP617  ASP618  TYR619  PRO620  LYS621  CYS622 
 ASP623  PHE694  ASN695  SER759  ASP760  ASP761  ALA762  ILE779  LEU786  VAL792 
 PHE793  MET794  SER795  GLU796  ALA797  LYS798  CYS799  TRP800  GLU811  SER814 

> <Gold.Protein.RotatedAtoms>
  152.4127  134.6095  160.0021 H   0  0  0  0  0  0  0  0  0  0  0  0  # atno 6907 bound_to 6896
  151.6268  133.3329  159.3108 H   0  0  0  0  0  0  0  0  0  0  0  0  # atno 6908 bound_to 6896
  150.8017  134.7156  159.6673 H   0  0  0  0  0  0  0  0  0  0  0  0  # atno 6909 bound_to 6896
  144.8904  140.6634  143.5149 H   0  0  0  0  0  0  0  0  0  0  0  0  # atno 7974 bound_to 7965
  154.4775  140.2064  155.9844 H   0  0  0  0  0  0  0  0  0  0  0  0  # atno 8008 bound_to 7997
  156.1112  140.3228  155.8045 H   0  0  0  0  0  0  0  0  0  0  0  0  # atno 8009 bound_to 7997
  155.4632  140.0525  157.2979 H   0  0  0  0  0  0  0  0  0  0  0  0  # atno 8010 bound_to 7997
  139.9873  143.5678  152.2355 H   0  0  0  0  0  0  0  0  0  0  0  0  # atno 10167 bound_to 10162
  156.3031  130.4242  149.8123 H   0  0  0  0  0  0  0  0  0  0  0  0  # atno 10718 bound_to 10713
  154.7652  135.3129  154.8300 H   0  0  0  0  0  0  0  0  0  0  0  0  # atno 10763 bound_to 10752
  153.9050  135.6812  153.4757 H   0  0  0  0  0  0  0  0  0  0  0  0  # atno 10764 bound_to 10752
  153.1257  135.4802  154.9202 H   0  0  0  0  0  0  0  0  0  0  0  0  # atno 10765 bound_to 10752
  140.9273  133.7360  156.0886 H   0  0  0  0  0  0  0  0  0  0  0  0  # atno 11005 bound_to 11000
  145.3793  139.1640  143.4289 LP  0  0  0  0  0  0  0  0  0  0  0  0  # atno 17320 bound_to 7965
  146.3050  140.3873  142.8690 LP  0  0  0  0  0  0  0  0  0  0  0  0  # atno 17321 bound_to 7965
  139.6365  144.7650  151.2426 LP  0  0  0  0  0  0  0  0  0  0  0  0  # atno 17342 bound_to 10162
  140.7467  143.6389  150.8353 LP  0  0  0  0  0  0  0  0  0  0  0  0  # atno 17343 bound_to 10162
  156.5494  130.8335  151.3295 LP  0  0  0  0  0  0  0  0  0  0  0  0  # atno 17370 bound_to 10713
  157.7373  130.9793  150.2184 LP  0  0  0  0  0  0  0  0  0  0  0  0  # atno 17371 bound_to 10713
  140.7908  134.3619  157.5465 LP  0  0  0  0  0  0  0  0  0  0  0  0  # atno 17394 bound_to 11000
  139.8788  134.9139  156.3095 LP  0  0  0  0  0  0  0  0  0  0  0  0  # atno 17395 bound_to 11000

$$$$
