AV-unprocessed.smi:2282|AV-procd|sdf|9195|dock5
  -GOLD-   2272012413D 1   1.00000     0.00000
 Structure written by MMmdl.
 32 33  0  0  0  0  0  0  0  0  1 V2000
  152.5173  143.6017  161.4893 C   0  0  0  0  0  0  0  0  0  0  0  0
  152.0123  143.2801  160.0951 C   0  0  0  0  0  0  0  0  0  0  0  0
  151.1789  144.1931  159.5501 N   0  0  0  0  0  0  0  0  0  0  0  0
  150.6944  143.9522  158.3148 C   0  0  0  0  0  0  0  0  0  0  0  0
  151.0174  142.8048  157.5659 C   0  0  0  0  0  0  0  0  0  0  0  0
  151.9038  141.8543  158.1266 C   0  0  0  0  0  0  0  0  0  0  0  0
  152.2793  140.6513  157.4666 N   0  0  0  0  0  0  0  0  0  0  0  0
  151.8796  140.1845  156.2697 C   0  0  0  0  0  0  0  0  0  0  0  0
  151.0881  140.7630  155.5245 O   0  0  0  0  0  0  0  0  0  0  0  0
  152.4906  138.8358  155.8536 C   0  0  2  0  0  0  0  0  0  0  0  0
  151.4656  137.6924  155.7062 C   0  0  0  0  0  0  0  0  0  0  0  0
  151.9007  136.6612  156.7344 C   0  0  0  0  0  0  0  0  0  0  0  0
  152.7220  137.4821  157.7225 C   0  0  1  0  0  0  0  0  0  0  0  0
  153.7334  136.6636  158.5316 C   0  0  0  0  0  0  0  0  0  0  0  0
  153.3890  138.4056  156.8743 O   0  0  0  0  0  0  0  0  0  0  0  0
  152.4014  142.0941  159.4291 C   0  0  0  0  0  0  0  0  0  0  0  0
  153.4705  140.9639  160.1910 Cl  0  0  0  0  0  0  0  0  0  0  0  0
  153.6051  143.6755  161.4908 H   0  0  0  0  0  0  0  0  0  0  0  0
  152.2236  142.8190  162.1890 H   0  0  0  0  0  0  0  0  0  0  0  0
  152.1147  144.5477  161.8541 H   0  0  0  0  0  0  0  0  0  0  0  0
  150.0219  144.6948  157.9120 H   0  0  0  0  0  0  0  0  0  0  0  0
  150.5718  142.6719  156.5924 H   0  0  0  0  0  0  0  0  0  0  0  0
  152.9953  140.1118  157.9312 H   0  0  0  0  0  0  0  0  0  0  0  0
  153.0552  138.9575  154.9278 H   0  0  0  0  0  0  0  0  0  0  0  0
  150.4438  138.0182  155.9054 H   0  0  0  0  0  0  0  0  0  0  0  0
  151.4748  137.2710  154.7004 H   0  0  0  0  0  0  0  0  0  0  0  0
  151.0616  136.1478  157.2047 H   0  0  0  0  0  0  0  0  0  0  0  0
  152.5297  135.9104  156.2542 H   0  0  0  0  0  0  0  0  0  0  0  0
  152.0597  138.0280  158.3963 H   0  0  0  0  0  0  0  0  0  0  0  0
  153.2285  135.9266  159.1565 H   0  0  0  0  0  0  0  0  0  0  0  0
  154.3205  137.3092  159.1853 H   0  0  0  0  0  0  0  0  0  0  0  0
  154.4265  136.1324  157.8787 H   0  0  0  0  0  0  0  0  0  0  0  0
  1  2  1  0  0  0  0
  1 18  1  0  0  0  0
  1 19  1  0  0  0  0
  1 20  1  0  0  0  0
  2 16  1  0  0  0  0
  2  3  2  0  0  0  0
  3  4  1  0  0  0  0
  4  5  2  0  0  0  0
  4 21  1  0  0  0  0
  5  6  1  0  0  0  0
  5 22  1  0  0  0  0
  6  7  1  0  0  0  0
  6 16  2  0  0  0  0
  7  8  1  0  0  0  0
  7 23  1  0  0  0  0
  8  9  2  0  0  0  0
  8 10  1  0  0  0  0
 10 15  1  0  0  0  0
 10 11  1  0  0  0  0
 10 24  1  0  0  0  0
 11 12  1  0  0  0  0
 11 25  1  0  0  0  0
 11 26  1  0  0  0  0
 12 13  1  0  0  0  0
 12 27  1  0  0  0  0
 12 28  1  0  0  0  0
 13 14  1  0  0  0  0
 13 15  1  0  0  0  0
 13 29  1  0  0  0  0
 14 30  1  0  0  0  0
 14 31  1  0  0  0  0
 14 32  1  0  0  0  0
 16 17  1  0  0  0  0
M  END
> <s_m_source_file>
AV-unprocessed.smi

> <i_m_source_file_index>
2282

> <i_lp_mmshare_version>
43012

> <i_f3d_flags>
0

> <s_epik_input>
W0NIM11jMW5bY0hdW2NIXWMoYzFDbClbTkhdQyg9TylbQ0BASF0yW0NIMl1bQ0gyXVtDQEhdKE8yKVtDSDNd

> <s_epik_cmdline>
J2VwaWtfcHl0aG9uJywgJy1waCcsICc3LjAnLCAnLXRuJywgJzgnLCAnLW1hJywgJzIwMCcsICctbWV0YWxfYmluZGluZycsICctaW1hZScsICc8aW5maWxlLm1hZT4nLCAnLW9tYWUnLCAnPG91dGZpbGUubWFlPic=

> <r_epik_Ionization_Penalty>
0.00037231

> <r_epik_Ionization_Penalty_Charging>
0

> <r_epik_Ionization_Penalty_Neutral>
0.00037231

> <r_epik_State_Penalty>
0.000225113

> <r_epik_Charging_Adjusted_Penalty>
0.000225113

> <i_epik_Tot_Q>
0

> <i_epik_Tot_abs_Q>
0

> <r_epik_Metal_State_Penalty>
-0

> <b_epik_Metal_Only>
0

> <s_lp_Force_Field>
OPLS_2005

> <r_lp_Energy>
24.6828

> <b_lp_Chiralities_Consistent>
1

> <s_lp_Variant>
AV-unprocessed.smi:2282-1

> <Gold.Version>
5.8.1

> <Gold.Id.Protein>
6NUR|6NUR_protein|mol2

> <Gold.PLP.Fitness>
38.1663

> <Gold.PLP.PLP>
-30.4989

> <Gold.PLP.part.hbond>
-2.0000

> <Gold.PLP.part.metal>
0.0000

> <Gold.PLP.part.buried>
-3.4733

> <Gold.PLP.part.nonpolar>
-24.7324

> <Gold.PLP.part.repulsive>
0.2318

> <Gold.PLP.ligand.clash>
0.0000

> <Gold.PLP.ligand.torsion>
0.0192

> <Gold.PLP.Chemscore.Hbond>
1.4560

> <Gold.PLP.Chemscore.CHOScore>
1.1099

> <Gold.PLP.Chemscore.Metal>
0.0000

> <Gold.Chemscore.Hbonds>
donor molecule, donor type, donor heavy atom, donor atom, acceptor molecule, acceptor atom, score
      P1  H  7989  7998       L1     9  0.66
      P1  H  7997  8009       L1    15  0.75
      L1  C     4    21       P1  8028  0.61
      L1  C     4    21       P1  8029  0.50

> <Gold.PLP.Chemscore.Internal.Correction>
0.0083

> <Gold.Rescore>
     Score         DG    S(hbond)    S(metal)    S(lipo)     H(rot)  DE(clash)    DE(int)     intcor
     16.42     -17.86       1.14        0.00      95.07       1.00       0.13       1.32       ----

> <Gold.Chemscore.Fitness>
16.4182

> <Gold.Chemscore.DG>
-17.8635

> <Gold.Chemscore.ZeroCoef>
-5.4800

> <Gold.Chemscore.Hbond>
1.1439

> <Gold.Chemscore.Metal>
0.0000

> <Gold.Chemscore.Lipo>
95.0683

> <Gold.Chemscore.Internal_Hbond>
0.0000

> <Gold.Chemscore.DEClash>
0.1273

> <Gold.Chemscore.DEInternal>
1.3181

> <Gold.Chemscore.Rot>
1.0000

> <Gold.Chemscore.Internal.Correction>
   9.000000E+99

> <Gold.Chemscore.Hbonds>
donor molecule, donor type, donor heavy atom, donor atom, acceptor molecule, acceptor atom, score
      P1  H  7989  7998       L1     9  0.59
      P1  H  7997  8009       L1    15  0.22

> <Gold.Chemscore.Hbond.Weighted>
-3.8205

> <Gold.Chemscore.Metal.Weighted>
-0.0000

> <Gold.Chemscore.Lipo.Weighted>
-11.1230

> <Gold.Chemscore.Internal_Hbond.Weighted>
0.0000

> <Gold.Chemscore.DEClash.Weighted>
0.1273

> <Gold.Chemscore.DEInternal.Weighted>
1.3181

> <Gold.Chemscore.Rot.Weighted>
2.5600

> <Gold.Chemscore.Internal.Correction.Weighted>
   9.000000E+99

> <Gold.Protein.RotatedTorsions>
[ 6907 6896 6895 6894 ] final    1.72 input  -60.11 | X-H torsion
[ 7974 7965 7964 7962 ] final  156.45 input  175.53 | X-H torsion
[ 8008 7997 7996 7995 ] final  153.87 input   59.86 | X-H torsion
[ 10167 10162 10161 10158 ] final -160.50 input  -65.29 | X-H torsion
[ 10718 10713 10712 10709 ] final  -50.44 input   66.30 | X-H torsion
[ 10763 10752 10751 10750 ] final  -37.71 input  -60.55 | X-H torsion
[ 11005 11000 10999 10996 ] final  -96.41 input  -57.11 | X-H torsion

> <Gold.Protein.ActiveResidues>
 VAL166  LYS551  ARG553  GLY616  TRP617  ASP618  TYR619  PRO620  LYS621  CYS622 
 ASP623  PHE694  ASN695  SER759  ASP760  ASP761  ALA762  ILE779  LEU786  VAL792 
 PHE793  MET794  SER795  GLU796  ALA797  LYS798  CYS799  TRP800  GLU811  SER814 

> <Gold.Protein.RotatedAtoms>
  151.5973  135.1049  160.0052 H   0  0  0  0  0  0  0  0  0  0  0  0  # atno 6907 bound_to 6896
  152.4276  133.7217  159.6548 H   0  0  0  0  0  0  0  0  0  0  0  0  # atno 6908 bound_to 6896
  150.8166  133.8255  159.3180 H   0  0  0  0  0  0  0  0  0  0  0  0  # atno 6909 bound_to 6896
  144.7962  139.7205  143.6201 H   0  0  0  0  0  0  0  0  0  0  0  0  # atno 7974 bound_to 7965
  156.2560  140.1982  156.6557 H   0  0  0  0  0  0  0  0  0  0  0  0  # atno 8008 bound_to 7997
  154.6502  140.0573  156.9972 H   0  0  0  0  0  0  0  0  0  0  0  0  # atno 8009 bound_to 7997
  155.1429  140.3244  155.4451 H   0  0  0  0  0  0  0  0  0  0  0  0  # atno 8010 bound_to 7997
  139.6534  144.0042  152.2177 H   0  0  0  0  0  0  0  0  0  0  0  0  # atno 10167 bound_to 10162
  156.1801  130.4150  149.9520 H   0  0  0  0  0  0  0  0  0  0  0  0  # atno 10718 bound_to 10713
  153.9008  135.6802  153.4755 H   0  0  0  0  0  0  0  0  0  0  0  0  # atno 10763 bound_to 10752
  153.1130  135.4774  154.9065 H   0  0  0  0  0  0  0  0  0  0  0  0  # atno 10764 bound_to 10752
  154.7576  135.3202  154.8394 H   0  0  0  0  0  0  0  0  0  0  0  0  # atno 10765 bound_to 10752
  141.1412  133.8096  157.0568 H   0  0  0  0  0  0  0  0  0  0  0  0  # atno 11005 bound_to 11000
  146.2231  139.5673  142.9605 LP  0  0  0  0  0  0  0  0  0  0  0  0  # atno 17320 bound_to 7965
  145.5666  141.0399  143.2197 LP  0  0  0  0  0  0  0  0  0  0  0  0  # atno 17321 bound_to 7965
  139.9762  144.6460  150.7943 LP  0  0  0  0  0  0  0  0  0  0  0  0  # atno 17342 bound_to 10162
  140.7548  143.3034  151.3022 LP  0  0  0  0  0  0  0  0  0  0  0  0  # atno 17343 bound_to 10162
  156.7293  130.9037  151.3624 LP  0  0  0  0  0  0  0  0  0  0  0  0  # atno 17370 bound_to 10713
  157.6862  130.9188  150.0393 LP  0  0  0  0  0  0  0  0  0  0  0  0  # atno 17371 bound_to 10713
  140.0597  134.9761  157.1283 LP  0  0  0  0  0  0  0  0  0  0  0  0  # atno 17394 bound_to 11000
  140.3867  134.2229  155.7168 LP  0  0  0  0  0  0  0  0  0  0  0  0  # atno 17395 bound_to 11000

$$$$
