AV-unprocessed.smi:2310|AV-procd|sdf|9258|dock2
  -GOLD-   2272012483D 1   1.00000     0.00000
 Structure written by MMmdl.
 46 47  0  0  0  0  0  0  0  0  2 V2000
  153.5443  142.0526  159.1299 C   0  0  0  0  0  0  0  0  0  0  0  0
  152.4099  141.8945  158.1068 C   0  0  0  0  0  0  0  0  0  0  0  0
  151.3659  143.0254  158.1585 C   0  0  1  0  0  0  0  0  0  0  0  0
  152.0327  144.4073  158.0756 C   0  0  0  0  0  0  0  0  0  0  0  0
  151.7071  145.2790  159.2158 C   0  0  0  0  0  0  0  0  0  0  0  0
  151.4496  145.9650  160.1111 N   0  0  0  0  0  0  0  0  0  0  0  0
  150.4068  142.8752  157.0635 N   0  0  0  0  0  0  0  0  0  0  0  0
  149.9048  141.7159  156.6140 C   0  0  0  0  0  0  0  0  0  0  0  0
  150.2012  140.6161  157.0803 O   0  0  0  0  0  0  0  0  0  0  0  0
  149.0615  141.9185  155.5873 N   0  0  0  0  0  0  0  0  0  0  0  0
  148.3722  140.9455  154.8116 C   0  0  0  0  0  0  0  0  0  0  0  0
  148.8928  139.6533  154.5539 C   0  0  0  0  0  0  0  0  0  0  0  0
  148.1466  138.7403  153.7823 C   0  0  0  0  0  0  0  0  0  0  0  0
  146.8809  139.1177  153.2772 C   0  0  0  0  0  0  0  0  0  0  0  0
  146.0812  138.2592  152.4980 N   0  0  0  0  0  0  0  0  0  0  0  0
  145.8061  136.8952  152.9194 C   0  0  0  0  0  0  0  0  0  0  0  0
  145.1057  136.2515  151.7236 C   0  0  0  0  0  0  0  0  0  0  0  0
  145.7383  136.9631  150.5280 C   0  0  0  0  0  0  0  0  0  0  0  0
  146.0254  138.3770  151.0461 C   0  0  0  0  0  0  0  0  0  0  0  0
  146.4126  140.3537  153.5707 N   0  3  0  0  0  0  0  0  0  0  0  0
  147.0894  141.2637  154.3064 C   0  0  0  0  0  0  0  0  0  0  0  0
  146.4226  142.6067  154.5426 C   0  0  0  0  0  0  0  0  0  0  0  0
  154.2807  141.2569  159.0162 H   0  0  0  0  0  0  0  0  0  0  0  0
  153.1718  142.0111  160.1536 H   0  0  0  0  0  0  0  0  0  0  0  0
  154.0611  143.0039  158.9996 H   0  0  0  0  0  0  0  0  0  0  0  0
  152.8463  141.8586  157.1080 H   0  0  0  0  0  0  0  0  0  0  0  0
  151.9197  140.9318  158.2567 H   0  0  0  0  0  0  0  0  0  0  0  0
  150.8584  142.9616  159.1229 H   0  0  0  0  0  0  0  0  0  0  0  0
  153.1175  144.3023  158.0508 H   0  0  0  0  0  0  0  0  0  0  0  0
  151.7400  144.9232  157.1606 H   0  0  0  0  0  0  0  0  0  0  0  0
  150.1058  143.7260  156.6110 H   0  0  0  0  0  0  0  0  0  0  0  0
  148.9779  142.8709  155.2631 H   0  0  0  0  0  0  0  0  0  0  0  0
  149.8482  139.3391  154.9451 H   0  0  0  0  0  0  0  0  0  0  0  0
  148.5564  137.7593  153.5926 H   0  0  0  0  0  0  0  0  0  0  0  0
  146.7458  136.3843  153.1345 H   0  0  0  0  0  0  0  0  0  0  0  0
  145.1815  136.8662  153.8128 H   0  0  0  0  0  0  0  0  0  0  0  0
  145.2291  135.1685  151.6919 H   0  0  0  0  0  0  0  0  0  0  0  0
  144.0370  136.4683  151.7578 H   0  0  0  0  0  0  0  0  0  0  0  0
  146.6765  136.4708  150.2682 H   0  0  0  0  0  0  0  0  0  0  0  0
  145.1018  136.9568  149.6426 H   0  0  0  0  0  0  0  0  0  0  0  0
  145.2155  139.0573  150.7811 H   0  0  0  0  0  0  0  0  0  0  0  0
  146.9511  138.7661  150.6206 H   0  0  0  0  0  0  0  0  0  0  0  0
  147.0317  143.4100  154.1275 H   0  0  0  0  0  0  0  0  0  0  0  0
  146.2967  142.7863  155.6106 H   0  0  0  0  0  0  0  0  0  0  0  0
  145.4386  142.6514  154.0748 H   0  0  0  0  0  0  0  0  0  0  0  0
  145.4936  140.6156  153.2142 H   0  0  0  0  0  0  0  0  0  0  0  0
  1  2  1  0  0  0  0
  1 23  1  0  0  0  0
  1 24  1  0  0  0  0
  1 25  1  0  0  0  0
  2  3  1  0  0  0  0
  2 26  1  0  0  0  0
  2 27  1  0  0  0  0
  3  4  1  0  0  0  0
  3  7  1  0  0  0  0
  3 28  1  0  0  0  0
  4  5  1  0  0  0  0
  4 29  1  0  0  0  0
  4 30  1  0  0  0  0
  5  6  3  0  0  0  0
  7  8  1  0  0  0  0
  7 31  1  0  0  0  0
  8  9  2  0  0  0  0
  8 10  1  0  0  0  0
 10 11  1  0  0  0  0
 10 32  1  0  0  0  0
 11 21  1  0  0  0  0
 11 12  2  0  0  0  0
 12 13  1  0  0  0  0
 12 33  1  0  0  0  0
 13 14  2  0  0  0  0
 13 34  1  0  0  0  0
 14 15  1  0  0  0  0
 14 20  1  0  0  0  0
 15 19  1  0  0  0  0
 15 16  1  0  0  0  0
 16 17  1  0  0  0  0
 16 35  1  0  0  0  0
 16 36  1  0  0  0  0
 17 18  1  0  0  0  0
 17 37  1  0  0  0  0
 17 38  1  0  0  0  0
 18 19  1  0  0  0  0
 18 39  1  0  0  0  0
 18 40  1  0  0  0  0
 19 41  1  0  0  0  0
 19 42  1  0  0  0  0
 20 21  2  0  0  0  0
 20 46  1  0  0  0  0
 21 22  1  0  0  0  0
 22 43  1  0  0  0  0
 22 44  1  0  0  0  0
 22 45  1  0  0  0  0
M  CHG  1  20   1
M  END
> <s_m_source_file>
AV-unprocessed.smi

> <i_m_source_file_index>
2310

> <i_lp_mmshare_version>
43012

> <i_f3d_flags>
0

> <s_epik_input>
TiNDW0NIMl1bQ0BASF0oW0NIMl1bQ0gzXSlbTkhdQyg9TylbTkhdYzFbY0hdW2NIXWMobmMxW0NIM10pTjJbQ0gyXVtDSDJdW0NIMl1bQ0gyXTI=

> <s_epik_cmdline>
J2VwaWtfcHl0aG9uJywgJy1waCcsICc3LjAnLCAnLXRuJywgJzgnLCAnLW1hJywgJzIwMCcsICctbWV0YWxfYmluZGluZycsICctaW1hZScsICc8aW5maWxlLm1hZT4nLCAnLW9tYWUnLCAnPG91dGZpbGUubWFlPic=

> <r_lp_tautomer_probability>
0.999994

> <r_epik_Ionization_Penalty>
0.577302

> <r_epik_Ionization_Penalty_Charging>
0.577278

> <r_epik_Ionization_Penalty_Neutral>
2.39253e-05

> <r_epik_State_Penalty>
0.589738

> <r_epik_Charging_Adjusted_Penalty>
1.16702

> <i_epik_Tot_Q>
1

> <i_epik_Tot_abs_Q>
1

> <r_epik_Metal_State_Penalty>
0.784556

> <b_epik_Metal_Only>
0

> <s_lp_Force_Field>
OPLS_2005

> <r_lp_Energy>
35.6243

> <b_lp_Chiralities_Consistent>
1

> <s_lp_Variant>
AV-unprocessed.smi:2310-4

> <Gold.Version>
5.8.1

> <Gold.Id.Protein>
6NUR|6NUR_protein|mol2

> <Gold.PLP.Fitness>
51.3790

> <Gold.PLP.PLP>
-44.2527

> <Gold.PLP.part.hbond>
-5.0000

> <Gold.PLP.part.metal>
0.0000

> <Gold.PLP.part.buried>
1.4433

> <Gold.PLP.part.nonpolar>
-44.0269

> <Gold.PLP.part.repulsive>
0.4208

> <Gold.PLP.ligand.clash>
0.0000

> <Gold.PLP.ligand.torsion>
2.4158

> <Gold.PLP.Chemscore.Hbond>
3.9040

> <Gold.PLP.Chemscore.CHOScore>
0.0000

> <Gold.PLP.Chemscore.Metal>
0.0000

> <Gold.Chemscore.Hbonds>
donor molecule, donor type, donor heavy atom, donor atom, acceptor molecule, acceptor atom, score
      L1  H     7    31       P1  8028  1.00
      L1  H    10    32       P1  8028  1.00
      L1  H    20    46       P1 10175  2.00

> <Gold.PLP.Chemscore.Internal.Correction>
0.2459

> <Gold.Rescore>
     Score         DG    S(hbond)    S(metal)    S(lipo)     H(rot)  DE(clash)    DE(int)     intcor
     14.73     -22.64       2.90        0.00      96.09       1.47       3.08       4.83       ----

> <Gold.Chemscore.Fitness>
14.7330

> <Gold.Chemscore.DG>
-22.6371

> <Gold.Chemscore.ZeroCoef>
-5.4800

> <Gold.Chemscore.Hbond>
2.8968

> <Gold.Chemscore.Metal>
0.0000

> <Gold.Chemscore.Lipo>
96.0876

> <Gold.Chemscore.Internal_Hbond>
0.0000

> <Gold.Chemscore.DEClash>
3.0768

> <Gold.Chemscore.DEInternal>
4.8273

> <Gold.Chemscore.Rot>
1.4690

> <Gold.Chemscore.Internal.Correction>
   9.000000E+99

> <Gold.Chemscore.Hbonds>
donor molecule, donor type, donor heavy atom, donor atom, acceptor molecule, acceptor atom, score
      L1  H     7    31       P1  8028  0.97
      L1  H    10    32       P1  8028  0.94
      L1  H    20    46       P1 10175  0.84

> <Gold.Chemscore.Hbond.Weighted>
-9.6755

> <Gold.Chemscore.Metal.Weighted>
-0.0000

> <Gold.Chemscore.Lipo.Weighted>
-11.2423

> <Gold.Chemscore.Internal_Hbond.Weighted>
0.0000

> <Gold.Chemscore.DEClash.Weighted>
3.0768

> <Gold.Chemscore.DEInternal.Weighted>
4.8273

> <Gold.Chemscore.Rot.Weighted>
3.7606

> <Gold.Chemscore.Internal.Correction.Weighted>
   9.000000E+99

> <Gold.Protein.RotatedTorsions>
[ 6907 6896 6895 6894 ] final  147.80 input  -60.11 | X-H torsion
[ 7974 7965 7964 7962 ] final  161.37 input  175.53 | X-H torsion
[ 8008 7997 7996 7995 ] final   21.25 input   59.86 | X-H torsion
[ 10167 10162 10161 10158 ] final   85.44 input  -65.29 | X-H torsion
[ 10718 10713 10712 10709 ] final    0.71 input   66.30 | X-H torsion
[ 10763 10752 10751 10750 ] final   40.82 input  -60.55 | X-H torsion
[ 11005 11000 10999 10996 ] final  -86.60 input  -57.11 | X-H torsion

> <Gold.Protein.ActiveResidues>
 VAL166  LYS551  ARG553  GLY616  TRP617  ASP618  TYR619  PRO620  LYS621  CYS622 
 ASP623  PHE694  ASN695  SER759  ASP760  ASP761  ALA762  ILE779  LEU786  VAL792 
 PHE793  MET794  SER795  GLU796  ALA797  LYS798  CYS799  TRP800  GLU811  SER814 

> <Gold.Protein.RotatedAtoms>
  152.1500  133.4516  159.4808 H   0  0  0  0  0  0  0  0  0  0  0  0  # atno 6907 bound_to 6896
  150.6894  134.2201  159.4402 H   0  0  0  0  0  0  0  0  0  0  0  0  # atno 6908 bound_to 6896
  152.0097  134.9883  160.0618 H   0  0  0  0  0  0  0  0  0  0  0  0  # atno 6909 bound_to 6896
  144.7689  139.7888  143.6304 H   0  0  0  0  0  0  0  0  0  0  0  0  # atno 7974 bound_to 7965
  154.9478  140.3061  155.5089 H   0  0  0  0  0  0  0  0  0  0  0  0  # atno 8008 bound_to 7997
  156.2990  140.2324  156.4491 H   0  0  0  0  0  0  0  0  0  0  0  0  # atno 8009 bound_to 7997
  154.8083  140.0430  157.1313 H   0  0  0  0  0  0  0  0  0  0  0  0  # atno 8010 bound_to 7997
  139.8977  144.6348  150.8670 H   0  0  0  0  0  0  0  0  0  0  0  0  # atno 10167 bound_to 10162
  156.8374  130.5509  149.5681 H   0  0  0  0  0  0  0  0  0  0  0  0  # atno 10718 bound_to 10713
  152.9925  135.6180  154.2687 H   0  0  0  0  0  0  0  0  0  0  0  0  # atno 10763 bound_to 10752
  154.2421  135.2788  155.2851 H   0  0  0  0  0  0  0  0  0  0  0  0  # atno 10764 bound_to 10752
  154.5360  135.5774  153.6857 H   0  0  0  0  0  0  0  0  0  0  0  0  # atno 10765 bound_to 10752
  141.1628  133.7463  156.9184 H   0  0  0  0  0  0  0  0  0  0  0  0  # atno 11005 bound_to 11000
  146.1820  139.5017  142.9860 LP  0  0  0  0  0  0  0  0  0  0  0  0  # atno 17320 bound_to 7965
  145.6383  141.0289  143.1825 LP  0  0  0  0  0  0  0  0  0  0  0  0  # atno 17321 bound_to 7965
  140.7713  143.3461  151.2109 LP  0  0  0  0  0  0  0  0  0  0  0  0  # atno 17342 bound_to 10162
  139.7053  143.9466  152.2924 LP  0  0  0  0  0  0  0  0  0  0  0  0  # atno 17343 bound_to 10162
  156.0900  130.5888  150.9715 LP  0  0  0  0  0  0  0  0  0  0  0  0  # atno 17370 bound_to 10713
  157.6374  131.0914  150.8321 LP  0  0  0  0  0  0  0  0  0  0  0  0  # atno 17371 bound_to 10713
  140.1468  134.9257  157.2540 LP  0  0  0  0  0  0  0  0  0  0  0  0  # atno 17394 bound_to 11000
  140.2770  134.3394  155.7355 LP  0  0  0  0  0  0  0  0  0  0  0  0  # atno 17395 bound_to 11000

$$$$
