AV-unprocessed.smi:3137|AV-procd|sdf|11952|dock1
  -GOLD-   2272017343D 1   1.00000     0.00000
 Structure written by MMmdl.
 40 40  0  0  0  0  0  0  0  0  2 V2000
  149.6119  133.5017  153.7795 C   0  0  0  0  0  0  0  0  0  0  0  0
  150.3791  134.4145  154.7454 C   0  0  0  0  0  0  0  0  0  0  0  0
  150.3568  135.8048  154.3053 N   0  0  0  0  0  0  0  0  0  0  0  0
  151.1938  136.7630  154.7316 C   0  0  0  0  0  0  0  0  0  0  0  0
  152.0793  136.5649  155.5637 O   0  0  0  0  0  0  0  0  0  0  0  0
  150.9953  138.1564  154.1263 C   0  0  0  0  0  0  0  0  0  0  0  0
  149.6593  138.8000  154.5353 C   0  0  0  0  0  0  0  0  0  0  0  0
  149.4697  138.7369  156.0000 N   0  3  0  0  0  0  0  0  0  0  0  0
  149.7514  139.9920  156.7329 C   0  0  2  0  0  0  0  0  0  0  0  0
  148.8390  141.1077  156.1947 C   0  0  0  0  0  0  0  0  0  0  0  0
  151.2515  140.3621  156.6506 C   0  0  0  0  0  0  0  0  0  0  0  0
  151.6370  141.4021  157.5874 N   0  0  0  0  0  0  0  0  0  0  0  0
  151.2100  142.7121  157.6400 C   0  0  0  0  0  0  0  0  0  0  0  0
  151.8578  143.3139  158.6812 C   0  0  0  0  0  0  0  0  0  0  0  0
  151.7435  144.7311  159.1641 C   0  0  0  0  0  0  0  0  0  0  0  0
  152.6764  142.2742  159.2071 C   0  0  0  0  0  0  0  0  0  0  0  0
  152.5463  141.1342  158.5482 N   0  0  0  0  0  0  0  0  0  0  0  0
  149.6689  132.4624  154.1031 H   0  0  0  0  0  0  0  0  0  0  0  0
  150.0236  133.5585  152.7714 H   0  0  0  0  0  0  0  0  0  0  0  0
  148.5573  133.7734  153.7270 H   0  0  0  0  0  0  0  0  0  0  0  0
  149.9711  134.3295  155.7539 H   0  0  0  0  0  0  0  0  0  0  0  0
  151.4193  134.0937  154.8041 H   0  0  0  0  0  0  0  0  0  0  0  0
  149.6568  136.0529  153.6210 H   0  0  0  0  0  0  0  0  0  0  0  0
  151.8200  138.7994  154.4383 H   0  0  0  0  0  0  0  0  0  0  0  0
  151.0546  138.0731  153.0405 H   0  0  0  0  0  0  0  0  0  0  0  0
  149.6313  139.8438  154.2187 H   0  0  0  0  0  0  0  0  0  0  0  0
  148.8373  138.2874  154.0354 H   0  0  0  0  0  0  0  0  0  0  0  0
  148.5235  138.4468  156.2016 H   0  0  0  0  0  0  0  0  0  0  0  0
  149.4833  139.8330  157.7786 H   0  0  0  0  0  0  0  0  0  0  0  0
  148.9379  142.0244  156.7763 H   0  0  0  0  0  0  0  0  0  0  0  0
  147.7903  140.8126  156.2401 H   0  0  0  0  0  0  0  0  0  0  0  0
  149.0733  141.3456  155.1564 H   0  0  0  0  0  0  0  0  0  0  0  0
  151.8802  139.4937  156.8470 H   0  0  0  0  0  0  0  0  0  0  0  0
  151.4976  140.7025  155.6439 H   0  0  0  0  0  0  0  0  0  0  0  0
  150.4867  143.1047  156.9403 H   0  0  0  0  0  0  0  0  0  0  0  0
  152.6531  145.0622  159.6656 H   0  0  0  0  0  0  0  0  0  0  0  0
  150.9239  144.8482  159.8730 H   0  0  0  0  0  0  0  0  0  0  0  0
  151.5605  145.4243  158.3429 H   0  0  0  0  0  0  0  0  0  0  0  0
  153.3599  142.3153  160.0427 H   0  0  0  0  0  0  0  0  0  0  0  0
  150.1014  138.0317  156.3519 H   0  0  0  0  0  0  0  0  0  0  0  0
  1  2  1  0  0  0  0
  1 18  1  0  0  0  0
  1 19  1  0  0  0  0
  1 20  1  0  0  0  0
  2  3  1  0  0  0  0
  2 21  1  0  0  0  0
  2 22  1  0  0  0  0
  3  4  1  0  0  0  0
  3 23  1  0  0  0  0
  4  5  2  0  0  0  0
  4  6  1  0  0  0  0
  6  7  1  0  0  0  0
  6 24  1  0  0  0  0
  6 25  1  0  0  0  0
  7  8  1  0  0  0  0
  7 26  1  0  0  0  0
  7 27  1  0  0  0  0
  8  9  1  0  0  0  0
  8 28  1  0  0  0  0
  8 40  1  0  0  0  0
  9 10  1  0  0  0  0
  9 11  1  0  0  0  0
  9 29  1  0  0  0  0
 10 30  1  0  0  0  0
 10 31  1  0  0  0  0
 10 32  1  0  0  0  0
 11 12  1  0  0  0  0
 11 33  1  0  0  0  0
 11 34  1  0  0  0  0
 12 17  1  0  0  0  0
 12 13  1  0  0  0  0
 13 14  2  0  0  0  0
 13 35  1  0  0  0  0
 14 15  1  0  0  0  0
 14 16  1  0  0  0  0
 15 36  1  0  0  0  0
 15 37  1  0  0  0  0
 15 38  1  0  0  0  0
 16 17  2  0  0  0  0
 16 39  1  0  0  0  0
M  CHG  1   8   1
M  END
> <s_m_source_file>
AV-unprocessed.smi

> <i_m_source_file_index>
3137

> <i_lp_mmshare_version>
43012

> <i_f3d_flags>
0

> <s_epik_input>
W0NIM11bQ0gyXVtOSF1DKD1PKVtDSDJdW0NIMl1bTkhdW0NASF0oW0NIM10pW0NIMl1uMVtjSF1jKFtDSDNdKVtjSF1uMQ==

> <s_epik_cmdline>
J2VwaWtfcHl0aG9uJywgJy1waCcsICc3LjAnLCAnLXRuJywgJzgnLCAnLW1hJywgJzIwMCcsICctbWV0YWxfYmluZGluZycsICctaW1hZScsICc8aW5maWxlLm1hZT4nLCAnLW9tYWUnLCAnPG91dGZpbGUubWFlPic=

> <r_lp_tautomer_probability>
1

> <r_epik_Ionization_Penalty>
0.00598586

> <r_epik_Ionization_Penalty_Charging>
0.00597743

> <r_epik_Ionization_Penalty_Neutral>
8.43172e-06

> <r_epik_State_Penalty>
0.00439883

> <r_epik_Charging_Adjusted_Penalty>
0.0103763

> <i_epik_Tot_Q>
1

> <i_epik_Tot_abs_Q>
1

> <r_epik_Metal_State_Penalty>
-0

> <b_epik_Metal_Only>
0

> <s_lp_Force_Field>
OPLS_2005

> <r_lp_Energy>
5.54244

> <b_lp_Chiralities_Consistent>
1

> <s_lp_Variant>
AV-unprocessed.smi:3137-1

> <Gold.Version>
5.8.1

> <Gold.Id.Protein>
6NUR|6NUR_protein|mol2

> <Gold.PLP.Fitness>
43.6728

> <Gold.PLP.PLP>
-35.6186

> <Gold.PLP.part.hbond>
-2.9875

> <Gold.PLP.part.metal>
0.0000

> <Gold.PLP.part.buried>
-3.4515

> <Gold.PLP.part.nonpolar>
-29.0847

> <Gold.PLP.part.repulsive>
0.1171

> <Gold.PLP.ligand.clash>
0.0000

> <Gold.PLP.ligand.torsion>
0.5676

> <Gold.PLP.Chemscore.Hbond>
2.0000

> <Gold.PLP.Chemscore.CHOScore>
1.0000

> <Gold.PLP.Chemscore.Metal>
0.0000

> <Gold.Chemscore.Hbonds>
donor molecule, donor type, donor heavy atom, donor atom, acceptor molecule, acceptor atom, score
      L1  H     3    23       P1  7948  1.00
      P1  H 10752 10765       L1     5  0.86
      L1  C    13    35       P1  8028  0.82

> <Gold.PLP.Chemscore.Internal.Correction>
0.1893

> <Gold.Rescore>
     Score         DG    S(hbond)    S(metal)    S(lipo)     H(rot)  DE(clash)    DE(int)     intcor
     14.33     -15.05       1.53        0.00      88.40       2.30       0.08       0.64       ----

> <Gold.Chemscore.Fitness>
14.3339

> <Gold.Chemscore.DG>
-15.0521

> <Gold.Chemscore.ZeroCoef>
-5.4800

> <Gold.Chemscore.Hbond>
1.5295

> <Gold.Chemscore.Metal>
0.0000

> <Gold.Chemscore.Lipo>
88.3950

> <Gold.Chemscore.Internal_Hbond>
0.0000

> <Gold.Chemscore.DEClash>
0.0791

> <Gold.Chemscore.DEInternal>
0.6390

> <Gold.Chemscore.Rot>
2.2963

> <Gold.Chemscore.Internal.Correction>
   9.000000E+99

> <Gold.Chemscore.Hbonds>
donor molecule, donor type, donor heavy atom, donor atom, acceptor molecule, acceptor atom, score
      L1  H     3    23       P1  7948  0.29
      P1  H 10752 10765       L1     5  0.77

> <Gold.Chemscore.Hbond.Weighted>
-5.1085

> <Gold.Chemscore.Metal.Weighted>
-0.0000

> <Gold.Chemscore.Lipo.Weighted>
-10.3422

> <Gold.Chemscore.Internal_Hbond.Weighted>
0.0000

> <Gold.Chemscore.DEClash.Weighted>
0.0791

> <Gold.Chemscore.DEInternal.Weighted>
0.6390

> <Gold.Chemscore.Rot.Weighted>
5.8786

> <Gold.Chemscore.Internal.Correction.Weighted>
   9.000000E+99

> <Gold.Protein.RotatedTorsions>
[ 6907 6896 6895 6894 ] final   77.22 input  -60.11 | X-H torsion
[ 7974 7965 7964 7962 ] final  -55.39 input  175.53 | X-H torsion
[ 8008 7997 7996 7995 ] final  -23.23 input   59.86 | X-H torsion
[ 10167 10162 10161 10158 ] final  156.05 input  -65.29 | X-H torsion
[ 10718 10713 10712 10709 ] final  140.17 input   66.30 | X-H torsion
[ 10763 10752 10751 10750 ] final -142.86 input  -60.55 | X-H torsion
[ 11005 11000 10999 10996 ] final -125.95 input  -57.11 | X-H torsion

> <Gold.Protein.ActiveResidues>
 VAL166  LYS551  ARG553  GLY616  TRP617  ASP618  TYR619  PRO620  LYS621  CYS622 
 ASP623  PHE694  ASN695  SER759  ASP760  ASP761  ALA762  ILE779  LEU786  VAL792 
 PHE793  MET794  SER795  GLU796  ALA797  LYS798  CYS799  TRP800  GLU811  SER814 

> <Gold.Protein.RotatedAtoms>
  152.5108  134.3849  159.9363 H   0  0  0  0  0  0  0  0  0  0  0  0  # atno 6907 bound_to 6896
  151.3807  133.3816  159.2717 H   0  0  0  0  0  0  0  0  0  0  0  0  # atno 6908 bound_to 6896
  150.9506  134.8927  159.7728 H   0  0  0  0  0  0  0  0  0  0  0  0  # atno 6909 bound_to 6896
  145.8747  140.8189  142.9870 H   0  0  0  0  0  0  0  0  0  0  0  0  # atno 7974 bound_to 7965
  154.4597  140.1986  156.0279 H   0  0  0  0  0  0  0  0  0  0  0  0  # atno 8008 bound_to 7997
  156.0816  140.3270  155.7673 H   0  0  0  0  0  0  0  0  0  0  0  0  # atno 8009 bound_to 7997
  155.5102  140.0561  157.2915 H   0  0  0  0  0  0  0  0  0  0  0  0  # atno 8010 bound_to 7997
  139.4821  144.5044  151.8120 H   0  0  0  0  0  0  0  0  0  0  0  0  # atno 10167 bound_to 10162
  157.4063  131.1022  151.0500 H   0  0  0  0  0  0  0  0  0  0  0  0  # atno 10718 bound_to 10713
  154.8492  135.3484  154.6096 H   0  0  0  0  0  0  0  0  0  0  0  0  # atno 10763 bound_to 10752
  153.6704  135.6985  153.5153 H   0  0  0  0  0  0  0  0  0  0  0  0  # atno 10764 bound_to 10752
  153.2747  135.4282  155.0978 H   0  0  0  0  0  0  0  0  0  0  0  0  # atno 10765 bound_to 10752
  140.9721  134.0791  157.3858 H   0  0  0  0  0  0  0  0  0  0  0  0  # atno 11005 bound_to 11000
  144.6726  140.1293  143.7445 LP  0  0  0  0  0  0  0  0  0  0  0  0  # atno 17320 bound_to 7965
  145.9095  139.2478  143.1446 LP  0  0  0  0  0  0  0  0  0  0  0  0  # atno 17321 bound_to 7965
  140.4540  144.1815  150.5900 LP  0  0  0  0  0  0  0  0  0  0  0  0  # atno 17342 bound_to 10162
  140.4555  143.2469  151.9291 LP  0  0  0  0  0  0  0  0  0  0  0  0  # atno 17343 bound_to 10162
  157.1481  130.6172  149.5574 LP  0  0  0  0  0  0  0  0  0  0  0  0  # atno 17370 bound_to 10713
  155.9837  130.4858  150.6948 LP  0  0  0  0  0  0  0  0  0  0  0  0  # atno 17371 bound_to 10713
  139.8916  135.0119  156.6801 LP  0  0  0  0  0  0  0  0  0  0  0  0  # atno 17394 bound_to 11000
  140.7314  133.9056  155.8213 LP  0  0  0  0  0  0  0  0  0  0  0  0  # atno 17395 bound_to 11000

$$$$
