AV-unprocessed.smi:274|AV-procd|sdf|2060|dock3
  -GOLD-   2262021303D 1   1.00000     0.00000
 Structure written by MMmdl.
 50 53  0  0  0  0  0  0  0  0  1 V2000
  150.5173  139.9908  157.3175 C   0  0  0  0  0  0  0  0  0  0  0  0
  149.2779  139.1448  156.9628 C   0  0  0  0  0  0  0  0  0  0  0  0
  148.8933  138.2850  158.1841 C   0  0  0  0  0  0  0  0  0  0  0  0
  149.4621  138.2821  155.6743 C   0  0  2  0  0  0  0  0  0  0  0  0
  149.8943  139.1252  154.4475 C   0  0  0  0  0  0  0  0  0  0  0  0
  151.0580  139.5076  154.3452 O   0  0  0  0  0  0  0  0  0  0  0  0
  148.9897  139.3990  153.4899 N   0  0  0  0  0  0  0  0  0  0  0  0
  147.6030  138.9338  153.4532 C   0  0  0  0  0  0  0  0  0  0  0  0
  147.1367  138.2978  154.7750 C   0  0  0  0  0  0  0  0  0  0  0  0
  148.2232  137.5381  155.3890 N   0  0  0  0  0  0  0  0  0  0  0  0
  148.3094  136.2460  154.9783 C   0  0  0  0  0  0  0  0  0  0  0  0
  149.4751  135.5594  155.1149 N   0  0  0  0  0  0  0  0  0  0  0  0
  149.5672  134.2958  154.6909 C   0  0  0  0  0  0  0  0  0  0  0  0
  148.6338  133.5415  154.1075 N   0  0  0  0  0  0  0  0  0  0  0  0
  147.4616  134.2246  153.9679 C   0  0  0  0  0  0  0  0  0  0  0  0
  147.2144  135.5648  154.3778 C   0  0  0  0  0  0  0  0  0  0  0  0
  145.8997  135.9131  154.0932 N   0  0  0  0  0  0  0  0  0  0  0  0
  145.4002  134.8416  153.5406 C   0  0  0  0  0  0  0  0  0  0  0  0
  146.2735  133.7851  153.4092 N   0  0  0  0  0  0  0  0  0  0  0  0
  145.9880  132.4810  152.8293 C   0  0  0  0  0  0  0  0  0  0  0  0
  145.7097  132.5098  151.3040 C   0  0  2  0  0  0  0  0  0  0  0  0
  146.9096  132.8039  150.6126 O   0  0  0  0  0  0  0  0  0  0  0  0
  144.6311  133.5108  150.8821 C   0  0  0  0  0  0  0  0  0  0  0  0
  143.3930  132.6388  150.7333 C   0  0  0  0  0  0  0  0  0  0  0  0
  143.9213  131.4625  150.1489 O   0  0  0  0  0  0  0  0  0  0  0  0
  145.1459  131.1626  150.8070 C   0  0  0  0  0  0  0  0  0  0  0  0
  151.4071  139.3681  157.4138 H   0  0  0  0  0  0  0  0  0  0  0  0
  150.3771  140.5142  158.2636 H   0  0  0  0  0  0  0  0  0  0  0  0
  150.7200  140.7559  156.5689 H   0  0  0  0  0  0  0  0  0  0  0  0
  148.4602  139.8471  156.7972 H   0  0  0  0  0  0  0  0  0  0  0  0
  149.6500  137.5263  158.3858 H   0  0  0  0  0  0  0  0  0  0  0  0
  147.9399  137.7757  158.0429 H   0  0  0  0  0  0  0  0  0  0  0  0
  148.7917  138.8975  159.0805 H   0  0  0  0  0  0  0  0  0  0  0  0
  150.2696  137.5778  155.8829 H   0  0  0  0  0  0  0  0  0  0  0  0
  149.3017  139.9470  152.7014 H   0  0  0  0  0  0  0  0  0  0  0  0
  146.9457  139.7562  153.1712 H   0  0  0  0  0  0  0  0  0  0  0  0
  147.5363  138.1928  152.6558 H   0  0  0  0  0  0  0  0  0  0  0  0
  146.8274  139.0793  155.4688 H   0  0  0  0  0  0  0  0  0  0  0  0
  146.2471  137.6914  154.6030 H   0  0  0  0  0  0  0  0  0  0  0  0
  150.5267  133.8224  154.8378 H   0  0  0  0  0  0  0  0  0  0  0  0
  144.3737  134.7946  153.2070 H   0  0  0  0  0  0  0  0  0  0  0  0
  146.8342  131.8255  153.0409 H   0  0  0  0  0  0  0  0  0  0  0  0
  145.1348  132.0543  153.3584 H   0  0  0  0  0  0  0  0  0  0  0  0
  147.3828  131.9970  150.4776 H   0  0  0  0  0  0  0  0  0  0  0  0
  144.4794  134.3348  151.5770 H   0  0  0  0  0  0  0  0  0  0  0  0
  144.8673  133.9475  149.9102 H   0  0  0  0  0  0  0  0  0  0  0  0
  142.9542  132.4071  151.7053 H   0  0  0  0  0  0  0  0  0  0  0  0
  142.6275  133.0940  150.1046 H   0  0  0  0  0  0  0  0  0  0  0  0
  145.8194  130.6354  150.1301 H   0  0  0  0  0  0  0  0  0  0  0  0
  144.9325  130.4917  151.6401 H   0  0  0  0  0  0  0  0  0  0  0  0
  1  2  1  0  0  0  0
  1 27  1  0  0  0  0
  1 28  1  0  0  0  0
  1 29  1  0  0  0  0
  2  3  1  0  0  0  0
  2  4  1  0  0  0  0
  2 30  1  0  0  0  0
  3 31  1  0  0  0  0
  3 32  1  0  0  0  0
  3 33  1  0  0  0  0
  4 10  1  0  0  0  0
  4  5  1  0  0  0  0
  4 34  1  0  0  0  0
  5  6  2  0  0  0  0
  5  7  1  0  0  0  0
  7  8  1  0  0  0  0
  7 35  1  0  0  0  0
  8  9  1  0  0  0  0
  8 36  1  0  0  0  0
  8 37  1  0  0  0  0
  9 10  1  0  0  0  0
  9 38  1  0  0  0  0
  9 39  1  0  0  0  0
 10 11  1  0  0  0  0
 11 16  1  0  0  0  0
 11 12  2  0  0  0  0
 12 13  1  0  0  0  0
 13 14  2  0  0  0  0
 13 40  1  0  0  0  0
 14 15  1  0  0  0  0
 15 19  1  0  0  0  0
 15 16  2  0  0  0  0
 16 17  1  0  0  0  0
 17 18  2  0  0  0  0
 18 19  1  0  0  0  0
 18 41  1  0  0  0  0
 19 20  1  0  0  0  0
 20 21  1  0  0  0  0
 20 42  1  0  0  0  0
 20 43  1  0  0  0  0
 21 26  1  0  0  0  0
 21 22  1  0  0  0  0
 21 23  1  0  0  0  0
 22 44  1  0  0  0  0
 23 24  1  0  0  0  0
 23 45  1  0  0  0  0
 23 46  1  0  0  0  0
 24 25  1  0  0  0  0
 24 47  1  0  0  0  0
 24 48  1  0  0  0  0
 25 26  1  0  0  0  0
 26 49  1  0  0  0  0
 26 50  1  0  0  0  0
M  END
> <s_m_source_file>
AV-unprocessed.smi

> <i_m_source_file_index>
274

> <i_lp_mmshare_version>
43012

> <i_f3d_flags>
0

> <s_epik_input>
W0NIM11bQ0hdKFtDSDNdKVtDQEBIXTFDKD1PKVtOSF1bQ0gyXVtDSDJdTjFjKG5bY0hdbjIpYyhjMjMpbltjSF1uM1tDSDJdW0NAQF00KFtPSF0pW0NIMl1bQ0gyXU9bQ0gyXTQ=

> <s_epik_cmdline>
J2VwaWtfcHl0aG9uJywgJy1waCcsICc3LjAnLCAnLXRuJywgJzgnLCAnLW1hJywgJzIwMCcsICctbWV0YWxfYmluZGluZycsICctaW1hZScsICc8aW5maWxlLm1hZT4nLCAnLW9tYWUnLCAnPG91dGZpbGUubWFlPic=

> <r_lp_tautomer_probability>
1

> <r_epik_Ionization_Penalty>
0.000690079

> <r_epik_Ionization_Penalty_Charging>
0

> <r_epik_Ionization_Penalty_Neutral>
0.000690079

> <r_epik_State_Penalty>
0.000321372

> <r_epik_Charging_Adjusted_Penalty>
0.000321372

> <i_epik_Tot_Q>
0

> <i_epik_Tot_abs_Q>
0

> <r_epik_Metal_State_Penalty>
-0

> <b_epik_Metal_Only>
0

> <s_lp_Force_Field>
OPLS_2005

> <r_lp_Energy>
42.4

> <b_lp_Chiralities_Consistent>
1

> <s_lp_Variant>
AV-unprocessed.smi:274-3

> <Gold.Version>
5.8.1

> <Gold.Id.Protein>
6NUR|6NUR_protein|mol2

> <Gold.PLP.Fitness>
40.7166

> <Gold.PLP.PLP>
-30.3814

> <Gold.PLP.part.hbond>
-4.0000

> <Gold.PLP.part.metal>
0.0000

> <Gold.PLP.part.buried>
-5.4424

> <Gold.PLP.part.nonpolar>
-20.8360

> <Gold.PLP.part.repulsive>
0.7715

> <Gold.PLP.ligand.clash>
0.0000

> <Gold.PLP.ligand.torsion>
0.6067

> <Gold.PLP.Chemscore.Hbond>
3.6534

> <Gold.PLP.Chemscore.CHOScore>
0.0000

> <Gold.PLP.Chemscore.Metal>
0.0000

> <Gold.Chemscore.Hbonds>
donor molecule, donor type, donor heavy atom, donor atom, acceptor molecule, acceptor atom, score
      L1  H     7    35       P1  7957  0.98
      L1  H    22    44       P1 10747  1.00
      P1  H  7989  7998       L1     6  1.00
      P1  H 10785 10796       L1    25  0.68

> <Gold.PLP.Chemscore.Internal.Correction>
0.5883

> <Gold.Rescore>
     Score         DG    S(hbond)    S(metal)    S(lipo)     H(rot)  DE(clash)    DE(int)     intcor
     14.92     -17.65       3.59        0.00      56.15       2.50       0.06       2.67       ----

> <Gold.Chemscore.Fitness>
14.9246

> <Gold.Chemscore.DG>
-17.6515

> <Gold.Chemscore.ZeroCoef>
-5.4800

> <Gold.Chemscore.Hbond>
3.5924

> <Gold.Chemscore.Metal>
0.0000

> <Gold.Chemscore.Lipo>
56.1537

> <Gold.Chemscore.Internal_Hbond>
0.0000

> <Gold.Chemscore.DEClash>
0.0560

> <Gold.Chemscore.DEInternal>
2.6710

> <Gold.Chemscore.Rot>
2.4988

> <Gold.Chemscore.Internal.Correction>
   9.000000E+99

> <Gold.Chemscore.Hbonds>
donor molecule, donor type, donor heavy atom, donor atom, acceptor molecule, acceptor atom, score
      L1  H     7    35       P1  7957  0.91
      L1  H    22    44       P1 10747  0.97
      P1  H  7989  7998       L1     6  1.00
      P1  H 10785 10796       L1    25  0.62

> <Gold.Chemscore.Hbond.Weighted>
-11.9985

> <Gold.Chemscore.Metal.Weighted>
-0.0000

> <Gold.Chemscore.Lipo.Weighted>
-6.5700

> <Gold.Chemscore.Internal_Hbond.Weighted>
0.0000

> <Gold.Chemscore.DEClash.Weighted>
0.0560

> <Gold.Chemscore.DEInternal.Weighted>
2.6710

> <Gold.Chemscore.Rot.Weighted>
6.3970

> <Gold.Chemscore.Internal.Correction.Weighted>
   9.000000E+99

> <Gold.Protein.RotatedTorsions>
[ 6907 6896 6895 6894 ] final -143.84 input  -60.11 | X-H torsion
[ 7974 7965 7964 7962 ] final  139.22 input  175.53 | X-H torsion
[ 8008 7997 7996 7995 ] final    1.37 input   59.86 | X-H torsion
[ 10167 10162 10161 10158 ] final  -64.04 input  -65.29 | X-H torsion
[ 10718 10713 10712 10709 ] final   77.84 input   66.30 | X-H torsion
[ 10763 10752 10751 10750 ] final   30.13 input  -60.55 | X-H torsion
[ 11005 11000 10999 10996 ] final  146.05 input  -57.11 | X-H torsion

> <Gold.Protein.ActiveResidues>
 VAL166  LYS551  ARG553  GLY616  TRP617  ASP618  TYR619  PRO620  LYS621  CYS622 
 ASP623  PHE694  ASN695  SER759  ASP760  ASP761  ALA762  ILE779  LEU786  VAL792 
 PHE793  MET794  SER795  GLU796  ALA797  LYS798  CYS799  TRP800  GLU811  SER814 

> <Gold.Protein.RotatedAtoms>
  151.1059  133.5209  159.2607 H   0  0  0  0  0  0  0  0  0  0  0  0  # atno 6907 bound_to 6896
  151.2021  135.0446  159.8886 H   0  0  0  0  0  0  0  0  0  0  0  0  # atno 6908 bound_to 6896
  152.5446  134.0886  159.8320 H   0  0  0  0  0  0  0  0  0  0  0  0  # atno 6909 bound_to 6896
  144.9299  139.5060  143.5622 H   0  0  0  0  0  0  0  0  0  0  0  0  # atno 7974 bound_to 7965
  154.6790  140.2628  155.6928 H   0  0  0  0  0  0  0  0  0  0  0  0  # atno 8008 bound_to 7997
  156.2689  140.2814  156.1249 H   0  0  0  0  0  0  0  0  0  0  0  0  # atno 8009 bound_to 7997
  155.1059  140.0375  157.2700 H   0  0  0  0  0  0  0  0  0  0  0  0  # atno 8010 bound_to 7997
  140.5829  143.2329  151.6304 H   0  0  0  0  0  0  0  0  0  0  0  0  # atno 10167 bound_to 10162
  157.6724  130.9840  150.1699 H   0  0  0  0  0  0  0  0  0  0  0  0  # atno 10718 bound_to 10713
  153.0389  135.6472  154.0997 H   0  0  0  0  0  0  0  0  0  0  0  0  # atno 10763 bound_to 10752
  154.0707  135.2880  155.3310 H   0  0  0  0  0  0  0  0  0  0  0  0  # atno 10764 bound_to 10752
  154.6596  135.5396  153.8066 H   0  0  0  0  0  0  0  0  0  0  0  0  # atno 10765 bound_to 10752
  140.0762  134.9124  157.1426 H   0  0  0  0  0  0  0  0  0  0  0  0  # atno 11005 bound_to 11000
  146.3242  139.8242  142.8921 LP  0  0  0  0  0  0  0  0  0  0  0  0  # atno 17320 bound_to 7965
  145.3158  141.0231  143.3528 LP  0  0  0  0  0  0  0  0  0  0  0  0  # atno 17321 bound_to 7965
  139.5180  144.3297  152.0837 LP  0  0  0  0  0  0  0  0  0  0  0  0  # atno 17342 bound_to 10162
  140.2450  144.4230  150.6245 LP  0  0  0  0  0  0  0  0  0  0  0  0  # atno 17343 bound_to 10162
  156.2455  130.3695  149.8289 LP  0  0  0  0  0  0  0  0  0  0  0  0  # atno 17370 bound_to 10713
  156.6077  130.8573  151.3447 LP  0  0  0  0  0  0  0  0  0  0  0  0  # atno 17371 bound_to 10713
  140.3555  134.2552  155.7193 LP  0  0  0  0  0  0  0  0  0  0  0  0  # atno 17394 bound_to 11000
  141.2030  133.7923  157.0361 LP  0  0  0  0  0  0  0  0  0  0  0  0  # atno 17395 bound_to 11000

$$$$
