AV-unprocessed.smi:527|AV-procd|sdf|2829|dock3
  -GOLD-   2262023313D 1   1.00000     0.00000
 Structure written by MMmdl.
 43 44  0  0  0  0  0  0  0  0  2 V2000
  149.3566  141.9462  157.1426 C   0  0  0  0  0  0  0  0  0  0  0  0
  149.7297  140.6645  156.3795 C   0  0  2  0  0  0  0  0  0  0  0  0
  151.2011  140.6798  155.9184 C   0  0  0  0  0  0  0  0  0  0  0  0
  151.5942  139.3524  155.2510 C   0  0  0  0  0  0  0  0  0  0  0  0
  150.6453  138.9980  154.0960 C   0  0  0  0  0  0  0  0  0  0  0  0
  149.1763  138.9830  154.5619 C   0  0  2  0  0  0  0  0  0  0  0  0
  148.3083  138.6075  153.4469 N   0  0  0  0  0  0  0  0  0  0  0  0
  147.0916  138.0552  153.5623 C   0  0  0  0  0  0  0  0  0  0  0  0
  146.4131  138.1200  154.5894 O   0  0  0  0  0  0  0  0  0  0  0  0
  146.7287  137.4409  152.4196 N   0  0  0  0  0  0  0  0  0  0  0  0
  145.5274  136.9028  152.1242 C   0  0  0  0  0  0  0  0  0  0  0  0
  144.5487  136.8917  152.8731 O   0  0  0  0  0  0  0  0  0  0  0  0
  145.4023  136.2762  150.7343 C   0  0  0  0  0  0  0  0  0  0  0  0
  145.3561  134.8127  150.8139 N   0  0  0  0  0  0  0  0  0  0  0  0
  146.3111  133.9774  151.3353 C   0  0  0  0  0  0  0  0  0  0  0  0
  145.8347  132.6998  151.1896 C   0  0  0  0  0  0  0  0  0  0  0  0
  144.6109  132.8082  150.5850 N   0  3  0  0  0  0  0  0  0  0  0  0
  144.3209  134.0936  150.3584 C   0  0  0  0  0  0  0  0  0  0  0  0
  148.7667  140.3365  155.2074 C   0  0  2  0  0  0  0  0  0  0  0  0
  148.6289  141.4841  154.1800 C   0  0  0  0  0  0  0  0  0  0  0  0
  149.5212  142.8400  156.5409 H   0  0  0  0  0  0  0  0  0  0  0  0
  149.9588  142.0489  158.0459 H   0  0  0  0  0  0  0  0  0  0  0  0
  148.3098  141.9327  157.4472 H   0  0  0  0  0  0  0  0  0  0  0  0
  149.6335  139.8496  157.0990 H   0  0  0  0  0  0  0  0  0  0  0  0
  151.3709  141.5051  155.2264 H   0  0  0  0  0  0  0  0  0  0  0  0
  151.8554  140.8607  156.7718 H   0  0  0  0  0  0  0  0  0  0  0  0
  152.6203  139.4089  154.8859 H   0  0  0  0  0  0  0  0  0  0  0  0
  151.5753  138.5541  155.9939 H   0  0  0  0  0  0  0  0  0  0  0  0
  150.7770  139.7120  153.2823 H   0  0  0  0  0  0  0  0  0  0  0  0
  150.9171  138.0220  153.6921 H   0  0  0  0  0  0  0  0  0  0  0  0
  149.0892  138.2043  155.3227 H   0  0  0  0  0  0  0  0  0  0  0  0
  148.6667  138.7822  152.5195 H   0  0  0  0  0  0  0  0  0  0  0  0
  147.4367  137.3774  151.7030 H   0  0  0  0  0  0  0  0  0  0  0  0
  144.5001  136.6247  150.2289 H   0  0  0  0  0  0  0  0  0  0  0  0
  146.2536  136.5616  150.1141 H   0  0  0  0  0  0  0  0  0  0  0  0
  147.2347  134.3436  151.7606 H   0  0  0  0  0  0  0  0  0  0  0  0
  146.2637  131.7465  151.4630 H   0  0  0  0  0  0  0  0  0  0  0  0
  143.4284  134.4756  149.8944 H   0  0  0  0  0  0  0  0  0  0  0  0
  147.7764  140.1996  155.6439 H   0  0  0  0  0  0  0  0  0  0  0  0
  149.5770  141.7205  153.6989 H   0  0  0  0  0  0  0  0  0  0  0  0
  148.2603  142.3962  154.6480 H   0  0  0  0  0  0  0  0  0  0  0  0
  147.9159  141.2348  153.3945 H   0  0  0  0  0  0  0  0  0  0  0  0
  144.0107  132.0299  150.3416 H   0  0  0  0  0  0  0  0  0  0  0  0
  1  2  1  0  0  0  0
  1 21  1  0  0  0  0
  1 22  1  0  0  0  0
  1 23  1  0  0  0  0
  2 19  1  0  0  0  0
  2  3  1  0  0  0  0
  2 24  1  0  0  0  0
  3  4  1  0  0  0  0
  3 25  1  0  0  0  0
  3 26  1  0  0  0  0
  4  5  1  0  0  0  0
  4 27  1  0  0  0  0
  4 28  1  0  0  0  0
  5  6  1  0  0  0  0
  5 29  1  0  0  0  0
  5 30  1  0  0  0  0
  6  7  1  0  0  0  0
  6 19  1  0  0  0  0
  6 31  1  0  0  0  0
  7  8  1  0  0  0  0
  7 32  1  0  0  0  0
  8  9  2  0  0  0  0
  8 10  1  0  0  0  0
 10 11  1  0  0  0  0
 10 33  1  0  0  0  0
 11 12  2  0  0  0  0
 11 13  1  0  0  0  0
 13 14  1  0  0  0  0
 13 34  1  0  0  0  0
 13 35  1  0  0  0  0
 14 18  1  0  0  0  0
 14 15  1  0  0  0  0
 15 16  2  0  0  0  0
 15 36  1  0  0  0  0
 16 17  1  0  0  0  0
 16 37  1  0  0  0  0
 17 18  2  0  0  0  0
 17 43  1  0  0  0  0
 18 38  1  0  0  0  0
 19 20  1  0  0  0  0
 19 39  1  0  0  0  0
 20 40  1  0  0  0  0
 20 41  1  0  0  0  0
 20 42  1  0  0  0  0
M  CHG  1  17   1
M  END
> <s_m_source_file>
AV-unprocessed.smi

> <i_m_source_file_index>
527

> <i_lp_mmshare_version>
43012

> <i_f3d_flags>
0

> <s_epik_input>
W0NIM11bQ0BASF0xW0NIMl1bQ0gyXVtDSDJdW0NASF0oW0NASF0xW0NIM10pW05IXUMoPU8pW05IXUMoPU8pW0NIMl1uMltjSF1bY0hdbltjSF0y

> <s_epik_cmdline>
J2VwaWtfcHl0aG9uJywgJy1waCcsICc3LjAnLCAnLXRuJywgJzgnLCAnLW1hJywgJzIwMCcsICctbWV0YWxfYmluZGluZycsICctaW1hZScsICc8aW5maWxlLm1hZT4nLCAnLW9tYWUnLCAnPG91dGZpbGUubWFlPic=

> <r_lp_tautomer_probability>
1

> <r_epik_Ionization_Penalty>
0.816441

> <r_epik_Ionization_Penalty_Charging>
0

> <r_epik_Ionization_Penalty_Neutral>
0.816441

> <r_epik_State_Penalty>
0.849034

> <r_epik_Charging_Adjusted_Penalty>
0.849034

> <i_epik_Tot_Q>
1

> <i_epik_Tot_abs_Q>
1

> <r_epik_Metal_State_Penalty>
0.984327

> <b_epik_Metal_Only>
0

> <s_lp_Force_Field>
OPLS_2005

> <r_lp_Energy>
18.4408

> <b_lp_Chiralities_Consistent>
1

> <s_lp_Variant>
AV-unprocessed.smi:527-15

> <Gold.Version>
5.8.1

> <Gold.Id.Protein>
6NUR|6NUR_protein|mol2

> <Gold.PLP.Fitness>
43.3766

> <Gold.PLP.PLP>
-33.9820

> <Gold.PLP.part.hbond>
-2.9071

> <Gold.PLP.part.metal>
0.0000

> <Gold.PLP.part.buried>
1.2458

> <Gold.PLP.part.nonpolar>
-30.8246

> <Gold.PLP.part.repulsive>
0.3964

> <Gold.PLP.ligand.clash>
0.0000

> <Gold.PLP.ligand.torsion>
0.5434

> <Gold.PLP.Chemscore.Hbond>
1.4873

> <Gold.PLP.Chemscore.CHOScore>
2.0000

> <Gold.PLP.Chemscore.Metal>
0.0000

> <Gold.Chemscore.Hbonds>
donor molecule, donor type, donor heavy atom, donor atom, acceptor molecule, acceptor atom, score
      L1  H     7    32       P1  7957  0.93
      L1  H    10    33       P1  7948  0.48
      L1  C    15    36       P1  7948  1.00
      L1  C    18    38       P1 10186  1.00

> <Gold.PLP.Chemscore.Internal.Correction>
0.0197

> <Gold.Rescore>
     Score         DG    S(hbond)    S(metal)    S(lipo)     H(rot)  DE(clash)    DE(int)     intcor
     11.68     -13.68       1.36        0.00      68.64       1.71       0.21       1.78       ----

> <Gold.Chemscore.Fitness>
11.6829

> <Gold.Chemscore.DG>
-13.6770

> <Gold.Chemscore.ZeroCoef>
-5.4800

> <Gold.Chemscore.Hbond>
1.3569

> <Gold.Chemscore.Metal>
0.0000

> <Gold.Chemscore.Lipo>
68.6352

> <Gold.Chemscore.Internal_Hbond>
0.0000

> <Gold.Chemscore.DEClash>
0.2146

> <Gold.Chemscore.DEInternal>
1.7795

> <Gold.Chemscore.Rot>
1.7052

> <Gold.Chemscore.Internal.Correction>
   9.000000E+99

> <Gold.Chemscore.Hbonds>
donor molecule, donor type, donor heavy atom, donor atom, acceptor molecule, acceptor atom, score
      L1  H     7    32       P1  7957  0.83
      L1  H    10    33       P1  7948  0.48

> <Gold.Chemscore.Hbond.Weighted>
-4.5320

> <Gold.Chemscore.Metal.Weighted>
-0.0000

> <Gold.Chemscore.Lipo.Weighted>
-8.0303

> <Gold.Chemscore.Internal_Hbond.Weighted>
0.0000

> <Gold.Chemscore.DEClash.Weighted>
0.2146

> <Gold.Chemscore.DEInternal.Weighted>
1.7795

> <Gold.Chemscore.Rot.Weighted>
4.3653

> <Gold.Chemscore.Internal.Correction.Weighted>
   9.000000E+99

> <Gold.Protein.RotatedTorsions>
[ 6907 6896 6895 6894 ] final -163.97 input  -60.11 | X-H torsion
[ 7974 7965 7964 7962 ] final   65.81 input  175.53 | X-H torsion
[ 8008 7997 7996 7995 ] final -102.26 input   59.86 | X-H torsion
[ 10167 10162 10161 10158 ] final -102.42 input  -65.29 | X-H torsion
[ 10718 10713 10712 10709 ] final  142.70 input   66.30 | X-H torsion
[ 10763 10752 10751 10750 ] final  -20.76 input  -60.55 | X-H torsion
[ 11005 11000 10999 10996 ] final  -94.83 input  -57.11 | X-H torsion

> <Gold.Protein.ActiveResidues>
 VAL166  LYS551  ARG553  GLY616  TRP617  ASP618  TYR619  PRO620  LYS621  CYS622 
 ASP623  PHE694  ASN695  SER759  ASP760  ASP761  ALA762  ILE779  LEU786  VAL792 
 PHE793  MET794  SER795  GLU796  ALA797  LYS798  CYS799  TRP800  GLU811  SER814 

> <Gold.Protein.RotatedAtoms>
  151.4044  133.3747  159.2735 H   0  0  0  0  0  0  0  0  0  0  0  0  # atno 6907 bound_to 6896
  150.9409  134.8819  159.7622 H   0  0  0  0  0  0  0  0  0  0  0  0  # atno 6908 bound_to 6896
  152.5071  134.3995  159.9463 H   0  0  0  0  0  0  0  0  0  0  0  0  # atno 6909 bound_to 6896
  145.8341  139.3156  143.0970 H   0  0  0  0  0  0  0  0  0  0  0  0  # atno 7974 bound_to 7965
  154.8542  140.0429  157.1623 H   0  0  0  0  0  0  0  0  0  0  0  0  # atno 8008 bound_to 7997
  154.8910  140.2986  155.5350 H   0  0  0  0  0  0  0  0  0  0  0  0  # atno 8009 bound_to 7997
  156.2997  140.2393  156.3925 H   0  0  0  0  0  0  0  0  0  0  0  0  # atno 8010 bound_to 7997
  140.2309  143.3607  152.0888 H   0  0  0  0  0  0  0  0  0  0  0  0  # atno 10167 bound_to 10162
  157.3775  131.0987  151.0770 H   0  0  0  0  0  0  0  0  0  0  0  0  # atno 10718 bound_to 10713
  153.6255  135.6991  153.5295 H   0  0  0  0  0  0  0  0  0  0  0  0  # atno 10763 bound_to 10752
  153.2902  135.4159  155.1160 H   0  0  0  0  0  0  0  0  0  0  0  0  # atno 10764 bound_to 10752
  154.8534  135.3623  154.5796 H   0  0  0  0  0  0  0  0  0  0  0  0  # atno 10765 bound_to 10752
  141.1459  133.7983  157.0352 H   0  0  0  0  0  0  0  0  0  0  0  0  # atno 11005 bound_to 11000
  145.9538  140.8888  143.0245 LP  0  0  0  0  0  0  0  0  0  0  0  0  # atno 17320 bound_to 7965
  144.6737  140.1717  143.7413 LP  0  0  0  0  0  0  0  0  0  0  0  0  # atno 17321 bound_to 7965
  139.5110  144.6894  151.5800 LP  0  0  0  0  0  0  0  0  0  0  0  0  # atno 17342 bound_to 10162
  140.6186  143.9301  150.6508 LP  0  0  0  0  0  0  0  0  0  0  0  0  # atno 17343 bound_to 10162
  157.1851  130.6327  149.5685 LP  0  0  0  0  0  0  0  0  0  0  0  0  # atno 17370 bound_to 10713
  155.9768  130.4741  150.6555 LP  0  0  0  0  0  0  0  0  0  0  0  0  # atno 17371 bound_to 10713
  140.0728  134.9692  157.1496 LP  0  0  0  0  0  0  0  0  0  0  0  0  # atno 17394 bound_to 11000
  140.3686  134.2415  155.7180 LP  0  0  0  0  0  0  0  0  0  0  0  0  # atno 17395 bound_to 11000

$$$$
