AV-unprocessed.smi:1830|AV-procd|sdf|7447|dock5
  -GOLD-   22720 9133D 1   1.00000     0.00000
 Structure written by MMmdl.
 54 57  0  0  0  0  0  0  0  0  3 V2000
  149.7248  134.1429  155.8666 O   0  0  0  0  0  0  0  0  0  0  0  0
  149.3912  134.6778  154.8098 C   0  0  0  0  0  0  0  0  0  0  0  0
  149.6945  135.9442  154.4934 N   0  0  0  0  0  0  0  0  0  0  0  0
  150.4232  136.8707  155.3551 C   0  0  0  0  0  0  0  0  0  0  0  0
  150.3750  138.3266  154.8504 C   0  0  1  0  0  0  0  0  0  0  0  0
  148.9631  138.7792  154.4350 C   0  0  0  0  0  0  0  0  0  0  0  0
  148.9491  140.2040  154.0161 N   0  3  1  0  0  0  0  0  0  0  0  0
  147.5746  140.7413  153.9028 C   0  0  0  0  0  0  0  0  0  0  0  0
  147.2876  141.5025  155.2102 C   0  0  0  0  0  0  0  0  0  0  0  0
  148.5886  141.4440  156.0183 C   0  0  0  0  0  0  0  0  0  0  0  0
  149.6441  141.0974  154.9686 C   0  0  1  0  0  0  0  0  0  0  0  0
  150.9655  140.5107  155.5048 C   0  0  0  0  0  0  0  0  0  0  0  0
  150.7992  139.1622  155.9186 O   0  0  0  0  0  0  0  0  0  0  0  0
  148.7058  134.0774  153.8228 N   0  0  0  0  0  0  0  0  0  0  0  0
  148.2541  132.7281  153.7700 C   0  0  0  0  0  0  0  0  0  0  0  0
  148.9152  131.6903  154.4761 C   0  0  0  0  0  0  0  0  0  0  0  0
  148.4084  130.3776  154.4275 C   0  0  0  0  0  0  0  0  0  0  0  0
  147.2426  130.1235  153.6836 C   0  0  0  0  0  0  0  0  0  0  0  0
  146.6283  131.1356  153.0364 N   0  3  0  0  0  0  0  0  0  0  0  0
  147.0690  132.4180  153.0475 C   0  0  0  0  0  0  0  0  0  0  0  0
  146.3566  133.3905  152.3133 N   0  0  0  0  0  0  0  0  0  0  0  0
  145.8668  132.9294  151.0170 C   0  0  0  0  0  0  0  0  0  0  0  0
  144.5351  133.6435  150.7798 C   0  0  0  0  0  0  0  0  0  0  0  0
  144.0256  133.8981  152.1929 C   0  0  0  0  0  0  0  0  0  0  0  0
  145.3131  134.1816  152.9650 C   0  0  0  0  0  0  0  0  0  0  0  0
  149.3810  136.3034  153.6032 H   0  0  0  0  0  0  0  0  0  0  0  0
  149.9915  136.8109  156.3546 H   0  0  0  0  0  0  0  0  0  0  0  0
  151.4591  136.5406  155.4488 H   0  0  0  0  0  0  0  0  0  0  0  0
  151.0632  138.4366  154.0104 H   0  0  0  0  0  0  0  0  0  0  0  0
  148.5908  138.1709  153.6100 H   0  0  0  0  0  0  0  0  0  0  0  0
  148.2770  138.6321  155.2710 H   0  0  0  0  0  0  0  0  0  0  0  0
  147.5464  141.4355  153.0621 H   0  0  0  0  0  0  0  0  0  0  0  0
  146.8366  139.9630  153.7027 H   0  0  0  0  0  0  0  0  0  0  0  0
  147.0158  142.5355  154.9904 H   0  0  0  0  0  0  0  0  0  0  0  0
  146.4618  141.0570  155.7655 H   0  0  0  0  0  0  0  0  0  0  0  0
  148.8038  142.3778  156.5386 H   0  0  0  0  0  0  0  0  0  0  0  0
  148.5257  140.6526  156.7666 H   0  0  0  0  0  0  0  0  0  0  0  0
  149.8790  142.0174  154.4303 H   0  0  0  0  0  0  0  0  0  0  0  0
  151.7389  140.5583  154.7367 H   0  0  0  0  0  0  0  0  0  0  0  0
  151.3279  141.1022  156.3457 H   0  0  0  0  0  0  0  0  0  0  0  0
  148.5807  134.6124  152.9757 H   0  0  0  0  0  0  0  0  0  0  0  0
  149.7959  131.8838  155.0697 H   0  0  0  0  0  0  0  0  0  0  0  0
  148.9040  129.5788  154.9598 H   0  0  0  0  0  0  0  0  0  0  0  0
  146.7831  129.1502  153.5904 H   0  0  0  0  0  0  0  0  0  0  0  0
  146.5785  133.1504  150.2216 H   0  0  0  0  0  0  0  0  0  0  0  0
  145.7127  131.8493  151.0388 H   0  0  0  0  0  0  0  0  0  0  0  0
  144.7085  134.5945  150.2742 H   0  0  0  0  0  0  0  0  0  0  0  0
  143.8421  133.0597  150.1733 H   0  0  0  0  0  0  0  0  0  0  0  0
  143.3079  134.7169  152.2485 H   0  0  0  0  0  0  0  0  0  0  0  0
  143.5472  132.9988  152.5831 H   0  0  0  0  0  0  0  0  0  0  0  0
  145.1919  133.9919  154.0313 H   0  0  0  0  0  0  0  0  0  0  0  0
  145.5830  135.2330  152.8611 H   0  0  0  0  0  0  0  0  0  0  0  0
  149.4107  140.2612  153.1194 H   0  0  0  0  0  0  0  0  0  0  0  0
  145.7843  130.9211  152.5048 H   0  0  0  0  0  0  0  0  0  0  0  0
  1  2  2  0  0  0  0
  2  3  1  0  0  0  0
  2 14  1  0  0  0  0
  3  4  1  0  0  0  0
  3 26  1  0  0  0  0
  4  5  1  0  0  0  0
  4 27  1  0  0  0  0
  4 28  1  0  0  0  0
  5 13  1  0  0  0  0
  5  6  1  0  0  0  0
  5 29  1  0  0  0  0
  6  7  1  0  0  0  0
  6 30  1  0  0  0  0
  6 31  1  0  0  0  0
  7 11  1  0  0  0  0
  7  8  1  0  0  0  0
  7 53  1  0  0  0  0
  8  9  1  0  0  0  0
  8 32  1  0  0  0  0
  8 33  1  0  0  0  0
  9 10  1  0  0  0  0
  9 34  1  0  0  0  0
  9 35  1  0  0  0  0
 10 11  1  0  0  0  0
 10 36  1  0  0  0  0
 10 37  1  0  0  0  0
 11 12  1  0  0  0  0
 11 38  1  0  0  0  0
 12 13  1  0  0  0  0
 12 39  1  0  0  0  0
 12 40  1  0  0  0  0
 14 15  1  0  0  0  0
 14 41  1  0  0  0  0
 15 20  1  0  0  0  0
 15 16  2  0  0  0  0
 16 17  1  0  0  0  0
 16 42  1  0  0  0  0
 17 18  2  0  0  0  0
 17 43  1  0  0  0  0
 18 19  1  0  0  0  0
 18 44  1  0  0  0  0
 19 20  2  0  0  0  0
 19 54  1  0  0  0  0
 20 21  1  0  0  0  0
 21 25  1  0  0  0  0
 21 22  1  0  0  0  0
 22 23  1  0  0  0  0
 22 45  1  0  0  0  0
 22 46  1  0  0  0  0
 23 24  1  0  0  0  0
 23 47  1  0  0  0  0
 23 48  1  0  0  0  0
 24 25  1  0  0  0  0
 24 49  1  0  0  0  0
 24 50  1  0  0  0  0
 25 51  1  0  0  0  0
 25 52  1  0  0  0  0
M  CHG  1   7   1
M  CHG  1  19   1
M  END
> <s_m_source_file>
AV-unprocessed.smi

> <i_m_source_file_index>
1830

> <i_lp_mmshare_version>
43012

> <i_f3d_flags>
0

> <s_epik_input>
W0NIMl0xW0NIMl1bQ0gyXVtDQEhdKE4xMilbQ0gyXU9bQ0BASF0oW0NIMl0yKVtDSDJdW05IXUMoPU8pW05IXWMzW2NIXVtjSF1bY0hdbmMzTjRbQ0gyXVtDSDJdW0NIMl1bQ0gyXTQ=

> <s_epik_cmdline>
J2VwaWtfcHl0aG9uJywgJy1waCcsICc3LjAnLCAnLXRuJywgJzgnLCAnLW1hJywgJzIwMCcsICctbWV0YWxfYmluZGluZycsICctaW1hZScsICc8aW5maWxlLm1hZT4nLCAnLW9tYWUnLCAnPG91dGZpbGUubWFlPic=

> <r_lp_tautomer_probability>
0.999994

> <r_epik_Ionization_Penalty>
1.29113

> <r_epik_Ionization_Penalty_Charging>
1.29111

> <r_epik_Ionization_Penalty_Neutral>
1.88144e-05

> <r_epik_State_Penalty>
1.32676

> <r_epik_Charging_Adjusted_Penalty>
2.61787

> <i_epik_Tot_Q>
2

> <i_epik_Tot_abs_Q>
2

> <r_epik_Metal_State_Penalty>
1.40425

> <b_epik_Metal_Only>
0

> <s_lp_Force_Field>
OPLS_2005

> <r_lp_Energy>
75.2676

> <b_lp_Chiralities_Consistent>
1

> <s_lp_Variant>
AV-unprocessed.smi:1830-16

> <Gold.Version>
5.8.1

> <Gold.Id.Protein>
6NUR|6NUR_protein|mol2

> <Gold.PLP.Fitness>
46.7307

> <Gold.PLP.PLP>
-40.5262

> <Gold.PLP.part.hbond>
-3.6633

> <Gold.PLP.part.metal>
0.0000

> <Gold.PLP.part.buried>
-3.6460

> <Gold.PLP.part.nonpolar>
-34.3529

> <Gold.PLP.part.repulsive>
0.3747

> <Gold.PLP.ligand.clash>
0.0000

> <Gold.PLP.ligand.torsion>
0.9760

> <Gold.PLP.Chemscore.Hbond>
2.6600

> <Gold.PLP.Chemscore.CHOScore>
0.0000

> <Gold.PLP.Chemscore.Metal>
0.0000

> <Gold.Chemscore.Hbonds>
donor molecule, donor type, donor heavy atom, donor atom, acceptor molecule, acceptor atom, score
      L1  H     3    26       P1  7948  1.00
      L1  H     7    53       P1  7957  1.00
      L1  H    14    41       P1  7948  1.00

> <Gold.PLP.Chemscore.Internal.Correction>
0.1764

> <Gold.Rescore>
     Score         DG    S(hbond)    S(metal)    S(lipo)     H(rot)  DE(clash)    DE(int)     intcor
     18.07     -20.10       2.49        0.00      85.03       1.43       0.02       2.01       ----

> <Gold.Chemscore.Fitness>
18.0660

> <Gold.Chemscore.DG>
-20.0994

> <Gold.Chemscore.ZeroCoef>
-5.4800

> <Gold.Chemscore.Hbond>
2.4927

> <Gold.Chemscore.Metal>
0.0000

> <Gold.Chemscore.Lipo>
85.0327

> <Gold.Chemscore.Internal_Hbond>
0.0000

> <Gold.Chemscore.DEClash>
0.0232

> <Gold.Chemscore.DEInternal>
2.0101

> <Gold.Chemscore.Rot>
1.4278

> <Gold.Chemscore.Internal.Correction>
   9.000000E+99

> <Gold.Chemscore.Hbonds>
donor molecule, donor type, donor heavy atom, donor atom, acceptor molecule, acceptor atom, score
      L1  H     3    26       P1  7948  0.77
      L1  H     7    53       P1  7957  0.96
      L1  H    14    41       P1  7948  0.24

> <Gold.Chemscore.Hbond.Weighted>
-8.3256

> <Gold.Chemscore.Metal.Weighted>
-0.0000

> <Gold.Chemscore.Lipo.Weighted>
-9.9488

> <Gold.Chemscore.Internal_Hbond.Weighted>
0.0000

> <Gold.Chemscore.DEClash.Weighted>
0.0232

> <Gold.Chemscore.DEInternal.Weighted>
2.0101

> <Gold.Chemscore.Rot.Weighted>
3.6551

> <Gold.Chemscore.Internal.Correction.Weighted>
   9.000000E+99

> <Gold.Protein.RotatedTorsions>
[ 6907 6896 6895 6894 ] final -104.25 input  -60.11 | X-H torsion
[ 7974 7965 7964 7962 ] final   90.54 input  175.53 | X-H torsion
[ 8008 7997 7996 7995 ] final -173.52 input   59.86 | X-H torsion
[ 10167 10162 10161 10158 ] final  -95.90 input  -65.29 | X-H torsion
[ 10718 10713 10712 10709 ] final  -48.30 input   66.30 | X-H torsion
[ 10763 10752 10751 10750 ] final  117.90 input  -60.55 | X-H torsion
[ 11005 11000 10999 10996 ] final  103.42 input  -57.11 | X-H torsion

> <Gold.Protein.ActiveResidues>
 VAL166  LYS551  ARG553  GLY616  TRP617  ASP618  TYR619  PRO620  LYS621  CYS622 
 ASP623  PHE694  ASN695  SER759  ASP760  ASP761  ALA762  ILE779  LEU786  VAL792 
 PHE793  MET794  SER795  GLU796  ALA797  LYS798  CYS799  TRP800  GLU811  SER814 

> <Gold.Protein.RotatedAtoms>
  150.7278  134.0307  159.3732 H   0  0  0  0  0  0  0  0  0  0  0  0  # atno 6907 bound_to 6896
  151.8276  135.0630  160.0442 H   0  0  0  0  0  0  0  0  0  0  0  0  # atno 6908 bound_to 6896
  152.2958  133.5569  159.5623 H   0  0  0  0  0  0  0  0  0  0  0  0  # atno 6909 bound_to 6896
  145.5177  139.2278  143.2689 H   0  0  0  0  0  0  0  0  0  0  0  0  # atno 7974 bound_to 7965
  155.9585  140.1140  157.0916 H   0  0  0  0  0  0  0  0  0  0  0  0  # atno 8008 bound_to 7997
  154.4126  140.1186  156.5214 H   0  0  0  0  0  0  0  0  0  0  0  0  # atno 8009 bound_to 7997
  155.6751  140.3473  155.4835 H   0  0  0  0  0  0  0  0  0  0  0  0  # atno 8010 bound_to 7997
  140.2993  143.3172  152.0265 H   0  0  0  0  0  0  0  0  0  0  0  0  # atno 10167 bound_to 10162
  156.2001  130.4156  149.9252 H   0  0  0  0  0  0  0  0  0  0  0  0  # atno 10718 bound_to 10713
  153.5594  135.3524  155.2793 H   0  0  0  0  0  0  0  0  0  0  0  0  # atno 10763 bound_to 10752
  154.8697  135.4133  154.2848 H   0  0  0  0  0  0  0  0  0  0  0  0  # atno 10764 bound_to 10752
  153.3590  135.7059  153.6796 H   0  0  0  0  0  0  0  0  0  0  0  0  # atno 10765 bound_to 10752
  139.8784  134.9262  156.5207 H   0  0  0  0  0  0  0  0  0  0  0  0  # atno 11005 bound_to 11000
  146.2126  140.5987  142.9053 LP  0  0  0  0  0  0  0  0  0  0  0  0  # atno 17320 bound_to 7965
  144.7693  140.5601  143.6681 LP  0  0  0  0  0  0  0  0  0  0  0  0  # atno 17321 bound_to 7965
  139.4919  144.6467  151.6762 LP  0  0  0  0  0  0  0  0  0  0  0  0  # atno 17342 bound_to 10162
  140.5665  144.0182  150.6195 LP  0  0  0  0  0  0  0  0  0  0  0  0  # atno 17343 bound_to 10162
  156.6965  130.8916  151.3594 LP  0  0  0  0  0  0  0  0  0  0  0  0  # atno 17370 bound_to 10713
  157.6981  130.9303  150.0703 LP  0  0  0  0  0  0  0  0  0  0  0  0  # atno 17371 bound_to 10713
  140.8452  133.8174  155.9114 LP  0  0  0  0  0  0  0  0  0  0  0  0  # atno 17394 bound_to 11000
  140.9198  134.2156  157.4933 LP  0  0  0  0  0  0  0  0  0  0  0  0  # atno 17395 bound_to 11000

$$$$
