AV-unprocessed.smi:1071|AV-procd|sdf|4678|dock3
  -GOLD-   22720 3193D 1   1.00000     0.00000
 Structure written by MMmdl.
 47 48  0  0  0  0  0  0  0  0  2 V2000
  152.4033  144.8197  158.8940 C   0  0  0  0  0  0  0  0  0  0  0  0
  152.3064  143.5201  159.4497 O   0  0  0  0  0  0  0  0  0  0  0  0
  152.1066  142.5218  158.4629 C   0  0  0  0  0  0  0  0  0  0  0  0
  150.9068  142.9066  157.5921 C   0  0  0  0  0  0  0  0  0  0  0  0
  151.0032  142.2218  156.3466 O   0  0  0  0  0  0  0  0  0  0  0  0
  150.6774  140.8816  156.3044 C   0  0  0  0  0  0  0  0  0  0  0  0
  149.9774  140.3243  157.3926 C   0  0  0  0  0  0  0  0  0  0  0  0
  149.6403  138.9582  157.3547 C   0  0  0  0  0  0  0  0  0  0  0  0
  150.0020  138.1922  156.2285 C   0  0  0  0  0  0  0  0  0  0  0  0
  149.6690  136.8110  156.2226 N   0  0  0  0  0  0  0  0  0  0  0  0
  150.2519  135.8114  155.5310 C   0  0  0  0  0  0  0  0  0  0  0  0
  151.1002  136.0092  154.6608 O   0  0  0  0  0  0  0  0  0  0  0  0
  149.7322  134.5806  155.7863 N   0  0  0  0  0  0  0  0  0  0  0  0
  148.5727  134.3288  156.6679 C   0  0  0  0  0  0  0  0  0  0  0  0
  148.9438  133.3817  157.8199 C   0  0  0  0  0  0  0  0  0  0  0  0
  149.5296  132.1237  157.3069 N   0  3  2  0  0  0  0  0  0  0  0  0
  149.8160  131.1506  158.3828 C   0  0  0  0  0  0  0  0  0  0  0  0
  150.7032  132.3697  156.4386 C   0  0  0  0  0  0  0  0  0  0  0  0
  150.3848  133.3499  155.2895 C   0  0  1  0  0  0  0  0  0  0  0  0
  149.5669  132.7130  154.1521 C   0  0  0  0  0  0  0  0  0  0  0  0
  150.7163  138.8405  155.1916 C   0  0  0  0  0  0  0  0  0  0  0  0
  151.0442  140.1495  155.2234 N   0  0  0  0  0  0  0  0  0  0  0  0
  152.5612  145.5482  159.6892 H   0  0  0  0  0  0  0  0  0  0  0  0
  151.4884  145.0909  158.3660 H   0  0  0  0  0  0  0  0  0  0  0  0
  153.2425  144.8912  158.2007 H   0  0  0  0  0  0  0  0  0  0  0  0
  152.9990  142.3932  157.8480 H   0  0  0  0  0  0  0  0  0  0  0  0
  151.9073  141.5684  158.9544 H   0  0  0  0  0  0  0  0  0  0  0  0
  149.9884  142.6077  158.0998 H   0  0  0  0  0  0  0  0  0  0  0  0
  150.8756  143.9882  157.4498 H   0  0  0  0  0  0  0  0  0  0  0  0
  149.7052  140.9334  158.2419 H   0  0  0  0  0  0  0  0  0  0  0  0
  149.1063  138.5092  158.1794 H   0  0  0  0  0  0  0  0  0  0  0  0
  148.8758  136.5537  156.7915 H   0  0  0  0  0  0  0  0  0  0  0  0
  148.1517  135.2318  157.1102 H   0  0  0  0  0  0  0  0  0  0  0  0
  147.7685  133.8946  156.0735 H   0  0  0  0  0  0  0  0  0  0  0  0
  149.6549  133.8689  158.4894 H   0  0  0  0  0  0  0  0  0  0  0  0
  148.0545  133.1564  158.4097 H   0  0  0  0  0  0  0  0  0  0  0  0
  150.5725  131.5352  159.0682 H   0  0  0  0  0  0  0  0  0  0  0  0
  150.1782  130.2107  157.9648 H   0  0  0  0  0  0  0  0  0  0  0  0
  148.9138  130.9332  158.9555 H   0  0  0  0  0  0  0  0  0  0  0  0
  151.5090  132.7806  157.0495 H   0  0  0  0  0  0  0  0  0  0  0  0
  151.0703  131.4252  156.0348 H   0  0  0  0  0  0  0  0  0  0  0  0
  151.3514  133.5828  154.8413 H   0  0  0  0  0  0  0  0  0  0  0  0
  150.0945  131.8603  153.7236 H   0  0  0  0  0  0  0  0  0  0  0  0
  149.3922  133.4274  153.3470 H   0  0  0  0  0  0  0  0  0  0  0  0
  148.5966  132.3561  154.4973 H   0  0  0  0  0  0  0  0  0  0  0  0
  151.0609  138.3085  154.3185 H   0  0  0  0  0  0  0  0  0  0  0  0
  148.8256  131.7016  156.7182 H   0  0  0  0  0  0  0  0  0  0  0  0
  1  2  1  0  0  0  0
  1 23  1  0  0  0  0
  1 24  1  0  0  0  0
  1 25  1  0  0  0  0
  2  3  1  0  0  0  0
  3  4  1  0  0  0  0
  3 26  1  0  0  0  0
  3 27  1  0  0  0  0
  4  5  1  0  0  0  0
  4 28  1  0  0  0  0
  4 29  1  0  0  0  0
  5  6  1  0  0  0  0
  6 22  1  0  0  0  0
  6  7  2  0  0  0  0
  7  8  1  0  0  0  0
  7 30  1  0  0  0  0
  8  9  2  0  0  0  0
  8 31  1  0  0  0  0
  9 10  1  0  0  0  0
  9 21  1  0  0  0  0
 10 11  1  0  0  0  0
 10 32  1  0  0  0  0
 11 12  2  0  0  0  0
 11 13  1  0  0  0  0
 13 19  1  0  0  0  0
 13 14  1  0  0  0  0
 14 15  1  0  0  0  0
 14 33  1  0  0  0  0
 14 34  1  0  0  0  0
 15 16  1  0  0  0  0
 15 35  1  0  0  0  0
 15 36  1  0  0  0  0
 16 17  1  0  0  0  0
 16 18  1  0  0  0  0
 16 47  1  0  0  0  0
 17 37  1  0  0  0  0
 17 38  1  0  0  0  0
 17 39  1  0  0  0  0
 18 19  1  0  0  0  0
 18 40  1  0  0  0  0
 18 41  1  0  0  0  0
 19 20  1  0  0  0  0
 19 42  1  0  0  0  0
 20 43  1  0  0  0  0
 20 44  1  0  0  0  0
 20 45  1  0  0  0  0
 21 22  2  0  0  0  0
 21 46  1  0  0  0  0
M  CHG  1  16   1
M  END
> <s_m_source_file>
AV-unprocessed.smi

> <i_m_source_file_index>
1071

> <i_lp_mmshare_version>
43012

> <i_f3d_flags>
0

> <s_epik_input>
W0NIM11PW0NIMl1bQ0gyXU9jMVtjSF1bY0hdYyhbY0hdbjEpW05IXUMoPU8pTjJbQ0gyXVtDSDJdTihbQ0gzXSlbQ0gyXVtDQEhdMltDSDNd

> <s_epik_cmdline>
J2VwaWtfcHl0aG9uJywgJy1waCcsICc3LjAnLCAnLXRuJywgJzgnLCAnLW1hJywgJzIwMCcsICctbWV0YWxfYmluZGluZycsICctaW1hZScsICc8aW5maWxlLm1hZT4nLCAnLW9tYWUnLCAnPG91dGZpbGUubWFlPic=

> <r_lp_tautomer_probability>
1

> <r_epik_Ionization_Penalty>
0.25455

> <r_epik_Ionization_Penalty_Charging>
0.254506

> <r_epik_Ionization_Penalty_Neutral>
4.43365e-05

> <r_epik_State_Penalty>
0.245983

> <r_epik_Charging_Adjusted_Penalty>
0.500488

> <i_epik_Tot_Q>
1

> <i_epik_Tot_abs_Q>
1

> <r_epik_Metal_State_Penalty>
0.245987

> <b_epik_Metal_Only>
0

> <s_lp_Force_Field>
OPLS_2005

> <r_lp_Energy>
56.9033

> <b_lp_Chiralities_Consistent>
1

> <s_lp_Variant>
AV-unprocessed.smi:1071-2

> <Gold.Version>
5.8.1

> <Gold.Id.Protein>
6NUR|6NUR_protein|mol2

> <Gold.PLP.Fitness>
35.2013

> <Gold.PLP.PLP>
-30.1051

> <Gold.PLP.part.hbond>
-2.0000

> <Gold.PLP.part.metal>
0.0000

> <Gold.PLP.part.buried>
-6.0877

> <Gold.PLP.part.nonpolar>
-23.3778

> <Gold.PLP.part.repulsive>
0.3707

> <Gold.PLP.ligand.clash>
0.0055

> <Gold.PLP.ligand.torsion>
0.5325

> <Gold.PLP.Chemscore.Hbond>
2.0000

> <Gold.PLP.Chemscore.CHOScore>
0.0000

> <Gold.PLP.Chemscore.Metal>
0.0000

> <Gold.Chemscore.Hbonds>
donor molecule, donor type, donor heavy atom, donor atom, acceptor molecule, acceptor atom, score
      P1  H  7989  7998       L1    22  1.00
      P1  H 10752 10763       L1    12  1.00

> <Gold.PLP.Chemscore.Internal.Correction>
0.1667

> <Gold.Rescore>
     Score         DG    S(hbond)    S(metal)    S(lipo)     H(rot)  DE(clash)    DE(int)     intcor
     14.57     -16.34       1.95        0.00      72.28       1.60       0.04       1.73       ----

> <Gold.Chemscore.Fitness>
14.5739

> <Gold.Chemscore.DG>
-16.3445

> <Gold.Chemscore.ZeroCoef>
-5.4800

> <Gold.Chemscore.Hbond>
1.9507

> <Gold.Chemscore.Metal>
0.0000

> <Gold.Chemscore.Lipo>
72.2807

> <Gold.Chemscore.Internal_Hbond>
0.0000

> <Gold.Chemscore.DEClash>
0.0431

> <Gold.Chemscore.DEInternal>
1.7276

> <Gold.Chemscore.Rot>
1.6045

> <Gold.Chemscore.Internal.Correction>
   9.000000E+99

> <Gold.Chemscore.Hbonds>
donor molecule, donor type, donor heavy atom, donor atom, acceptor molecule, acceptor atom, score
      P1  H  7989  7998       L1    22  0.86
      P1  H 10752 10763       L1    12  1.00

> <Gold.Chemscore.Hbond.Weighted>
-6.5152

> <Gold.Chemscore.Metal.Weighted>
-0.0000

> <Gold.Chemscore.Lipo.Weighted>
-8.4568

> <Gold.Chemscore.Internal_Hbond.Weighted>
0.0000

> <Gold.Chemscore.DEClash.Weighted>
0.0431

> <Gold.Chemscore.DEInternal.Weighted>
1.7276

> <Gold.Chemscore.Rot.Weighted>
4.1075

> <Gold.Chemscore.Internal.Correction.Weighted>
   9.000000E+99

> <Gold.Protein.RotatedTorsions>
[ 6907 6896 6895 6894 ] final  107.99 input  -60.11 | X-H torsion
[ 7974 7965 7964 7962 ] final   57.19 input  175.53 | X-H torsion
[ 8008 7997 7996 7995 ] final -124.26 input   59.86 | X-H torsion
[ 10167 10162 10161 10158 ] final  -52.44 input  -65.29 | X-H torsion
[ 10718 10713 10712 10709 ] final  -48.14 input   66.30 | X-H torsion
[ 10763 10752 10751 10750 ] final   51.72 input  -60.55 | X-H torsion
[ 11005 11000 10999 10996 ] final  129.79 input  -57.11 | X-H torsion

> <Gold.Protein.ActiveResidues>
 VAL166  LYS551  ARG553  GLY616  TRP617  ASP618  TYR619  PRO620  LYS621  CYS622 
 ASP623  PHE694  ASN695  SER759  ASP760  ASP761  ALA762  ILE779  LEU786  VAL792 
 PHE793  MET794  SER795  GLU796  ALA797  LYS798  CYS799  TRP800  GLU811  SER814 

> <Gold.Protein.RotatedAtoms>
  152.5131  133.9154  159.7508 H   0  0  0  0  0  0  0  0  0  0  0  0  # atno 6907 bound_to 6896
  150.9538  133.6512  159.2774 H   0  0  0  0  0  0  0  0  0  0  0  0  # atno 6908 bound_to 6896
  151.3781  135.0940  159.9540 H   0  0  0  0  0  0  0  0  0  0  0  0  # atno 6909 bound_to 6896
  145.9317  139.3813  143.0417 H   0  0  0  0  0  0  0  0  0  0  0  0  # atno 7974 bound_to 7965
  155.1939  140.0414  157.2905 H   0  0  0  0  0  0  0  0  0  0  0  0  # atno 8008 bound_to 7997
  154.6120  140.2479  155.7629 H   0  0  0  0  0  0  0  0  0  0  0  0  # atno 8009 bound_to 7997
  156.2384  140.2913  156.0387 H   0  0  0  0  0  0  0  0  0  0  0  0  # atno 8010 bound_to 7997
  140.6537  143.2584  151.4648 H   0  0  0  0  0  0  0  0  0  0  0  0  # atno 10167 bound_to 10162
  156.2016  130.4156  149.9233 H   0  0  0  0  0  0  0  0  0  0  0  0  # atno 10718 bound_to 10713
  152.9786  135.5836  154.4461 H   0  0  0  0  0  0  0  0  0  0  0  0  # atno 10763 bound_to 10752
  154.4056  135.2769  155.2071 H   0  0  0  0  0  0  0  0  0  0  0  0  # atno 10764 bound_to 10752
  154.3883  135.6131  153.5883 H   0  0  0  0  0  0  0  0  0  0  0  0  # atno 10765 bound_to 10752
  139.9635  134.9596  156.9199 H   0  0  0  0  0  0  0  0  0  0  0  0  # atno 11005 bound_to 11000
  145.8417  140.9577  143.0796 LP  0  0  0  0  0  0  0  0  0  0  0  0  # atno 17320 bound_to 7965
  144.6766  140.0293  143.7483 LP  0  0  0  0  0  0  0  0  0  0  0  0  # atno 17321 bound_to 7965
  139.5756  144.1827  152.1898 LP  0  0  0  0  0  0  0  0  0  0  0  0  # atno 17342 bound_to 10162
  140.1136  144.5435  150.6908 LP  0  0  0  0  0  0  0  0  0  0  0  0  # atno 17343 bound_to 10162
  156.6940  130.8907  151.3591 LP  0  0  0  0  0  0  0  0  0  0  0  0  # atno 17370 bound_to 10713
  157.6989  130.9311  150.0726 LP  0  0  0  0  0  0  0  0  0  0  0  0  # atno 17371 bound_to 10713
  140.5448  134.0685  155.7352 LP  0  0  0  0  0  0  0  0  0  0  0  0  # atno 17394 bound_to 11000
  141.1314  133.9296  157.2528 LP  0  0  0  0  0  0  0  0  0  0  0  0  # atno 17395 bound_to 11000

$$$$
