AV-unprocessed.smi:565|AV-procd|sdf|2954|dock1
  -GOLD-   2262023453D 1   1.00000     0.00000
 Structure written by MMmdl.
 50 51  0  0  0  0  0  0  0  0  2 V2000
  153.1041  137.7632  156.8066 C   0  0  0  0  0  0  0  0  0  0  0  0
  152.1854  138.8973  156.4514 C   0  0  0  0  0  0  0  0  0  0  0  0
  152.2251  140.0108  157.1638 N   0  0  0  0  0  0  0  0  0  0  0  0
  151.2980  140.8125  156.6031 N   0  0  0  0  0  0  0  0  0  0  0  0
  151.0769  142.1357  157.1530 C   0  0  0  0  0  0  0  0  0  0  0  0
  150.6738  140.2058  155.5305 C   0  0  0  0  0  0  0  0  0  0  0  0
  149.6032  140.8895  154.7421 C   0  0  0  0  0  0  0  0  0  0  0  0
  151.2206  138.9562  155.4030 C   0  0  0  0  0  0  0  0  0  0  0  0
  150.8900  137.8757  154.4040 C   0  0  0  0  0  0  0  0  0  0  0  0
  150.3357  136.6569  155.1409 C   0  0  0  0  0  0  0  0  0  0  0  0
  151.0384  136.0511  155.9498 O   0  0  0  0  0  0  0  0  0  0  0  0
  149.0658  136.3186  154.8680 N   0  0  0  0  0  0  0  0  0  0  0  0
  148.3318  135.2412  155.5186 C   0  0  0  0  0  0  0  0  0  0  0  0
  147.6993  134.2941  154.4806 C   0  0  0  0  0  0  0  0  0  0  0  0
  146.9948  135.0266  153.3989 N   0  3  2  0  0  0  0  0  0  0  0  0
  146.1786  136.1513  153.9239 C   0  0  0  0  0  0  0  0  0  0  0  0
  145.5726  136.9775  152.7785 C   0  0  0  0  0  0  0  0  0  0  0  0
  144.7391  136.0913  151.8447 C   0  0  0  0  0  0  0  0  0  0  0  0
  145.5849  134.9135  151.3317 C   0  0  2  0  0  0  0  0  0  0  0  0
  144.7658  133.9929  150.4161 C   0  0  0  0  0  0  0  0  0  0  0  0
  146.1925  134.1361  152.5170 C   0  0  0  0  0  0  0  0  0  0  0  0
  152.5906  136.8046  156.7329 H   0  0  0  0  0  0  0  0  0  0  0  0
  153.4831  137.8548  157.8252 H   0  0  0  0  0  0  0  0  0  0  0  0
  153.9614  137.7330  156.1342 H   0  0  0  0  0  0  0  0  0  0  0  0
  150.0104  142.2949  157.3133 H   0  0  0  0  0  0  0  0  0  0  0  0
  151.4493  142.8874  156.4566 H   0  0  0  0  0  0  0  0  0  0  0  0
  151.5952  142.2481  158.1065 H   0  0  0  0  0  0  0  0  0  0  0  0
  149.3864  140.3525  153.8190 H   0  0  0  0  0  0  0  0  0  0  0  0
  149.9022  141.9029  154.4733 H   0  0  0  0  0  0  0  0  0  0  0  0
  148.6804  140.9503  155.3191 H   0  0  0  0  0  0  0  0  0  0  0  0
  150.1614  138.2147  153.6673 H   0  0  0  0  0  0  0  0  0  0  0  0
  151.7726  137.5776  153.8370 H   0  0  0  0  0  0  0  0  0  0  0  0
  148.5654  136.8691  154.1850 H   0  0  0  0  0  0  0  0  0  0  0  0
  149.0293  134.6891  156.1490 H   0  0  0  0  0  0  0  0  0  0  0  0
  147.5822  135.6689  156.1849 H   0  0  0  0  0  0  0  0  0  0  0  0
  148.4469  133.6304  154.0436 H   0  0  0  0  0  0  0  0  0  0  0  0
  146.9899  133.6512  155.0038 H   0  0  0  0  0  0  0  0  0  0  0  0
  145.3885  135.7605  154.5672 H   0  0  0  0  0  0  0  0  0  0  0  0
  146.7986  136.8022  154.5419 H   0  0  0  0  0  0  0  0  0  0  0  0
  144.9531  137.7781  153.1836 H   0  0  0  0  0  0  0  0  0  0  0  0
  146.3702  137.4599  152.2117 H   0  0  0  0  0  0  0  0  0  0  0  0
  143.8639  135.7178  152.3785 H   0  0  0  0  0  0  0  0  0  0  0  0
  144.3651  136.6827  151.0081 H   0  0  0  0  0  0  0  0  0  0  0  0
  146.4061  135.3195  150.7385 H   0  0  0  0  0  0  0  0  0  0  0  0
  143.9241  133.5497  150.9493 H   0  0  0  0  0  0  0  0  0  0  0  0
  145.3783  133.1796  150.0258 H   0  0  0  0  0  0  0  0  0  0  0  0
  144.3668  134.5419  149.5626 H   0  0  0  0  0  0  0  0  0  0  0  0
  146.8175  133.3325  152.1290 H   0  0  0  0  0  0  0  0  0  0  0  0
  145.4020  133.6628  153.1022 H   0  0  0  0  0  0  0  0  0  0  0  0
  147.7113  135.4455  152.8234 H   0  0  0  0  0  0  0  0  0  0  0  0
  1  2  1  0  0  0  0
  1 22  1  0  0  0  0
  1 23  1  0  0  0  0
  1 24  1  0  0  0  0
  2  8  1  0  0  0  0
  2  3  2  0  0  0  0
  3  4  1  0  0  0  0
  4  5  1  0  0  0  0
  4  6  1  0  0  0  0
  5 25  1  0  0  0  0
  5 26  1  0  0  0  0
  5 27  1  0  0  0  0
  6  7  1  0  0  0  0
  6  8  2  0  0  0  0
  7 28  1  0  0  0  0
  7 29  1  0  0  0  0
  7 30  1  0  0  0  0
  8  9  1  0  0  0  0
  9 10  1  0  0  0  0
  9 31  1  0  0  0  0
  9 32  1  0  0  0  0
 10 11  2  0  0  0  0
 10 12  1  0  0  0  0
 12 13  1  0  0  0  0
 12 33  1  0  0  0  0
 13 14  1  0  0  0  0
 13 34  1  0  0  0  0
 13 35  1  0  0  0  0
 14 15  1  0  0  0  0
 14 36  1  0  0  0  0
 14 37  1  0  0  0  0
 15 21  1  0  0  0  0
 15 16  1  0  0  0  0
 15 50  1  0  0  0  0
 16 17  1  0  0  0  0
 16 38  1  0  0  0  0
 16 39  1  0  0  0  0
 17 18  1  0  0  0  0
 17 40  1  0  0  0  0
 17 41  1  0  0  0  0
 18 19  1  0  0  0  0
 18 42  1  0  0  0  0
 18 43  1  0  0  0  0
 19 20  1  0  0  0  0
 19 21  1  0  0  0  0
 19 44  1  0  0  0  0
 20 45  1  0  0  0  0
 20 46  1  0  0  0  0
 20 47  1  0  0  0  0
 21 48  1  0  0  0  0
 21 49  1  0  0  0  0
M  CHG  1  15   1
M  END
> <s_m_source_file>
AV-unprocessed.smi

> <i_m_source_file_index>
565

> <i_lp_mmshare_version>
43012

> <i_f3d_flags>
0

> <s_epik_input>
W0NIM11jMW5uKFtDSDNdKWMoW0NIM10pYzFbQ0gyXUMoPU8pW05IXVtDSDJdW0NIMl1OMltDSDJdW0NIMl1bQ0gyXVtDQEBIXShbQ0gzXSlbQ0gyXTI=

> <s_epik_cmdline>
J2VwaWtfcHl0aG9uJywgJy1waCcsICc3LjAnLCAnLXRuJywgJzgnLCAnLW1hJywgJzIwMCcsICctbWV0YWxfYmluZGluZycsICctaW1hZScsICc8aW5maWxlLm1hZT4nLCAnLW9tYWUnLCAnPG91dGZpbGUubWFlPic=

> <r_lp_tautomer_probability>
1

> <r_epik_Ionization_Penalty>
0.00411138

> <r_epik_Ionization_Penalty_Charging>
0.0019503

> <r_epik_Ionization_Penalty_Neutral>
0.00216107

> <r_epik_State_Penalty>
-0

> <r_epik_Charging_Adjusted_Penalty>
0.0019503

> <i_epik_Tot_Q>
1

> <i_epik_Tot_abs_Q>
1

> <r_epik_Metal_State_Penalty>
-0

> <b_epik_Metal_Only>
0

> <s_lp_Force_Field>
OPLS_2005

> <r_lp_Energy>
10.1844

> <b_lp_Chiralities_Consistent>
1

> <s_lp_Variant>
AV-unprocessed.smi:565-4

> <Gold.Version>
5.8.1

> <Gold.Id.Protein>
6NUR|6NUR_protein|mol2

> <Gold.PLP.Fitness>
46.3954

> <Gold.PLP.PLP>
-35.6019

> <Gold.PLP.part.hbond>
-4.0000

> <Gold.PLP.part.metal>
0.0000

> <Gold.PLP.part.buried>
0.2135

> <Gold.PLP.part.nonpolar>
-31.8006

> <Gold.PLP.part.repulsive>
0.1096

> <Gold.PLP.ligand.clash>
0.0000

> <Gold.PLP.ligand.torsion>
0.1846

> <Gold.PLP.Chemscore.Hbond>
3.6988

> <Gold.PLP.Chemscore.CHOScore>
0.0000

> <Gold.PLP.Chemscore.Metal>
0.0000

> <Gold.Chemscore.Hbonds>
donor molecule, donor type, donor heavy atom, donor atom, acceptor molecule, acceptor atom, score
      L1  H    15    50       P1  7948  2.00
      P1  H  7997  8008       L1     3  0.18

> <Gold.PLP.Chemscore.Internal.Correction>
0.0664

> <Gold.Rescore>
     Score         DG    S(hbond)    S(metal)    S(lipo)     H(rot)  DE(clash)    DE(int)     intcor
     16.86     -18.50       2.13        0.00      85.80       1.61       0.10       1.53       ----

> <Gold.Chemscore.Fitness>
16.8614

> <Gold.Chemscore.DG>
-18.4956

> <Gold.Chemscore.ZeroCoef>
-5.4800

> <Gold.Chemscore.Hbond>
2.1286

> <Gold.Chemscore.Metal>
0.0000

> <Gold.Chemscore.Lipo>
85.7982

> <Gold.Chemscore.Internal_Hbond>
0.0000

> <Gold.Chemscore.DEClash>
0.1048

> <Gold.Chemscore.DEInternal>
1.5294

> <Gold.Chemscore.Rot>
1.6142

> <Gold.Chemscore.Internal.Correction>
   9.000000E+99

> <Gold.Chemscore.Hbonds>
donor molecule, donor type, donor heavy atom, donor atom, acceptor molecule, acceptor atom, score
      L1  H    12    33       P1  7948  0.02
      L1  H    15    50       P1  7948  1.00
      P1  H 10752 10763       L1    11  0.01

> <Gold.Chemscore.Hbond.Weighted>
-7.1097

> <Gold.Chemscore.Metal.Weighted>
-0.0000

> <Gold.Chemscore.Lipo.Weighted>
-10.0384

> <Gold.Chemscore.Internal_Hbond.Weighted>
0.0000

> <Gold.Chemscore.DEClash.Weighted>
0.1048

> <Gold.Chemscore.DEInternal.Weighted>
1.5294

> <Gold.Chemscore.Rot.Weighted>
4.1324

> <Gold.Chemscore.Internal.Correction.Weighted>
   9.000000E+99

> <Gold.Protein.RotatedTorsions>
[ 6907 6896 6895 6894 ] final  141.50 input  -60.11 | X-H torsion
[ 7974 7965 7964 7962 ] final   27.17 input  175.53 | X-H torsion
[ 8008 7997 7996 7995 ] final  -66.05 input   59.86 | X-H torsion
[ 10167 10162 10161 10158 ] final  -11.09 input  -65.29 | X-H torsion
[ 10718 10713 10712 10709 ] final -136.03 input   66.30 | X-H torsion
[ 10763 10752 10751 10750 ] final   49.48 input  -60.55 | X-H torsion
[ 11005 11000 10999 10996 ] final  -35.81 input  -57.11 | X-H torsion

> <Gold.Protein.ActiveResidues>
 VAL166  LYS551  ARG553  GLY616  TRP617  ASP618  TYR619  PRO620  LYS621  CYS622 
 ASP623  PHE694  ASN695  SER759  ASP760  ASP761  ALA762  ILE779  LEU786  VAL792 
 PHE793  MET794  SER795  GLU796  ALA797  LYS798  CYS799  TRP800  GLU811  SER814 

> <Gold.Protein.RotatedAtoms>
  152.2302  133.5052  159.5210 H   0  0  0  0  0  0  0  0  0  0  0  0  # atno 6907 bound_to 6896
  150.7035  134.1227  159.4050 H   0  0  0  0  0  0  0  0  0  0  0  0  # atno 6908 bound_to 6896
  151.9148  135.0323  160.0568 H   0  0  0  0  0  0  0  0  0  0  0  0  # atno 6909 bound_to 6896
  146.1799  139.7228  142.8908 H   0  0  0  0  0  0  0  0  0  0  0  0  # atno 7974 bound_to 7965
  154.4710  140.0920  156.7144 H   0  0  0  0  0  0  0  0  0  0  0  0  # atno 8008 bound_to 7997
  155.4725  140.3465  155.4309 H   0  0  0  0  0  0  0  0  0  0  0  0  # atno 8009 bound_to 7997
  156.1038  140.1429  156.9420 H   0  0  0  0  0  0  0  0  0  0  0  0  # atno 8010 bound_to 7997
  140.7130  143.5677  150.9126 H   0  0  0  0  0  0  0  0  0  0  0  0  # atno 10167 bound_to 10162
  156.2726  130.7274  151.1246 H   0  0  0  0  0  0  0  0  0  0  0  0  # atno 10718 bound_to 10713
  152.9787  135.5910  154.4095 H   0  0  0  0  0  0  0  0  0  0  0  0  # atno 10763 bound_to 10752
  154.3732  135.2767  155.2256 H   0  0  0  0  0  0  0  0  0  0  0  0  # atno 10764 bound_to 10752
  154.4202  135.6061  153.6060 H   0  0  0  0  0  0  0  0  0  0  0  0  # atno 10765 bound_to 10752
  140.9825  133.7048  156.1709 H   0  0  0  0  0  0  0  0  0  0  0  0  # atno 11005 bound_to 11000
  145.4107  141.0396  143.3019 LP  0  0  0  0  0  0  0  0  0  0  0  0  # atno 17320 bound_to 7965
  144.8297  139.5649  143.6949 LP  0  0  0  0  0  0  0  0  0  0  0  0  # atno 17321 bound_to 7965
  139.9403  143.6389  152.3055 LP  0  0  0  0  0  0  0  0  0  0  0  0  # atno 17342 bound_to 10162
  139.6872  144.7650  151.1503 LP  0  0  0  0  0  0  0  0  0  0  0  0  # atno 17343 bound_to 10162
  157.7289  131.0628  150.5800 LP  0  0  0  0  0  0  0  0  0  0  0  0  # atno 17370 bound_to 10713
  156.5898  130.4326  149.5941 LP  0  0  0  0  0  0  0  0  0  0  0  0  # atno 17371 bound_to 10713
  140.7164  134.4405  157.5578 LP  0  0  0  0  0  0  0  0  0  0  0  0  # atno 17394 bound_to 11000
  139.8956  134.8678  156.2123 LP  0  0  0  0  0  0  0  0  0  0  0  0  # atno 17395 bound_to 11000

$$$$
