AV-unprocessed.smi:2686|AV-procd|sdf|10384|dock2
  -GOLD-   2272014413D 1   1.00000     0.00000
 Structure written by MMmdl.
 32 32  0  0  0  0  0  0  0  0  1 V2000
  147.1023  139.3974  152.8533 C   0  0  0  0  0  0  0  0  0  0  0  0
  148.3700  138.8543  153.3169 N   0  0  0  0  0  0  0  0  0  0  0  0
  149.2006  139.4876  154.1567 C   0  0  0  0  0  0  0  0  0  0  0  0
  148.9562  140.5950  154.6377 O   0  0  0  0  0  0  0  0  0  0  0  0
  150.4910  138.7422  154.5212 C   0  0  0  0  0  0  0  0  0  0  0  0
  150.7191  138.6725  155.9626 N   0  0  0  0  0  0  0  0  0  0  0  0
  151.6260  139.3969  156.6366 C   0  0  0  0  0  0  0  0  0  0  0  0
  152.3877  140.1962  156.0895 O   0  0  0  0  0  0  0  0  0  0  0  0
  151.6610  139.1767  158.1559 C   0  0  0  0  0  0  0  0  0  0  0  0
  152.2144  140.3179  158.9040 N   0  0  0  0  0  0  0  0  0  0  0  0
  151.7597  141.5998  158.5377 C   0  0  0  0  0  0  0  0  0  0  0  0
  152.1781  142.7274  159.1438 C   0  0  0  0  0  0  0  0  0  0  0  0
  151.7154  144.1012  158.6842 C   0  0  0  0  0  0  0  0  0  0  0  0
  150.3961  144.2348  158.8227 F   0  0  0  0  0  0  0  0  0  0  0  0
  152.3101  145.0692  159.3827 F   0  0  0  0  0  0  0  0  0  0  0  0
  152.0169  144.2736  157.3979 F   0  0  0  0  0  0  0  0  0  0  0  0
  153.1647  142.5667  160.1939 C   0  0  0  0  0  0  0  0  0  0  0  0
  153.6210  141.3490  160.5467 C   0  0  0  0  0  0  0  0  0  0  0  0
  153.1432  140.1305  159.8889 C   0  0  0  0  0  0  0  0  0  0  0  0
  153.5539  139.0129  160.2022 O   0  0  0  0  0  0  0  0  0  0  0  0
  146.5804  138.6576  152.2466 H   0  0  0  0  0  0  0  0  0  0  0  0
  147.2647  140.2864  152.2427 H   0  0  0  0  0  0  0  0  0  0  0  0
  146.4593  139.6653  153.6930 H   0  0  0  0  0  0  0  0  0  0  0  0
  148.6390  137.9455  152.9685 H   0  0  0  0  0  0  0  0  0  0  0  0
  150.4231  137.7248  154.1355 H   0  0  0  0  0  0  0  0  0  0  0  0
  151.3480  139.2070  154.0300 H   0  0  0  0  0  0  0  0  0  0  0  0
  150.1282  138.0435  156.4868 H   0  0  0  0  0  0  0  0  0  0  0  0
  150.6468  138.9643  158.4978 H   0  0  0  0  0  0  0  0  0  0  0  0
  152.2266  138.2672  158.3657 H   0  0  0  0  0  0  0  0  0  0  0  0
  151.0530  141.6075  157.7203 H   0  0  0  0  0  0  0  0  0  0  0  0
  153.5429  143.4375  160.7086 H   0  0  0  0  0  0  0  0  0  0  0  0
  154.3557  141.2675  161.3341 H   0  0  0  0  0  0  0  0  0  0  0  0
  1  2  1  0  0  0  0
  1 21  1  0  0  0  0
  1 22  1  0  0  0  0
  1 23  1  0  0  0  0
  2  3  1  0  0  0  0
  2 24  1  0  0  0  0
  3  4  2  0  0  0  0
  3  5  1  0  0  0  0
  5  6  1  0  0  0  0
  5 25  1  0  0  0  0
  5 26  1  0  0  0  0
  6  7  1  0  0  0  0
  6 27  1  0  0  0  0
  7  8  2  0  0  0  0
  7  9  1  0  0  0  0
  9 10  1  0  0  0  0
  9 28  1  0  0  0  0
  9 29  1  0  0  0  0
 10 19  1  0  0  0  0
 10 11  1  0  0  0  0
 11 12  2  0  0  0  0
 11 30  1  0  0  0  0
 12 13  1  0  0  0  0
 12 17  1  0  0  0  0
 13 14  1  0  0  0  0
 13 15  1  0  0  0  0
 13 16  1  0  0  0  0
 17 18  2  0  0  0  0
 17 31  1  0  0  0  0
 18 19  1  0  0  0  0
 18 32  1  0  0  0  0
 19 20  2  0  0  0  0
M  END
> <s_m_source_file>
AV-unprocessed.smi

> <i_m_source_file_index>
2686

> <i_lp_mmshare_version>
43012

> <i_f3d_flags>
0

> <s_epik_input>
W0NIM11bTkhdQyg9TylbQ0gyXVtOSF1DKD1PKVtDSDJdbjFbY0hdYyhDKEYpKEYpRilbY0hdW2NIXWMxPU8=

> <s_epik_cmdline>
J2VwaWtfcHl0aG9uJywgJy1waCcsICc3LjAnLCAnLXRuJywgJzgnLCAnLW1hJywgJzIwMCcsICctbWV0YWxfYmluZGluZycsICctaW1hZScsICc8aW5maWxlLm1hZT4nLCAnLW9tYWUnLCAnPG91dGZpbGUubWFlPic=

> <r_lp_tautomer_probability>
1

> <r_epik_Ionization_Penalty>
8.267e-08

> <r_epik_Ionization_Penalty_Charging>
1.5129e-08

> <r_epik_Ionization_Penalty_Neutral>
6.7541e-08

> <r_epik_State_Penalty>
-0

> <r_epik_Charging_Adjusted_Penalty>
1.5129e-08

> <i_epik_Tot_Q>
0

> <i_epik_Tot_abs_Q>
0

> <r_epik_Metal_State_Penalty>
-0

> <b_epik_Metal_Only>
0

> <s_lp_Force_Field>
OPLS_2005

> <r_lp_Energy>
10.5627

> <b_lp_Chiralities_Consistent>
1

> <s_lp_Variant>
AV-unprocessed.smi:2686-1

> <Gold.Version>
5.8.1

> <Gold.Id.Protein>
6NUR|6NUR_protein|mol2

> <Gold.PLP.Fitness>
48.9172

> <Gold.PLP.PLP>
-44.2809

> <Gold.PLP.part.hbond>
-3.0000

> <Gold.PLP.part.metal>
0.0000

> <Gold.PLP.part.buried>
-3.4318

> <Gold.PLP.part.nonpolar>
-37.7635

> <Gold.PLP.part.repulsive>
0.1910

> <Gold.PLP.ligand.clash>
0.0000

> <Gold.PLP.ligand.torsion>
0.7046

> <Gold.PLP.Chemscore.Hbond>
2.0000

> <Gold.PLP.Chemscore.CHOScore>
0.0000

> <Gold.PLP.Chemscore.Metal>
0.0000

> <Gold.Chemscore.Hbonds>
donor molecule, donor type, donor heavy atom, donor atom, acceptor molecule, acceptor atom, score
      L1  H     2    24       P1  7948  0.98
      P1  H  7997  8010       L1     8  1.00

> <Gold.PLP.Chemscore.Internal.Correction>
0.0455

> <Gold.Rescore>
     Score         DG    S(hbond)    S(metal)    S(lipo)     H(rot)  DE(clash)    DE(int)     intcor
     13.59     -14.21       1.98        0.00      68.78       2.32       0.08       0.54       ----

> <Gold.Chemscore.Fitness>
13.5851

> <Gold.Chemscore.DG>
-14.2058

> <Gold.Chemscore.ZeroCoef>
-5.4800

> <Gold.Chemscore.Hbond>
1.9803

> <Gold.Chemscore.Metal>
0.0000

> <Gold.Chemscore.Lipo>
68.7766

> <Gold.Chemscore.Internal_Hbond>
0.0000

> <Gold.Chemscore.DEClash>
0.0799

> <Gold.Chemscore.DEInternal>
0.5408

> <Gold.Chemscore.Rot>
2.3184

> <Gold.Chemscore.Internal.Correction>
   9.000000E+99

> <Gold.Chemscore.Hbonds>
donor molecule, donor type, donor heavy atom, donor atom, acceptor molecule, acceptor atom, score
      L1  H     2    24       P1  7948  0.91
      P1  H  7997  8010       L1     8  0.95

> <Gold.Chemscore.Hbond.Weighted>
-6.6141

> <Gold.Chemscore.Metal.Weighted>
-0.0000

> <Gold.Chemscore.Lipo.Weighted>
-8.0469

> <Gold.Chemscore.Internal_Hbond.Weighted>
0.0000

> <Gold.Chemscore.DEClash.Weighted>
0.0799

> <Gold.Chemscore.DEInternal.Weighted>
0.5408

> <Gold.Chemscore.Rot.Weighted>
5.9352

> <Gold.Chemscore.Internal.Correction.Weighted>
   9.000000E+99

> <Gold.Protein.RotatedTorsions>
[ 6907 6896 6895 6894 ] final  -53.59 input  -60.11 | X-H torsion
[ 7974 7965 7964 7962 ] final  110.97 input  175.53 | X-H torsion
[ 8008 7997 7996 7995 ] final   90.70 input   59.86 | X-H torsion
[ 10167 10162 10161 10158 ] final  -28.98 input  -65.29 | X-H torsion
[ 10718 10713 10712 10709 ] final   -1.08 input   66.30 | X-H torsion
[ 10763 10752 10751 10750 ] final -123.18 input  -60.55 | X-H torsion
[ 11005 11000 10999 10996 ] final  -70.36 input  -57.11 | X-H torsion

> <Gold.Protein.ActiveResidues>
 VAL166  LYS551  ARG553  GLY616  TRP617  ASP618  TYR619  PRO620  LYS621  CYS622 
 ASP623  PHE694  ASN695  SER759  ASP760  ASP761  ALA762  ILE779  LEU786  VAL792 
 PHE793  MET794  SER795  GLU796  ALA797  LYS798  CYS799  TRP800  GLU811  SER814 

> <Gold.Protein.RotatedAtoms>
  150.8413  134.7706  159.6934 H   0  0  0  0  0  0  0  0  0  0  0  0  # atno 6907 bound_to 6896
  152.4500  134.5411  159.9849 H   0  0  0  0  0  0  0  0  0  0  0  0  # atno 6908 bound_to 6896
  151.5550  133.3374  159.2996 H   0  0  0  0  0  0  0  0  0  0  0  0  # atno 6909 bound_to 6896
  145.2482  139.2750  143.4081 H   0  0  0  0  0  0  0  0  0  0  0  0  # atno 7974 bound_to 7965
  156.0151  140.3346  155.6981 H   0  0  0  0  0  0  0  0  0  0  0  0  # atno 8008 bound_to 7997
  155.6102  140.0664  157.2726 H   0  0  0  0  0  0  0  0  0  0  0  0  # atno 8009 bound_to 7997
  154.4295  140.1795  156.1252 H   0  0  0  0  0  0  0  0  0  0  0  0  # atno 8010 bound_to 7997
  140.7265  143.3965  151.1338 H   0  0  0  0  0  0  0  0  0  0  0  0  # atno 10167 bound_to 10162
  156.8110  130.5424  149.5709 H   0  0  0  0  0  0  0  0  0  0  0  0  # atno 10718 bound_to 10713
  154.8703  135.4107  154.2901 H   0  0  0  0  0  0  0  0  0  0  0  0  # atno 10763 bound_to 10752
  153.3779  135.7010  153.6593 H   0  0  0  0  0  0  0  0  0  0  0  0  # atno 10764 bound_to 10752
  153.5428  135.3644  155.2697 H   0  0  0  0  0  0  0  0  0  0  0  0  # atno 10765 bound_to 10752
  141.1572  133.6788  156.6740 H   0  0  0  0  0  0  0  0  0  0  0  0  # atno 11005 bound_to 11000
  146.3310  140.2865  142.8613 LP  0  0  0  0  0  0  0  0  0  0  0  0  # atno 17320 bound_to 7965
  144.9527  140.8195  143.5562 LP  0  0  0  0  0  0  0  0  0  0  0  0  # atno 17321 bound_to 7965
  139.7579  143.8680  152.3093 LP  0  0  0  0  0  0  0  0  0  0  0  0  # atno 17342 bound_to 10162
  139.8556  144.7143  150.9161 LP  0  0  0  0  0  0  0  0  0  0  0  0  # atno 17343 bound_to 10162
  156.1045  130.5994  150.9947 LP  0  0  0  0  0  0  0  0  0  0  0  0  # atno 17370 bound_to 10713
  157.6506  131.0897  150.8059 LP  0  0  0  0  0  0  0  0  0  0  0  0  # atno 17371 bound_to 10713
  140.3153  134.8052  157.4209 LP  0  0  0  0  0  0  0  0  0  0  0  0  # atno 17394 bound_to 11000
  140.1143  134.5303  155.8238 LP  0  0  0  0  0  0  0  0  0  0  0  0  # atno 17395 bound_to 11000

$$$$
