AV-unprocessed.smi:2452|AV-procd|sdf|9686|dock6
  -GOLD-   2272013323D 1   1.00000     0.00000
 Structure written by MMmdl.
 34 35  0  0  0  0  0  0  0  0  1 V2000
  151.3512  138.1069  154.2044 C   0  0  0  0  0  0  0  0  0  0  0  0
  150.4723  139.3121  154.3775 C   0  0  0  0  0  0  0  0  0  0  0  0
  150.9434  140.3942  154.9753 N   0  0  0  0  0  0  0  0  0  0  0  0
  149.8919  141.3234  154.9926 O   0  0  0  0  0  0  0  0  0  0  0  0
  148.7985  140.7755  154.3958 C   0  0  0  0  0  0  0  0  0  0  0  0
  147.5662  141.6187  154.3817 C   0  0  0  0  0  0  0  0  0  0  0  0
  149.1283  139.5165  153.9691 C   0  0  0  0  0  0  0  0  0  0  0  0
  148.3276  138.5409  153.3214 N   0  0  0  0  0  0  0  0  0  0  0  0
  146.9965  138.3928  153.4063 C   0  0  0  0  0  0  0  0  0  0  0  0
  146.2438  139.1234  154.0498 O   0  0  0  0  0  0  0  0  0  0  0  0
  146.5745  137.3512  152.6768 N   0  0  0  0  0  0  0  0  0  0  0  0
  145.1858  136.9213  152.5580 C   0  0  0  0  0  0  0  0  0  0  0  0
  145.0579  135.6507  151.7014 C   0  0  1  0  0  0  0  0  0  0  0  0
  146.0440  134.5475  152.0801 C   0  0  0  0  0  0  0  0  0  0  0  0
  145.3417  133.2717  151.6387 C   0  0  0  0  0  0  0  0  0  0  0  0
  143.8975  133.7090  151.3770 C   0  0  0  0  0  0  0  0  0  0  0  0
  143.8050  135.0202  151.9152 O   0  0  0  0  0  0  0  0  0  0  0  0
  150.7595  137.1991  154.0856 H   0  0  0  0  0  0  0  0  0  0  0  0
  152.0028  137.9636  155.0669 H   0  0  0  0  0  0  0  0  0  0  0  0
  151.9830  138.2090  153.3219 H   0  0  0  0  0  0  0  0  0  0  0  0
  146.6738  141.0082  154.5194 H   0  0  0  0  0  0  0  0  0  0  0  0
  147.4740  142.1536  153.4365 H   0  0  0  0  0  0  0  0  0  0  0  0
  147.5899  142.3571  155.1833 H   0  0  0  0  0  0  0  0  0  0  0  0
  148.8073  137.9427  152.6651 H   0  0  0  0  0  0  0  0  0  0  0  0
  147.2625  136.8069  152.1777 H   0  0  0  0  0  0  0  0  0  0  0  0
  144.7664  136.7508  153.5509 H   0  0  0  0  0  0  0  0  0  0  0  0
  144.6104  137.7342  152.1140 H   0  0  0  0  0  0  0  0  0  0  0  0
  145.1630  135.8857  150.6403 H   0  0  0  0  0  0  0  0  0  0  0  0
  147.0198  134.6800  151.6117 H   0  0  0  0  0  0  0  0  0  0  0  0
  146.1907  134.5258  153.1610 H   0  0  0  0  0  0  0  0  0  0  0  0
  145.7891  132.8582  150.7341 H   0  0  0  0  0  0  0  0  0  0  0  0
  145.3962  132.5111  152.4183 H   0  0  0  0  0  0  0  0  0  0  0  0
  143.6969  133.7474  150.3053 H   0  0  0  0  0  0  0  0  0  0  0  0
  143.1668  133.0422  151.8358 H   0  0  0  0  0  0  0  0  0  0  0  0
  1  2  1  0  0  0  0
  1 18  1  0  0  0  0
  1 19  1  0  0  0  0
  1 20  1  0  0  0  0
  2  7  1  0  0  0  0
  2  3  2  0  0  0  0
  3  4  1  0  0  0  0
  4  5  1  0  0  0  0
  5  6  1  0  0  0  0
  5  7  2  0  0  0  0
  6 21  1  0  0  0  0
  6 22  1  0  0  0  0
  6 23  1  0  0  0  0
  7  8  1  0  0  0  0
  8  9  1  0  0  0  0
  8 24  1  0  0  0  0
  9 10  2  0  0  0  0
  9 11  1  0  0  0  0
 11 12  1  0  0  0  0
 11 25  1  0  0  0  0
 12 13  1  0  0  0  0
 12 26  1  0  0  0  0
 12 27  1  0  0  0  0
 13 17  1  0  0  0  0
 13 14  1  0  0  0  0
 13 28  1  0  0  0  0
 14 15  1  0  0  0  0
 14 29  1  0  0  0  0
 14 30  1  0  0  0  0
 15 16  1  0  0  0  0
 15 31  1  0  0  0  0
 15 32  1  0  0  0  0
 16 17  1  0  0  0  0
 16 33  1  0  0  0  0
 16 34  1  0  0  0  0
M  END
> <s_m_source_file>
AV-unprocessed.smi

> <i_m_source_file_index>
2452

> <i_lp_mmshare_version>
43012

> <i_f3d_flags>
0

> <s_epik_input>
W0NIM11jMW5vYyhbQ0gzXSljMVtOSF1DKD1PKVtOSF1bQ0gyXVtDQEBIXTJbQ0gyXVtDSDJdW0NIMl1PMg==

> <s_epik_cmdline>
J2VwaWtfcHl0aG9uJywgJy1waCcsICc3LjAnLCAnLXRuJywgJzgnLCAnLW1hJywgJzIwMCcsICctbWV0YWxfYmluZGluZycsICctaW1hZScsICc8aW5maWxlLm1hZT4nLCAnLW9tYWUnLCAnPG91dGZpbGUubWFlPic=

> <r_lp_tautomer_probability>
1

> <r_epik_Ionization_Penalty>
3.28451e-05

> <r_epik_Ionization_Penalty_Charging>
0

> <r_epik_Ionization_Penalty_Neutral>
3.28451e-05

> <r_epik_State_Penalty>
-0

> <r_epik_Charging_Adjusted_Penalty>
0

> <i_epik_Tot_Q>
0

> <i_epik_Tot_abs_Q>
0

> <r_epik_Metal_State_Penalty>
-0

> <b_epik_Metal_Only>
0

> <s_lp_Force_Field>
OPLS_2005

> <r_lp_Energy>
18.1661

> <b_lp_Chiralities_Consistent>
1

> <s_lp_Variant>
AV-unprocessed.smi:2452-2

> <Gold.Version>
5.8.1

> <Gold.Id.Protein>
6NUR|6NUR_protein|mol2

> <Gold.PLP.Fitness>
37.2279

> <Gold.PLP.PLP>
-30.6191

> <Gold.PLP.part.hbond>
-5.0000

> <Gold.PLP.part.metal>
0.0000

> <Gold.PLP.part.buried>
-2.3294

> <Gold.PLP.part.nonpolar>
-24.7328

> <Gold.PLP.part.repulsive>
0.6164

> <Gold.PLP.ligand.clash>
0.0000

> <Gold.PLP.ligand.torsion>
0.2920

> <Gold.PLP.Chemscore.Hbond>
2.3500

> <Gold.PLP.Chemscore.CHOScore>
0.0000

> <Gold.PLP.Chemscore.Metal>
0.0000

> <Gold.Chemscore.Hbonds>
donor molecule, donor type, donor heavy atom, donor atom, acceptor molecule, acceptor atom, score
      L1  H     8    24       P1  7948  0.99
      L1  H    11    25       P1  7948  1.00
      P1  H  7989  7998       L1     3  0.38

> <Gold.PLP.Chemscore.Internal.Correction>
0.1429

> <Gold.Rescore>
     Score         DG    S(hbond)    S(metal)    S(lipo)     H(rot)  DE(clash)    DE(int)     intcor
     15.60     -16.12       1.92        0.00      63.15       1.23       0.11       0.42       ----

> <Gold.Chemscore.Fitness>
15.5970

> <Gold.Chemscore.DG>
-16.1248

> <Gold.Chemscore.ZeroCoef>
-5.4800

> <Gold.Chemscore.Hbond>
1.9205

> <Gold.Chemscore.Metal>
0.0000

> <Gold.Chemscore.Lipo>
63.1497

> <Gold.Chemscore.Internal_Hbond>
0.0000

> <Gold.Chemscore.DEClash>
0.1065

> <Gold.Chemscore.DEInternal>
0.4212

> <Gold.Chemscore.Rot>
1.2337

> <Gold.Chemscore.Internal.Correction>
   9.000000E+99

> <Gold.Chemscore.Hbonds>
donor molecule, donor type, donor heavy atom, donor atom, acceptor molecule, acceptor atom, score
      L1  H     8    24       P1  7948  0.94
      L1  H    11    25       P1  7948  0.98

> <Gold.Chemscore.Hbond.Weighted>
-6.4144

> <Gold.Chemscore.Metal.Weighted>
-0.0000

> <Gold.Chemscore.Lipo.Weighted>
-7.3885

> <Gold.Chemscore.Internal_Hbond.Weighted>
0.0000

> <Gold.Chemscore.DEClash.Weighted>
0.1065

> <Gold.Chemscore.DEInternal.Weighted>
0.4212

> <Gold.Chemscore.Rot.Weighted>
3.1582

> <Gold.Chemscore.Internal.Correction.Weighted>
   9.000000E+99

> <Gold.Protein.RotatedTorsions>
[ 6907 6896 6895 6894 ] final  -75.84 input  -60.11 | X-H torsion
[ 7974 7965 7964 7962 ] final -120.41 input  175.53 | X-H torsion
[ 8008 7997 7996 7995 ] final -115.44 input   59.86 | X-H torsion
[ 10167 10162 10161 10158 ] final -145.22 input  -65.29 | X-H torsion
[ 10718 10713 10712 10709 ] final   96.83 input   66.30 | X-H torsion
[ 10763 10752 10751 10750 ] final  -22.29 input  -60.55 | X-H torsion
[ 11005 11000 10999 10996 ] final  -58.61 input  -57.11 | X-H torsion

> <Gold.Protein.ActiveResidues>
 VAL166  LYS551  ARG553  GLY616  TRP617  ASP618  TYR619  PRO620  LYS621  CYS622 
 ASP623  PHE694  ASN695  SER759  ASP760  ASP761  ALA762  ILE779  LEU786  VAL792 
 PHE793  MET794  SER795  GLU796  ALA797  LYS798  CYS799  TRP800  GLU811  SER814 

> <Gold.Protein.RotatedAtoms>
  150.7046  134.4662  159.5403 H   0  0  0  0  0  0  0  0  0  0  0  0  # atno 6907 bound_to 6896
  152.2327  134.8304  160.0480 H   0  0  0  0  0  0  0  0  0  0  0  0  # atno 6908 bound_to 6896
  151.9114  133.3527  159.3901 H   0  0  0  0  0  0  0  0  0  0  0  0  # atno 6909 bound_to 6896
  145.0517  140.8223  143.4205 H   0  0  0  0  0  0  0  0  0  0  0  0  # atno 7974 bound_to 7965
  155.0521  140.0393  157.2547 H   0  0  0  0  0  0  0  0  0  0  0  0  # atno 8008 bound_to 7997
  154.7129  140.2696  155.6589 H   0  0  0  0  0  0  0  0  0  0  0  0  # atno 8009 bound_to 7997
  156.2794  140.2718  156.1776 H   0  0  0  0  0  0  0  0  0  0  0  0  # atno 8010 bound_to 7997
  139.7826  143.8079  152.2640 H   0  0  0  0  0  0  0  0  0  0  0  0  # atno 10167 bound_to 10162
  157.6921  131.0590  150.4551 H   0  0  0  0  0  0  0  0  0  0  0  0  # atno 10718 bound_to 10713
  153.6497  135.6981  153.5213 H   0  0  0  0  0  0  0  0  0  0  0  0  # atno 10763 bound_to 10752
  153.2717  135.4213  155.0993 H   0  0  0  0  0  0  0  0  0  0  0  0  # atno 10764 bound_to 10752
  154.8479  135.3580  154.6041 H   0  0  0  0  0  0  0  0  0  0  0  0  # atno 10765 bound_to 10752
  141.1214  133.6613  156.4947 H   0  0  0  0  0  0  0  0  0  0  0  0  # atno 11005 bound_to 11000
  145.1519  139.2509  143.5436 LP  0  0  0  0  0  0  0  0  0  0  0  0  # atno 17320 bound_to 7965
  146.3518  140.1224  142.8600 LP  0  0  0  0  0  0  0  0  0  0  0  0  # atno 17321 bound_to 7965
  139.8146  144.7321  150.9652 LP  0  0  0  0  0  0  0  0  0  0  0  0  # atno 17342 bound_to 10162
  140.7819  143.4217  151.0831 LP  0  0  0  0  0  0  0  0  0  0  0  0  # atno 17343 bound_to 10162
  156.4899  130.4093  149.6412 LP  0  0  0  0  0  0  0  0  0  0  0  0  # atno 17370 bound_to 10713
  156.3427  130.7390  151.2338 LP  0  0  0  0  0  0  0  0  0  0  0  0  # atno 17371 bound_to 10713
  140.4495  134.6942  157.5032 LP  0  0  0  0  0  0  0  0  0  0  0  0  # atno 17394 bound_to 11000
  140.0175  134.6597  155.9288 LP  0  0  0  0  0  0  0  0  0  0  0  0  # atno 17395 bound_to 11000

$$$$
