AV-unprocessed.smi:78|AV-procd|sdf|775|dock3
  -GOLD-   2262017123D 1   1.00000     0.00000
 Structure written by MMmdl.
 56 59  0  0  0  0  0  0  0  0  1 V2000
  152.8423  144.1369  162.2639 C   0  0  0  0  0  0  0  0  0  0  0  0
  152.5365  144.0857  160.7595 C   0  0  0  0  0  0  0  0  0  0  0  0
  151.3773  145.0374  160.4193 C   0  0  0  0  0  0  0  0  0  0  0  0
  152.2630  142.6307  160.3116 C   0  0  0  0  0  0  0  0  0  0  0  0
  152.4972  142.2962  158.8112 C   0  0  2  0  0  0  0  0  0  0  0  0
  151.9266  143.4365  157.9409 C   0  0  0  0  0  0  0  0  0  0  0  0
  152.4889  144.5299  157.9326 O   0  0  0  0  0  0  0  0  0  0  0  0
  150.8250  143.2184  157.2016 N   0  0  0  0  0  0  0  0  0  0  0  0
  150.0904  141.9593  157.0974 C   0  0  0  0  0  0  0  0  0  0  0  0
  150.4705  140.9352  158.1788 C   0  0  0  0  0  0  0  0  0  0  0  0
  151.9015  140.9993  158.4542 N   0  0  0  0  0  0  0  0  0  0  0  0
  152.5994  139.8540  158.6633 C   0  0  0  0  0  0  0  0  0  0  0  0
  152.5104  138.8703  157.7317 N   0  0  0  0  0  0  0  0  0  0  0  0
  153.1940  137.7330  157.8821 C   0  0  0  0  0  0  0  0  0  0  0  0
  154.0212  137.3819  158.8678 N   0  0  0  0  0  0  0  0  0  0  0  0
  154.1236  138.3676  159.8046 C   0  0  0  0  0  0  0  0  0  0  0  0
  153.4428  139.6182  159.7882 C   0  0  0  0  0  0  0  0  0  0  0  0
  153.7964  140.3580  160.9100 N   0  0  0  0  0  0  0  0  0  0  0  0
  154.6234  139.5850  161.5579 C   0  0  0  0  0  0  0  0  0  0  0  0
  154.9086  138.3843  160.9454 N   0  0  0  0  0  0  0  0  0  0  0  0
  155.7711  137.3376  161.4259 C   0  0  0  0  0  0  0  0  0  0  0  0
  155.2534  135.9095  161.6548 C   0  0  0  0  0  0  0  0  0  0  0  0
  155.1684  136.1837  163.1729 C   0  0  0  0  0  0  0  0  0  0  0  0
  153.8023  136.6858  163.6803 C   0  0  0  0  0  0  0  0  0  0  0  0
  153.8583  137.0612  165.0416 O   0  0  0  0  0  0  0  0  0  0  0  0
  155.6162  135.0550  164.1218 C   0  0  0  0  0  0  0  0  0  0  0  0
  155.7742  135.4963  165.4554 O   0  0  0  0  0  0  0  0  0  0  0  0
  156.1906  137.3101  162.9029 C   0  0  0  0  0  0  0  0  0  0  0  0
  151.9924  143.7935  162.8545 H   0  0  0  0  0  0  0  0  0  0  0  0
  153.0808  145.1519  162.5825 H   0  0  0  0  0  0  0  0  0  0  0  0
  153.6975  143.5081  162.5130 H   0  0  0  0  0  0  0  0  0  0  0  0
  153.4302  144.4510  160.2585 H   0  0  0  0  0  0  0  0  0  0  0  0
  150.4467  144.7090  160.8831 H   0  0  0  0  0  0  0  0  0  0  0  0
  151.2089  145.1044  159.3455 H   0  0  0  0  0  0  0  0  0  0  0  0
  151.5852  146.0477  160.7724 H   0  0  0  0  0  0  0  0  0  0  0  0
  152.8707  141.9581  160.9184 H   0  0  0  0  0  0  0  0  0  0  0  0
  151.2299  142.3962  160.5739 H   0  0  0  0  0  0  0  0  0  0  0  0
  153.5674  142.2908  158.6063 H   0  0  0  0  0  0  0  0  0  0  0  0
  150.4780  143.9889  156.6489 H   0  0  0  0  0  0  0  0  0  0  0  0
  149.0184  142.1564  157.1185 H   0  0  0  0  0  0  0  0  0  0  0  0
  150.3117  141.5421  156.1146 H   0  0  0  0  0  0  0  0  0  0  0  0
  149.9272  141.1430  159.1011 H   0  0  0  0  0  0  0  0  0  0  0  0
  150.1639  139.9435  157.8441 H   0  0  0  0  0  0  0  0  0  0  0  0
  153.0633  137.0021  157.0977 H   0  0  0  0  0  0  0  0  0  0  0  0
  155.0563  139.8885  162.4991 H   0  0  0  0  0  0  0  0  0  0  0  0
  156.6397  137.3430  160.7662 H   0  0  0  0  0  0  0  0  0  0  0  0
  154.3012  135.6648  161.1864 H   0  0  0  0  0  0  0  0  0  0  0  0
  156.0031  135.1615  161.3918 H   0  0  0  0  0  0  0  0  0  0  0  0
  153.4567  137.5393  163.0961 H   0  0  0  0  0  0  0  0  0  0  0  0
  153.0328  135.9207  163.5788 H   0  0  0  0  0  0  0  0  0  0  0  0
  152.9749  137.1647  165.3613 H   0  0  0  0  0  0  0  0  0  0  0  0
  154.8919  134.2398  164.1242 H   0  0  0  0  0  0  0  0  0  0  0  0
  156.5679  134.6292  163.8029 H   0  0  0  0  0  0  0  0  0  0  0  0
  155.0276  136.0277  165.6859 H   0  0  0  0  0  0  0  0  0  0  0  0
  157.2303  137.0033  163.0249 H   0  0  0  0  0  0  0  0  0  0  0  0
  155.9970  138.2294  163.4563 H   0  0  0  0  0  0  0  0  0  0  0  0
  1  2  1  0  0  0  0
  1 29  1  0  0  0  0
  1 30  1  0  0  0  0
  1 31  1  0  0  0  0
  2  3  1  0  0  0  0
  2  4  1  0  0  0  0
  2 32  1  0  0  0  0
  3 33  1  0  0  0  0
  3 34  1  0  0  0  0
  3 35  1  0  0  0  0
  4  5  1  0  0  0  0
  4 36  1  0  0  0  0
  4 37  1  0  0  0  0
  5 11  1  0  0  0  0
  5  6  1  0  0  0  0
  5 38  1  0  0  0  0
  6  7  2  0  0  0  0
  6  8  1  0  0  0  0
  8  9  1  0  0  0  0
  8 39  1  0  0  0  0
  9 10  1  0  0  0  0
  9 40  1  0  0  0  0
  9 41  1  0  0  0  0
 10 11  1  0  0  0  0
 10 42  1  0  0  0  0
 10 43  1  0  0  0  0
 11 12  1  0  0  0  0
 12 17  1  0  0  0  0
 12 13  2  0  0  0  0
 13 14  1  0  0  0  0
 14 15  2  0  0  0  0
 14 44  1  0  0  0  0
 15 16  1  0  0  0  0
 16 20  1  0  0  0  0
 16 17  2  0  0  0  0
 17 18  1  0  0  0  0
 18 19  2  0  0  0  0
 19 20  1  0  0  0  0
 19 45  1  0  0  0  0
 20 21  1  0  0  0  0
 21 28  1  0  0  0  0
 21 22  1  0  0  0  0
 21 46  1  0  0  0  0
 22 23  1  0  0  0  0
 22 47  1  0  0  0  0
 22 48  1  0  0  0  0
 23 24  1  0  0  0  0
 23 26  1  0  0  0  0
 23 28  1  0  0  0  0
 24 25  1  0  0  0  0
 24 49  1  0  0  0  0
 24 50  1  0  0  0  0
 25 51  1  0  0  0  0
 26 27  1  0  0  0  0
 26 52  1  0  0  0  0
 26 53  1  0  0  0  0
 27 54  1  0  0  0  0
 28 55  1  0  0  0  0
 28 56  1  0  0  0  0
M  END
> <s_m_source_file>
AV-unprocessed.smi

> <i_m_source_file_index>
78

> <i_lp_mmshare_version>
43012

> <i_f3d_flags>
0

> <s_epik_input>
W0NIM11bQ0hdKFtDSDNdKVtDSDJdW0NAQEhdMUMoPU8pW05IXVtDSDJdW0NIMl1OMWMobltjSF1uMiljKGMyMyluW2NIXW4zW0NIXShbQ0gyXTQpW0NIMl1DNChbQ0gyXVtPSF0pW0NIMl1bT0hd

> <s_epik_cmdline>
J2VwaWtfcHl0aG9uJywgJy1waCcsICc3LjAnLCAnLXRuJywgJzgnLCAnLW1hJywgJzIwMCcsICctbWV0YWxfYmluZGluZycsICctaW1hZScsICc8aW5maWxlLm1hZT4nLCAnLW9tYWUnLCAnPG91dGZpbGUubWFlPic=

> <r_lp_tautomer_probability>
1

> <r_epik_Ionization_Penalty>
0.000550083

> <r_epik_Ionization_Penalty_Charging>
0

> <r_epik_Ionization_Penalty_Neutral>
0.000550083

> <r_epik_State_Penalty>
0.000250415

> <r_epik_Charging_Adjusted_Penalty>
0.000250415

> <i_epik_Tot_Q>
0

> <i_epik_Tot_abs_Q>
0

> <r_epik_Metal_State_Penalty>
-0

> <b_epik_Metal_Only>
0

> <s_lp_Force_Field>
OPLS_2005

> <r_lp_Energy>
48.6174

> <b_lp_Chiralities_Consistent>
1

> <s_lp_Variant>
AV-unprocessed.smi:78-1

> <Gold.Version>
5.8.1

> <Gold.Id.Protein>
6NUR|6NUR_protein|mol2

> <Gold.PLP.Fitness>
45.9195

> <Gold.PLP.PLP>
-45.3975

> <Gold.PLP.part.hbond>
-3.8144

> <Gold.PLP.part.metal>
0.0000

> <Gold.PLP.part.buried>
-8.3996

> <Gold.PLP.part.nonpolar>
-32.5040

> <Gold.PLP.part.repulsive>
0.0492

> <Gold.PLP.ligand.clash>
0.0000

> <Gold.PLP.ligand.torsion>
1.5147

> <Gold.PLP.Chemscore.Hbond>
0.8960

> <Gold.PLP.Chemscore.CHOScore>
0.0000

> <Gold.PLP.Chemscore.Metal>
0.0000

> <Gold.Chemscore.Hbonds>
donor molecule, donor type, donor heavy atom, donor atom, acceptor molecule, acceptor atom, score
      L1  H     8    39       P1  8028  0.93

> <Gold.PLP.Chemscore.Internal.Correction>
0.8634

> <Gold.Rescore>
     Score         DG    S(hbond)    S(metal)    S(lipo)     H(rot)  DE(clash)    DE(int)     intcor
      6.10     -11.14       1.00        0.00      93.95       3.39       0.55       4.50       ----

> <Gold.Chemscore.Fitness>
6.0979

> <Gold.Chemscore.DG>
-11.1426

> <Gold.Chemscore.ZeroCoef>
-5.4800

> <Gold.Chemscore.Hbond>
0.9994

> <Gold.Chemscore.Metal>
0.0000

> <Gold.Chemscore.Lipo>
93.9527

> <Gold.Chemscore.Internal_Hbond>
0.0000

> <Gold.Chemscore.DEClash>
0.5466

> <Gold.Chemscore.DEInternal>
4.4981

> <Gold.Chemscore.Rot>
3.3859

> <Gold.Chemscore.Internal.Correction>
   9.000000E+99

> <Gold.Chemscore.Hbonds>
donor molecule, donor type, donor heavy atom, donor atom, acceptor molecule, acceptor atom, score
      L1  H     8    39       P1  8028  0.87

> <Gold.Chemscore.Hbond.Weighted>
-3.3381

> <Gold.Chemscore.Metal.Weighted>
-0.0000

> <Gold.Chemscore.Lipo.Weighted>
-10.9925

> <Gold.Chemscore.Internal_Hbond.Weighted>
0.0000

> <Gold.Chemscore.DEClash.Weighted>
0.5466

> <Gold.Chemscore.DEInternal.Weighted>
4.4981

> <Gold.Chemscore.Rot.Weighted>
8.6679

> <Gold.Chemscore.Internal.Correction.Weighted>
   9.000000E+99

> <Gold.Protein.RotatedTorsions>
[ 6907 6896 6895 6894 ] final   99.17 input  -60.11 | X-H torsion
[ 7974 7965 7964 7962 ] final -116.43 input  175.53 | X-H torsion
[ 8008 7997 7996 7995 ] final -154.71 input   59.86 | X-H torsion
[ 10167 10162 10161 10158 ] final -111.47 input  -65.29 | X-H torsion
[ 10718 10713 10712 10709 ] final -121.52 input   66.30 | X-H torsion
[ 10763 10752 10751 10750 ] final  114.67 input  -60.55 | X-H torsion
[ 11005 11000 10999 10996 ] final -168.63 input  -57.11 | X-H torsion

> <Gold.Protein.ActiveResidues>
 VAL166  LYS551  ARG553  GLY616  TRP617  ASP618  TYR619  PRO620  LYS621  CYS622 
 ASP623  PHE694  ASN695  SER759  ASP760  ASP761  ALA762  ILE779  LEU786  VAL792 
 PHE793  MET794  SER795  GLU796  ALA797  LYS798  CYS799  TRP800  GLU811  SER814 

> <Gold.Protein.RotatedAtoms>
  152.5397  134.0469  159.8092 H   0  0  0  0  0  0  0  0  0  0  0  0  # atno 6907 bound_to 6896
  151.0617  133.5531  159.2641 H   0  0  0  0  0  0  0  0  0  0  0  0  # atno 6908 bound_to 6896
  151.2427  135.0602  159.9085 H   0  0  0  0  0  0  0  0  0  0  0  0  # atno 6909 bound_to 6896
  145.0969  140.8526  143.3949 H   0  0  0  0  0  0  0  0  0  0  0  0  # atno 7974 bound_to 7965
  155.6906  140.0755  157.2449 H   0  0  0  0  0  0  0  0  0  0  0  0  # atno 8008 bound_to 7997
  154.4089  140.1665  156.2135 H   0  0  0  0  0  0  0  0  0  0  0  0  # atno 8009 bound_to 7997
  155.9455  140.3381  155.6366 H   0  0  0  0  0  0  0  0  0  0  0  0  # atno 8010 bound_to 7997
  140.1333  143.4342  152.1613 H   0  0  0  0  0  0  0  0  0  0  0  0  # atno 10167 bound_to 10162
  156.1344  130.6419  150.9672 H   0  0  0  0  0  0  0  0  0  0  0  0  # atno 10718 bound_to 10713
  153.5108  135.3618  155.2585 H   0  0  0  0  0  0  0  0  0  0  0  0  # atno 10763 bound_to 10752
  154.8742  135.4022  154.3371 H   0  0  0  0  0  0  0  0  0  0  0  0  # atno 10764 bound_to 10752
  153.4024  135.7075  153.6483 H   0  0  0  0  0  0  0  0  0  0  0  0  # atno 10765 bound_to 10752
  140.5398  134.5534  157.5097 H   0  0  0  0  0  0  0  0  0  0  0  0  # atno 11005 bound_to 11000
  145.1001  139.2829  143.5690 LP  0  0  0  0  0  0  0  0  0  0  0  0  # atno 17320 bound_to 7965
  146.3530  140.0565  142.8632 LP  0  0  0  0  0  0  0  0  0  0  0  0  # atno 17321 bound_to 7965
  139.5509  144.7336  151.4439 LP  0  0  0  0  0  0  0  0  0  0  0  0  # atno 17342 bound_to 10162
  140.6804  143.8094  150.7114 LP  0  0  0  0  0  0  0  0  0  0  0  0  # atno 17343 bound_to 10162
  157.6518  131.0896  150.8034 LP  0  0  0  0  0  0  0  0  0  0  0  0  # atno 17370 bound_to 10713
  156.8115  130.4954  149.5355 LP  0  0  0  0  0  0  0  0  0  0  0  0  # atno 17371 bound_to 10713
  139.9510  134.7617  156.0449 LP  0  0  0  0  0  0  0  0  0  0  0  0  # atno 17394 bound_to 11000
  141.1234  133.6606  156.3272 LP  0  0  0  0  0  0  0  0  0  0  0  0  # atno 17395 bound_to 11000

$$$$
