AV-unprocessed.smi:1799|AV-procd|sdf|7262|dock6
  -GOLD-   22720 8513D 1   1.00000     0.00000
 Structure written by MMmdl.
 40 41  0  0  0  0  0  0  0  0  3 V2000
  145.4391  141.4475  155.6797 C   0  0  0  0  0  0  0  0  0  0  0  0
  146.4543  141.6850  154.5397 C   0  0  0  0  0  0  0  0  0  0  0  0
  146.1924  143.1081  154.0096 C   0  0  0  0  0  0  0  0  0  0  0  0
  147.9242  141.6239  155.0327 C   0  0  0  0  0  0  0  0  0  0  0  0
  148.4962  140.2086  155.2100 C   0  0  0  0  0  0  0  0  0  0  0  0
  147.9992  139.5710  156.4268 N   0  0  0  0  0  0  0  0  0  0  0  0
  148.5160  138.4934  157.0334 C   0  0  0  0  0  0  0  0  0  0  0  0
  149.5364  137.9639  156.5881 O   0  0  0  0  0  0  0  0  0  0  0  0
  147.8062  138.0900  158.1108 N   0  5  0  0  0  0  0  0  0  0  0  0
  147.9635  136.8446  158.5888 C   0  0  0  0  0  0  0  0  0  0  0  0
  148.8397  135.9753  158.0603 N   0  0  0  0  0  0  0  0  0  0  0  0
  148.8453  134.7460  158.7056 N   0  0  0  0  0  0  0  0  0  0  0  0
  147.9747  134.7228  159.7145 C   0  0  0  0  0  0  0  0  0  0  0  0
  147.0710  136.2006  159.9696 S   0  0  0  0  0  0  0  0  0  0  0  0
  148.2484  139.3803  153.9344 C   0  0  0  0  0  0  0  0  0  0  0  0
  146.7840  139.3754  153.4303 C   0  0  0  0  0  0  0  0  0  0  0  0
  146.7865  138.8622  151.9772 C   0  0  0  0  0  0  0  0  0  0  0  0
  145.8838  138.4107  154.2341 C   0  0  0  0  0  0  0  0  0  0  0  0
  146.2207  140.7547  153.3983 N   0  3  0  0  0  0  0  0  0  0  0  0
  145.5145  142.2309  156.4348 H   0  0  0  0  0  0  0  0  0  0  0  0
  145.5806  140.5093  156.2060 H   0  0  0  0  0  0  0  0  0  0  0  0
  144.4147  141.4585  155.3060 H   0  0  0  0  0  0  0  0  0  0  0  0
  146.3625  143.8596  154.7818 H   0  0  0  0  0  0  0  0  0  0  0  0
  145.1644  143.2224  153.6629 H   0  0  0  0  0  0  0  0  0  0  0  0
  146.8459  143.3500  153.1703 H   0  0  0  0  0  0  0  0  0  0  0  0
  148.5567  142.1297  154.3015 H   0  0  0  0  0  0  0  0  0  0  0  0
  148.0400  142.1952  155.9554 H   0  0  0  0  0  0  0  0  0  0  0  0
  149.5750  140.3120  155.3392 H   0  0  0  0  0  0  0  0  0  0  0  0
  147.1706  139.9713  156.8422 H   0  0  0  0  0  0  0  0  0  0  0  0
  147.8661  133.8316  160.3141 H   0  0  0  0  0  0  0  0  0  0  0  0
  148.8815  139.8075  153.1552 H   0  0  0  0  0  0  0  0  0  0  0  0
  148.6069  138.3579  154.0594 H   0  0  0  0  0  0  0  0  0  0  0  0
  147.2122  137.8600  151.9101 H   0  0  0  0  0  0  0  0  0  0  0  0
  147.3723  139.5094  151.3232 H   0  0  0  0  0  0  0  0  0  0  0  0
  145.7765  138.8160  151.5675 H   0  0  0  0  0  0  0  0  0  0  0  0
  146.2349  137.3826  154.1371 H   0  0  0  0  0  0  0  0  0  0  0  0
  144.8551  138.4359  153.8732 H   0  0  0  0  0  0  0  0  0  0  0  0
  145.8557  138.6180  155.2984 H   0  0  0  0  0  0  0  0  0  0  0  0
  145.2287  140.6994  153.2173 H   0  0  0  0  0  0  0  0  0  0  0  0
  146.6532  141.1984  152.6010 H   0  0  0  0  0  0  0  0  0  0  0  0
  1  2  1  0  0  0  0
  1 20  1  0  0  0  0
  1 21  1  0  0  0  0
  1 22  1  0  0  0  0
  2 19  1  0  0  0  0
  2  3  1  0  0  0  0
  2  4  1  0  0  0  0
  3 23  1  0  0  0  0
  3 24  1  0  0  0  0
  3 25  1  0  0  0  0
  4  5  1  0  0  0  0
  4 26  1  0  0  0  0
  4 27  1  0  0  0  0
  5  6  1  0  0  0  0
  5 15  1  0  0  0  0
  5 28  1  0  0  0  0
  6  7  1  0  0  0  0
  6 29  1  0  0  0  0
  7  8  2  0  0  0  0
  7  9  1  0  0  0  0
  9 10  1  0  0  0  0
 10 14  1  0  0  0  0
 10 11  2  0  0  0  0
 11 12  1  0  0  0  0
 12 13  2  0  0  0  0
 13 14  1  0  0  0  0
 13 30  1  0  0  0  0
 15 16  1  0  0  0  0
 15 31  1  0  0  0  0
 15 32  1  0  0  0  0
 16 17  1  0  0  0  0
 16 18  1  0  0  0  0
 16 19  1  0  0  0  0
 17 33  1  0  0  0  0
 17 34  1  0  0  0  0
 17 35  1  0  0  0  0
 18 36  1  0  0  0  0
 18 37  1  0  0  0  0
 18 38  1  0  0  0  0
 19 39  1  0  0  0  0
 19 40  1  0  0  0  0
M  CHG  1   9  -1
M  CHG  1  19   1
M  END
> <s_m_source_file>
AV-unprocessed.smi

> <i_m_source_file_index>
1799

> <i_lp_mmshare_version>
43012

> <i_f3d_flags>
0

> <s_epik_input>
W0NIM11DMShbQ0gzXSlbQ0gyXVtDSF0oW0NIMl1DKFtDSDNdKShbQ0gzXSlbTkhdMSlbTkhdQyg9TylbTkhdYzJubltjSF1zMg==

> <s_epik_cmdline>
J2VwaWtfcHl0aG9uJywgJy1waCcsICc3LjAnLCAnLXRuJywgJzgnLCAnLW1hJywgJzIwMCcsICctbWV0YWxfYmluZGluZycsICctaW1hZScsICc8aW5maWxlLm1hZT4nLCAnLW9tYWUnLCAnPG91dGZpbGUubWFlPic=

> <r_lp_tautomer_probability>
1

> <r_epik_Ionization_Penalty>
4.14205

> <r_epik_Ionization_Penalty_Charging>
4.10837

> <r_epik_Ionization_Penalty_Neutral>
0.0336815

> <r_epik_State_Penalty>
4.10769

> <r_epik_Charging_Adjusted_Penalty>
8.21606

> <i_epik_Tot_Q>
0

> <i_epik_Tot_abs_Q>
2

> <r_epik_Metal_State_Penalty>
0.655549

> <b_epik_Metal_Only>
1

> <s_lp_Force_Field>
OPLS_2005

> <r_lp_Energy>
17.9013

> <b_lp_Chiralities_Consistent>
1

> <s_lp_Variant>
AV-unprocessed.smi:1799-2

> <Gold.Version>
5.8.1

> <Gold.Id.Protein>
6NUR|6NUR_protein|mol2

> <Gold.PLP.Fitness>
33.4702

> <Gold.PLP.PLP>
-24.9365

> <Gold.PLP.part.hbond>
-2.4642

> <Gold.PLP.part.metal>
0.0000

> <Gold.PLP.part.buried>
-2.5063

> <Gold.PLP.part.nonpolar>
-20.4987

> <Gold.PLP.part.repulsive>
0.0284

> <Gold.PLP.ligand.clash>
0.0000

> <Gold.PLP.ligand.torsion>
0.2418

> <Gold.PLP.Chemscore.Hbond>
3.0000

> <Gold.PLP.Chemscore.CHOScore>
0.0000

> <Gold.PLP.Chemscore.Metal>
0.0000

> <Gold.Chemscore.Hbonds>
donor molecule, donor type, donor heavy atom, donor atom, acceptor molecule, acceptor atom, score
      L1  H    19    39       P1 10175  2.00
      P1  H  6896  6908       L1    12  1.00

> <Gold.PLP.Chemscore.Internal.Correction>
0.0172

> <Gold.Rescore>
     Score         DG    S(hbond)    S(metal)    S(lipo)     H(rot)  DE(clash)    DE(int)     intcor
     14.34     -16.30       1.91        0.00      59.71       1.00       0.02       1.94       ----

> <Gold.Chemscore.Fitness>
14.3358

> <Gold.Chemscore.DG>
-16.2951

> <Gold.Chemscore.ZeroCoef>
-5.4800

> <Gold.Chemscore.Hbond>
1.9128

> <Gold.Chemscore.Metal>
0.0000

> <Gold.Chemscore.Lipo>
59.7112

> <Gold.Chemscore.Internal_Hbond>
0.0000

> <Gold.Chemscore.DEClash>
0.0239

> <Gold.Chemscore.DEInternal>
1.9355

> <Gold.Chemscore.Rot>
1.0000

> <Gold.Chemscore.Internal.Correction>
   9.000000E+99

> <Gold.Chemscore.Hbonds>
donor molecule, donor type, donor heavy atom, donor atom, acceptor molecule, acceptor atom, score
      L1  H    19    39       P1 10175  0.82
      P1  H  6896  6908       L1    12  0.29

> <Gold.Chemscore.Hbond.Weighted>
-6.3889

> <Gold.Chemscore.Metal.Weighted>
-0.0000

> <Gold.Chemscore.Lipo.Weighted>
-6.9862

> <Gold.Chemscore.Internal_Hbond.Weighted>
0.0000

> <Gold.Chemscore.DEClash.Weighted>
0.0239

> <Gold.Chemscore.DEInternal.Weighted>
1.9355

> <Gold.Chemscore.Rot.Weighted>
2.5600

> <Gold.Chemscore.Internal.Correction.Weighted>
   9.000000E+99

> <Gold.Protein.RotatedTorsions>
[ 6907 6896 6895 6894 ] final  169.63 input  -60.11 | X-H torsion
[ 7974 7965 7964 7962 ] final   32.35 input  175.53 | X-H torsion
[ 8008 7997 7996 7995 ] final  -35.76 input   59.86 | X-H torsion
[ 10167 10162 10161 10158 ] final  168.27 input  -65.29 | X-H torsion
[ 10718 10713 10712 10709 ] final  -36.64 input   66.30 | X-H torsion
[ 10763 10752 10751 10750 ] final   41.76 input  -60.55 | X-H torsion
[ 11005 11000 10999 10996 ] final  -98.16 input  -57.11 | X-H torsion

> <Gold.Protein.ActiveResidues>
 VAL166  LYS551  ARG553  GLY616  TRP617  ASP618  TYR619  PRO620  LYS621  CYS622 
 ASP623  PHE694  ASN695  SER759  ASP760  ASP761  ALA762  ILE779  LEU786  VAL792 
 PHE793  MET794  SER795  GLU796  ALA797  LYS798  CYS799  TRP800  GLU811  SER814 

> <Gold.Protein.RotatedAtoms>
  151.8288  133.3405  159.3606 H   0  0  0  0  0  0  0  0  0  0  0  0  # atno 6907 bound_to 6896
  150.7271  134.5502  159.5800 H   0  0  0  0  0  0  0  0  0  0  0  0  # atno 6908 bound_to 6896
  152.2951  134.7677  160.0421 H   0  0  0  0  0  0  0  0  0  0  0  0  # atno 6909 bound_to 6896
  146.1492  139.6537  142.9110 H   0  0  0  0  0  0  0  0  0  0  0  0  # atno 7974 bound_to 7965
  154.4088  140.1649  156.2263 H   0  0  0  0  0  0  0  0  0  0  0  0  # atno 8008 bound_to 7997
  155.9320  140.3414  155.6234 H   0  0  0  0  0  0  0  0  0  0  0  0  # atno 8009 bound_to 7997
  155.7094  140.0755  157.2368 H   0  0  0  0  0  0  0  0  0  0  0  0  # atno 8010 bound_to 7997
  139.4964  144.3832  151.9599 H   0  0  0  0  0  0  0  0  0  0  0  0  # atno 10167 bound_to 10162
  156.3245  130.4270  149.7930 H   0  0  0  0  0  0  0  0  0  0  0  0  # atno 10718 bound_to 10713
  152.9900  135.6152  154.2839 H   0  0  0  0  0  0  0  0  0  0  0  0  # atno 10763 bound_to 10752
  154.2567  135.2783  155.2796 H   0  0  0  0  0  0  0  0  0  0  0  0  # atno 10764 bound_to 10752
  154.5241  135.5806  153.6762 H   0  0  0  0  0  0  0  0  0  0  0  0  # atno 10765 bound_to 10752
  141.1354  133.8224  157.0802 H   0  0  0  0  0  0  0  0  0  0  0  0  # atno 11005 bound_to 11000
  145.4865  141.0438  143.2617 LP  0  0  0  0  0  0  0  0  0  0  0  0  # atno 17320 bound_to 7965
  144.7883  139.6381  143.7124 LP  0  0  0  0  0  0  0  0  0  0  0  0  # atno 17321 bound_to 7965
  140.3269  144.3362  150.5996 LP  0  0  0  0  0  0  0  0  0  0  0  0  # atno 17342 bound_to 10162
  140.5677  143.2184  151.7654 LP  0  0  0  0  0  0  0  0  0  0  0  0  # atno 17343 bound_to 10162
  156.5225  130.8221  151.3209 LP  0  0  0  0  0  0  0  0  0  0  0  0  # atno 17370 bound_to 10713
  157.7418  130.9878  150.2473 LP  0  0  0  0  0  0  0  0  0  0  0  0  # atno 17371 bound_to 10713
  140.0456  134.9832  157.1043 LP  0  0  0  0  0  0  0  0  0  0  0  0  # atno 17394 bound_to 11000
  140.4068  134.2024  155.7163 LP  0  0  0  0  0  0  0  0  0  0  0  0  # atno 17395 bound_to 11000

$$$$
