AV-unprocessed.smi:64|AV-procd|sdf|609|dock1
  -GOLD-   2262016503D 1   1.00000     0.00000
 Structure written by MMmdl.
 32 33  0  0  0  0  0  0  0  0  1 V2000
  152.7986  142.8793  161.9763 C   0  0  0  0  0  0  0  0  0  0  0  0
  152.0055  143.7341  160.9957 C   0  0  0  0  0  0  0  0  0  0  0  0
  150.8323  144.0372  161.2130 O   0  0  0  0  0  0  0  0  0  0  0  0
  152.7257  144.0895  159.9213 O   0  0  0  0  0  0  0  0  0  0  0  0
  152.1428  144.9166  158.9275 C   0  0  0  0  0  0  0  0  0  0  0  0
  151.1540  144.0900  158.1014 C   0  0  0  0  0  0  0  0  0  0  0  0
  151.6906  142.7899  157.9197 O   0  0  0  0  0  0  0  0  0  0  0  0
  151.1161  142.1024  156.8596 C   0  0  0  0  0  0  0  0  0  0  0  0
  151.4908  140.7085  156.9914 N   0  0  0  0  0  0  0  0  0  0  0  0
  152.2176  140.1036  157.9863 C   0  0  0  0  0  0  0  0  0  0  0  0
  152.3816  138.8209  157.8167 N   0  0  0  0  0  0  0  0  0  0  0  0
  151.7130  138.5458  156.6268 C   0  0  0  0  0  0  0  0  0  0  0  0
  151.5408  137.3045  155.9262 C   0  0  0  0  0  0  0  0  0  0  0  0
  151.9614  136.1912  156.2337 O   0  0  0  0  0  0  0  0  0  0  0  0
  150.7886  137.4600  154.7544 N   0  0  0  0  0  0  0  0  0  0  0  0
  150.2681  138.6750  154.3143 C   0  0  0  0  0  0  0  0  0  0  0  0
  149.5705  138.6539  153.1710 N   0  0  0  0  0  0  0  0  0  0  0  0
  150.4293  139.8173  154.9586 N   0  0  0  0  0  0  0  0  0  0  0  0
  151.1597  139.7017  156.1110 C   0  0  0  0  0  0  0  0  0  0  0  0
  150.6224  136.6293  154.2058 H   0  0  0  0  0  0  0  0  0  0  0  0
  153.7848  142.6397  161.5776 H   0  0  0  0  0  0  0  0  0  0  0  0
  152.2713  141.9456  162.1722 H   0  0  0  0  0  0  0  0  0  0  0  0
  152.9265  143.4089  162.9204 H   0  0  0  0  0  0  0  0  0  0  0  0
  151.6400  145.7718  159.3814 H   0  0  0  0  0  0  0  0  0  0  0  0
  152.9316  145.3036  158.2809 H   0  0  0  0  0  0  0  0  0  0  0  0
  150.2057  144.0170  158.6357 H   0  0  0  0  0  0  0  0  0  0  0  0
  150.9560  144.5744  157.1438 H   0  0  0  0  0  0  0  0  0  0  0  0
  150.0277  142.1839  156.8778 H   0  0  0  0  0  0  0  0  0  0  0  0
  151.4912  142.4790  155.9063 H   0  0  0  0  0  0  0  0  0  0  0  0
  152.6175  140.6378  158.8360 H   0  0  0  0  0  0  0  0  0  0  0  0
  149.4462  137.7824  152.6761 H   0  0  0  0  0  0  0  0  0  0  0  0
  149.1681  139.5042  152.8041 H   0  0  0  0  0  0  0  0  0  0  0  0
  1  2  1  0  0  0  0
  1 21  1  0  0  0  0
  1 22  1  0  0  0  0
  1 23  1  0  0  0  0
  2  3  2  0  0  0  0
  2  4  1  0  0  0  0
  4  5  1  0  0  0  0
  5  6  1  0  0  0  0
  5 24  1  0  0  0  0
  5 25  1  0  0  0  0
  6  7  1  0  0  0  0
  6 26  1  0  0  0  0
  6 27  1  0  0  0  0
  7  8  1  0  0  0  0
  8  9  1  0  0  0  0
  8 28  1  0  0  0  0
  8 29  1  0  0  0  0
  9 19  1  0  0  0  0
  9 10  1  0  0  0  0
 10 11  2  0  0  0  0
 10 30  1  0  0  0  0
 11 12  1  0  0  0  0
 12 19  2  0  0  0  0
 12 13  1  0  0  0  0
 13 14  2  0  0  0  0
 13 15  1  0  0  0  0
 15 20  1  0  0  0  0
 15 16  1  0  0  0  0
 16 17  1  0  0  0  0
 16 18  2  0  0  0  0
 17 31  1  0  0  0  0
 17 32  1  0  0  0  0
 18 19  1  0  0  0  0
M  END
> <s_m_source_file>
AV-unprocessed.smi

> <i_m_source_file_index>
64

> <i_lp_mmshare_version>
43012

> <i_f3d_flags>
0

> <s_epik_input>
W0NIM11DKD1PKU9bQ0gyXVtDSDJdT1tDSDJdbihbY0hdbjEpYyhjMTIpbmMoW05IMl0pW25IXWMyPU8=

> <s_epik_cmdline>
J2VwaWtfcHl0aG9uJywgJy1waCcsICc3LjAnLCAnLXRuJywgJzgnLCAnLW1hJywgJzIwMCcsICctbWV0YWxfYmluZGluZycsICctaW1hZScsICc8aW5maWxlLm1hZT4nLCAnLW9tYWUnLCAnPG91dGZpbGUubWFlPic=

> <r_lp_tautomer_probability>
1

> <r_epik_Ionization_Penalty>
0.00155449

> <r_epik_Ionization_Penalty_Charging>
0.00148332

> <r_epik_Ionization_Penalty_Neutral>
7.1171e-05

> <r_epik_State_Penalty>
-0

> <r_epik_Charging_Adjusted_Penalty>
0.00148332

> <i_epik_Tot_Q>
0

> <i_epik_Tot_abs_Q>
0

> <r_epik_Metal_State_Penalty>
0.320128

> <b_epik_Metal_Only>
0

> <s_epik_Chemistry_Notes>
This compound has an ester and may undergo hydrolysis at high or low pH. This compound contains an acetal/aminal-like group ( X-CH(R)-Y where X, Y are N, S, or O) that may be acid/base labile, releasing an aldehyde.

> <s_lp_Force_Field>
OPLS_2005

> <r_lp_Energy>
2.66723

> <b_lp_Chiralities_Consistent>
1

> <s_lp_Variant>
AV-unprocessed.smi:64-1

> <Gold.Version>
5.8.1

> <Gold.Id.Protein>
6NUR|6NUR_protein|mol2

> <Gold.PLP.Fitness>
44.4197

> <Gold.PLP.PLP>
-34.6166

> <Gold.PLP.part.hbond>
-4.2775

> <Gold.PLP.part.metal>
0.0000

> <Gold.PLP.part.buried>
-3.4220

> <Gold.PLP.part.nonpolar>
-25.7361

> <Gold.PLP.part.repulsive>
0.5143

> <Gold.PLP.ligand.clash>
0.0000

> <Gold.PLP.ligand.torsion>
0.3125

> <Gold.PLP.Chemscore.Hbond>
3.4388

> <Gold.PLP.Chemscore.CHOScore>
0.0000

> <Gold.PLP.Chemscore.Metal>
0.0000

> <Gold.Chemscore.Hbonds>
donor molecule, donor type, donor heavy atom, donor atom, acceptor molecule, acceptor atom, score
      L1  H    17    31       P1  7948  1.00
      L1  H    17    32       P1  7957  0.38
      P1  H  7989  7998       L1    18  0.63
      P1  H 10752 10764       L1    14  1.00

> <Gold.PLP.Chemscore.Internal.Correction>
0.1118

> <Gold.Rescore>
     Score         DG    S(hbond)    S(metal)    S(lipo)     H(rot)  DE(clash)    DE(int)     intcor
      7.66      -8.00       2.26        0.00      43.45       3.95       0.11       0.23       ----

> <Gold.Chemscore.Fitness>
7.6568

> <Gold.Chemscore.DG>
-7.9966

> <Gold.Chemscore.ZeroCoef>
-5.4800

> <Gold.Chemscore.Hbond>
2.2603

> <Gold.Chemscore.Metal>
0.0000

> <Gold.Chemscore.Lipo>
43.4515

> <Gold.Chemscore.Internal_Hbond>
0.0000

> <Gold.Chemscore.DEClash>
0.1133

> <Gold.Chemscore.DEInternal>
0.2266

> <Gold.Chemscore.Rot>
3.9518

> <Gold.Chemscore.Internal.Correction>
   9.000000E+99

> <Gold.Chemscore.Hbonds>
donor molecule, donor type, donor heavy atom, donor atom, acceptor molecule, acceptor atom, score
      L1  H    17    31       P1  7948  0.78
      L1  H    17    32       P1  7957  0.38
      P1  H  7989  7998       L1    18  0.09
      P1  H 10752 10764       L1    14  0.85

> <Gold.Chemscore.Hbond.Weighted>
-7.5493

> <Gold.Chemscore.Metal.Weighted>
-0.0000

> <Gold.Chemscore.Lipo.Weighted>
-5.0838

> <Gold.Chemscore.Internal_Hbond.Weighted>
0.0000

> <Gold.Chemscore.DEClash.Weighted>
0.1133

> <Gold.Chemscore.DEInternal.Weighted>
0.2266

> <Gold.Chemscore.Rot.Weighted>
10.1165

> <Gold.Chemscore.Internal.Correction.Weighted>
   9.000000E+99

> <Gold.Protein.RotatedTorsions>
[ 6907 6896 6895 6894 ] final -115.60 input  -60.11 | X-H torsion
[ 7974 7965 7964 7962 ] final  117.36 input  175.53 | X-H torsion
[ 8008 7997 7996 7995 ] final  -94.33 input   59.86 | X-H torsion
[ 10167 10162 10161 10158 ] final   73.01 input  -65.29 | X-H torsion
[ 10718 10713 10712 10709 ] final -178.19 input   66.30 | X-H torsion
[ 10763 10752 10751 10750 ] final  -34.13 input  -60.55 | X-H torsion
[ 11005 11000 10999 10996 ] final  177.13 input  -57.11 | X-H torsion

> <Gold.Protein.ActiveResidues>
 VAL166  LYS551  ARG553  GLY616  TRP617  ASP618  TYR619  PRO620  LYS621  CYS622 
 ASP623  PHE694  ASN695  SER759  ASP760  ASP761  ALA762  ILE779  LEU786  VAL792 
 PHE793  MET794  SER795  GLU796  ALA797  LYS798  CYS799  TRP800  GLU811  SER814 

> <Gold.Protein.RotatedAtoms>
  150.7990  133.8636  159.3238 H   0  0  0  0  0  0  0  0  0  0  0  0  # atno 6907 bound_to 6896
  151.6453  135.1006  160.0159 H   0  0  0  0  0  0  0  0  0  0  0  0  # atno 6908 bound_to 6896
  152.4075  133.6872  159.6404 H   0  0  0  0  0  0  0  0  0  0  0  0  # atno 6909 bound_to 6896
  145.1683  139.3116  143.4481 H   0  0  0  0  0  0  0  0  0  0  0  0  # atno 7974 bound_to 7965
  154.7470  140.0490  157.0860 H   0  0  0  0  0  0  0  0  0  0  0  0  # atno 8008 bound_to 7997
  155.0106  140.3135  155.4812 H   0  0  0  0  0  0  0  0  0  0  0  0  # atno 8009 bound_to 7997
  156.2877  140.2185  156.5220 H   0  0  0  0  0  0  0  0  0  0  0  0  # atno 8010 bound_to 7997
  140.0291  144.5480  150.7521 H   0  0  0  0  0  0  0  0  0  0  0  0  # atno 10167 bound_to 10162
  156.8405  130.9685  151.3100 H   0  0  0  0  0  0  0  0  0  0  0  0  # atno 10718 bound_to 10713
  153.8416  135.6857  153.4802 H   0  0  0  0  0  0  0  0  0  0  0  0  # atno 10763 bound_to 10752
  153.1450  135.4641  154.9551 H   0  0  0  0  0  0  0  0  0  0  0  0  # atno 10764 bound_to 10752
  154.7842  135.3279  154.7869 H   0  0  0  0  0  0  0  0  0  0  0  0  # atno 10765 bound_to 10752
  140.3807  134.6949  157.4449 H   0  0  0  0  0  0  0  0  0  0  0  0  # atno 11005 bound_to 11000
  146.3472  140.1819  142.8589 LP  0  0  0  0  0  0  0  0  0  0  0  0  # atno 17320 bound_to 7965
  145.0259  140.8832  143.5138 LP  0  0  0  0  0  0  0  0  0  0  0  0  # atno 17321 bound_to 7965
  140.7310  143.2689  151.3953 LP  0  0  0  0  0  0  0  0  0  0  0  0  # atno 17342 bound_to 10162
  139.6088  144.1141  152.2277 LP  0  0  0  0  0  0  0  0  0  0  0  0  # atno 17343 bound_to 10162
  157.6358  130.8765  149.9356 LP  0  0  0  0  0  0  0  0  0  0  0  0  # atno 17370 bound_to 10713
  156.0883  130.3666  150.0444 LP  0  0  0  0  0  0  0  0  0  0  0  0  # atno 17371 bound_to 10713
  140.0481  134.6171  155.8896 LP  0  0  0  0  0  0  0  0  0  0  0  0  # atno 17394 bound_to 11000
  141.1924  133.6575  156.5501 LP  0  0  0  0  0  0  0  0  0  0  0  0  # atno 17395 bound_to 11000

$$$$
