AV-unprocessed.smi:1672|AV-procd|sdf|6704|dock5
  -GOLD-   22720 7443D 1   1.00000     0.00000
 Structure written by MMmdl.
 48 50  0  0  0  0  0  0  0  0  2 V2000
  145.0428  130.9347  151.1009 C   0  0  0  0  0  0  0  0  0  0  0  0
  145.5508  131.7969  149.9319 C   0  0  2  0  0  0  0  0  0  0  0  0
  146.6867  132.7503  150.3447 C   0  0  0  0  0  0  0  0  0  0  0  0
  146.1757  133.9372  151.1808 C   0  0  0  0  0  0  0  0  0  0  0  0
  145.1105  134.6821  150.4586 N   0  3  2  0  0  0  0  0  0  0  0  0
  144.6726  135.9158  151.1616 C   0  0  0  0  0  0  0  0  0  0  0  0
  145.8503  136.7126  151.7571 C   0  0  1  0  0  0  0  0  0  0  0  0
  146.4533  137.4705  150.7263 O   0  0  0  0  0  0  0  0  0  0  0  0
  145.3856  137.6563  152.8840 C   0  0  0  0  0  0  0  0  0  0  0  0
  146.4644  138.0096  153.7978 N   0  0  0  0  0  0  0  0  0  0  0  0
  147.1466  137.2087  154.6561 C   0  0  0  0  0  0  0  0  0  0  0  0
  146.8635  135.7431  154.7842 C   0  0  0  0  0  0  0  0  0  0  0  0
  147.9762  134.9443  154.4450 O   0  0  0  0  0  0  0  0  0  0  0  0
  148.0924  137.8080  155.3799 N   0  0  0  0  0  0  0  0  0  0  0  0
  148.0245  139.1177  154.9470 C   0  0  0  0  0  0  0  0  0  0  0  0
  148.7736  140.2528  155.3308 C   0  0  0  0  0  0  0  0  0  0  0  0
  148.5215  141.5079  154.7388 C   0  0  0  0  0  0  0  0  0  0  0  0
  147.5195  141.6457  153.7566 C   0  0  0  0  0  0  0  0  0  0  0  0
  146.7610  140.5274  153.3599 C   0  0  0  0  0  0  0  0  0  0  0  0
  147.0164  139.2772  153.9548 C   0  0  0  0  0  0  0  0  0  0  0  0
  143.9686  133.7987  150.1078 C   0  0  0  0  0  0  0  0  0  0  0  0
  144.4279  132.6029  149.2538 C   0  0  0  0  0  0  0  0  0  0  0  0
  144.6079  131.5363  151.8986 H   0  0  0  0  0  0  0  0  0  0  0  0
  145.8541  130.3495  151.5348 H   0  0  0  0  0  0  0  0  0  0  0  0
  144.2790  130.2331  150.7644 H   0  0  0  0  0  0  0  0  0  0  0  0
  145.9538  131.1048  149.1910 H   0  0  0  0  0  0  0  0  0  0  0  0
  147.4554  132.2065  150.8949 H   0  0  0  0  0  0  0  0  0  0  0  0
  147.1739  133.1351  149.4475 H   0  0  0  0  0  0  0  0  0  0  0  0
  145.7942  133.5901  152.1420 H   0  0  0  0  0  0  0  0  0  0  0  0
  147.0163  134.5936  151.4010 H   0  0  0  0  0  0  0  0  0  0  0  0
  144.1374  136.5650  150.4664 H   0  0  0  0  0  0  0  0  0  0  0  0
  143.9561  135.6499  151.9403 H   0  0  0  0  0  0  0  0  0  0  0  0
  146.6024  136.0361  152.1612 H   0  0  0  0  0  0  0  0  0  0  0  0
  145.7820  137.9779  150.2946 H   0  0  0  0  0  0  0  0  0  0  0  0
  144.9412  138.5611  152.4697 H   0  0  0  0  0  0  0  0  0  0  0  0
  144.5986  137.1766  153.4672 H   0  0  0  0  0  0  0  0  0  0  0  0
  146.5775  135.5207  155.8128 H   0  0  0  0  0  0  0  0  0  0  0  0
  146.0136  135.4706  154.1589 H   0  0  0  0  0  0  0  0  0  0  0  0
  148.2937  135.2148  153.5974 H   0  0  0  0  0  0  0  0  0  0  0  0
  149.5442  140.1578  156.0815 H   0  0  0  0  0  0  0  0  0  0  0  0
  149.1012  142.3685  155.0391 H   0  0  0  0  0  0  0  0  0  0  0  0
  147.3344  142.6106  153.3075 H   0  0  0  0  0  0  0  0  0  0  0  0
  145.9939  140.6302  152.6069 H   0  0  0  0  0  0  0  0  0  0  0  0
  143.4763  133.4552  151.0186 H   0  0  0  0  0  0  0  0  0  0  0  0
  143.2259  134.3663  149.5458 H   0  0  0  0  0  0  0  0  0  0  0  0
  144.7859  132.9734  148.2923 H   0  0  0  0  0  0  0  0  0  0  0  0
  143.5800  131.9547  149.0300 H   0  0  0  0  0  0  0  0  0  0  0  0
  145.5067  134.9878  149.5808 H   0  0  0  0  0  0  0  0  0  0  0  0
  1  2  1  0  0  0  0
  1 23  1  0  0  0  0
  1 24  1  0  0  0  0
  1 25  1  0  0  0  0
  2 22  1  0  0  0  0
  2  3  1  0  0  0  0
  2 26  1  0  0  0  0
  3  4  1  0  0  0  0
  3 27  1  0  0  0  0
  3 28  1  0  0  0  0
  4  5  1  0  0  0  0
  4 29  1  0  0  0  0
  4 30  1  0  0  0  0
  5  6  1  0  0  0  0
  5 21  1  0  0  0  0
  5 48  1  0  0  0  0
  6  7  1  0  0  0  0
  6 31  1  0  0  0  0
  6 32  1  0  0  0  0
  7  8  1  0  0  0  0
  7  9  1  0  0  0  0
  7 33  1  0  0  0  0
  8 34  1  0  0  0  0
  9 10  1  0  0  0  0
  9 35  1  0  0  0  0
  9 36  1  0  0  0  0
 10 20  1  0  0  0  0
 10 11  1  0  0  0  0
 11 12  1  0  0  0  0
 11 14  2  0  0  0  0
 12 13  1  0  0  0  0
 12 37  1  0  0  0  0
 12 38  1  0  0  0  0
 13 39  1  0  0  0  0
 14 15  1  0  0  0  0
 15 20  2  0  0  0  0
 15 16  1  0  0  0  0
 16 17  2  0  0  0  0
 16 40  1  0  0  0  0
 17 18  1  0  0  0  0
 17 41  1  0  0  0  0
 18 19  2  0  0  0  0
 18 42  1  0  0  0  0
 19 20  1  0  0  0  0
 19 43  1  0  0  0  0
 21 22  1  0  0  0  0
 21 44  1  0  0  0  0
 21 45  1  0  0  0  0
 22 46  1  0  0  0  0
 22 47  1  0  0  0  0
M  CHG  1   5   1
M  END
> <s_m_source_file>
AV-unprocessed.smi

> <i_m_source_file_index>
1672

> <i_lp_mmshare_version>
43012

> <i_f3d_flags>
0

> <s_epik_input>
W0NIM11bQ0hdMVtDSDJdW0NIMl1OKFtDSDJdW0NIMl0xKVtDSDJdW0NASF0oW09IXSlbQ0gyXW4oYyhuMilbQ0gyXVtPSF0pYyhjMjMpW2NIXVtjSF1bY0hdW2NIXTM=

> <s_epik_cmdline>
J2VwaWtfcHl0aG9uJywgJy1waCcsICc3LjAnLCAnLXRuJywgJzgnLCAnLW1hJywgJzIwMCcsICctbWV0YWxfYmluZGluZycsICctaW1hZScsICc8aW5maWxlLm1hZT4nLCAnLW9tYWUnLCAnPG91dGZpbGUubWFlPic=

> <r_epik_Ionization_Penalty>
0.0498263

> <r_epik_Ionization_Penalty_Charging>
0.00181365

> <r_epik_Ionization_Penalty_Neutral>
0.0480127

> <r_epik_State_Penalty>
0.0408546

> <r_epik_Charging_Adjusted_Penalty>
0.0426682

> <i_epik_Tot_Q>
1

> <i_epik_Tot_abs_Q>
1

> <r_epik_Metal_State_Penalty>
4.22946e-05

> <b_epik_Metal_Only>
0

> <s_lp_Force_Field>
OPLS_2005

> <r_lp_Energy>
24.4653

> <b_lp_Chiralities_Consistent>
1

> <s_lp_Variant>
AV-unprocessed.smi:1672-4

> <Gold.Version>
5.8.1

> <Gold.Id.Protein>
6NUR|6NUR_protein|mol2

> <Gold.PLP.Fitness>
48.3435

> <Gold.PLP.PLP>
-37.4272

> <Gold.PLP.part.hbond>
-5.0000

> <Gold.PLP.part.metal>
0.0000

> <Gold.PLP.part.buried>
1.1996

> <Gold.PLP.part.nonpolar>
-32.8815

> <Gold.PLP.part.repulsive>
0.1365

> <Gold.PLP.ligand.clash>
0.0000

> <Gold.PLP.ligand.torsion>
0.5787

> <Gold.PLP.Chemscore.Hbond>
4.0000

> <Gold.PLP.Chemscore.CHOScore>
0.0000

> <Gold.PLP.Chemscore.Metal>
0.0000

> <Gold.Chemscore.Hbonds>
donor molecule, donor type, donor heavy atom, donor atom, acceptor molecule, acceptor atom, score
      L1  H     5    48       P1  7921  0.96
      L1  H     8    34       P1 10171  0.96
      L1  H    13    39       P1  7948  0.83
      P1  H  7954  7966       L1     8  1.00

> <Gold.PLP.Chemscore.Internal.Correction>
0.0738

> <Gold.Rescore>
     Score         DG    S(hbond)    S(metal)    S(lipo)     H(rot)  DE(clash)    DE(int)     intcor
     22.42     -23.51       3.65        0.00     112.73       2.88       0.50       0.58       ----

> <Gold.Chemscore.Fitness>
22.4236

> <Gold.Chemscore.DG>
-23.5050

> <Gold.Chemscore.ZeroCoef>
-5.4800

> <Gold.Chemscore.Hbond>
3.6535

> <Gold.Chemscore.Metal>
0.0000

> <Gold.Chemscore.Lipo>
112.7289

> <Gold.Chemscore.Internal_Hbond>
0.0000

> <Gold.Chemscore.DEClash>
0.5001

> <Gold.Chemscore.DEInternal>
0.5813

> <Gold.Chemscore.Rot>
2.8778

> <Gold.Chemscore.Internal.Correction>
   9.000000E+99

> <Gold.Chemscore.Hbonds>
donor molecule, donor type, donor heavy atom, donor atom, acceptor molecule, acceptor atom, score
      L1  H     5    48       P1  7921  0.88
      L1  H     8    34       P1 10171  0.91
      L1  H    13    39       P1  7948  0.81
      P1  H  7954  7966       L1     8  0.63

> <Gold.Chemscore.Hbond.Weighted>
-12.2028

> <Gold.Chemscore.Metal.Weighted>
-0.0000

> <Gold.Chemscore.Lipo.Weighted>
-13.1893

> <Gold.Chemscore.Internal_Hbond.Weighted>
0.0000

> <Gold.Chemscore.DEClash.Weighted>
0.5001

> <Gold.Chemscore.DEInternal.Weighted>
0.5813

> <Gold.Chemscore.Rot.Weighted>
7.3671

> <Gold.Chemscore.Internal.Correction.Weighted>
   9.000000E+99

> <Gold.Protein.RotatedTorsions>
[ 6907 6896 6895 6894 ] final  156.46 input  -60.11 | X-H torsion
[ 7974 7965 7964 7962 ] final -146.46 input  175.53 | X-H torsion
[ 8008 7997 7996 7995 ] final  -16.22 input   59.86 | X-H torsion
[ 10167 10162 10161 10158 ] final -110.24 input  -65.29 | X-H torsion
[ 10718 10713 10712 10709 ] final   69.99 input   66.30 | X-H torsion
[ 10763 10752 10751 10750 ] final -165.47 input  -60.55 | X-H torsion
[ 11005 11000 10999 10996 ] final  -38.54 input  -57.11 | X-H torsion

> <Gold.Protein.ActiveResidues>
 VAL166  LYS551  ARG553  GLY616  TRP617  ASP618  TYR619  PRO620  LYS621  CYS622 
 ASP623  PHE694  ASN695  SER759  ASP760  ASP761  ALA762  ILE779  LEU786  VAL792 
 PHE793  MET794  SER795  GLU796  ALA797  LYS798  CYS799  TRP800  GLU811  SER814 

> <Gold.Protein.RotatedAtoms>
  152.0293  133.3930  159.4290 H   0  0  0  0  0  0  0  0  0  0  0  0  # atno 6907 bound_to 6896
  150.6883  134.3539  159.4930 H   0  0  0  0  0  0  0  0  0  0  0  0  # atno 6908 bound_to 6896
  152.1323  134.9125  160.0609 H   0  0  0  0  0  0  0  0  0  0  0  0  # atno 6909 bound_to 6896
  144.8158  140.5453  143.5612 H   0  0  0  0  0  0  0  0  0  0  0  0  # atno 7974 bound_to 7965
  154.5070  140.2175  155.9232 H   0  0  0  0  0  0  0  0  0  0  0  0  # atno 8008 bound_to 7997
  156.1505  140.3162  155.8607 H   0  0  0  0  0  0  0  0  0  0  0  0  # atno 8009 bound_to 7997
  155.3947  140.0480  157.3030 H   0  0  0  0  0  0  0  0  0  0  0  0  # atno 8010 bound_to 7997
  140.1466  143.4234  152.1524 H   0  0  0  0  0  0  0  0  0  0  0  0  # atno 10167 bound_to 10162
  157.6376  130.9454  150.0589 H   0  0  0  0  0  0  0  0  0  0  0  0  # atno 10718 bound_to 10713
  154.6928  135.2974  154.9454 H   0  0  0  0  0  0  0  0  0  0  0  0  # atno 10763 bound_to 10752
  154.0412  135.6657  153.4794 H   0  0  0  0  0  0  0  0  0  0  0  0  # atno 10764 bound_to 10752
  153.0624  135.5107  154.8030 H   0  0  0  0  0  0  0  0  0  0  0  0  # atno 10765 bound_to 10752
  141.0035  133.6943  156.2067 H   0  0  0  0  0  0  0  0  0  0  0  0  # atno 11005 bound_to 11000
  145.5218  139.1476  143.3548 LP  0  0  0  0  0  0  0  0  0  0  0  0  # atno 17320 bound_to 7965
  146.2461  140.5359  142.8913 LP  0  0  0  0  0  0  0  0  0  0  0  0  # atno 17321 bound_to 7965
  139.5446  144.7287  151.4625 LP  0  0  0  0  0  0  0  0  0  0  0  0  # atno 17342 bound_to 10162
  140.6728  143.8256  150.7020 LP  0  0  0  0  0  0  0  0  0  0  0  0  # atno 17343 bound_to 10162
  156.1628  130.3644  149.9275 LP  0  0  0  0  0  0  0  0  0  0  0  0  # atno 17370 bound_to 10713
  156.7269  130.9028  151.3623 LP  0  0  0  0  0  0  0  0  0  0  0  0  # atno 17371 bound_to 10713
  140.6850  134.4727  157.5589 LP  0  0  0  0  0  0  0  0  0  0  0  0  # atno 17394 bound_to 11000
  139.9051  134.8467  156.1738 LP  0  0  0  0  0  0  0  0  0  0  0  0  # atno 17395 bound_to 11000

$$$$
