#       Name:                AV-unprocessed.smi:3129
#       Creating user name   scv26
#       Creation time:       Fri Mar 27 17:30:48 2020


#       File generated by GOLD software.
#

@<TRIPOS>MOLECULE
AV-unprocessed.smi:3129
    43    43     1
SMALL
NO_CHARGES


@<TRIPOS>ATOM
      1 ****        -3.9200   2.4123  -2.0762 C.3            1 S1                 0.0000
      2 ****        -2.6160   1.6370  -2.3164 C.3            1 S1                 0.0000
      3 ****        -2.8583   0.4638  -3.2821 C.3            1 S1                 0.0000
      4 ****        -1.9952   1.1915  -0.9758 C.3            1 S1                 0.0000
      5 ****        -0.6789   0.5831  -1.1466 N.am           1 S1                 0.0000
      6 ****        -0.4146  -0.7327  -1.1131 C.2            1 S1                 0.0000
      7 ****        -1.2760  -1.5924  -0.9252 O.2            1 S1                 0.0000
      8 ****         1.0565  -1.1416  -1.2981 C.3            1 S1                 0.0000
      9 ****         1.1937  -2.1705  -2.4320 C.3            1 S1                 0.0000
     10 ****         1.6757  -1.6695  -0.0689 N.3            1 S1                 0.0000
     11 ****         1.6562  -0.7443   1.0586 C.3            1 S1                 0.0000
     12 ****         2.4796  -1.3289   2.2143 C.3            1 S1                 0.0000
     13 ****         2.4726  -0.4502   3.3676 N.pl3          1 S1                 0.0000
     14 ****         1.6740  -0.5155   4.4899 C.2            1 S1                 0.0000
     15 ****         2.0239   0.5278   5.2984 C.2            1 S1                 0.0000
     16 ****         3.0581   1.1844   4.5743 C.2            1 S1                 0.0000
     17 ****         3.3232   0.5977   3.4181 N.2            1 S1                 0.0000
     18 ****        -4.6721   1.7839  -1.5981 H              1 S1                 0.0000
     19 ****        -4.3390   2.7779  -3.0141 H              1 S1                 0.0000
     20 ****        -3.7517   3.2772  -1.4339 H              1 S1                 0.0000
     21 ****        -1.9168   2.3216  -2.7988 H              1 S1                 0.0000
     22 ****        -3.5129  -0.2857  -2.8365 H              1 S1                 0.0000
     23 ****        -1.9265  -0.0294  -3.5584 H              1 S1                 0.0000
     24 ****        -3.3251   0.8061  -4.2060 H              1 S1                 0.0000
     25 ****        -1.8666   2.0583  -0.3269 H              1 S1                 0.0000
     26 ****        -2.6739   0.5198  -0.4471 H              1 S1                 0.0000
     27 ****         0.0951   1.2139  -1.2976 H              1 S1                 0.0000
     28 ****         1.6182  -0.2549  -1.5978 H              1 S1                 0.0000
     29 ****         0.7558  -1.7989  -3.3594 H              1 S1                 0.0000
     30 ****         0.7012  -3.1120  -2.1849 H              1 S1                 0.0000
     31 ****         2.2425  -2.3908  -2.6334 H              1 S1                 0.0000
     32 ****         1.2660  -2.5518   0.2036 H              1 S1                 0.0000
     33 ****         2.0709   0.2174   0.7527 H              1 S1                 0.0000
     34 ****         0.6337  -0.5708   1.3957 H              1 S1                 0.0000
     35 ****         2.0798  -2.2978   2.5169 H              1 S1                 0.0000
     36 ****         3.5133  -1.4944   1.9061 H              1 S1                 0.0000
     37 ****         0.9310  -1.2890   4.6174 H              1 S1                 0.0000
     38 ****         1.6045   0.7836   6.2601 H              1 S1                 0.0000
     39 ****         3.6195   2.0643   4.8519 H              1 S1                 0.0000
     40 ****        -2.2293  -1.3234  -0.7876 LP             1 S1                 0.0000
     41 ****        -1.0223  -2.5596  -0.9101 LP             1 S1                 0.0000
     42 ****         2.6370  -1.8059  -0.3082 LP             1 S1                 0.0000
     43 ****         4.0012   0.8693   2.7351 LP             1 S1                 0.0000
@<TRIPOS>BOND
    1    1    2 1     
    2    1   18 1     
    3    1   19 1     
    4    1   20 1     
    5    2    3 1     
    6    2    4 1     
    7    2   21 1     
    8    3   22 1     
    9    3   23 1     
   10    3   24 1     
   11    4    5 1     
   12    4   25 1     
   13    4   26 1     
   14    5    6 am    
   15    5   27 1     
   16    6    7 2     
   17    6    8 1     
   18    8    9 1     
   19    8   10 1     
   20    8   28 1     
   21    9   29 1     
   22    9   30 1     
   23    9   31 1     
   24   10   11 1     
   25   10   32 1     
   26   11   12 1     
   27   11   33 1     
   28   11   34 1     
   29   12   13 1     
   30   12   35 1     
   31   12   36 1     
   32   13   17 1     
   33   13   14 1     
   34   14   15 2     
   35   14   37 1     
   36   15   16 1     
   37   15   38 1     
   38   16   17 2     
   39   16   39 1     
   40    7   40 1     
   41    7   41 1     
   42   10   42 1     
   43   17   43 1     
@<TRIPOS>SUBSTRUCTURE
      1 S1             1
@<TRIPOS>SET
LONE_PAIRS      STATIC     ATOMS    <user>   **** ""
4 40 41 42 43
DONOR_HYDROGENS      STATIC     ATOMS    <user>   **** ""
2 27 32
ATOM$BLUE        STATIC     ATOMS    COLORGROUP SYSTEM
4 40 41 42 43
ATOM$RED        STATIC     ATOMS    COLORGROUP SYSTEM
2 27 32
