AV-unprocessed.smi:16|AV-procd|sdf|89|dock7
  -GOLD-   2262015233D 1   1.00000     0.00000
 Structure written by MMmdl.
 60 64  0  0  0  0  0  0  0  0  2 V2000
  156.1380  139.8184  160.5079 C   0  0  0  0  0  0  0  0  0  0  0  0
  154.8456  139.2244  161.0872 C   0  0  0  0  0  0  0  0  0  0  0  0
  153.6389  140.0079  160.7188 N   0  3  1  0  0  0  0  0  0  0  0  0
  153.6137  141.3374  161.3831 C   0  0  0  0  0  0  0  0  0  0  0  0
  152.3044  142.0867  161.0881 C   0  0  0  0  0  0  0  0  0  0  0  0
  152.0990  142.2299  159.5765 C   0  0  2  0  0  0  0  0  0  0  0  0
  150.8563  142.8745  159.3210 O   0  0  0  0  0  0  0  0  0  0  0  0
  150.6507  143.0863  157.9280 C   0  0  0  0  0  0  0  0  0  0  0  0
  150.6284  141.7306  157.2042 C   0  0  0  0  0  0  0  0  0  0  0  0
  151.8544  140.9850  157.4800 N   0  0  0  0  0  0  0  0  0  0  0  0
  151.9468  139.8396  156.7666 C   0  0  0  0  0  0  0  0  0  0  0  0
  152.7830  139.7653  155.6976 N   0  0  0  0  0  0  0  0  0  0  0  0
  152.8514  138.6382  154.9825 C   0  0  0  0  0  0  0  0  0  0  0  0
  152.1748  137.4999  155.1521 N   0  0  0  0  0  0  0  0  0  0  0  0
  151.3250  137.5797  156.2163 C   0  0  0  0  0  0  0  0  0  0  0  0
  151.1561  138.7019  157.0734 C   0  0  0  0  0  0  0  0  0  0  0  0
  150.2126  138.4201  158.0523 N   0  0  0  0  0  0  0  0  0  0  0  0
  149.8500  137.1925  157.7945 C   0  0  0  0  0  0  0  0  0  0  0  0
  150.4453  136.6229  156.6906 N   0  0  0  0  0  0  0  0  0  0  0  0
  150.2575  135.2873  156.2058 C   0  0  0  0  0  0  0  0  0  0  0  0
  150.4230  134.9562  154.7192 C   0  0  0  0  0  0  0  0  0  0  0  0
  149.3313  133.8703  154.8526 C   0  0  0  0  0  0  0  0  0  0  0  0
  148.3454  133.7360  153.6754 C   0  0  0  0  0  0  0  0  0  0  0  0
  147.8860  134.9875  153.2047 O   0  0  0  0  0  0  0  0  0  0  0  0
  149.8803  132.4618  155.1500 C   0  0  0  0  0  0  0  0  0  0  0  0
  148.8512  131.5750  155.5395 O   0  0  0  0  0  0  0  0  0  0  0  0
  148.8589  134.6737  156.0868 C   0  0  0  0  0  0  0  0  0  0  0  0
  152.1056  140.8353  158.9160 C   0  0  1  0  0  0  0  0  0  0  0  0
  153.4382  140.1200  159.2485 C   0  0  0  0  0  0  0  0  0  0  0  0
  152.9071  142.8414  159.1690 H   0  0  0  0  0  0  0  0  0  0  0  0
  151.2866  140.2478  159.3353 H   0  0  0  0  0  0  0  0  0  0  0  0
  156.9836  139.1604  160.7095 H   0  0  0  0  0  0  0  0  0  0  0  0
  156.3773  140.7882  160.9431 H   0  0  0  0  0  0  0  0  0  0  0  0
  156.0663  139.9410  159.4269 H   0  0  0  0  0  0  0  0  0  0  0  0
  154.7458  138.2107  160.6970 H   0  0  0  0  0  0  0  0  0  0  0  0
  154.9165  139.1318  162.1719 H   0  0  0  0  0  0  0  0  0  0  0  0
  153.7175  141.2133  162.4616 H   0  0  0  0  0  0  0  0  0  0  0  0
  154.4680  141.9278  161.0478 H   0  0  0  0  0  0  0  0  0  0  0  0
  151.4634  141.5487  161.5282 H   0  0  0  0  0  0  0  0  0  0  0  0
  152.3244  143.0709  161.5573 H   0  0  0  0  0  0  0  0  0  0  0  0
  149.7035  143.6057  157.7827 H   0  0  0  0  0  0  0  0  0  0  0  0
  151.4333  143.7310  157.5247 H   0  0  0  0  0  0  0  0  0  0  0  0
  149.7612  141.1581  157.5366 H   0  0  0  0  0  0  0  0  0  0  0  0
  150.5215  141.8842  156.1296 H   0  0  0  0  0  0  0  0  0  0  0  0
  153.5432  138.6506  154.1530 H   0  0  0  0  0  0  0  0  0  0  0  0
  149.1267  136.6688  158.4028 H   0  0  0  0  0  0  0  0  0  0  0  0
  150.9041  134.6543  156.8159 H   0  0  0  0  0  0  0  0  0  0  0  0
  150.1401  135.7926  154.0779 H   0  0  0  0  0  0  0  0  0  0  0  0
  151.4116  134.5823  154.4506 H   0  0  0  0  0  0  0  0  0  0  0  0
  148.8107  133.2147  152.8383 H   0  0  0  0  0  0  0  0  0  0  0  0
  147.4697  133.1530  153.9615 H   0  0  0  0  0  0  0  0  0  0  0  0
  148.4554  135.2722  152.5063 H   0  0  0  0  0  0  0  0  0  0  0  0
  150.3895  132.0469  154.2794 H   0  0  0  0  0  0  0  0  0  0  0  0
  150.6196  132.4843  155.9510 H   0  0  0  0  0  0  0  0  0  0  0  0
  149.2439  130.7591  155.8099 H   0  0  0  0  0  0  0  0  0  0  0  0
  148.5598  134.0705  156.9447 H   0  0  0  0  0  0  0  0  0  0  0  0
  148.0968  135.4192  155.8542 H   0  0  0  0  0  0  0  0  0  0  0  0
  154.2789  140.6540  158.8021 H   0  0  0  0  0  0  0  0  0  0  0  0
  153.4342  139.1199  158.8180 H   0  0  0  0  0  0  0  0  0  0  0  0
  152.8468  139.4976  161.0832 H   0  0  0  0  0  0  0  0  0  0  0  0
  1  2  1  0  0  0  0
  1 32  1  0  0  0  0
  1 33  1  0  0  0  0
  1 34  1  0  0  0  0
  2  3  1  0  0  0  0
  2 35  1  0  0  0  0
  2 36  1  0  0  0  0
  3 29  1  0  0  0  0
  3  4  1  0  0  0  0
  3 60  1  0  0  0  0
  4  5  1  0  0  0  0
  4 37  1  0  0  0  0
  4 38  1  0  0  0  0
  5  6  1  0  0  0  0
  5 39  1  0  0  0  0
  5 40  1  0  0  0  0
  6 30  1  0  0  0  0
  6 28  1  0  0  0  0
  6  7  1  0  0  0  0
  7  8  1  0  0  0  0
  8  9  1  0  0  0  0
  8 41  1  0  0  0  0
  8 42  1  0  0  0  0
  9 10  1  0  0  0  0
  9 43  1  0  0  0  0
  9 44  1  0  0  0  0
 10 11  1  0  0  0  0
 10 28  1  0  0  0  0
 11 16  1  0  0  0  0
 11 12  2  0  0  0  0
 12 13  1  0  0  0  0
 13 14  2  0  0  0  0
 13 45  1  0  0  0  0
 14 15  1  0  0  0  0
 15 19  1  0  0  0  0
 15 16  2  0  0  0  0
 16 17  1  0  0  0  0
 17 18  2  0  0  0  0
 18 19  1  0  0  0  0
 18 46  1  0  0  0  0
 19 20  1  0  0  0  0
 20 27  1  0  0  0  0
 20 21  1  0  0  0  0
 20 47  1  0  0  0  0
 21 22  1  0  0  0  0
 21 48  1  0  0  0  0
 21 49  1  0  0  0  0
 22 23  1  0  0  0  0
 22 25  1  0  0  0  0
 22 27  1  0  0  0  0
 23 24  1  0  0  0  0
 23 50  1  0  0  0  0
 23 51  1  0  0  0  0
 24 52  1  0  0  0  0
 25 26  1  0  0  0  0
 25 53  1  0  0  0  0
 25 54  1  0  0  0  0
 26 55  1  0  0  0  0
 27 56  1  0  0  0  0
 27 57  1  0  0  0  0
 28 31  1  0  0  0  0
 28 29  1  0  0  0  0
 29 58  1  0  0  0  0
 29 59  1  0  0  0  0
M  CHG  1   3   1
M  END
> <s_m_source_file>
AV-unprocessed.smi

> <i_m_source_file_index>
16

> <i_lp_mmshare_version>
43012

> <i_f3d_flags>
0

> <s_epik_input>
W0NIM11bQ0gyXU4oW0NIMl1bQ0gyXTEpW0NIMl1bQ0BASF0oW0NAQEhdMTIpTihbQ0gyXVtDSDJdTzIpYyhuW2NIXW4zKWMoYzM0KW5bY0hdbjRbQ0hdKFtDSDJdNSlbQ0gyXUM1KFtDSDJdW09IXSlbQ0gyXVtPSF0=

> <s_epik_cmdline>
J2VwaWtfcHl0aG9uJywgJy1waCcsICc3LjAnLCAnLXRuJywgJzgnLCAnLW1hJywgJzIwMCcsICctbWV0YWxfYmluZGluZycsICctaW1hZScsICc8aW5maWxlLm1hZT4nLCAnLW9tYWUnLCAnPG91dGZpbGUubWFlPic=

> <r_lp_tautomer_probability>
1

> <r_epik_Ionization_Penalty>
0.0135603

> <r_epik_Ionization_Penalty_Charging>
0.0131385

> <r_epik_Ionization_Penalty_Neutral>
0.000421734

> <r_epik_State_Penalty>
0.0102091

> <r_epik_Charging_Adjusted_Penalty>
0.0233476

> <i_epik_Tot_Q>
1

> <i_epik_Tot_abs_Q>
1

> <r_epik_Metal_State_Penalty>
0.0103746

> <b_epik_Metal_Only>
0

> <s_lp_Force_Field>
OPLS_2005

> <r_lp_Energy>
54.8635

> <b_lp_Chiralities_Consistent>
1

> <s_lp_Variant>
AV-unprocessed.smi:16-3

> <Gold.Version>
5.8.1

> <Gold.Id.Protein>
6NUR|6NUR_protein|mol2

> <Gold.PLP.Fitness>
49.1702

> <Gold.PLP.PLP>
-42.3975

> <Gold.PLP.part.hbond>
-3.4509

> <Gold.PLP.part.metal>
0.0000

> <Gold.PLP.part.buried>
-5.6484

> <Gold.PLP.part.nonpolar>
-32.8893

> <Gold.PLP.part.repulsive>
0.1107

> <Gold.PLP.ligand.clash>
0.0000

> <Gold.PLP.ligand.torsion>
0.9520

> <Gold.PLP.Chemscore.Hbond>
2.6903

> <Gold.PLP.Chemscore.CHOScore>
0.0000

> <Gold.PLP.Chemscore.Metal>
0.0000

> <Gold.Chemscore.Hbonds>
donor molecule, donor type, donor heavy atom, donor atom, acceptor molecule, acceptor atom, score
      L1  H    24    52       P1  7948  0.23
      P1  H  7997  8009       L1    12  1.00
      P1  H 10752 10765       L1    14  0.60

> <Gold.PLP.Chemscore.Internal.Correction>
0.6059

> <Gold.Rescore>
     Score         DG    S(hbond)    S(metal)    S(lipo)     H(rot)  DE(clash)    DE(int)     intcor
     15.57     -16.90       2.35        0.00     103.26       3.33       0.18       1.15       ----

> <Gold.Chemscore.Fitness>
15.5733

> <Gold.Chemscore.DG>
-16.9042

> <Gold.Chemscore.ZeroCoef>
-5.4800

> <Gold.Chemscore.Hbond>
2.3518

> <Gold.Chemscore.Metal>
0.0000

> <Gold.Chemscore.Lipo>
103.2598

> <Gold.Chemscore.Internal_Hbond>
0.0000

> <Gold.Chemscore.DEClash>
0.1785

> <Gold.Chemscore.DEInternal>
1.1525

> <Gold.Chemscore.Rot>
3.3251

> <Gold.Chemscore.Internal.Correction>
   9.000000E+99

> <Gold.Chemscore.Hbonds>
donor molecule, donor type, donor heavy atom, donor atom, acceptor molecule, acceptor atom, score
      L1  H    24    52       P1  7948  0.16
      P1  H  7997  8009       L1    12  0.46
      P1  H 10752 10765       L1    14  0.58

> <Gold.Chemscore.Hbond.Weighted>
-7.8550

> <Gold.Chemscore.Metal.Weighted>
-0.0000

> <Gold.Chemscore.Lipo.Weighted>
-12.0814

> <Gold.Chemscore.Internal_Hbond.Weighted>
0.0000

> <Gold.Chemscore.DEClash.Weighted>
0.1785

> <Gold.Chemscore.DEInternal.Weighted>
1.1525

> <Gold.Chemscore.Rot.Weighted>
8.5122

> <Gold.Chemscore.Internal.Correction.Weighted>
   9.000000E+99

> <Gold.Protein.RotatedTorsions>
[ 6907 6896 6895 6894 ] final   85.81 input  -60.11 | X-H torsion
[ 7974 7965 7964 7962 ] final  -43.78 input  175.53 | X-H torsion
[ 8008 7997 7996 7995 ] final -141.91 input   59.86 | X-H torsion
[ 10167 10162 10161 10158 ] final  171.48 input  -65.29 | X-H torsion
[ 10718 10713 10712 10709 ] final  -13.53 input   66.30 | X-H torsion
[ 10763 10752 10751 10750 ] final  174.71 input  -60.55 | X-H torsion
[ 11005 11000 10999 10996 ] final   78.34 input  -57.11 | X-H torsion

> <Gold.Protein.ActiveResidues>
 VAL166  LYS551  ARG553  GLY616  TRP617  ASP618  TYR619  PRO620  LYS621  CYS622 
 ASP623  PHE694  ASN695  SER759  ASP760  ASP761  ALA762  ILE779  LEU786  VAL792 
 PHE793  MET794  SER795  GLU796  ALA797  LYS798  CYS799  TRP800  GLU811  SER814 

> <Gold.Protein.RotatedAtoms>
  152.5382  134.2528  159.8905 H   0  0  0  0  0  0  0  0  0  0  0  0  # atno 6907 bound_to 6896
  151.2491  133.4353  159.2618 H   0  0  0  0  0  0  0  0  0  0  0  0  # atno 6908 bound_to 6896
  151.0556  134.9716  159.8290 H   0  0  0  0  0  0  0  0  0  0  0  0  # atno 6909 bound_to 6896
  145.9986  140.7100  142.9282 H   0  0  0  0  0  0  0  0  0  0  0  0  # atno 7974 bound_to 7965
  155.4856  140.0563  157.2961 H   0  0  0  0  0  0  0  0  0  0  0  0  # atno 8008 bound_to 7997
  154.4643  140.2011  156.0112 H   0  0  0  0  0  0  0  0  0  0  0  0  # atno 8009 bound_to 7997
  156.0947  140.3228  155.7866 H   0  0  0  0  0  0  0  0  0  0  0  0  # atno 8010 bound_to 7997
  139.5048  144.3481  151.9950 H   0  0  0  0  0  0  0  0  0  0  0  0  # atno 10167 bound_to 10162
  156.6289  130.4896  149.6136 H   0  0  0  0  0  0  0  0  0  0  0  0  # atno 10718 bound_to 10713
  154.4577  135.2766  155.1735 H   0  0  0  0  0  0  0  0  0  0  0  0  # atno 10763 bound_to 10752
  154.3536  135.6144  153.5659 H   0  0  0  0  0  0  0  0  0  0  0  0  # atno 10764 bound_to 10752
  152.9852  135.5817  154.4933 H   0  0  0  0  0  0  0  0  0  0  0  0  # atno 10765 bound_to 10752
  139.9217  134.7755  156.1637 H   0  0  0  0  0  0  0  0  0  0  0  0  # atno 11005 bound_to 11000
  144.6912  140.3193  143.7235 LP  0  0  0  0  0  0  0  0  0  0  0  0  # atno 17320 bound_to 7965
  145.7522  139.1797  143.2315 LP  0  0  0  0  0  0  0  0  0  0  0  0  # atno 17321 bound_to 7965
  140.2918  144.3745  150.6086 LP  0  0  0  0  0  0  0  0  0  0  0  0  # atno 17342 bound_to 10162
  140.5941  143.2167  151.7198 LP  0  0  0  0  0  0  0  0  0  0  0  0  # atno 17343 bound_to 10162
  156.2251  130.6760  151.1407 LP  0  0  0  0  0  0  0  0  0  0  0  0  # atno 17370 bound_to 10713
  157.7206  131.0684  150.6151 LP  0  0  0  0  0  0  0  0  0  0  0  0  # atno 17371 bound_to 10713
  141.0743  133.6783  156.2203 LP  0  0  0  0  0  0  0  0  0  0  0  0  # atno 17394 bound_to 11000
  140.6455  134.5121  157.5573 LP  0  0  0  0  0  0  0  0  0  0  0  0  # atno 17395 bound_to 11000

$$$$
