AV-unprocessed.smi:1235|AV-procd|sdf|5176|dock3
  -GOLD-   22720 4253D 1   1.00000     0.00000
 Structure written by MMmdl.
 50 51  0  0  0  0  0  0  0  0  2 V2000
  152.0169  143.2236  158.8961 C   0  0  0  0  0  0  0  0  0  0  0  0
  152.3096  141.8373  158.9079 O   0  0  0  0  0  0  0  0  0  0  0  0
  151.3384  141.0716  158.2153 C   0  0  0  0  0  0  0  0  0  0  0  0
  151.1830  141.6349  156.7947 C   0  0  0  0  0  0  0  0  0  0  0  0
  150.9310  140.5710  155.8177 N   0  0  0  0  0  0  0  0  0  0  0  0
  149.6895  140.6473  155.2093 N   0  0  0  0  0  0  0  0  0  0  0  0
  149.3418  139.7664  154.3275 C   0  0  0  0  0  0  0  0  0  0  0  0
  148.0161  139.8170  153.6499 C   0  0  0  0  0  0  0  0  0  0  0  0
  147.2004  140.7121  153.8761 O   0  0  0  0  0  0  0  0  0  0  0  0
  147.7771  138.8204  152.7801 N   0  0  0  0  0  0  0  0  0  0  0  0
  146.5495  138.6660  152.0129 C   0  0  0  0  0  0  0  0  0  0  0  0
  146.6379  137.4204  151.1150 C   0  0  0  0  0  0  0  0  0  0  0  0
  145.4158  136.5721  151.1520 N   0  3  1  0  0  0  0  0  0  0  0  0
  145.6958  135.1791  150.7091 C   0  0  0  0  0  0  0  0  0  0  0  0
  144.3999  134.3702  150.5410 C   0  0  0  0  0  0  0  0  0  0  0  0
  143.5772  134.3750  151.8336 C   0  0  0  0  0  0  0  0  0  0  0  0
  143.3164  135.8205  152.2782 C   0  0  0  0  0  0  0  0  0  0  0  0
  144.6212  136.6333  152.4199 C   0  0  1  0  0  0  0  0  0  0  0  0
  145.4248  136.2315  153.6757 C   0  0  0  0  0  0  0  0  0  0  0  0
  150.2402  138.6845  153.9620 C   0  0  0  0  0  0  0  0  0  0  0  0
  151.4456  138.6195  154.5689 C   0  0  0  0  0  0  0  0  0  0  0  0
  151.8628  139.6014  155.5714 C   0  0  0  0  0  0  0  0  0  0  0  0
  152.9512  139.5584  156.1440 O   0  0  0  0  0  0  0  0  0  0  0  0
  152.7937  143.7668  159.4347 H   0  0  0  0  0  0  0  0  0  0  0  0
  151.0627  143.4295  159.3828 H   0  0  0  0  0  0  0  0  0  0  0  0
  151.9812  143.6108  157.8769 H   0  0  0  0  0  0  0  0  0  0  0  0
  151.6467  140.0254  158.1780 H   0  0  0  0  0  0  0  0  0  0  0  0
  150.3843  141.1164  158.7435 H   0  0  0  0  0  0  0  0  0  0  0  0
  150.3619  142.3542  156.7791 H   0  0  0  0  0  0  0  0  0  0  0  0
  152.0719  142.2047  156.5183 H   0  0  0  0  0  0  0  0  0  0  0  0
  148.4964  138.1232  152.6501 H   0  0  0  0  0  0  0  0  0  0  0  0
  145.7229  138.5870  152.7191 H   0  0  0  0  0  0  0  0  0  0  0  0
  146.3778  139.5554  151.4040 H   0  0  0  0  0  0  0  0  0  0  0  0
  146.7853  137.7604  150.0888 H   0  0  0  0  0  0  0  0  0  0  0  0
  147.5190  136.8276  151.3616 H   0  0  0  0  0  0  0  0  0  0  0  0
  146.2223  135.1974  149.7541 H   0  0  0  0  0  0  0  0  0  0  0  0
  146.3613  134.6871  151.4191 H   0  0  0  0  0  0  0  0  0  0  0  0
  143.8075  134.7920  149.7280 H   0  0  0  0  0  0  0  0  0  0  0  0
  144.6349  133.3452  150.2527 H   0  0  0  0  0  0  0  0  0  0  0  0
  142.6321  133.8536  151.6795 H   0  0  0  0  0  0  0  0  0  0  0  0
  144.1077  133.8298  152.6150 H   0  0  0  0  0  0  0  0  0  0  0  0
  142.6723  136.3054  151.5432 H   0  0  0  0  0  0  0  0  0  0  0  0
  142.7604  135.8285  153.2164 H   0  0  0  0  0  0  0  0  0  0  0  0
  144.3062  137.6659  152.5647 H   0  0  0  0  0  0  0  0  0  0  0  0
  144.7938  136.2719  154.5640 H   0  0  0  0  0  0  0  0  0  0  0  0
  146.2593  136.9082  153.8568 H   0  0  0  0  0  0  0  0  0  0  0  0
  145.8233  135.2197  153.6086 H   0  0  0  0  0  0  0  0  0  0  0  0
  149.9584  137.9457  153.2257 H   0  0  0  0  0  0  0  0  0  0  0  0
  152.1236  137.8201  154.3079 H   0  0  0  0  0  0  0  0  0  0  0  0
  144.8078  136.9534  150.4410 H   0  0  0  0  0  0  0  0  0  0  0  0
  1  2  1  0  0  0  0
  1 24  1  0  0  0  0
  1 25  1  0  0  0  0
  1 26  1  0  0  0  0
  2  3  1  0  0  0  0
  3  4  1  0  0  0  0
  3 27  1  0  0  0  0
  3 28  1  0  0  0  0
  4  5  1  0  0  0  0
  4 29  1  0  0  0  0
  4 30  1  0  0  0  0
  5 22  1  0  0  0  0
  5  6  1  0  0  0  0
  6  7  2  0  0  0  0
  7  8  1  0  0  0  0
  7 20  1  0  0  0  0
  8  9  2  0  0  0  0
  8 10  1  0  0  0  0
 10 11  1  0  0  0  0
 10 31  1  0  0  0  0
 11 12  1  0  0  0  0
 11 32  1  0  0  0  0
 11 33  1  0  0  0  0
 12 13  1  0  0  0  0
 12 34  1  0  0  0  0
 12 35  1  0  0  0  0
 13 18  1  0  0  0  0
 13 14  1  0  0  0  0
 13 50  1  0  0  0  0
 14 15  1  0  0  0  0
 14 36  1  0  0  0  0
 14 37  1  0  0  0  0
 15 16  1  0  0  0  0
 15 38  1  0  0  0  0
 15 39  1  0  0  0  0
 16 17  1  0  0  0  0
 16 40  1  0  0  0  0
 16 41  1  0  0  0  0
 17 18  1  0  0  0  0
 17 42  1  0  0  0  0
 17 43  1  0  0  0  0
 18 19  1  0  0  0  0
 18 44  1  0  0  0  0
 19 45  1  0  0  0  0
 19 46  1  0  0  0  0
 19 47  1  0  0  0  0
 20 21  2  0  0  0  0
 20 48  1  0  0  0  0
 21 22  1  0  0  0  0
 21 49  1  0  0  0  0
 22 23  2  0  0  0  0
M  CHG  1  13   1
M  END
> <s_m_source_file>
AV-unprocessed.smi

> <i_m_source_file_index>
1235

> <i_lp_mmshare_version>
43012

> <i_f3d_flags>
0

> <s_epik_input>
W0NIM11PW0NIMl1bQ0gyXW4xbmMoW2NIXVtjSF1jMT1PKUMoPU8pW05IXVtDSDJdW0NIMl1OMltDSDJdW0NIMl1bQ0gyXVtDSDJdW0NASF0yW0NIM10=

> <s_epik_cmdline>
J2VwaWtfcHl0aG9uJywgJy1waCcsICc3LjAnLCAnLXRuJywgJzgnLCAnLW1hJywgJzIwMCcsICctbWV0YWxfYmluZGluZycsICctaW1hZScsICc8aW5maWxlLm1hZT4nLCAnLW9tYWUnLCAnPG91dGZpbGUubWFlPic=

> <r_lp_tautomer_probability>
1

> <r_epik_Ionization_Penalty>
0.00271975

> <r_epik_Ionization_Penalty_Charging>
0.00271407

> <r_epik_Ionization_Penalty_Neutral>
5.6803e-06

> <r_epik_State_Penalty>
0.00189271

> <r_epik_Charging_Adjusted_Penalty>
0.00460678

> <i_epik_Tot_Q>
1

> <i_epik_Tot_abs_Q>
1

> <r_epik_Metal_State_Penalty>
-0

> <b_epik_Metal_Only>
0

> <s_lp_Force_Field>
OPLS_2005

> <r_lp_Energy>
41.7034

> <b_lp_Chiralities_Consistent>
1

> <s_lp_Variant>
AV-unprocessed.smi:1235-2

> <Gold.Version>
5.8.1

> <Gold.Id.Protein>
6NUR|6NUR_protein|mol2

> <Gold.PLP.Fitness>
49.9153

> <Gold.PLP.PLP>
-43.7882

> <Gold.PLP.part.hbond>
-4.0000

> <Gold.PLP.part.metal>
0.0000

> <Gold.PLP.part.buried>
-2.7479

> <Gold.PLP.part.nonpolar>
-38.7915

> <Gold.PLP.part.repulsive>
0.3197

> <Gold.PLP.ligand.clash>
0.5325

> <Gold.PLP.ligand.torsion>
0.9041

> <Gold.PLP.Chemscore.Hbond>
2.7872

> <Gold.PLP.Chemscore.CHOScore>
0.0000

> <Gold.PLP.Chemscore.Metal>
0.0000

> <Gold.Chemscore.Hbonds>
donor molecule, donor type, donor heavy atom, donor atom, acceptor molecule, acceptor atom, score
      L1  H    10    31       P1  7948  0.83
      L1  H    13    50       P1 10171  0.91
      P1  H  7997  8009       L1    23  0.96

> <Gold.PLP.Chemscore.Internal.Correction>
0.1063

> <Gold.Rescore>
     Score         DG    S(hbond)    S(metal)    S(lipo)     H(rot)  DE(clash)    DE(int)     intcor
     18.35     -20.98       2.83        0.00      95.53       2.00       1.67       0.96       ----

> <Gold.Chemscore.Fitness>
18.3505

> <Gold.Chemscore.DG>
-20.9798

> <Gold.Chemscore.ZeroCoef>
-5.4800

> <Gold.Chemscore.Hbond>
2.8289

> <Gold.Chemscore.Metal>
0.0000

> <Gold.Chemscore.Lipo>
95.5265

> <Gold.Chemscore.Internal_Hbond>
0.0000

> <Gold.Chemscore.DEClash>
1.6668

> <Gold.Chemscore.DEInternal>
0.9625

> <Gold.Chemscore.Rot>
2.0020

> <Gold.Chemscore.Internal.Correction>
   9.000000E+99

> <Gold.Chemscore.Hbonds>
donor molecule, donor type, donor heavy atom, donor atom, acceptor molecule, acceptor atom, score
      L1  H    10    31       P1  7948  0.77
      L1  H    13    50       P1 10171  0.88
      P1  H  7997  8009       L1    23  0.90

> <Gold.Chemscore.Hbond.Weighted>
-9.4484

> <Gold.Chemscore.Metal.Weighted>
-0.0000

> <Gold.Chemscore.Lipo.Weighted>
-11.1766

> <Gold.Chemscore.Internal_Hbond.Weighted>
0.0000

> <Gold.Chemscore.DEClash.Weighted>
1.6668

> <Gold.Chemscore.DEInternal.Weighted>
0.9625

> <Gold.Chemscore.Rot.Weighted>
5.1252

> <Gold.Chemscore.Internal.Correction.Weighted>
   9.000000E+99

> <Gold.Protein.RotatedTorsions>
[ 6907 6896 6895 6894 ] final -102.51 input  -60.11 | X-H torsion
[ 7974 7965 7964 7962 ] final  164.27 input  175.53 | X-H torsion
[ 8008 7997 7996 7995 ] final -166.47 input   59.86 | X-H torsion
[ 10167 10162 10161 10158 ] final  -20.07 input  -65.29 | X-H torsion
[ 10718 10713 10712 10709 ] final  131.59 input   66.30 | X-H torsion
[ 10763 10752 10751 10750 ] final  119.32 input  -60.55 | X-H torsion
[ 11005 11000 10999 10996 ] final   28.62 input  -57.11 | X-H torsion

> <Gold.Protein.ActiveResidues>
 VAL166  LYS551  ARG553  GLY616  TRP617  ASP618  TYR619  PRO620  LYS621  CYS622 
 ASP623  PHE694  ASN695  SER759  ASP760  ASP761  ALA762  ILE779  LEU786  VAL792 
 PHE793  MET794  SER795  GLU796  ALA797  LYS798  CYS799  TRP800  GLU811  SER814 

> <Gold.Protein.RotatedAtoms>
  150.7199  134.0570  159.3817 H   0  0  0  0  0  0  0  0  0  0  0  0  # atno 6907 bound_to 6896
  151.8549  135.0542  160.0472 H   0  0  0  0  0  0  0  0  0  0  0  0  # atno 6908 bound_to 6896
  152.2762  133.5392  159.5506 H   0  0  0  0  0  0  0  0  0  0  0  0  # atno 6909 bound_to 6896
  144.7553  139.8301  143.6352 H   0  0  0  0  0  0  0  0  0  0  0  0  # atno 7974 bound_to 7965
  155.8642  140.0983  157.1593 H   0  0  0  0  0  0  0  0  0  0  0  0  # atno 8008 bound_to 7997
  154.3992  140.1359  156.4061 H   0  0  0  0  0  0  0  0  0  0  0  0  # atno 8009 bound_to 7997
  155.7822  140.3458  155.5306 H   0  0  0  0  0  0  0  0  0  0  0  0  # atno 8010 bound_to 7997
  140.7273  143.4758  151.0185 H   0  0  0  0  0  0  0  0  0  0  0  0  # atno 10167 bound_to 10162
  157.4953  131.1092  150.9501 H   0  0  0  0  0  0  0  0  0  0  0  0  # atno 10718 bound_to 10713
  153.5812  135.3483  155.2875 H   0  0  0  0  0  0  0  0  0  0  0  0  # atno 10763 bound_to 10752
  154.8667  135.4182  154.2618 H   0  0  0  0  0  0  0  0  0  0  0  0  # atno 10764 bound_to 10752
  153.3405  135.7049  153.6942 H   0  0  0  0  0  0  0  0  0  0  0  0  # atno 10765 bound_to 10752
  140.3137  134.2621  155.7729 H   0  0  0  0  0  0  0  0  0  0  0  0  # atno 11005 bound_to 11000
  146.1555  139.4651  143.0022 LP  0  0  0  0  0  0  0  0  0  0  0  0  # atno 17320 bound_to 7965
  145.6802  141.0193  143.1610 LP  0  0  0  0  0  0  0  0  0  0  0  0  # atno 17321 bound_to 7965
  139.8453  143.7510  152.3179 LP  0  0  0  0  0  0  0  0  0  0  0  0  # atno 17342 bound_to 10162
  139.7673  144.7488  151.0276 LP  0  0  0  0  0  0  0  0  0  0  0  0  # atno 17343 bound_to 10162
  157.0190  130.5666  149.5329 LP  0  0  0  0  0  0  0  0  0  0  0  0  # atno 17370 bound_to 10713
  156.0197  130.5291  150.8239 LP  0  0  0  0  0  0  0  0  0  0  0  0  # atno 17371 bound_to 10713
  141.2102  133.7725  156.9945 LP  0  0  0  0  0  0  0  0  0  0  0  0  # atno 17394 bound_to 11000
  140.1002  134.9540  157.1912 LP  0  0  0  0  0  0  0  0  0  0  0  0  # atno 17395 bound_to 11000

$$$$
