AV-unprocessed.smi:1535|AV-procd|sdf|6177|dock1
  -GOLD-   22720 6333D 1   1.00000     0.00000
 Structure written by MMmdl.
 47 48  0  0  0  0  0  0  0  0  2 V2000
  152.5071  143.0901  160.7842 C   0  0  0  0  0  0  0  0  0  0  0  0
  152.2175  142.3172  159.5088 C   0  0  0  0  0  0  0  0  0  0  0  0
  151.3084  142.8680  158.5780 C   0  0  0  0  0  0  0  0  0  0  0  0
  151.0637  142.1373  157.4217 C   0  0  0  0  0  0  0  0  0  0  0  0
  150.2334  142.4063  156.3319 N   0  3  0  0  0  0  0  0  0  0  0  0
  150.3212  141.3886  155.4321 C   0  0  0  0  0  0  0  0  0  0  0  0
  151.1863  140.4667  155.9366 N   0  0  0  0  0  0  0  0  0  0  0  0
  151.6136  139.1838  155.3621 C   0  0  0  0  0  0  0  0  0  0  0  0
  150.4375  138.2503  154.9941 C   0  0  1  0  0  0  0  0  0  0  0  0
  150.8922  137.4564  153.9177 O   0  0  0  0  0  0  0  0  0  0  0  0
  149.9839  137.2995  156.1317 C   0  0  0  0  0  0  0  0  0  0  0  0
  148.8289  136.4464  155.8368 N   0  0  0  0  0  0  0  0  0  0  0  0
  147.8353  137.2063  155.0849 C   0  0  0  0  0  0  0  0  0  0  0  0
  149.2124  135.2284  155.1205 C   0  0  0  0  0  0  0  0  0  0  0  0
  149.8706  134.1241  155.9668 C   0  0  1  0  0  0  0  0  0  0  0  0
  150.0460  132.8412  155.1441 C   0  0  0  0  0  0  0  0  0  0  0  0
  151.1613  134.5651  156.5209 C   0  0  0  0  0  0  0  0  0  0  0  0
  152.1748  134.9122  156.9576 N   0  0  0  0  0  0  0  0  0  0  0  0
  151.6868  140.8982  157.1717 C   0  0  0  0  0  0  0  0  0  0  0  0
  152.5893  140.3450  158.0777 C   0  0  0  0  0  0  0  0  0  0  0  0
  152.8482  141.0706  159.2621 C   0  0  0  0  0  0  0  0  0  0  0  0
  153.8202  140.4845  160.2720 C   0  0  0  0  0  0  0  0  0  0  0  0
  151.9805  144.0447  160.8013 H   0  0  0  0  0  0  0  0  0  0  0  0
  153.5737  143.2980  160.8734 H   0  0  0  0  0  0  0  0  0  0  0  0
  152.1911  142.5186  161.6573 H   0  0  0  0  0  0  0  0  0  0  0  0
  150.8240  143.8166  158.7588 H   0  0  0  0  0  0  0  0  0  0  0  0
  149.7905  141.3183  154.4933 H   0  0  0  0  0  0  0  0  0  0  0  0
  152.1804  139.4300  154.4626 H   0  0  0  0  0  0  0  0  0  0  0  0
  152.3179  138.6933  156.0338 H   0  0  0  0  0  0  0  0  0  0  0  0
  149.5981  138.8360  154.6172 H   0  0  0  0  0  0  0  0  0  0  0  0
  150.1401  137.0984  153.4707 H   0  0  0  0  0  0  0  0  0  0  0  0
  150.8255  136.6529  156.3873 H   0  0  0  0  0  0  0  0  0  0  0  0
  149.7945  137.8670  157.0420 H   0  0  0  0  0  0  0  0  0  0  0  0
  146.9167  136.6365  154.9510 H   0  0  0  0  0  0  0  0  0  0  0  0
  148.2137  137.4862  154.1008 H   0  0  0  0  0  0  0  0  0  0  0  0
  147.5637  138.1202  155.6145 H   0  0  0  0  0  0  0  0  0  0  0  0
  148.3404  134.8189  154.6085 H   0  0  0  0  0  0  0  0  0  0  0  0
  149.9299  135.4850  154.3455 H   0  0  0  0  0  0  0  0  0  0  0  0
  149.2354  133.8810  156.8175 H   0  0  0  0  0  0  0  0  0  0  0  0
  150.4912  132.0488  155.7465 H   0  0  0  0  0  0  0  0  0  0  0  0
  150.6944  133.0097  154.2836 H   0  0  0  0  0  0  0  0  0  0  0  0
  149.0873  132.4764  154.7737 H   0  0  0  0  0  0  0  0  0  0  0  0
  153.0728  139.3970  157.8949 H   0  0  0  0  0  0  0  0  0  0  0  0
  154.1925  139.5116  159.9497 H   0  0  0  0  0  0  0  0  0  0  0  0
  153.3341  140.3500  161.2385 H   0  0  0  0  0  0  0  0  0  0  0  0
  154.6788  141.1432  160.4036 H   0  0  0  0  0  0  0  0  0  0  0  0
  149.6508  143.2243  156.2072 H   0  0  0  0  0  0  0  0  0  0  0  0
  1  2  1  0  0  0  0
  1 23  1  0  0  0  0
  1 24  1  0  0  0  0
  1 25  1  0  0  0  0
  2 21  1  0  0  0  0
  2  3  2  0  0  0  0
  3  4  1  0  0  0  0
  3 26  1  0  0  0  0
  4 19  2  0  0  0  0
  4  5  1  0  0  0  0
  5  6  2  0  0  0  0
  5 47  1  0  0  0  0
  6  7  1  0  0  0  0
  6 27  1  0  0  0  0
  7  8  1  0  0  0  0
  7 19  1  0  0  0  0
  8  9  1  0  0  0  0
  8 28  1  0  0  0  0
  8 29  1  0  0  0  0
  9 10  1  0  0  0  0
  9 11  1  0  0  0  0
  9 30  1  0  0  0  0
 10 31  1  0  0  0  0
 11 12  1  0  0  0  0
 11 32  1  0  0  0  0
 11 33  1  0  0  0  0
 12 13  1  0  0  0  0
 12 14  1  0  0  0  0
 13 34  1  0  0  0  0
 13 35  1  0  0  0  0
 13 36  1  0  0  0  0
 14 15  1  0  0  0  0
 14 37  1  0  0  0  0
 14 38  1  0  0  0  0
 15 16  1  0  0  0  0
 15 17  1  0  0  0  0
 15 39  1  0  0  0  0
 16 40  1  0  0  0  0
 16 41  1  0  0  0  0
 16 42  1  0  0  0  0
 17 18  3  0  0  0  0
 19 20  1  0  0  0  0
 20 21  2  0  0  0  0
 20 43  1  0  0  0  0
 21 22  1  0  0  0  0
 22 44  1  0  0  0  0
 22 45  1  0  0  0  0
 22 46  1  0  0  0  0
M  CHG  1   5   1
M  END
> <s_m_source_file>
AV-unprocessed.smi

> <i_m_source_file_index>
1535

> <i_lp_mmshare_version>
43012

> <i_f3d_flags>
0

> <s_epik_input>
W0NIM11jKFtjSF0xKWMoW0NIM10pW2NIXWMoYzEyKW4oW2NIXW4yKVtDSDJdW0NASF0oW09IXSlbQ0gyXU4oW0NIM10pW0NIMl1bQ0BIXShbQ0gzXSlDI04=

> <s_epik_cmdline>
J2VwaWtfcHl0aG9uJywgJy1waCcsICc3LjAnLCAnLXRuJywgJzgnLCAnLW1hJywgJzIwMCcsICctbWV0YWxfYmluZGluZycsICctaW1hZScsICc8aW5maWxlLm1hZT4nLCAnLW9tYWUnLCAnPG91dGZpbGUubWFlPic=

> <r_epik_Ionization_Penalty>
1.22846

> <r_epik_Ionization_Penalty_Charging>
1.21333

> <r_epik_Ionization_Penalty_Neutral>
0.0151341

> <r_epik_State_Penalty>
1.27012

> <r_epik_Charging_Adjusted_Penalty>
2.48344

> <i_epik_Tot_Q>
1

> <i_epik_Tot_abs_Q>
1

> <r_epik_Metal_State_Penalty>
5.28751

> <b_epik_Metal_Only>
0

> <s_lp_Force_Field>
OPLS_2005

> <r_lp_Energy>
29.5902

> <b_lp_Chiralities_Consistent>
1

> <s_lp_Variant>
AV-unprocessed.smi:1535-8

> <Gold.Version>
5.8.1

> <Gold.Id.Protein>
6NUR|6NUR_protein|mol2

> <Gold.PLP.Fitness>
51.4499

> <Gold.PLP.PLP>
-41.5679

> <Gold.PLP.part.hbond>
-4.2839

> <Gold.PLP.part.metal>
0.0000

> <Gold.PLP.part.buried>
-4.0507

> <Gold.PLP.part.nonpolar>
-32.4274

> <Gold.PLP.part.repulsive>
0.1344

> <Gold.PLP.ligand.clash>
0.0000

> <Gold.PLP.ligand.torsion>
0.7945

> <Gold.PLP.Chemscore.Hbond>
3.7312

> <Gold.PLP.Chemscore.CHOScore>
0.0000

> <Gold.PLP.Chemscore.Metal>
0.0000

> <Gold.Chemscore.Hbonds>
donor molecule, donor type, donor heavy atom, donor atom, acceptor molecule, acceptor atom, score
      L1  H     5    47       P1  8028  2.00
      L1  H    10    31       P1  7948  0.67
      P1  H 10752 10763       L1    18  0.75

> <Gold.PLP.Chemscore.Internal.Correction>
0.2773

> <Gold.Rescore>
     Score         DG    S(hbond)    S(metal)    S(lipo)     H(rot)  DE(clash)    DE(int)     intcor
     16.51     -18.52       2.49        0.00      97.16       2.59       0.01       2.00       ----

> <Gold.Chemscore.Fitness>
16.5147

> <Gold.Chemscore.DG>
-18.5214

> <Gold.Chemscore.ZeroCoef>
-5.4800

> <Gold.Chemscore.Hbond>
2.4875

> <Gold.Chemscore.Metal>
0.0000

> <Gold.Chemscore.Lipo>
97.1647

> <Gold.Chemscore.Internal_Hbond>
0.0000

> <Gold.Chemscore.DEClash>
0.0102

> <Gold.Chemscore.DEInternal>
1.9965

> <Gold.Chemscore.Rot>
2.5918

> <Gold.Chemscore.Internal.Correction>
   9.000000E+99

> <Gold.Chemscore.Hbonds>
donor molecule, donor type, donor heavy atom, donor atom, acceptor molecule, acceptor atom, score
      L1  H     5    47       P1  8028  1.00
      L1  H    10    31       P1  7948  0.13
      P1  H 10752 10763       L1    18  0.29

> <Gold.Chemscore.Hbond.Weighted>
-8.3082

> <Gold.Chemscore.Metal.Weighted>
-0.0000

> <Gold.Chemscore.Lipo.Weighted>
-11.3683

> <Gold.Chemscore.Internal_Hbond.Weighted>
0.0000

> <Gold.Chemscore.DEClash.Weighted>
0.0102

> <Gold.Chemscore.DEInternal.Weighted>
1.9965

> <Gold.Chemscore.Rot.Weighted>
6.6351

> <Gold.Chemscore.Internal.Correction.Weighted>
   9.000000E+99

> <Gold.Protein.RotatedTorsions>
[ 6907 6896 6895 6894 ] final -114.92 input  -60.11 | X-H torsion
[ 7974 7965 7964 7962 ] final -119.47 input  175.53 | X-H torsion
[ 8008 7997 7996 7995 ] final  103.88 input   59.86 | X-H torsion
[ 10167 10162 10161 10158 ] final   43.07 input  -65.29 | X-H torsion
[ 10718 10713 10712 10709 ] final  126.63 input   66.30 | X-H torsion
[ 10763 10752 10751 10750 ] final  102.06 input  -60.55 | X-H torsion
[ 11005 11000 10999 10996 ] final   66.32 input  -57.11 | X-H torsion

> <Gold.Protein.ActiveResidues>
 VAL166  LYS551  ARG553  GLY616  TRP617  ASP618  TYR619  PRO620  LYS621  CYS622 
 ASP623  PHE694  ASN695  SER759  ASP760  ASP761  ALA762  ILE779  LEU786  VAL792 
 PHE793  MET794  SER795  GLU796  ALA797  LYS798  CYS799  TRP800  GLU811  SER814 

> <Gold.Protein.RotatedAtoms>
  150.7938  133.8732  159.3264 H   0  0  0  0  0  0  0  0  0  0  0  0  # atno 6907 bound_to 6896
  151.6562  135.0993  160.0180 H   0  0  0  0  0  0  0  0  0  0  0  0  # atno 6908 bound_to 6896
  152.4017  133.6789  159.6357 H   0  0  0  0  0  0  0  0  0  0  0  0  # atno 6909 bound_to 6896
  145.0622  140.8298  143.4146 H   0  0  0  0  0  0  0  0  0  0  0  0  # atno 7974 bound_to 7965
  156.1524  140.3157  155.8669 H   0  0  0  0  0  0  0  0  0  0  0  0  # atno 8008 bound_to 7997
  155.3946  140.0496  157.3056 H   0  0  0  0  0  0  0  0  0  0  0  0  # atno 8009 bound_to 7997
  154.5070  140.2150  155.9243 H   0  0  0  0  0  0  0  0  0  0  0  0  # atno 8010 bound_to 7997
  140.3481  144.2385  150.6148 H   0  0  0  0  0  0  0  0  0  0  0  0  # atno 10167 bound_to 10162
  157.5402  131.1097  150.8870 H   0  0  0  0  0  0  0  0  0  0  0  0  # atno 10718 bound_to 10713
  153.3347  135.4023  155.1524 H   0  0  0  0  0  0  0  0  0  0  0  0  # atno 10763 bound_to 10752
  154.8631  135.3619  154.5424 H   0  0  0  0  0  0  0  0  0  0  0  0  # atno 10764 bound_to 10752
  153.5865  135.7075  153.5501 H   0  0  0  0  0  0  0  0  0  0  0  0  # atno 10765 bound_to 10752
  139.9839  134.6700  156.0212 H   0  0  0  0  0  0  0  0  0  0  0  0  # atno 11005 bound_to 11000
  145.1395  139.2581  143.5497 LP  0  0  0  0  0  0  0  0  0  0  0  0  # atno 17320 bound_to 7965
  146.3525  140.1068  142.8605 LP  0  0  0  0  0  0  0  0  0  0  0  0  # atno 17321 bound_to 7965
  140.5245  143.2257  151.8336 LP  0  0  0  0  0  0  0  0  0  0  0  0  # atno 17342 bound_to 10162
  139.4830  144.4796  151.9323 LP  0  0  0  0  0  0  0  0  0  0  0  0  # atno 17343 bound_to 10162
  156.9425  130.5390  149.5280 LP  0  0  0  0  0  0  0  0  0  0  0  0  # atno 17370 bound_to 10713
  156.0491  130.5563  150.8948 LP  0  0  0  0  0  0  0  0  0  0  0  0  # atno 17371 bound_to 10713
  141.1507  133.6549  156.4004 LP  0  0  0  0  0  0  0  0  0  0  0  0  # atno 17394 bound_to 11000
  140.5041  134.6457  157.5260 LP  0  0  0  0  0  0  0  0  0  0  0  0  # atno 17395 bound_to 11000

$$$$
