AV-unprocessed.smi:2007|AV-procd|sdf|8133|dock9
  -GOLD-   2272010363D 1   1.00000     0.00000
 Structure written by MMmdl.
 36 37  0  0  0  0  0  0  0  0  1 V2000
  151.6177  145.8611  159.9791 C   0  0  0  0  0  0  0  0  0  0  0  0
  150.8605  144.5393  159.7939 C   0  0  2  0  0  0  0  0  0  0  0  0
  151.4536  143.7185  158.6273 C   0  0  0  0  0  0  0  0  0  0  0  0
  151.7598  142.3192  158.9279 N   0  0  0  0  0  0  0  0  0  0  0  0
  151.7501  141.5030  157.7196 C   0  0  0  0  0  0  0  0  0  0  0  0
  152.0512  140.0254  158.0255 C   0  0  0  0  0  0  0  0  0  0  0  0
  153.3048  139.9225  158.6926 O   0  0  0  0  0  0  0  0  0  0  0  0
  153.3473  140.6752  159.9009 C   0  0  0  0  0  0  0  0  0  0  0  0
  153.0475  142.1536  159.5996 C   0  0  0  0  0  0  0  0  0  0  0  0
  149.4501  144.8319  159.5431 N   0  0  0  0  0  0  0  0  0  0  0  0
  148.4350  144.5788  160.3831 C   0  0  0  0  0  0  0  0  0  0  0  0
  148.5823  144.0934  161.5050 O   0  0  0  0  0  0  0  0  0  0  0  0
  147.2556  144.9208  159.8357 N   0  0  0  0  0  0  0  0  0  0  0  0
  145.9550  144.7509  160.3784 C   0  0  0  0  0  0  0  0  0  0  0  0
  144.8284  145.1560  159.7804 N   0  0  0  0  0  0  0  0  0  0  0  0
  143.6954  144.8687  160.5456 C   0  0  0  0  0  0  0  0  0  0  0  0
  143.9796  144.2390  161.7319 C   0  0  0  0  0  0  0  0  0  0  0  0
  145.6919  143.9815  161.9366 S   0  0  0  0  0  0  0  0  0  0  0  0
  152.6713  145.6811  160.1943 H   0  0  0  0  0  0  0  0  0  0  0  0
  151.2070  146.4362  160.8096 H   0  0  0  0  0  0  0  0  0  0  0  0
  151.5626  146.4815  159.0838 H   0  0  0  0  0  0  0  0  0  0  0  0
  150.9676  143.9857  160.7272 H   0  0  0  0  0  0  0  0  0  0  0  0
  150.7405  143.7544  157.8023 H   0  0  0  0  0  0  0  0  0  0  0  0
  152.3542  144.2120  158.2585 H   0  0  0  0  0  0  0  0  0  0  0  0
  150.7779  141.5767  157.2308 H   0  0  0  0  0  0  0  0  0  0  0  0
  152.4863  141.8827  157.0097 H   0  0  0  0  0  0  0  0  0  0  0  0
  151.2649  139.5915  158.6452 H   0  0  0  0  0  0  0  0  0  0  0  0
  152.0890  139.4463  157.1028 H   0  0  0  0  0  0  0  0  0  0  0  0
  152.6257  140.2738  160.6145 H   0  0  0  0  0  0  0  0  0  0  0  0
  154.3345  140.5721  160.3510 H   0  0  0  0  0  0  0  0  0  0  0  0
  153.8447  142.5646  158.9784 H   0  0  0  0  0  0  0  0  0  0  0  0
  153.0653  142.7087  160.5361 H   0  0  0  0  0  0  0  0  0  0  0  0
  149.2283  145.2339  158.6443 H   0  0  0  0  0  0  0  0  0  0  0  0
  147.2902  145.3280  158.9129 H   0  0  0  0  0  0  0  0  0  0  0  0
  142.7228  145.1489  160.1689 H   0  0  0  0  0  0  0  0  0  0  0  0
  143.2881  143.9138  162.4948 H   0  0  0  0  0  0  0  0  0  0  0  0
  1  2  1  0  0  0  0
  1 19  1  0  0  0  0
  1 20  1  0  0  0  0
  1 21  1  0  0  0  0
  2  3  1  0  0  0  0
  2 10  1  0  0  0  0
  2 22  1  0  0  0  0
  3  4  1  0  0  0  0
  3 23  1  0  0  0  0
  3 24  1  0  0  0  0
  4  9  1  0  0  0  0
  4  5  1  0  0  0  0
  5  6  1  0  0  0  0
  5 25  1  0  0  0  0
  5 26  1  0  0  0  0
  6  7  1  0  0  0  0
  6 27  1  0  0  0  0
  6 28  1  0  0  0  0
  7  8  1  0  0  0  0
  8  9  1  0  0  0  0
  8 29  1  0  0  0  0
  8 30  1  0  0  0  0
  9 31  1  0  0  0  0
  9 32  1  0  0  0  0
 10 11  1  0  0  0  0
 10 33  1  0  0  0  0
 11 12  2  0  0  0  0
 11 13  1  0  0  0  0
 13 14  1  0  0  0  0
 13 34  1  0  0  0  0
 14 18  1  0  0  0  0
 14 15  2  0  0  0  0
 15 16  1  0  0  0  0
 16 17  2  0  0  0  0
 16 35  1  0  0  0  0
 17 18  1  0  0  0  0
 17 36  1  0  0  0  0
M  END
> <s_m_source_file>
AV-unprocessed.smi

> <i_m_source_file_index>
2007

> <i_lp_mmshare_version>
43012

> <i_f3d_flags>
0

> <s_epik_input>
W0NIMl0xW0NIMl1PW0NIMl1bQ0gyXU4xW0NIMl1bQ0BASF0oW0NIM10pW05IXUMoPU8pW05IXWMybltjSF1bY0hdczI=

> <s_epik_cmdline>
J2VwaWtfcHl0aG9uJywgJy1waCcsICc3LjAnLCAnLXRuJywgJzgnLCAnLW1hJywgJzIwMCcsICctbWV0YWxfYmluZGluZycsICctaW1hZScsICc8aW5maWxlLm1hZT4nLCAnLW9tYWUnLCAnPG91dGZpbGUubWFlPic=

> <r_lp_tautomer_probability>
0.999

> <r_epik_Ionization_Penalty>
0.219197

> <r_epik_Ionization_Penalty_Charging>
0

> <r_epik_Ionization_Penalty_Neutral>
0.219197

> <r_epik_State_Penalty>
0.209349

> <r_epik_Charging_Adjusted_Penalty>
0.209349

> <i_epik_Tot_Q>
0

> <i_epik_Tot_abs_Q>
0

> <r_epik_Metal_State_Penalty>
0.254604

> <b_epik_Metal_Only>
0

> <s_lp_Force_Field>
OPLS_2005

> <r_lp_Energy>
23.8142

> <b_lp_Chiralities_Consistent>
1

> <s_lp_Variant>
AV-unprocessed.smi:2007-1

> <Gold.Version>
5.8.1

> <Gold.Id.Protein>
6NUR|6NUR_protein|mol2

> <Gold.PLP.Fitness>
43.0982

> <Gold.PLP.PLP>
-33.7848

> <Gold.PLP.part.hbond>
-3.9448

> <Gold.PLP.part.metal>
0.0000

> <Gold.PLP.part.buried>
-4.0783

> <Gold.PLP.part.nonpolar>
-26.1732

> <Gold.PLP.part.repulsive>
0.6073

> <Gold.PLP.ligand.clash>
0.0000

> <Gold.PLP.ligand.torsion>
1.0106

> <Gold.PLP.Chemscore.Hbond>
3.7680

> <Gold.PLP.Chemscore.CHOScore>
0.0000

> <Gold.PLP.Chemscore.Metal>
0.0000

> <Gold.Chemscore.Hbonds>
donor molecule, donor type, donor heavy atom, donor atom, acceptor molecule, acceptor atom, score
      L1  H    10    33       P1  8029  0.99
      L1  H    13    34       P1  8029  1.00
      P1  H  6933  6944       L1    12  0.77
      P1  H  7997  8009       L1     7  0.84

> <Gold.PLP.Chemscore.Internal.Correction>
0.0305

> <Gold.Rescore>
     Score         DG    S(hbond)    S(metal)    S(lipo)     H(rot)  DE(clash)    DE(int)     intcor
     20.75     -23.22       3.57        0.00      84.33       1.58       0.31       2.16       ----

> <Gold.Chemscore.Fitness>
20.7501

> <Gold.Chemscore.DG>
-23.2227

> <Gold.Chemscore.ZeroCoef>
-5.4800

> <Gold.Chemscore.Hbond>
3.5709

> <Gold.Chemscore.Metal>
0.0000

> <Gold.Chemscore.Lipo>
84.3341

> <Gold.Chemscore.Internal_Hbond>
0.0000

> <Gold.Chemscore.DEClash>
0.3120

> <Gold.Chemscore.DEInternal>
2.1606

> <Gold.Chemscore.Rot>
1.5825

> <Gold.Chemscore.Internal.Correction>
   9.000000E+99

> <Gold.Chemscore.Hbonds>
donor molecule, donor type, donor heavy atom, donor atom, acceptor molecule, acceptor atom, score
      L1  H    10    33       P1  8029  0.84
      L1  H    13    34       P1  8029  1.00
      P1  H  6933  6944       L1    12  0.62
      P1  H  7997  8009       L1     7  0.32

> <Gold.Chemscore.Hbond.Weighted>
-11.9268

> <Gold.Chemscore.Metal.Weighted>
-0.0000

> <Gold.Chemscore.Lipo.Weighted>
-9.8671

> <Gold.Chemscore.Internal_Hbond.Weighted>
0.0000

> <Gold.Chemscore.DEClash.Weighted>
0.3120

> <Gold.Chemscore.DEInternal.Weighted>
2.1606

> <Gold.Chemscore.Rot.Weighted>
4.0512

> <Gold.Chemscore.Internal.Correction.Weighted>
   9.000000E+99

> <Gold.Protein.RotatedTorsions>
[ 6907 6896 6895 6894 ] final  148.70 input  -60.11 | X-H torsion
[ 7974 7965 7964 7962 ] final  -79.18 input  175.53 | X-H torsion
[ 8008 7997 7996 7995 ] final  148.19 input   59.86 | X-H torsion
[ 10167 10162 10161 10158 ] final    8.58 input  -65.29 | X-H torsion
[ 10718 10713 10712 10709 ] final    2.70 input   66.30 | X-H torsion
[ 10763 10752 10751 10750 ] final -138.69 input  -60.55 | X-H torsion
[ 11005 11000 10999 10996 ] final -114.16 input  -57.11 | X-H torsion

> <Gold.Protein.ActiveResidues>
 VAL166  LYS551  ARG553  GLY616  TRP617  ASP618  TYR619  PRO620  LYS621  CYS622 
 ASP623  PHE694  ASN695  SER759  ASP760  ASP761  ALA762  ILE779  LEU786  VAL792 
 PHE793  MET794  SER795  GLU796  ALA797  LYS798  CYS799  TRP800  GLU811  SER814 

> <Gold.Protein.RotatedAtoms>
  152.1380  133.4447  159.4752 H   0  0  0  0  0  0  0  0  0  0  0  0  # atno 6907 bound_to 6896
  150.6883  134.2340  159.4455 H   0  0  0  0  0  0  0  0  0  0  0  0  # atno 6908 bound_to 6896
  152.0228  134.9812  160.0621 H   0  0  0  0  0  0  0  0  0  0  0  0  # atno 6909 bound_to 6896
  145.5766  140.9456  143.1366 H   0  0  0  0  0  0  0  0  0  0  0  0  # atno 7974 bound_to 7965
  156.2799  140.2135  156.5659 H   0  0  0  0  0  0  0  0  0  0  0  0  # atno 8008 bound_to 7997
  154.7175  140.0506  157.0631 H   0  0  0  0  0  0  0  0  0  0  0  0  # atno 8009 bound_to 7997
  155.0523  140.3157  155.4691 H   0  0  0  0  0  0  0  0  0  0  0  0  # atno 8010 bound_to 7997
  140.6306  143.8003  150.7290 H   0  0  0  0  0  0  0  0  0  0  0  0  # atno 10167 bound_to 10162
  156.8668  130.5606  149.5659 H   0  0  0  0  0  0  0  0  0  0  0  0  # atno 10718 bound_to 10713
  154.8630  135.3604  154.5426 H   0  0  0  0  0  0  0  0  0  0  0  0  # atno 10763 bound_to 10752
  153.6047  135.7011  153.5375 H   0  0  0  0  0  0  0  0  0  0  0  0  # atno 10764 bound_to 10752
  153.3261  135.4137  155.1418 H   0  0  0  0  0  0  0  0  0  0  0  0  # atno 10765 bound_to 10752
  141.0569  133.9598  157.2738 H   0  0  0  0  0  0  0  0  0  0  0  0  # atno 11005 bound_to 11000
  144.7413  139.7442  143.7310 LP  0  0  0  0  0  0  0  0  0  0  0  0  # atno 17320 bound_to 7965
  146.1746  139.4911  142.9905 LP  0  0  0  0  0  0  0  0  0  0  0  0  # atno 17321 bound_to 7965
  140.1613  143.4273  152.2065 LP  0  0  0  0  0  0  0  0  0  0  0  0  # atno 17342 bound_to 10162
  139.5520  144.7345  151.4405 LP  0  0  0  0  0  0  0  0  0  0  0  0  # atno 17343 bound_to 10162
  156.0747  130.5772  150.9451 LP  0  0  0  0  0  0  0  0  0  0  0  0  # atno 17370 bound_to 10713
  157.6218  131.0929  150.8607 LP  0  0  0  0  0  0  0  0  0  0  0  0  # atno 17371 bound_to 10713
  139.9398  135.0192  156.8671 LP  0  0  0  0  0  0  0  0  0  0  0  0  # atno 17394 bound_to 11000
  140.5946  134.0229  155.7513 LP  0  0  0  0  0  0  0  0  0  0  0  0  # atno 17395 bound_to 11000

$$$$
