AV-unprocessed.smi:685|AV-procd|sdf|3334|dock1
  -GOLD-   22720 0303D 1   1.00000     0.00000
 Structure written by MMmdl.
 50 51  0  0  0  0  0  0  0  0  1 V2000
  150.6663  134.2300  156.3010 C   0  0  0  0  0  0  0  0  0  0  0  0
  150.1118  135.3962  157.0687 C   0  0  0  0  0  0  0  0  0  0  0  0
  149.5127  135.1841  158.2287 N   0  0  0  0  0  0  0  0  0  0  0  0
  149.1328  136.4075  158.6482 N   0  0  0  0  0  0  0  0  0  0  0  0
  148.4351  136.5413  159.9121 C   0  0  0  0  0  0  0  0  0  0  0  0
  149.4897  137.3946  157.7502 C   0  0  0  0  0  0  0  0  0  0  0  0
  149.1720  138.8360  157.9872 C   0  0  0  0  0  0  0  0  0  0  0  0
  150.1295  136.7757  156.7094 C   0  0  0  0  0  0  0  0  0  0  0  0
  150.7218  137.3814  155.4628 C   0  0  0  0  0  0  0  0  0  0  0  0
  151.9927  138.2079  155.7545 C   0  0  1  0  0  0  0  0  0  0  0  0
  152.8259  138.4839  154.4927 C   0  0  0  0  0  0  0  0  0  0  0  0
  151.6361  139.4804  156.3757 N   0  0  0  0  0  0  0  0  0  0  0  0
  152.2215  140.0035  157.4646 C   0  0  0  0  0  0  0  0  0  0  0  0
  153.1445  139.4520  158.0650 O   0  0  0  0  0  0  0  0  0  0  0  0
  151.6824  141.3550  157.9427 C   0  0  0  0  0  0  0  0  0  0  0  0
  152.5876  142.0189  158.9977 C   0  0  0  0  0  0  0  0  0  0  0  0
  151.9178  143.2070  159.7110 C   0  0  0  0  0  0  0  0  0  0  0  0
  152.2483  144.5605  159.0778 C   0  0  0  0  0  0  0  0  0  0  0  0
  151.9117  145.5945  160.1567 C   0  0  0  0  0  0  0  0  0  0  0  0
  152.0070  144.8573  161.5009 C   0  0  0  0  0  0  0  0  0  0  0  0
  152.3425  143.3980  161.1706 C   0  0  0  0  0  0  0  0  0  0  0  0
  151.6376  134.4708  155.8684 H   0  0  0  0  0  0  0  0  0  0  0  0
  150.0002  133.9507  155.4845 H   0  0  0  0  0  0  0  0  0  0  0  0
  150.7983  133.3540  156.9371 H   0  0  0  0  0  0  0  0  0  0  0  0
  147.4361  136.9417  159.7380 H   0  0  0  0  0  0  0  0  0  0  0  0
  148.9839  137.2218  160.5636 H   0  0  0  0  0  0  0  0  0  0  0  0
  148.3460  135.5737  160.4084 H   0  0  0  0  0  0  0  0  0  0  0  0
  149.4267  139.4474  157.1219 H   0  0  0  0  0  0  0  0  0  0  0  0
  149.7279  139.2181  158.8435 H   0  0  0  0  0  0  0  0  0  0  0  0
  148.1084  138.9714  158.1851 H   0  0  0  0  0  0  0  0  0  0  0  0
  150.9520  136.6123  154.7251 H   0  0  0  0  0  0  0  0  0  0  0  0
  149.9795  138.0188  154.9816 H   0  0  0  0  0  0  0  0  0  0  0  0
  152.6226  137.6516  156.4513 H   0  0  0  0  0  0  0  0  0  0  0  0
  153.1778  137.5588  154.0360 H   0  0  0  0  0  0  0  0  0  0  0  0
  153.7066  139.0825  154.7280 H   0  0  0  0  0  0  0  0  0  0  0  0
  152.2456  139.0244  153.7441 H   0  0  0  0  0  0  0  0  0  0  0  0
  150.8877  140.0031  155.9443 H   0  0  0  0  0  0  0  0  0  0  0  0
  151.5813  142.0077  157.0752 H   0  0  0  0  0  0  0  0  0  0  0  0
  150.6795  141.2180  158.3494 H   0  0  0  0  0  0  0  0  0  0  0  0
  152.9027  141.2776  159.7336 H   0  0  0  0  0  0  0  0  0  0  0  0
  153.4998  142.3764  158.5175 H   0  0  0  0  0  0  0  0  0  0  0  0
  150.8346  143.0769  159.6805 H   0  0  0  0  0  0  0  0  0  0  0  0
  153.3137  144.6121  158.8470 H   0  0  0  0  0  0  0  0  0  0  0  0
  151.7010  144.7334  158.1507 H   0  0  0  0  0  0  0  0  0  0  0  0
  152.5824  146.4533  160.1110 H   0  0  0  0  0  0  0  0  0  0  0  0
  150.8962  145.9656  160.0128 H   0  0  0  0  0  0  0  0  0  0  0  0
  152.7622  145.2973  162.1529 H   0  0  0  0  0  0  0  0  0  0  0  0
  151.0512  144.9174  162.0232 H   0  0  0  0  0  0  0  0  0  0  0  0
  151.8480  142.6990  161.8455 H   0  0  0  0  0  0  0  0  0  0  0  0
  153.4182  143.2438  161.2677 H   0  0  0  0  0  0  0  0  0  0  0  0
  1  2  1  0  0  0  0
  1 22  1  0  0  0  0
  1 23  1  0  0  0  0
  1 24  1  0  0  0  0
  2  8  1  0  0  0  0
  2  3  2  0  0  0  0
  3  4  1  0  0  0  0
  4  5  1  0  0  0  0
  4  6  1  0  0  0  0
  5 25  1  0  0  0  0
  5 26  1  0  0  0  0
  5 27  1  0  0  0  0
  6  7  1  0  0  0  0
  6  8  2  0  0  0  0
  7 28  1  0  0  0  0
  7 29  1  0  0  0  0
  7 30  1  0  0  0  0
  8  9  1  0  0  0  0
  9 10  1  0  0  0  0
  9 31  1  0  0  0  0
  9 32  1  0  0  0  0
 10 11  1  0  0  0  0
 10 12  1  0  0  0  0
 10 33  1  0  0  0  0
 11 34  1  0  0  0  0
 11 35  1  0  0  0  0
 11 36  1  0  0  0  0
 12 13  1  0  0  0  0
 12 37  1  0  0  0  0
 13 14  2  0  0  0  0
 13 15  1  0  0  0  0
 15 16  1  0  0  0  0
 15 38  1  0  0  0  0
 15 39  1  0  0  0  0
 16 17  1  0  0  0  0
 16 40  1  0  0  0  0
 16 41  1  0  0  0  0
 17 21  1  0  0  0  0
 17 18  1  0  0  0  0
 17 42  1  0  0  0  0
 18 19  1  0  0  0  0
 18 43  1  0  0  0  0
 18 44  1  0  0  0  0
 19 20  1  0  0  0  0
 19 45  1  0  0  0  0
 19 46  1  0  0  0  0
 20 21  1  0  0  0  0
 20 47  1  0  0  0  0
 20 48  1  0  0  0  0
 21 49  1  0  0  0  0
 21 50  1  0  0  0  0
M  END
> <s_m_source_file>
AV-unprocessed.smi

> <i_m_source_file_index>
685

> <i_lp_mmshare_version>
43012

> <i_f3d_flags>
0

> <s_epik_input>
W0NIM11jMW5uKFtDSDNdKWMoW0NIM10pYzFbQ0gyXVtDQEhdKFtDSDNdKVtOSF1DKD1PKVtDSDJdW0NIMl1bQ0hdMltDSDJdW0NIMl1bQ0gyXVtDSDJdMg==

> <s_epik_cmdline>
J2VwaWtfcHl0aG9uJywgJy1waCcsICc3LjAnLCAnLXRuJywgJzgnLCAnLW1hJywgJzIwMCcsICctbWV0YWxfYmluZGluZycsICctaW1hZScsICc8aW5maWxlLm1hZT4nLCAnLW9tYWUnLCAnPG91dGZpbGUubWFlPic=

> <r_lp_tautomer_probability>
1

> <r_epik_Ionization_Penalty>
0.0131144

> <r_epik_Ionization_Penalty_Charging>
0

> <r_epik_Ionization_Penalty_Neutral>
0.0131144

> <r_epik_State_Penalty>
0.0101889

> <r_epik_Charging_Adjusted_Penalty>
0.0101889

> <i_epik_Tot_Q>
0

> <i_epik_Tot_abs_Q>
0

> <r_epik_Metal_State_Penalty>
0.00996794

> <b_epik_Metal_Only>
0

> <s_lp_Force_Field>
OPLS_2005

> <r_lp_Energy>
16.0397

> <b_lp_Chiralities_Consistent>
1

> <s_lp_Variant>
AV-unprocessed.smi:685-2

> <Gold.Version>
5.8.1

> <Gold.Id.Protein>
6NUR|6NUR_protein|mol2

> <Gold.PLP.Fitness>
44.1447

> <Gold.PLP.PLP>
-39.9976

> <Gold.PLP.part.hbond>
-2.0000

> <Gold.PLP.part.metal>
0.0000

> <Gold.PLP.part.buried>
-3.6180

> <Gold.PLP.part.nonpolar>
-34.3740

> <Gold.PLP.part.repulsive>
0.1110

> <Gold.PLP.ligand.clash>
0.0000

> <Gold.PLP.ligand.torsion>
1.0185

> <Gold.PLP.Chemscore.Hbond>
2.0000

> <Gold.PLP.Chemscore.CHOScore>
0.0000

> <Gold.PLP.Chemscore.Metal>
0.0000

> <Gold.Chemscore.Hbonds>
donor molecule, donor type, donor heavy atom, donor atom, acceptor molecule, acceptor atom, score
      P1  H  6896  6909       L1     3  1.00
      P1  H  7997  8009       L1    14  0.80

> <Gold.PLP.Chemscore.Internal.Correction>
0.1841

> <Gold.Rescore>
     Score         DG    S(hbond)    S(metal)    S(lipo)     H(rot)  DE(clash)    DE(int)     intcor
     19.06     -20.83       1.77        0.00     114.10       1.53       0.46       1.31       ----

> <Gold.Chemscore.Fitness>
19.0617

> <Gold.Chemscore.DG>
-20.8320

> <Gold.Chemscore.ZeroCoef>
-5.4800

> <Gold.Chemscore.Hbond>
1.7699

> <Gold.Chemscore.Metal>
0.0000

> <Gold.Chemscore.Lipo>
114.0958

> <Gold.Chemscore.Internal_Hbond>
0.0000

> <Gold.Chemscore.DEClash>
0.4563

> <Gold.Chemscore.DEInternal>
1.3139

> <Gold.Chemscore.Rot>
1.5268

> <Gold.Chemscore.Internal.Correction>
   9.000000E+99

> <Gold.Chemscore.Hbonds>
donor molecule, donor type, donor heavy atom, donor atom, acceptor molecule, acceptor atom, score
      P1  H  6896  6909       L1     3  0.69
      P1  H  7997  8009       L1    14  0.12

> <Gold.Chemscore.Hbond.Weighted>
-5.9114

> <Gold.Chemscore.Metal.Weighted>
-0.0000

> <Gold.Chemscore.Lipo.Weighted>
-13.3492

> <Gold.Chemscore.Internal_Hbond.Weighted>
0.0000

> <Gold.Chemscore.DEClash.Weighted>
0.4563

> <Gold.Chemscore.DEInternal.Weighted>
1.3139

> <Gold.Chemscore.Rot.Weighted>
3.9086

> <Gold.Chemscore.Internal.Correction.Weighted>
   9.000000E+99

> <Gold.Protein.RotatedTorsions>
[ 6907 6896 6895 6894 ] final   27.77 input  -60.11 | X-H torsion
[ 7974 7965 7964 7962 ] final  172.94 input  175.53 | X-H torsion
[ 8008 7997 7996 7995 ] final  161.94 input   59.86 | X-H torsion
[ 10167 10162 10161 10158 ] final -102.78 input  -65.29 | X-H torsion
[ 10718 10713 10712 10709 ] final  -45.93 input   66.30 | X-H torsion
[ 10763 10752 10751 10750 ] final  163.46 input  -60.55 | X-H torsion
[ 11005 11000 10999 10996 ] final  106.26 input  -57.11 | X-H torsion

> <Gold.Protein.ActiveResidues>
 VAL166  LYS551  ARG553  GLY616  TRP617  ASP618  TYR619  PRO620  LYS621  CYS622 
 ASP623  PHE694  ASN695  SER759  ASP760  ASP761  ALA762  ILE779  LEU786  VAL792 
 PHE793  MET794  SER795  GLU796  ALA797  LYS798  CYS799  TRP800  GLU811  SER814 

> <Gold.Protein.RotatedAtoms>
  152.0072  134.9896  160.0566 H   0  0  0  0  0  0  0  0  0  0  0  0  # atno 6907 bound_to 6896
  152.1463  133.4490  159.4800 H   0  0  0  0  0  0  0  0  0  0  0  0  # atno 6908 bound_to 6896
  150.6870  134.2161  159.4421 H   0  0  0  0  0  0  0  0  0  0  0  0  # atno 6909 bound_to 6896
  144.7255  139.9573  143.6434 H   0  0  0  0  0  0  0  0  0  0  0  0  # atno 7974 bound_to 7965
  156.2067  140.1764  156.7784 H   0  0  0  0  0  0  0  0  0  0  0  0  # atno 8008 bound_to 7997
  154.5665  140.0690  156.8930 H   0  0  0  0  0  0  0  0  0  0  0  0  # atno 8009 bound_to 7997
  155.2751  140.3345  155.4264 H   0  0  0  0  0  0  0  0  0  0  0  0  # atno 8010 bound_to 7997
  140.2270  143.3634  152.0920 H   0  0  0  0  0  0  0  0  0  0  0  0  # atno 10167 bound_to 10162
  156.2234  130.4167  149.8965 H   0  0  0  0  0  0  0  0  0  0  0  0  # atno 10718 bound_to 10713
  154.2941  135.2760  155.2641 H   0  0  0  0  0  0  0  0  0  0  0  0  # atno 10763 bound_to 10752
  154.5107  135.5783  153.6606 H   0  0  0  0  0  0  0  0  0  0  0  0  # atno 10764 bound_to 10752
  152.9910  135.6180  154.3107 H   0  0  0  0  0  0  0  0  0  0  0  0  # atno 10765 bound_to 10752
  139.8812  134.9363  156.5639 H   0  0  0  0  0  0  0  0  0  0  0  0  # atno 11005 bound_to 11000
  146.0665  139.3655  143.0549 LP  0  0  0  0  0  0  0  0  0  0  0  0  # atno 17320 bound_to 7965
  145.8025  140.9764  143.0991 LP  0  0  0  0  0  0  0  0  0  0  0  0  # atno 17321 bound_to 7965
  139.5123  144.6915  151.5746 LP  0  0  0  0  0  0  0  0  0  0  0  0  # atno 17342 bound_to 10162
  140.6213  143.9253  150.6528 LP  0  0  0  0  0  0  0  0  0  0  0  0  # atno 17343 bound_to 10162
  156.6603  130.8779  151.3546 LP  0  0  0  0  0  0  0  0  0  0  0  0  # atno 17370 bound_to 10713
  157.7098  130.9427  150.1052 LP  0  0  0  0  0  0  0  0  0  0  0  0  # atno 17371 bound_to 10713
  140.8148  133.8400  155.8842 LP  0  0  0  0  0  0  0  0  0  0  0  0  # atno 17394 bound_to 11000
  140.9472  134.1825  157.4754 LP  0  0  0  0  0  0  0  0  0  0  0  0  # atno 17395 bound_to 11000

$$$$
