AV-unprocessed.smi:668|AV-procd|sdf|3259|dock1
  -GOLD-   22720 0213D 1   1.00000     0.00000
 Structure written by MMmdl.
 38 39  0  0  0  0  0  0  0  0  1 V2000
  134.8555  137.3035  155.0943 C   0  0  0  0  0  0  0  0  0  0  0  0
  135.5634  138.4998  154.7885 O   0  0  0  0  0  0  0  0  0  0  0  0
  136.8964  138.4029  154.4458 C   0  0  0  0  0  0  0  0  0  0  0  0
  137.5793  137.2031  154.7277 C   0  0  0  0  0  0  0  0  0  0  0  0
  138.9373  137.0923  154.3733 C   0  0  0  0  0  0  0  0  0  0  0  0
  139.5699  138.1882  153.7399 C   0  0  0  0  0  0  0  0  0  0  0  0
  140.9349  138.2013  153.3472 N   0  0  0  0  0  0  0  0  0  0  0  0
  141.7950  137.1699  153.3018 C   0  0  0  0  0  0  0  0  0  0  0  0
  141.5299  136.0083  153.6108 O   0  0  0  0  0  0  0  0  0  0  0  0
  142.9954  137.5591  152.8506 N   0  0  0  0  0  0  0  0  0  0  0  0
  144.1403  136.6749  152.6467 C   0  0  2  0  0  0  0  0  0  0  0  0
  145.3810  137.4329  152.1492 C   0  0  0  0  0  0  0  0  0  0  0  0
  146.1121  136.4358  151.2562 C   0  0  0  0  0  0  0  0  0  0  0  0
  144.9884  135.6748  150.5558 C   0  0  0  0  0  0  0  0  0  0  0  0
  143.8308  135.5994  151.5722 C   0  0  1  0  0  0  0  0  0  0  0  0
  143.6784  134.1970  152.1838 C   0  0  0  0  0  0  0  0  0  0  0  0
  143.6492  134.1133  153.5163 N   0  0  0  0  0  0  0  0  0  0  0  0
  143.5837  133.2038  151.4651 O   0  0  0  0  0  0  0  0  0  0  0  0
  138.8040  139.3517  153.5208 C   0  0  0  0  0  0  0  0  0  0  0  0
  137.5011  139.4631  153.8548 N   0  0  0  0  0  0  0  0  0  0  0  0
  133.8245  137.5496  155.3484 H   0  0  0  0  0  0  0  0  0  0  0  0
  135.2934  136.7908  155.9520 H   0  0  0  0  0  0  0  0  0  0  0  0
  134.8324  136.6219  154.2427 H   0  0  0  0  0  0  0  0  0  0  0  0
  137.0704  136.3811  155.2093 H   0  0  0  0  0  0  0  0  0  0  0  0
  139.4659  136.1804  154.6039 H   0  0  0  0  0  0  0  0  0  0  0  0
  141.2734  139.0801  152.9837 H   0  0  0  0  0  0  0  0  0  0  0  0
  143.1251  138.5330  152.6192 H   0  0  0  0  0  0  0  0  0  0  0  0
  144.3907  136.1977  153.5971 H   0  0  0  0  0  0  0  0  0  0  0  0
  145.0848  138.2965  151.5514 H   0  0  0  0  0  0  0  0  0  0  0  0
  146.0036  137.7964  152.9674 H   0  0  0  0  0  0  0  0  0  0  0  0
  146.7941  136.9187  150.5558 H   0  0  0  0  0  0  0  0  0  0  0  0
  146.6951  135.7493  151.8717 H   0  0  0  0  0  0  0  0  0  0  0  0
  144.6622  136.2356  149.6787 H   0  0  0  0  0  0  0  0  0  0  0  0
  145.3236  134.6990  150.2004 H   0  0  0  0  0  0  0  0  0  0  0  0
  142.9076  135.8442  151.0426 H   0  0  0  0  0  0  0  0  0  0  0  0
  143.5520  133.2140  153.9648 H   0  0  0  0  0  0  0  0  0  0  0  0
  143.7262  134.9534  154.0713 H   0  0  0  0  0  0  0  0  0  0  0  0
  139.2468  140.2196  153.0543 H   0  0  0  0  0  0  0  0  0  0  0  0
  1  2  1  0  0  0  0
  1 21  1  0  0  0  0
  1 22  1  0  0  0  0
  1 23  1  0  0  0  0
  2  3  1  0  0  0  0
  3 20  1  0  0  0  0
  3  4  2  0  0  0  0
  4  5  1  0  0  0  0
  4 24  1  0  0  0  0
  5  6  2  0  0  0  0
  5 25  1  0  0  0  0
  6  7  1  0  0  0  0
  6 19  1  0  0  0  0
  7  8  1  0  0  0  0
  7 26  1  0  0  0  0
  8  9  2  0  0  0  0
  8 10  1  0  0  0  0
 10 11  1  0  0  0  0
 10 27  1  0  0  0  0
 11 15  1  0  0  0  0
 11 12  1  0  0  0  0
 11 28  1  0  0  0  0
 12 13  1  0  0  0  0
 12 29  1  0  0  0  0
 12 30  1  0  0  0  0
 13 14  1  0  0  0  0
 13 31  1  0  0  0  0
 13 32  1  0  0  0  0
 14 15  1  0  0  0  0
 14 33  1  0  0  0  0
 14 34  1  0  0  0  0
 15 16  1  0  0  0  0
 15 35  1  0  0  0  0
 16 17  1  0  0  0  0
 16 18  2  0  0  0  0
 17 36  1  0  0  0  0
 17 37  1  0  0  0  0
 19 20  2  0  0  0  0
 19 38  1  0  0  0  0
M  END
> <s_m_source_file>
AV-unprocessed.smi

> <i_m_source_file_index>
668

> <i_lp_mmshare_version>
43012

> <i_f3d_flags>
0

> <s_epik_input>
W0NIM11PYzFbY0hdW2NIXWMoW2NIXW4xKVtOSF1DKD1PKVtOSF1bQ0BASF0yW0NIMl1bQ0gyXVtDSDJdW0NASF0yQyg9TylbTkgyXQ==

> <s_epik_cmdline>
J2VwaWtfcHl0aG9uJywgJy1waCcsICc3LjAnLCAnLXRuJywgJzgnLCAnLW1hJywgJzIwMCcsICctbWV0YWxfYmluZGluZycsICctaW1hZScsICc8aW5maWxlLm1hZT4nLCAnLW9tYWUnLCAnPG91dGZpbGUubWFlPic=

> <r_lp_tautomer_probability>
1

> <r_epik_Ionization_Penalty>
9.0916e-05

> <r_epik_Ionization_Penalty_Charging>
0

> <r_epik_Ionization_Penalty_Neutral>
9.0916e-05

> <r_epik_State_Penalty>
-0

> <r_epik_Charging_Adjusted_Penalty>
0

> <i_epik_Tot_Q>
0

> <i_epik_Tot_abs_Q>
0

> <r_epik_Metal_State_Penalty>
-0

> <b_epik_Metal_Only>
0

> <s_lp_Force_Field>
OPLS_2005

> <r_lp_Energy>
16.4016

> <b_lp_Chiralities_Consistent>
1

> <s_lp_Variant>
AV-unprocessed.smi:668-1

> <Gold.Version>
5.8.1

> <Gold.Id.Protein>
6NUR|6NUR_protein|mol2

> <Gold.PLP.Fitness>
39.5209

> <Gold.PLP.PLP>
-31.2173

> <Gold.PLP.part.hbond>
-2.1109

> <Gold.PLP.part.metal>
0.0000

> <Gold.PLP.part.buried>
-2.1212

> <Gold.PLP.part.nonpolar>
-27.1708

> <Gold.PLP.part.repulsive>
0.4005

> <Gold.PLP.ligand.clash>
0.0214

> <Gold.PLP.ligand.torsion>
0.3476

> <Gold.PLP.Chemscore.Hbond>
2.0000

> <Gold.PLP.Chemscore.CHOScore>
1.0000

> <Gold.PLP.Chemscore.Metal>
0.0000

> <Gold.Chemscore.Hbonds>
donor molecule, donor type, donor heavy atom, donor atom, acceptor molecule, acceptor atom, score
      L1  H    10    27       P1 10175  1.00
      L1  H    17    36       P1 10957  1.00
      L1  C    19    38       P1 10160  1.00

> <Gold.PLP.Chemscore.Internal.Correction>
0.0203

> <Gold.Rescore>
     Score         DG    S(hbond)    S(metal)    S(lipo)     H(rot)  DE(clash)    DE(int)     intcor
     12.07     -14.41       1.91        0.00      62.61       1.86       1.04       1.30       ----

> <Gold.Chemscore.Fitness>
12.0657

> <Gold.Chemscore.DG>
-14.4054

> <Gold.Chemscore.ZeroCoef>
-5.4800

> <Gold.Chemscore.Hbond>
1.9083

> <Gold.Chemscore.Metal>
0.0000

> <Gold.Chemscore.Lipo>
62.6127

> <Gold.Chemscore.Internal_Hbond>
0.0000

> <Gold.Chemscore.DEClash>
1.0405

> <Gold.Chemscore.DEInternal>
1.2991

> <Gold.Chemscore.Rot>
1.8648

> <Gold.Chemscore.Internal.Correction>
   9.000000E+99

> <Gold.Chemscore.Hbonds>
donor molecule, donor type, donor heavy atom, donor atom, acceptor molecule, acceptor atom, score
      L1  H    10    27       P1 10175  0.98
      L1  H    17    36       P1 10957  0.99

> <Gold.Chemscore.Hbond.Weighted>
-6.3736

> <Gold.Chemscore.Metal.Weighted>
-0.0000

> <Gold.Chemscore.Lipo.Weighted>
-7.3257

> <Gold.Chemscore.Internal_Hbond.Weighted>
0.0000

> <Gold.Chemscore.DEClash.Weighted>
1.0405

> <Gold.Chemscore.DEInternal.Weighted>
1.2991

> <Gold.Chemscore.Rot.Weighted>
4.7739

> <Gold.Chemscore.Internal.Correction.Weighted>
   9.000000E+99

> <Gold.Protein.RotatedTorsions>
[ 6907 6896 6895 6894 ] final  -73.74 input  -60.11 | X-H torsion
[ 7974 7965 7964 7962 ] final -164.25 input  175.53 | X-H torsion
[ 8008 7997 7996 7995 ] final  114.65 input   59.86 | X-H torsion
[ 10167 10162 10161 10158 ] final  157.11 input  -65.29 | X-H torsion
[ 10718 10713 10712 10709 ] final -108.24 input   66.30 | X-H torsion
[ 10763 10752 10751 10750 ] final    2.57 input  -60.55 | X-H torsion
[ 11005 11000 10999 10996 ] final  -45.13 input  -57.11 | X-H torsion

> <Gold.Protein.ActiveResidues>
 VAL166  LYS551  ARG553  GLY616  TRP617  ASP618  TYR619  PRO620  LYS621  CYS622 
 ASP623  PHE694  ASN695  SER759  ASP760  ASP761  ALA762  ILE779  LEU786  VAL792 
 PHE793  MET794  SER795  GLU796  ALA797  LYS798  CYS799  TRP800  GLU811  SER814 

> <Gold.Protein.RotatedAtoms>
  150.7119  134.4971  159.5543 H   0  0  0  0  0  0  0  0  0  0  0  0  # atno 6907 bound_to 6896
  152.2577  134.8064  160.0445 H   0  0  0  0  0  0  0  0  0  0  0  0  # atno 6908 bound_to 6896
  151.8789  133.3456  159.3796 H   0  0  0  0  0  0  0  0  0  0  0  0  # atno 6909 bound_to 6896
  144.7302  140.2988  143.6208 H   0  0  0  0  0  0  0  0  0  0  0  0  # atno 7974 bound_to 7965
  156.2334  140.2955  156.0248 H   0  0  0  0  0  0  0  0  0  0  0  0  # atno 8008 bound_to 7997
  155.2161  140.0414  157.2958 H   0  0  0  0  0  0  0  0  0  0  0  0  # atno 8009 bound_to 7997
  154.6035  140.2433  155.7768 H   0  0  0  0  0  0  0  0  0  0  0  0  # atno 8010 bound_to 7997
  139.4822  144.4947  151.8257 H   0  0  0  0  0  0  0  0  0  0  0  0  # atno 10167 bound_to 10162
  156.0476  130.5703  150.7934 H   0  0  0  0  0  0  0  0  0  0  0  0  # atno 10718 bound_to 10713
  153.2940  135.6951  153.7266 H   0  0  0  0  0  0  0  0  0  0  0  0  # atno 10763 bound_to 10752
  153.6206  135.3428  155.3010 H   0  0  0  0  0  0  0  0  0  0  0  0  # atno 10764 bound_to 10752
  154.8532  135.4385  154.2031 H   0  0  0  0  0  0  0  0  0  0  0  0  # atno 10765 bound_to 10752
  141.0495  133.6748  156.2970 H   0  0  0  0  0  0  0  0  0  0  0  0  # atno 11005 bound_to 11000
  145.7781  139.1881  143.2173 LP  0  0  0  0  0  0  0  0  0  0  0  0  # atno 17320 bound_to 7965
  146.0856  140.7714  142.9620 LP  0  0  0  0  0  0  0  0  0  0  0  0  # atno 17321 bound_to 7965
  140.4435  144.1954  150.5892 LP  0  0  0  0  0  0  0  0  0  0  0  0  # atno 17342 bound_to 10162
  140.4659  143.2431  151.9156 LP  0  0  0  0  0  0  0  0  0  0  0  0  # atno 17343 bound_to 10162
  157.5368  131.0939  150.9881 LP  0  0  0  0  0  0  0  0  0  0  0  0  # atno 17370 bound_to 10713
  157.0174  130.5660  149.5327 LP  0  0  0  0  0  0  0  0  0  0  0  0  # atno 17371 bound_to 10713
  140.6082  134.5486  157.5529 LP  0  0  0  0  0  0  0  0  0  0  0  0  # atno 17394 bound_to 11000
  139.9339  134.7912  156.0855 LP  0  0  0  0  0  0  0  0  0  0  0  0  # atno 17395 bound_to 11000

$$$$
