AV-unprocessed.smi:1844|AV-procd|sdf|7508|dock10
  -GOLD-   22720 9213D 1   1.00000     0.00000
 Structure written by MMmdl.
 45 46  0  0  0  0  0  0  0  0  1 V2000
  144.9256  144.7113  158.6979 C   0  0  0  0  0  0  0  0  0  0  0  0
  145.7959  144.0343  157.7484 N   0  0  0  0  0  0  0  0  0  0  0  0
  146.4493  142.8876  157.9981 C   0  0  0  0  0  0  0  0  0  0  0  0
  146.3491  142.3097  159.0817 O   0  0  0  0  0  0  0  0  0  0  0  0
  147.2654  142.4145  156.8772 C   0  0  0  0  0  0  0  0  0  0  0  0
  146.8134  142.4438  155.4939 C   0  0  0  0  0  0  0  0  0  0  0  0
  147.6122  142.0036  154.5020 C   0  0  0  0  0  0  0  0  0  0  0  0
  148.9549  141.4790  154.7670 C   0  0  0  0  0  0  0  0  0  0  0  0
  149.6906  141.0796  153.8640 O   0  0  0  0  0  0  0  0  0  0  0  0
  149.3368  141.4611  156.0801 N   0  0  0  0  0  0  0  0  0  0  0  0
  150.6620  140.9533  156.4735 C   0  0  0  0  0  0  0  0  0  0  0  0
  151.0834  141.3679  157.8905 C   0  0  0  0  0  0  0  0  0  0  0  0
  150.4250  141.0290  158.8752 O   0  0  0  0  0  0  0  0  0  0  0  0
  152.2032  142.1020  157.9722 N   0  0  0  0  0  0  0  0  0  0  0  0
  152.7974  142.6100  159.2069 C   0  0  2  0  0  0  0  0  0  0  0  0
  153.0699  141.4360  160.1710 C   0  0  0  0  0  0  0  0  0  0  0  0
  153.6313  141.9213  161.5150 C   0  0  0  0  0  0  0  0  0  0  0  0
  152.6968  142.9527  162.1607 C   0  0  0  0  0  0  0  0  0  0  0  0
  152.4411  144.1329  161.2117 C   0  0  0  0  0  0  0  0  0  0  0  0
  151.8708  143.6685  159.8559 C   0  0  1  0  0  0  0  0  0  0  0  0
  151.6202  144.8761  158.9346 C   0  0  0  0  0  0  0  0  0  0  0  0
  148.5000  141.9286  157.1124 C   0  0  0  0  0  0  0  0  0  0  0  0
  144.4724  145.5844  158.2288 H   0  0  0  0  0  0  0  0  0  0  0  0
  145.4899  145.0461  159.5688 H   0  0  0  0  0  0  0  0  0  0  0  0
  144.1249  144.0515  159.0339 H   0  0  0  0  0  0  0  0  0  0  0  0
  145.9131  144.4640  156.8425 H   0  0  0  0  0  0  0  0  0  0  0  0
  145.8356  142.8188  155.2297 H   0  0  0  0  0  0  0  0  0  0  0  0
  147.2555  142.0375  153.4829 H   0  0  0  0  0  0  0  0  0  0  0  0
  150.6844  139.8640  156.4164 H   0  0  0  0  0  0  0  0  0  0  0  0
  151.4200  141.2896  155.7634 H   0  0  0  0  0  0  0  0  0  0  0  0
  152.6818  142.3294  157.1126 H   0  0  0  0  0  0  0  0  0  0  0  0
  153.7476  143.0945  158.9732 H   0  0  0  0  0  0  0  0  0  0  0  0
  152.1473  140.8808  160.3462 H   0  0  0  0  0  0  0  0  0  0  0  0
  153.7701  140.7326  159.7186 H   0  0  0  0  0  0  0  0  0  0  0  0
  153.7720  141.0741  162.1867 H   0  0  0  0  0  0  0  0  0  0  0  0
  154.6167  142.3632  161.3623 H   0  0  0  0  0  0  0  0  0  0  0  0
  151.7498  142.4782  162.4209 H   0  0  0  0  0  0  0  0  0  0  0  0
  153.1295  143.3133  163.0945 H   0  0  0  0  0  0  0  0  0  0  0  0
  151.7540  144.8352  161.6849 H   0  0  0  0  0  0  0  0  0  0  0  0
  153.3735  144.6762  161.0514 H   0  0  0  0  0  0  0  0  0  0  0  0
  150.9049  143.1992  160.0494 H   0  0  0  0  0  0  0  0  0  0  0  0
  152.5540  145.3780  158.6794 H   0  0  0  0  0  0  0  0  0  0  0  0
  150.9717  145.6081  159.4169 H   0  0  0  0  0  0  0  0  0  0  0  0
  151.1362  144.5815  158.0034 H   0  0  0  0  0  0  0  0  0  0  0  0
  148.9365  141.8685  158.0997 H   0  0  0  0  0  0  0  0  0  0  0  0
  1  2  1  0  0  0  0
  1 23  1  0  0  0  0
  1 24  1  0  0  0  0
  1 25  1  0  0  0  0
  2  3  1  0  0  0  0
  2 26  1  0  0  0  0
  3  4  2  0  0  0  0
  3  5  1  0  0  0  0
  5 22  2  0  0  0  0
  5  6  1  0  0  0  0
  6  7  2  0  0  0  0
  6 27  1  0  0  0  0
  7  8  1  0  0  0  0
  7 28  1  0  0  0  0
  8  9  2  0  0  0  0
  8 10  1  0  0  0  0
 10 11  1  0  0  0  0
 10 22  1  0  0  0  0
 11 12  1  0  0  0  0
 11 29  1  0  0  0  0
 11 30  1  0  0  0  0
 12 13  2  0  0  0  0
 12 14  1  0  0  0  0
 14 15  1  0  0  0  0
 14 31  1  0  0  0  0
 15 20  1  0  0  0  0
 15 16  1  0  0  0  0
 15 32  1  0  0  0  0
 16 17  1  0  0  0  0
 16 33  1  0  0  0  0
 16 34  1  0  0  0  0
 17 18  1  0  0  0  0
 17 35  1  0  0  0  0
 17 36  1  0  0  0  0
 18 19  1  0  0  0  0
 18 37  1  0  0  0  0
 18 38  1  0  0  0  0
 19 20  1  0  0  0  0
 19 39  1  0  0  0  0
 19 40  1  0  0  0  0
 20 21  1  0  0  0  0
 20 41  1  0  0  0  0
 21 42  1  0  0  0  0
 21 43  1  0  0  0  0
 21 44  1  0  0  0  0
 22 45  1  0  0  0  0
M  END
> <s_m_source_file>
AV-unprocessed.smi

> <i_m_source_file_index>
1844

> <i_lp_mmshare_version>
43012

> <i_f3d_flags>
0

> <s_epik_input>
W0NIM11bTkhdQyg9TyljMVtjSF1bY0hdYyg9TyluKFtjSF0xKVtDSDJdQyg9TylbTkhdW0NAQEhdMltDSDJdW0NIMl1bQ0gyXVtDSDJdW0NASF0yW0NIM10=

> <s_epik_cmdline>
J2VwaWtfcHl0aG9uJywgJy1waCcsICc3LjAnLCAnLXRuJywgJzgnLCAnLW1hJywgJzIwMCcsICctbWV0YWxfYmluZGluZycsICctaW1hZScsICc8aW5maWxlLm1hZT4nLCAnLW9tYWUnLCAnPG91dGZpbGUubWFlPic=

> <r_lp_tautomer_probability>
1

> <r_epik_Ionization_Penalty>
3.66612e-07

> <r_epik_Ionization_Penalty_Charging>
5.18929e-08

> <r_epik_Ionization_Penalty_Neutral>
3.14719e-07

> <r_epik_State_Penalty>
-0

> <r_epik_Charging_Adjusted_Penalty>
5.18929e-08

> <i_epik_Tot_Q>
0

> <i_epik_Tot_abs_Q>
0

> <r_epik_Metal_State_Penalty>
-0

> <b_epik_Metal_Only>
0

> <s_lp_Force_Field>
OPLS_2005

> <r_lp_Energy>
22.707

> <b_lp_Chiralities_Consistent>
1

> <s_lp_Variant>
AV-unprocessed.smi:1844-1

> <Gold.Version>
5.8.1

> <Gold.Id.Protein>
6NUR|6NUR_protein|mol2

> <Gold.PLP.Fitness>
49.1167

> <Gold.PLP.PLP>
-44.3153

> <Gold.PLP.part.hbond>
-4.2096

> <Gold.PLP.part.metal>
0.0000

> <Gold.PLP.part.buried>
-1.5153

> <Gold.PLP.part.nonpolar>
-38.8249

> <Gold.PLP.part.repulsive>
1.7141

> <Gold.PLP.ligand.clash>
0.0000

> <Gold.PLP.ligand.torsion>
0.9270

> <Gold.PLP.Chemscore.Hbond>
2.2163

> <Gold.PLP.Chemscore.CHOScore>
0.0000

> <Gold.PLP.Chemscore.Metal>
0.0000

> <Gold.Chemscore.Hbonds>
donor molecule, donor type, donor heavy atom, donor atom, acceptor molecule, acceptor atom, score
      P1  H  6934  6946       L1     4  0.46
      P1  H  7989  7998       L1     9  0.37
      P1  H  8011  8017       L1     9  0.87

> <Gold.PLP.Chemscore.Internal.Correction>
0.0066

> <Gold.Rescore>
     Score         DG    S(hbond)    S(metal)    S(lipo)     H(rot)  DE(clash)    DE(int)     intcor
     15.24     -18.94       1.78        0.00      96.78       1.49       0.55       3.15       ----

> <Gold.Chemscore.Fitness>
15.2386

> <Gold.Chemscore.DG>
-18.9352

> <Gold.Chemscore.ZeroCoef>
-5.4800

> <Gold.Chemscore.Hbond>
1.7823

> <Gold.Chemscore.Metal>
0.0000

> <Gold.Chemscore.Lipo>
96.7757

> <Gold.Chemscore.Internal_Hbond>
0.0000

> <Gold.Chemscore.DEClash>
0.5506

> <Gold.Chemscore.DEInternal>
3.1461

> <Gold.Chemscore.Rot>
1.4923

> <Gold.Chemscore.Internal.Correction>
   9.000000E+99

> <Gold.Chemscore.Hbonds>
donor molecule, donor type, donor heavy atom, donor atom, acceptor molecule, acceptor atom, score
      P1  H  6934  6946       L1     4  0.43
      P1  H  7989  7998       L1     9  0.36
      P1  H  8011  8017       L1     9  0.66

> <Gold.Chemscore.Hbond.Weighted>
-5.9528

> <Gold.Chemscore.Metal.Weighted>
-0.0000

> <Gold.Chemscore.Lipo.Weighted>
-11.3228

> <Gold.Chemscore.Internal_Hbond.Weighted>
0.0000

> <Gold.Chemscore.DEClash.Weighted>
0.5506

> <Gold.Chemscore.DEInternal.Weighted>
3.1461

> <Gold.Chemscore.Rot.Weighted>
3.8204

> <Gold.Chemscore.Internal.Correction.Weighted>
   9.000000E+99

> <Gold.Protein.RotatedTorsions>
[ 6907 6896 6895 6894 ] final  154.17 input  -60.11 | X-H torsion
[ 7974 7965 7964 7962 ] final -171.61 input  175.53 | X-H torsion
[ 8008 7997 7996 7995 ] final  122.85 input   59.86 | X-H torsion
[ 10167 10162 10161 10158 ] final  164.24 input  -65.29 | X-H torsion
[ 10718 10713 10712 10709 ] final  -73.90 input   66.30 | X-H torsion
[ 10763 10752 10751 10750 ] final  135.04 input  -60.55 | X-H torsion
[ 11005 11000 10999 10996 ] final   -8.56 input  -57.11 | X-H torsion

> <Gold.Protein.ActiveResidues>
 VAL166  LYS551  ARG553  GLY616  TRP617  ASP618  TYR619  PRO620  LYS621  CYS622 
 ASP623  PHE694  ASN695  SER759  ASP760  ASP761  ALA762  ILE779  LEU786  VAL792 
 PHE793  MET794  SER795  GLU796  ALA797  LYS798  CYS799  TRP800  GLU811  SER814 

> <Gold.Protein.RotatedAtoms>
  152.0623  133.4068  159.4422 H   0  0  0  0  0  0  0  0  0  0  0  0  # atno 6907 bound_to 6896
  150.6866  134.3186  159.4786 H   0  0  0  0  0  0  0  0  0  0  0  0  # atno 6908 bound_to 6896
  152.1008  134.9342  160.0620 H   0  0  0  0  0  0  0  0  0  0  0  0  # atno 6909 bound_to 6896
  144.7155  140.1897  143.6350 H   0  0  0  0  0  0  0  0  0  0  0  0  # atno 7974 bound_to 7965
  156.2743  140.2776  156.1533 H   0  0  0  0  0  0  0  0  0  0  0  0  # atno 8008 bound_to 7997
  155.0831  140.0388  157.2663 H   0  0  0  0  0  0  0  0  0  0  0  0  # atno 8009 bound_to 7997
  154.6949  140.2637  155.6782 H   0  0  0  0  0  0  0  0  0  0  0  0  # atno 8010 bound_to 7997
  139.4886  144.4255  151.9135 H   0  0  0  0  0  0  0  0  0  0  0  0  # atno 10167 bound_to 10162
  156.0263  130.4404  150.2811 H   0  0  0  0  0  0  0  0  0  0  0  0  # atno 10718 bound_to 10713
  153.8334  135.3101  155.3420 H   0  0  0  0  0  0  0  0  0  0  0  0  # atno 10763 bound_to 10752
  154.7963  135.4753  154.0173 H   0  0  0  0  0  0  0  0  0  0  0  0  # atno 10764 bound_to 10752
  153.1620  135.6862  153.8820 H   0  0  0  0  0  0  0  0  0  0  0  0  # atno 10765 bound_to 10752
  140.7247  133.8799  155.8847 H   0  0  0  0  0  0  0  0  0  0  0  0  # atno 11005 bound_to 11000
  145.8780  139.2307  143.1622 LP  0  0  0  0  0  0  0  0  0  0  0  0  # atno 17320 bound_to 7965
  146.0022  140.8510  143.0013 LP  0  0  0  0  0  0  0  0  0  0  0  0  # atno 17321 bound_to 7965
  140.3701  144.2866  150.5921 LP  0  0  0  0  0  0  0  0  0  0  0  0  # atno 17342 bound_to 10162
  140.5327  143.2240  151.8213 LP  0  0  0  0  0  0  0  0  0  0  0  0  # atno 17343 bound_to 10162
  157.0915  131.0171  151.3120 LP  0  0  0  0  0  0  0  0  0  0  0  0  # atno 17370 bound_to 10713
  157.4850  130.7788  149.7451 LP  0  0  0  0  0  0  0  0  0  0  0  0  # atno 17371 bound_to 10713
  140.9973  134.1198  157.4351 LP  0  0  0  0  0  0  0  0  0  0  0  0  # atno 17394 bound_to 11000
  139.8840  135.0058  156.6337 LP  0  0  0  0  0  0  0  0  0  0  0  0  # atno 17395 bound_to 11000

$$$$
