AV-unprocessed.smi:2829|AV-procd|sdf|10901|dock9
  -GOLD-   2272015353D 1   1.00000     0.00000
 Structure written by MMmdl.
 50 53  0  0  0  0  0  0  0  0  1 V2000
  145.6228  132.3266  162.0534 C   0  0  0  0  0  0  0  0  0  0  0  0
  144.8460  133.6133  161.7048 C   0  0  0  0  0  0  0  0  0  0  0  0
  143.6093  133.2643  160.8503 C   0  0  0  0  0  0  0  0  0  0  0  0
  144.3368  134.2223  163.0309 C   0  0  0  0  0  0  0  0  0  0  0  0
  145.7596  134.5777  160.9270 C   0  0  0  0  0  0  0  0  0  0  0  0
  146.9866  135.0608  161.4355 C   0  0  0  0  0  0  0  0  0  0  0  0
  147.7293  135.9386  160.6279 C   0  0  0  0  0  0  0  0  0  0  0  0
  147.2136  136.2880  159.3638 C   0  0  0  0  0  0  0  0  0  0  0  0
  148.0157  137.1795  158.6050 N   0  0  0  0  0  0  0  0  0  0  0  0
  149.3587  137.2939  158.5992 C   0  0  0  0  0  0  0  0  0  0  0  0
  150.1238  136.6180  159.2843 O   0  0  0  0  0  0  0  0  0  0  0  0
  149.8221  138.2496  157.7747 N   0  0  0  0  0  0  0  0  0  0  0  0
  151.2183  138.6240  157.5392 C   0  0  1  0  0  0  0  0  0  0  0  0
  151.7921  138.1163  156.1952 C   0  0  1  0  0  0  0  0  0  0  0  0
  150.9334  137.5283  155.1047 C   0  0  0  0  0  0  0  0  0  0  0  0
  150.3633  138.7647  154.4170 C   0  0  0  0  0  0  0  0  0  0  0  0
  151.3711  139.7631  154.5761 O   0  0  0  0  0  0  0  0  0  0  0  0
  152.0817  139.5629  155.8010 C   0  0  1  0  0  0  0  0  0  0  0  0
  151.3798  140.0798  157.0702 C   0  0  0  0  0  0  0  0  0  0  0  0
  150.2167  141.0915  156.9961 C   0  0  0  0  0  0  0  0  0  0  0  0
  151.2168  142.1911  157.3593 C   0  0  0  0  0  0  0  0  0  0  0  0
  152.1054  141.1003  157.9615 C   0  0  0  0  0  0  0  0  0  0  0  0
  146.0279  135.7851  158.9381 N   0  0  0  0  0  0  0  0  0  0  0  0
  145.3172  134.9492  159.7007 N   0  0  0  0  0  0  0  0  0  0  0  0
  145.0060  131.6327  162.6253 H   0  0  0  0  0  0  0  0  0  0  0  0
  146.5080  132.5490  162.6509 H   0  0  0  0  0  0  0  0  0  0  0  0
  145.9550  131.7979  161.1591 H   0  0  0  0  0  0  0  0  0  0  0  0
  143.8858  132.7633  159.9218 H   0  0  0  0  0  0  0  0  0  0  0  0
  143.0466  134.1602  160.5852 H   0  0  0  0  0  0  0  0  0  0  0  0
  142.9323  132.5970  161.3849 H   0  0  0  0  0  0  0  0  0  0  0  0
  143.6905  133.5240  163.5640 H   0  0  0  0  0  0  0  0  0  0  0  0
  143.7540  135.1283  162.8610 H   0  0  0  0  0  0  0  0  0  0  0  0
  145.1596  134.4699  163.7028 H   0  0  0  0  0  0  0  0  0  0  0  0
  147.3670  134.7850  162.4067 H   0  0  0  0  0  0  0  0  0  0  0  0
  148.6730  136.3332  160.9754 H   0  0  0  0  0  0  0  0  0  0  0  0
  147.5122  137.8071  157.9957 H   0  0  0  0  0  0  0  0  0  0  0  0
  149.1307  138.7981  157.2837 H   0  0  0  0  0  0  0  0  0  0  0  0
  151.8841  138.4070  158.3766 H   0  0  0  0  0  0  0  0  0  0  0  0
  152.7087  137.5502  156.3659 H   0  0  0  0  0  0  0  0  0  0  0  0
  151.5525  136.9686  154.4029 H   0  0  0  0  0  0  0  0  0  0  0  0
  150.1571  136.8540  155.4654 H   0  0  0  0  0  0  0  0  0  0  0  0
  150.1303  138.5929  153.3661 H   0  0  0  0  0  0  0  0  0  0  0  0
  149.4497  139.0896  154.9162 H   0  0  0  0  0  0  0  0  0  0  0  0
  153.1430  139.8071  155.7423 H   0  0  0  0  0  0  0  0  0  0  0  0
  149.7539  141.2134  156.0172 H   0  0  0  0  0  0  0  0  0  0  0  0
  149.4673  140.9484  157.7761 H   0  0  0  0  0  0  0  0  0  0  0  0
  151.6622  142.6624  156.4815 H   0  0  0  0  0  0  0  0  0  0  0  0
  150.8480  142.9281  158.0733 H   0  0  0  0  0  0  0  0  0  0  0  0
  151.9134  140.9431  159.0243 H   0  0  0  0  0  0  0  0  0  0  0  0
  153.1705  141.2170  157.7601 H   0  0  0  0  0  0  0  0  0  0  0  0
  1  2  1  0  0  0  0
  1 25  1  0  0  0  0
  1 26  1  0  0  0  0
  1 27  1  0  0  0  0
  2  3  1  0  0  0  0
  2  4  1  0  0  0  0
  2  5  1  0  0  0  0
  3 28  1  0  0  0  0
  3 29  1  0  0  0  0
  3 30  1  0  0  0  0
  4 31  1  0  0  0  0
  4 32  1  0  0  0  0
  4 33  1  0  0  0  0
  5 24  1  0  0  0  0
  5  6  2  0  0  0  0
  6  7  1  0  0  0  0
  6 34  1  0  0  0  0
  7  8  2  0  0  0  0
  7 35  1  0  0  0  0
  8  9  1  0  0  0  0
  8 23  1  0  0  0  0
  9 10  1  0  0  0  0
  9 36  1  0  0  0  0
 10 11  2  0  0  0  0
 10 12  1  0  0  0  0
 12 13  1  0  0  0  0
 12 37  1  0  0  0  0
 13 19  1  0  0  0  0
 13 14  1  0  0  0  0
 13 38  1  0  0  0  0
 14 18  1  0  0  0  0
 14 15  1  0  0  0  0
 14 39  1  0  0  0  0
 15 16  1  0  0  0  0
 15 40  1  0  0  0  0
 15 41  1  0  0  0  0
 16 17  1  0  0  0  0
 16 42  1  0  0  0  0
 16 43  1  0  0  0  0
 17 18  1  0  0  0  0
 18 19  1  0  0  0  0
 18 44  1  0  0  0  0
 19 22  1  0  0  0  0
 19 20  1  0  0  0  0
 20 21  1  0  0  0  0
 20 45  1  0  0  0  0
 20 46  1  0  0  0  0
 21 22  1  0  0  0  0
 21 47  1  0  0  0  0
 21 48  1  0  0  0  0
 22 49  1  0  0  0  0
 22 50  1  0  0  0  0
 23 24  2  0  0  0  0
M  END
> <s_m_source_file>
AV-unprocessed.smi

> <i_m_source_file_index>
2829

> <i_lp_mmshare_version>
43012

> <i_f3d_flags>
0

> <s_epik_input>
W0NIM11DKFtDSDNdKShbQ0gzXSljMVtjSF1bY0hdYyhubjEpW05IXUMoPU8pW05IXVtDQEBIXTJbQ0BIXShbQ0gyXVtDSDJdTzMpW0NAQEhdM0MyNFtDSDJdW0NIMl1bQ0gyXTQ=

> <s_epik_cmdline>
J2VwaWtfcHl0aG9uJywgJy1waCcsICc3LjAnLCAnLXRuJywgJzgnLCAnLW1hJywgJzIwMCcsICctbWV0YWxfYmluZGluZycsICctaW1hZScsICc8aW5maWxlLm1hZT4nLCAnLW9tYWUnLCAnPG91dGZpbGUubWFlPic=

> <r_lp_tautomer_probability>
1

> <r_epik_Ionization_Penalty>
0.011915

> <r_epik_Ionization_Penalty_Charging>
0

> <r_epik_Ionization_Penalty_Neutral>
0.011915

> <r_epik_State_Penalty>
0.00486223

> <r_epik_Charging_Adjusted_Penalty>
0.00486223

> <i_epik_Tot_Q>
0

> <i_epik_Tot_abs_Q>
0

> <r_epik_Metal_State_Penalty>
-0

> <b_epik_Metal_Only>
0

> <s_lp_Force_Field>
OPLS_2005

> <r_lp_Energy>
61.8896

> <b_lp_Chiralities_Consistent>
1

> <s_lp_Variant>
AV-unprocessed.smi:2829-4

> <Gold.Version>
5.8.1

> <Gold.Id.Protein>
6NUR|6NUR_protein|mol2

> <Gold.PLP.Fitness>
39.0243

> <Gold.PLP.PLP>
-33.8507

> <Gold.PLP.part.hbond>
-2.0000

> <Gold.PLP.part.metal>
0.0000

> <Gold.PLP.part.buried>
-6.4190

> <Gold.PLP.part.nonpolar>
-26.1636

> <Gold.PLP.part.repulsive>
0.2783

> <Gold.PLP.ligand.clash>
0.0000

> <Gold.PLP.ligand.torsion>
0.4954

> <Gold.PLP.Chemscore.Hbond>
2.0000

> <Gold.PLP.Chemscore.CHOScore>
0.0000

> <Gold.PLP.Chemscore.Metal>
0.0000

> <Gold.Chemscore.Hbonds>
donor molecule, donor type, donor heavy atom, donor atom, acceptor molecule, acceptor atom, score
      P1  H  6896  6907       L1    11  1.00
      P1  H  7989  7998       L1    17  1.00

> <Gold.PLP.Chemscore.Internal.Correction>
0.1644

> <Gold.Rescore>
     Score         DG    S(hbond)    S(metal)    S(lipo)     H(rot)  DE(clash)    DE(int)     intcor
     18.98     -20.84       1.99        0.00      99.87       1.16       0.00       1.85       ----

> <Gold.Chemscore.Fitness>
18.9840

> <Gold.Chemscore.DG>
-20.8383

> <Gold.Chemscore.ZeroCoef>
-5.4800

> <Gold.Chemscore.Hbond>
1.9902

> <Gold.Chemscore.Metal>
0.0000

> <Gold.Chemscore.Lipo>
99.8719

> <Gold.Chemscore.Internal_Hbond>
0.0000

> <Gold.Chemscore.DEClash>
0.0047

> <Gold.Chemscore.DEInternal>
1.8497

> <Gold.Chemscore.Rot>
1.1618

> <Gold.Chemscore.Internal.Correction>
   9.000000E+99

> <Gold.Chemscore.Hbonds>
donor molecule, donor type, donor heavy atom, donor atom, acceptor molecule, acceptor atom, score
      P1  H  6896  6907       L1    11  1.00
      P1  H  7989  7998       L1    17  0.95

> <Gold.Chemscore.Hbond.Weighted>
-6.6474

> <Gold.Chemscore.Metal.Weighted>
-0.0000

> <Gold.Chemscore.Lipo.Weighted>
-11.6850

> <Gold.Chemscore.Internal_Hbond.Weighted>
0.0000

> <Gold.Chemscore.DEClash.Weighted>
0.0047

> <Gold.Chemscore.DEInternal.Weighted>
1.8497

> <Gold.Chemscore.Rot.Weighted>
2.9741

> <Gold.Chemscore.Internal.Correction.Weighted>
   9.000000E+99

> <Gold.Protein.RotatedTorsions>
[ 6907 6896 6895 6894 ] final  -27.37 input  -60.11 | X-H torsion
[ 7974 7965 7964 7962 ] final -162.23 input  175.53 | X-H torsion
[ 8008 7997 7996 7995 ] final  176.32 input   59.86 | X-H torsion
[ 10167 10162 10161 10158 ] final  -52.68 input  -65.29 | X-H torsion
[ 10718 10713 10712 10709 ] final  -14.80 input   66.30 | X-H torsion
[ 10763 10752 10751 10750 ] final  -89.13 input  -60.55 | X-H torsion
[ 11005 11000 10999 10996 ] final -139.11 input  -57.11 | X-H torsion

> <Gold.Protein.ActiveResidues>
 VAL166  LYS551  ARG553  GLY616  TRP617  ASP618  TYR619  PRO620  LYS621  CYS622 
 ASP623  PHE694  ASN695  SER759  ASP760  ASP761  ALA762  ILE779  LEU786  VAL792 
 PHE793  MET794  SER795  GLU796  ALA797  LYS798  CYS799  TRP800  GLU811  SER814 

> <Gold.Protein.RotatedAtoms>
  151.1478  135.0212  159.8654 H   0  0  0  0  0  0  0  0  0  0  0  0  # atno 6907 bound_to 6896
  152.5453  134.1423  159.8494 H   0  0  0  0  0  0  0  0  0  0  0  0  # atno 6908 bound_to 6896
  151.1506  133.4864  159.2628 H   0  0  0  0  0  0  0  0  0  0  0  0  # atno 6909 bound_to 6896
  144.7364  140.3283  143.6158 H   0  0  0  0  0  0  0  0  0  0  0  0  # atno 7974 bound_to 7965
  156.0778  140.1386  156.9750 H   0  0  0  0  0  0  0  0  0  0  0  0  # atno 8008 bound_to 7997
  154.4567  140.0958  156.6828 H   0  0  0  0  0  0  0  0  0  0  0  0  # atno 8009 bound_to 7997
  155.5125  140.3454  155.4393 H   0  0  0  0  0  0  0  0  0  0  0  0  # atno 8010 bound_to 7997
  140.6525  143.2575  151.4683 H   0  0  0  0  0  0  0  0  0  0  0  0  # atno 10167 bound_to 10162
  156.6109  130.4849  149.6202 H   0  0  0  0  0  0  0  0  0  0  0  0  # atno 10718 bound_to 10713
  154.6520  135.5352  153.7913 H   0  0  0  0  0  0  0  0  0  0  0  0  # atno 10763 bound_to 10752
  153.0391  135.6484  154.1003 H   0  0  0  0  0  0  0  0  0  0  0  0  # atno 10764 bound_to 10752
  154.0919  135.2939  155.3249 H   0  0  0  0  0  0  0  0  0  0  0  0  # atno 10765 bound_to 10752
  140.8551  134.2238  157.4739 H   0  0  0  0  0  0  0  0  0  0  0  0  # atno 11005 bound_to 11000
  145.7498  139.1790  143.2328 LP  0  0  0  0  0  0  0  0  0  0  0  0  # atno 17320 bound_to 7965
  146.1070  140.7475  142.9522 LP  0  0  0  0  0  0  0  0  0  0  0  0  # atno 17321 bound_to 7965
  139.5742  144.1858  152.1879 LP  0  0  0  0  0  0  0  0  0  0  0  0  # atno 17342 bound_to 10162
  140.1164  144.5412  150.6891 LP  0  0  0  0  0  0  0  0  0  0  0  0  # atno 17343 bound_to 10162
  156.2391  130.6840  151.1538 LP  0  0  0  0  0  0  0  0  0  0  0  0  # atno 17370 bound_to 10713
  157.7254  131.0653  150.5952 LP  0  0  0  0  0  0  0  0  0  0  0  0  # atno 17371 bound_to 10713
  139.8705  134.9702  156.4694 LP  0  0  0  0  0  0  0  0  0  0  0  0  # atno 17394 bound_to 11000
  140.8746  133.7962  155.9401 LP  0  0  0  0  0  0  0  0  0  0  0  0  # atno 17395 bound_to 11000

$$$$
