AV-unprocessed.smi:835|AV-procd|sdf|3888|dock10
  -GOLD-   22720 1343D 1   1.00000     0.00000
 Structure written by MMmdl.
 41 43  0  0  0  0  0  0  0  0  2 V2000
  153.9389  141.6667  160.8434 C   0  0  0  0  0  0  0  0  0  0  0  0
  152.9902  142.3428  159.8980 C   0  0  0  0  0  0  0  0  0  0  0  0
  152.1917  141.7452  158.8798 C   0  0  0  0  0  0  0  0  0  0  0  0
  151.5367  142.8192  158.3418 C   0  0  0  0  0  0  0  0  0  0  0  0
  150.6347  142.8495  157.3246 N   0  0  0  0  0  0  0  0  0  0  0  0
  150.4540  141.9567  156.3358 C   0  0  0  0  0  0  0  0  0  0  0  0
  151.1038  140.9233  156.1763 O   0  0  0  0  0  0  0  0  0  0  0  0
  149.4588  142.3306  155.5191 N   0  0  0  0  0  0  0  0  0  0  0  0
  149.0181  141.5738  154.3520 C   0  0  2  0  0  0  0  0  0  0  0  0
  147.6889  142.0460  153.7564 C   0  0  0  0  0  0  0  0  0  0  0  0
  147.0694  140.7791  153.1415 C   0  0  0  0  0  0  0  0  0  0  0  0
  147.9169  139.6392  153.5629 N   0  3  2  0  0  0  0  0  0  0  0  0
  147.1711  138.3927  153.8359 C   0  0  0  0  0  0  0  0  0  0  0  0
  146.5719  138.3392  155.2210 C   0  0  0  0  0  0  0  0  0  0  0  0
  147.8084  137.5285  154.8975 C   0  0  0  0  0  0  0  0  0  0  0  0
  148.7308  140.1156  154.6946 C   0  0  0  0  0  0  0  0  0  0  0  0
  151.9311  143.9593  159.0062 N   0  0  0  0  0  0  0  0  0  0  0  0
  151.5204  145.3344  158.8000 C   0  0  0  0  0  0  0  0  0  0  0  0
  152.8316  143.6597  159.9671 N   0  0  0  0  0  0  0  0  0  0  0  0
  153.8567  140.5817  160.7750 H   0  0  0  0  0  0  0  0  0  0  0  0
  153.7348  141.9491  161.8765 H   0  0  0  0  0  0  0  0  0  0  0  0
  154.9716  141.9359  160.6207 H   0  0  0  0  0  0  0  0  0  0  0  0
  152.1270  140.7025  158.6081 H   0  0  0  0  0  0  0  0  0  0  0  0
  150.0218  143.6514  157.3196 H   0  0  0  0  0  0  0  0  0  0  0  0
  148.9744  143.1936  155.7194 H   0  0  0  0  0  0  0  0  0  0  0  0
  149.7908  141.6044  153.5808 H   0  0  0  0  0  0  0  0  0  0  0  0
  147.0335  142.4276  154.5408 H   0  0  0  0  0  0  0  0  0  0  0  0
  147.8253  142.8420  153.0236 H   0  0  0  0  0  0  0  0  0  0  0  0
  146.0419  140.6583  153.4878 H   0  0  0  0  0  0  0  0  0  0  0  0
  147.0483  140.8296  152.0525 H   0  0  0  0  0  0  0  0  0  0  0  0
  146.6545  137.9395  152.9913 H   0  0  0  0  0  0  0  0  0  0  0  0
  146.6939  139.2050  155.8697 H   0  0  0  0  0  0  0  0  0  0  0  0
  145.6376  137.7951  155.3432 H   0  0  0  0  0  0  0  0  0  0  0  0
  147.6874  136.4507  154.8072 H   0  0  0  0  0  0  0  0  0  0  0  0
  148.7522  137.8554  155.3304 H   0  0  0  0  0  0  0  0  0  0  0  0
  149.6396  139.5245  154.8121 H   0  0  0  0  0  0  0  0  0  0  0  0
  148.1543  140.0448  155.6191 H   0  0  0  0  0  0  0  0  0  0  0  0
  151.8772  145.6805  157.8300 H   0  0  0  0  0  0  0  0  0  0  0  0
  151.9295  145.9786  159.5793 H   0  0  0  0  0  0  0  0  0  0  0  0
  150.4326  145.4003  158.8246 H   0  0  0  0  0  0  0  0  0  0  0  0
  148.5573  139.4588  152.8029 H   0  0  0  0  0  0  0  0  0  0  0  0
  1  2  1  0  0  0  0
  1 20  1  0  0  0  0
  1 21  1  0  0  0  0
  1 22  1  0  0  0  0
  2 19  2  0  0  0  0
  2  3  1  0  0  0  0
  3  4  2  0  0  0  0
  3 23  1  0  0  0  0
  4  5  1  0  0  0  0
  4 17  1  0  0  0  0
  5  6  1  0  0  0  0
  5 24  1  0  0  0  0
  6  7  2  0  0  0  0
  6  8  1  0  0  0  0
  8  9  1  0  0  0  0
  8 25  1  0  0  0  0
  9 16  1  0  0  0  0
  9 10  1  0  0  0  0
  9 26  1  0  0  0  0
 10 11  1  0  0  0  0
 10 27  1  0  0  0  0
 10 28  1  0  0  0  0
 11 12  1  0  0  0  0
 11 29  1  0  0  0  0
 11 30  1  0  0  0  0
 12 13  1  0  0  0  0
 12 16  1  0  0  0  0
 12 41  1  0  0  0  0
 13 15  1  0  0  0  0
 13 14  1  0  0  0  0
 13 31  1  0  0  0  0
 14 15  1  0  0  0  0
 14 32  1  0  0  0  0
 14 33  1  0  0  0  0
 15 34  1  0  0  0  0
 15 35  1  0  0  0  0
 16 36  1  0  0  0  0
 16 37  1  0  0  0  0
 17 18  1  0  0  0  0
 17 19  1  0  0  0  0
 18 38  1  0  0  0  0
 18 39  1  0  0  0  0
 18 40  1  0  0  0  0
M  CHG  1  12   1
M  END
> <s_m_source_file>
AV-unprocessed.smi

> <i_m_source_file_index>
835

> <i_lp_mmshare_version>
43012

> <i_f3d_flags>
0

> <s_epik_input>
W0NIM11jMVtjSF1jKG4objEpW0NIM10pW05IXUMoPU8pW05IXVtDQEBIXTJbQ0gyXVtDSDJdTihbQ0gyXTIpW0NIXTNbQ0gyXVtDSDJdMw==

> <s_epik_cmdline>
J2VwaWtfcHl0aG9uJywgJy1waCcsICc3LjAnLCAnLXRuJywgJzgnLCAnLW1hJywgJzIwMCcsICctbWV0YWxfYmluZGluZycsICctaW1hZScsICc8aW5maWxlLm1hZT4nLCAnLW9tYWUnLCAnPG91dGZpbGUubWFlPic=

> <r_lp_tautomer_probability>
1

> <r_epik_Ionization_Penalty>
0.000700689

> <r_epik_Ionization_Penalty_Charging>
0.000627528

> <r_epik_Ionization_Penalty_Neutral>
7.31611e-05

> <r_epik_State_Penalty>
0.00039643

> <r_epik_Charging_Adjusted_Penalty>
0.00102396

> <i_epik_Tot_Q>
1

> <i_epik_Tot_abs_Q>
1

> <r_epik_Metal_State_Penalty>
-0

> <b_epik_Metal_Only>
0

> <s_lp_Force_Field>
OPLS_2005

> <r_lp_Energy>
38.0167

> <b_lp_Chiralities_Consistent>
1

> <s_lp_Variant>
AV-unprocessed.smi:835-3

> <Gold.Version>
5.8.1

> <Gold.Id.Protein>
6NUR|6NUR_protein|mol2

> <Gold.PLP.Fitness>
45.1760

> <Gold.PLP.PLP>
-39.3031

> <Gold.PLP.part.hbond>
-2.7021

> <Gold.PLP.part.metal>
0.0000

> <Gold.PLP.part.buried>
-4.3647

> <Gold.PLP.part.nonpolar>
-31.1898

> <Gold.PLP.part.repulsive>
0.2659

> <Gold.PLP.ligand.clash>
0.0000

> <Gold.PLP.ligand.torsion>
0.8444

> <Gold.PLP.Chemscore.Hbond>
2.0992

> <Gold.PLP.Chemscore.CHOScore>
0.0000

> <Gold.PLP.Chemscore.Metal>
0.0000

> <Gold.Chemscore.Hbonds>
donor molecule, donor type, donor heavy atom, donor atom, acceptor molecule, acceptor atom, score
      L1  H     5    24       P1  8028  0.28
      L1  H     8    25       P1  8028  0.99
      L1  H    12    41       P1  7957  1.00

> <Gold.PLP.Chemscore.Internal.Correction>
1.2641

> <Gold.Rescore>
     Score         DG    S(hbond)    S(metal)    S(lipo)     H(rot)  DE(clash)    DE(int)     intcor
     14.20     -18.28       2.01        0.00      78.55       1.22       1.40       2.67       ----

> <Gold.Chemscore.Fitness>
14.2008

> <Gold.Chemscore.DG>
-18.2751

> <Gold.Chemscore.ZeroCoef>
-5.4800

> <Gold.Chemscore.Hbond>
2.0140

> <Gold.Chemscore.Metal>
0.0000

> <Gold.Chemscore.Lipo>
78.5521

> <Gold.Chemscore.Internal_Hbond>
0.0000

> <Gold.Chemscore.DEClash>
1.4041

> <Gold.Chemscore.DEInternal>
2.6701

> <Gold.Chemscore.Rot>
1.2196

> <Gold.Chemscore.Internal.Correction>
   9.000000E+99

> <Gold.Chemscore.Hbonds>
donor molecule, donor type, donor heavy atom, donor atom, acceptor molecule, acceptor atom, score
      L1  H     5    24       P1  8028  0.26
      L1  H     8    25       P1  8028  0.88
      L1  H    12    41       P1  7957  0.90

> <Gold.Chemscore.Hbond.Weighted>
-6.7268

> <Gold.Chemscore.Metal.Weighted>
-0.0000

> <Gold.Chemscore.Lipo.Weighted>
-9.1906

> <Gold.Chemscore.Internal_Hbond.Weighted>
0.0000

> <Gold.Chemscore.DEClash.Weighted>
1.4041

> <Gold.Chemscore.DEInternal.Weighted>
2.6701

> <Gold.Chemscore.Rot.Weighted>
3.1223

> <Gold.Chemscore.Internal.Correction.Weighted>
   9.000000E+99

> <Gold.Protein.RotatedTorsions>
[ 6907 6896 6895 6894 ] final -134.93 input  -60.11 | X-H torsion
[ 7974 7965 7964 7962 ] final   24.85 input  175.53 | X-H torsion
[ 8008 7997 7996 7995 ] final  -36.37 input   59.86 | X-H torsion
[ 10167 10162 10161 10158 ] final  -40.49 input  -65.29 | X-H torsion
[ 10718 10713 10712 10709 ] final   41.51 input   66.30 | X-H torsion
[ 10763 10752 10751 10750 ] final  142.46 input  -60.55 | X-H torsion
[ 11005 11000 10999 10996 ] final  108.37 input  -57.11 | X-H torsion

> <Gold.Protein.ActiveResidues>
 VAL166  LYS551  ARG553  GLY616  TRP617  ASP618  TYR619  PRO620  LYS621  CYS622 
 ASP623  PHE694  ASN695  SER759  ASP760  ASP761  ALA762  ILE779  LEU786  VAL792 
 PHE793  MET794  SER795  GLU796  ALA797  LYS798  CYS799  TRP800  GLU811  SER814 

> <Gold.Protein.RotatedAtoms>
  150.9918  133.6142  159.2707 H   0  0  0  0  0  0  0  0  0  0  0  0  # atno 6907 bound_to 6896
  151.3360  135.0852  159.9364 H   0  0  0  0  0  0  0  0  0  0  0  0  # atno 6908 bound_to 6896
  152.5248  133.9538  159.7739 H   0  0  0  0  0  0  0  0  0  0  0  0  # atno 6909 bound_to 6896
  146.1917  139.7547  142.8826 H   0  0  0  0  0  0  0  0  0  0  0  0  # atno 7974 bound_to 7965
  154.4074  140.1632  156.2363 H   0  0  0  0  0  0  0  0  0  0  0  0  # atno 8008 bound_to 7997
  155.9240  140.3419  155.6172 H   0  0  0  0  0  0  0  0  0  0  0  0  # atno 8009 bound_to 7997
  155.7188  140.0766  157.2330 H   0  0  0  0  0  0  0  0  0  0  0  0  # atno 8010 bound_to 7997
  140.7032  143.3150  151.2932 H   0  0  0  0  0  0  0  0  0  0  0  0  # atno 10167 bound_to 10162
  157.3943  130.7824  149.7295 H   0  0  0  0  0  0  0  0  0  0  0  0  # atno 10718 bound_to 10713
  153.9561  135.2965  155.3436 H   0  0  0  0  0  0  0  0  0  0  0  0  # atno 10763 bound_to 10752
  154.7400  135.5029  153.9109 H   0  0  0  0  0  0  0  0  0  0  0  0  # atno 10764 bound_to 10752
  153.0969  135.6723  153.9855 H   0  0  0  0  0  0  0  0  0  0  0  0  # atno 10765 bound_to 10752
  139.8843  134.9428  156.5963 H   0  0  0  0  0  0  0  0  0  0  0  0  # atno 11005 bound_to 11000
  145.3770  141.0352  143.3199 LP  0  0  0  0  0  0  0  0  0  0  0  0  # atno 17320 bound_to 7965
  144.8501  139.5336  143.6860 LP  0  0  0  0  0  0  0  0  0  0  0  0  # atno 17321 bound_to 7965
  139.6586  144.0231  152.2676 LP  0  0  0  0  0  0  0  0  0  0  0  0  # atno 17342 bound_to 10162
  139.9791  144.6441  150.7917 LP  0  0  0  0  0  0  0  0  0  0  0  0  # atno 17343 bound_to 10162
  155.9806  130.4027  150.3517 LP  0  0  0  0  0  0  0  0  0  0  0  0  # atno 17370 bound_to 10713
  157.1637  131.0351  151.2829 LP  0  0  0  0  0  0  0  0  0  0  0  0  # atno 17371 bound_to 10713
  140.7918  133.8576  155.8652 LP  0  0  0  0  0  0  0  0  0  0  0  0  # atno 17394 bound_to 11000
  140.9671  134.1580  157.4607 LP  0  0  0  0  0  0  0  0  0  0  0  0  # atno 17395 bound_to 11000

$$$$
