AV-unprocessed.smi:1998|AV-procd|sdf|8090|dock10
  -GOLD-   2272010303D 1   1.00000     0.00000
 Structure written by MMmdl.
 47 48  0  0  0  0  0  0  0  0  1 V2000
  144.2992  135.1364  150.7333 C   0  0  0  0  0  0  0  0  0  0  0  0
  145.1618  133.9785  151.1407 C   0  0  0  0  0  0  0  0  0  0  0  0
  144.8571  132.5902  151.0763 C   0  0  0  0  0  0  0  0  0  0  0  0
  145.9689  131.9764  151.5798 C   0  0  0  0  0  0  0  0  0  0  0  0
  146.2605  130.5245  151.7757 C   0  0  0  0  0  0  0  0  0  0  0  0
  146.8660  132.9774  151.9099 N   0  0  0  0  0  0  0  0  0  0  0  0
  148.2087  132.8612  152.4638 C   0  0  0  0  0  0  0  0  0  0  0  0
  148.2372  133.3077  153.9264 C   0  0  0  0  0  0  0  0  0  0  0  0
  147.7910  132.5724  154.8064 O   0  0  0  0  0  0  0  0  0  0  0  0
  148.8017  134.4999  154.1673 N   0  0  0  0  0  0  0  0  0  0  0  0
  149.1464  135.0429  155.4790 C   0  0  0  0  0  0  0  0  0  0  0  0
  148.4731  136.4254  155.7344 C   0  0  0  0  0  0  0  0  0  0  0  0
  146.9978  136.3125  155.2822 C   0  0  0  0  0  0  0  0  0  0  0  0
  148.4625  136.6379  157.2699 C   0  0  0  0  0  0  0  0  0  0  0  0
  149.2115  137.5235  155.0494 N   0  0  0  0  0  0  0  0  0  0  0  0
  148.7051  138.8726  155.3250 C   0  0  0  0  0  0  0  0  0  0  0  0
  149.4138  139.9380  154.4735 C   0  0  0  0  0  0  0  0  0  0  0  0
  150.8177  139.8745  154.6953 O   0  0  0  0  0  0  0  0  0  0  0  0
  151.3607  138.5945  154.3940 C   0  0  0  0  0  0  0  0  0  0  0  0
  150.6645  137.5190  155.2457 C   0  0  0  0  0  0  0  0  0  0  0  0
  146.3671  134.2041  151.6377 N   0  0  0  0  0  0  0  0  0  0  0  0
  143.3859  134.7941  150.2466 H   0  0  0  0  0  0  0  0  0  0  0  0
  144.8184  135.7919  150.0349 H   0  0  0  0  0  0  0  0  0  0  0  0
  144.0105  135.7332  151.5989 H   0  0  0  0  0  0  0  0  0  0  0  0
  143.9552  132.1166  150.7180 H   0  0  0  0  0  0  0  0  0  0  0  0
  145.4189  129.9116  151.4523 H   0  0  0  0  0  0  0  0  0  0  0  0
  146.4511  130.3045  152.8261 H   0  0  0  0  0  0  0  0  0  0  0  0
  147.1350  130.2199  151.2007 H   0  0  0  0  0  0  0  0  0  0  0  0
  148.5505  131.8279  152.3873 H   0  0  0  0  0  0  0  0  0  0  0  0
  148.8908  133.4699  151.8692 H   0  0  0  0  0  0  0  0  0  0  0  0
  149.1325  135.0231  153.3692 H   0  0  0  0  0  0  0  0  0  0  0  0
  148.8379  134.3149  156.2293 H   0  0  0  0  0  0  0  0  0  0  0  0
  150.2294  135.1141  155.5952 H   0  0  0  0  0  0  0  0  0  0  0  0
  146.4859  135.5126  155.8183 H   0  0  0  0  0  0  0  0  0  0  0  0
  146.9091  136.0848  154.2202 H   0  0  0  0  0  0  0  0  0  0  0  0
  146.4379  137.2280  155.4725 H   0  0  0  0  0  0  0  0  0  0  0  0
  148.1037  135.7524  157.7957 H   0  0  0  0  0  0  0  0  0  0  0  0
  147.8058  137.4551  157.5682 H   0  0  0  0  0  0  0  0  0  0  0  0
  149.4583  136.8630  157.6525 H   0  0  0  0  0  0  0  0  0  0  0  0
  147.6382  138.9398  155.1203 H   0  0  0  0  0  0  0  0  0  0  0  0
  148.8412  139.1177  156.3784 H   0  0  0  0  0  0  0  0  0  0  0  0
  149.1946  139.7896  153.4158 H   0  0  0  0  0  0  0  0  0  0  0  0
  149.0562  140.9333  154.7375 H   0  0  0  0  0  0  0  0  0  0  0  0
  151.2405  138.3802  153.3312 H   0  0  0  0  0  0  0  0  0  0  0  0
  152.4312  138.6052  154.5988 H   0  0  0  0  0  0  0  0  0  0  0  0
  150.9040  137.6867  156.2959 H   0  0  0  0  0  0  0  0  0  0  0  0
  151.0917  136.5561  154.9721 H   0  0  0  0  0  0  0  0  0  0  0  0
  1  2  1  0  0  0  0
  1 22  1  0  0  0  0
  1 23  1  0  0  0  0
  1 24  1  0  0  0  0
  2 21  2  0  0  0  0
  2  3  1  0  0  0  0
  3  4  2  0  0  0  0
  3 25  1  0  0  0  0
  4  5  1  0  0  0  0
  4  6  1  0  0  0  0
  5 26  1  0  0  0  0
  5 27  1  0  0  0  0
  5 28  1  0  0  0  0
  6  7  1  0  0  0  0
  6 21  1  0  0  0  0
  7  8  1  0  0  0  0
  7 29  1  0  0  0  0
  7 30  1  0  0  0  0
  8  9  2  0  0  0  0
  8 10  1  0  0  0  0
 10 11  1  0  0  0  0
 10 31  1  0  0  0  0
 11 12  1  0  0  0  0
 11 32  1  0  0  0  0
 11 33  1  0  0  0  0
 12 13  1  0  0  0  0
 12 14  1  0  0  0  0
 12 15  1  0  0  0  0
 13 34  1  0  0  0  0
 13 35  1  0  0  0  0
 13 36  1  0  0  0  0
 14 37  1  0  0  0  0
 14 38  1  0  0  0  0
 14 39  1  0  0  0  0
 15 20  1  0  0  0  0
 15 16  1  0  0  0  0
 16 17  1  0  0  0  0
 16 40  1  0  0  0  0
 16 41  1  0  0  0  0
 17 18  1  0  0  0  0
 17 42  1  0  0  0  0
 17 43  1  0  0  0  0
 18 19  1  0  0  0  0
 19 20  1  0  0  0  0
 19 44  1  0  0  0  0
 19 45  1  0  0  0  0
 20 46  1  0  0  0  0
 20 47  1  0  0  0  0
M  END
> <s_m_source_file>
AV-unprocessed.smi

> <i_m_source_file_index>
1998

> <i_lp_mmshare_version>
43012

> <i_f3d_flags>
0

> <s_epik_input>
W0NIM11jMVtjSF1jKFtDSDNdKW4objEpW0NIMl1DKD1PKVtOSF1bQ0gyXUMoW0NIM10pKFtDSDNdKU4yW0NIMl1bQ0gyXU9bQ0gyXVtDSDJdMg==

> <s_epik_cmdline>
J2VwaWtfcHl0aG9uJywgJy1waCcsICc3LjAnLCAnLXRuJywgJzgnLCAnLW1hJywgJzIwMCcsICctbWV0YWxfYmluZGluZycsICctaW1hZScsICc8aW5maWxlLm1hZT4nLCAnLW9tYWUnLCAnPG91dGZpbGUubWFlPic=

> <r_lp_tautomer_probability>
1

> <r_epik_Ionization_Penalty>
0.197271

> <r_epik_Ionization_Penalty_Charging>
0

> <r_epik_Ionization_Penalty_Neutral>
0.197271

> <r_epik_State_Penalty>
0.186684

> <r_epik_Charging_Adjusted_Penalty>
0.186684

> <i_epik_Tot_Q>
0

> <i_epik_Tot_abs_Q>
0

> <r_epik_Metal_State_Penalty>
0.186642

> <b_epik_Metal_Only>
0

> <s_lp_Force_Field>
OPLS_2005

> <r_lp_Energy>
37.8286

> <b_lp_Chiralities_Consistent>
1

> <s_lp_Variant>
AV-unprocessed.smi:1998-1

> <Gold.Version>
5.8.1

> <Gold.Id.Protein>
6NUR|6NUR_protein|mol2

> <Gold.PLP.Fitness>
36.3037

> <Gold.PLP.PLP>
-31.5873

> <Gold.PLP.part.hbond>
-2.0000

> <Gold.PLP.part.metal>
0.0000

> <Gold.PLP.part.buried>
-4.6245

> <Gold.PLP.part.nonpolar>
-25.2134

> <Gold.PLP.part.repulsive>
0.4009

> <Gold.PLP.ligand.clash>
0.0000

> <Gold.PLP.ligand.torsion>
0.6835

> <Gold.PLP.Chemscore.Hbond>
2.0000

> <Gold.PLP.Chemscore.CHOScore>
0.0000

> <Gold.PLP.Chemscore.Metal>
0.0000

> <Gold.Chemscore.Hbonds>
donor molecule, donor type, donor heavy atom, donor atom, acceptor molecule, acceptor atom, score
      L1  H    10    31       P1  7948  0.90
      P1  H  7989  7998       L1    18  1.00

> <Gold.PLP.Chemscore.Internal.Correction>
0.0834

> <Gold.Rescore>
     Score         DG    S(hbond)    S(metal)    S(lipo)     H(rot)  DE(clash)    DE(int)     intcor
     12.83     -13.86       1.23        0.00      72.80       1.67       0.34       0.68       ----

> <Gold.Chemscore.Fitness>
12.8268

> <Gold.Chemscore.DG>
-13.8554

> <Gold.Chemscore.ZeroCoef>
-5.4800

> <Gold.Chemscore.Hbond>
1.2350

> <Gold.Chemscore.Metal>
0.0000

> <Gold.Chemscore.Lipo>
72.7956

> <Gold.Chemscore.Internal_Hbond>
0.0000

> <Gold.Chemscore.DEClash>
0.3444

> <Gold.Chemscore.DEInternal>
0.6842

> <Gold.Chemscore.Rot>
1.6666

> <Gold.Chemscore.Internal.Correction>
   9.000000E+99

> <Gold.Chemscore.Hbonds>
donor molecule, donor type, donor heavy atom, donor atom, acceptor molecule, acceptor atom, score
      L1  H    10    31       P1  7948  0.18
      P1  H  7989  7998       L1    18  0.21

> <Gold.Chemscore.Hbond.Weighted>
-4.1249

> <Gold.Chemscore.Metal.Weighted>
-0.0000

> <Gold.Chemscore.Lipo.Weighted>
-8.5171

> <Gold.Chemscore.Internal_Hbond.Weighted>
0.0000

> <Gold.Chemscore.DEClash.Weighted>
0.3444

> <Gold.Chemscore.DEInternal.Weighted>
0.6842

> <Gold.Chemscore.Rot.Weighted>
4.2666

> <Gold.Chemscore.Internal.Correction.Weighted>
   9.000000E+99

> <Gold.Protein.RotatedTorsions>
[ 6907 6896 6895 6894 ] final  -16.28 input  -60.11 | X-H torsion
[ 7974 7965 7964 7962 ] final  -52.87 input  175.53 | X-H torsion
[ 8008 7997 7996 7995 ] final  129.71 input   59.86 | X-H torsion
[ 10167 10162 10161 10158 ] final   11.82 input  -65.29 | X-H torsion
[ 10718 10713 10712 10709 ] final   29.07 input   66.30 | X-H torsion
[ 10763 10752 10751 10750 ] final -126.82 input  -60.55 | X-H torsion
[ 11005 11000 10999 10996 ] final -126.97 input  -57.11 | X-H torsion

> <Gold.Protein.ActiveResidues>
 VAL166  LYS551  ARG553  GLY616  TRP617  ASP618  TYR619  PRO620  LYS621  CYS622 
 ASP623  PHE694  ASN695  SER759  ASP760  ASP761  ALA762  ILE779  LEU786  VAL792 
 PHE793  MET794  SER795  GLU796  ALA797  LYS798  CYS799  TRP800  GLU811  SER814 

> <Gold.Protein.RotatedAtoms>
  151.3110  135.0794  159.9272 H   0  0  0  0  0  0  0  0  0  0  0  0  # atno 6907 bound_to 6896
  152.5277  133.9736  159.7784 H   0  0  0  0  0  0  0  0  0  0  0  0  # atno 6908 bound_to 6896
  151.0039  133.5977  159.2721 H   0  0  0  0  0  0  0  0  0  0  0  0  # atno 6909 bound_to 6896
  145.9031  140.7977  142.9733 H   0  0  0  0  0  0  0  0  0  0  0  0  # atno 7974 bound_to 7965
  156.2941  140.2614  156.2643 H   0  0  0  0  0  0  0  0  0  0  0  0  # atno 8008 bound_to 7997
  154.9757  140.0390  157.2273 H   0  0  0  0  0  0  0  0  0  0  0  0  # atno 8009 bound_to 7997
  154.7817  140.2796  155.6063 H   0  0  0  0  0  0  0  0  0  0  0  0  # atno 8010 bound_to 7997
  140.6107  143.8413  150.7063 H   0  0  0  0  0  0  0  0  0  0  0  0  # atno 10167 bound_to 10162
  157.2418  130.7072  149.6362 H   0  0  0  0  0  0  0  0  0  0  0  0  # atno 10718 bound_to 10713
  154.8748  135.3982  154.3493 H   0  0  0  0  0  0  0  0  0  0  0  0  # atno 10763 bound_to 10752
  153.4281  135.7024  153.6254 H   0  0  0  0  0  0  0  0  0  0  0  0  # atno 10764 bound_to 10752
  153.4887  135.3753  155.2450 H   0  0  0  0  0  0  0  0  0  0  0  0  # atno 10765 bound_to 10752
  140.9638  134.0900  157.3941 H   0  0  0  0  0  0  0  0  0  0  0  0  # atno 11005 bound_to 11000
  144.6737  140.1708  143.7414 LP  0  0  0  0  0  0  0  0  0  0  0  0  # atno 17320 bound_to 7965
  145.8766  139.2300  143.1630 LP  0  0  0  0  0  0  0  0  0  0  0  0  # atno 17321 bound_to 7965
  140.1980  143.3982  152.1813 LP  0  0  0  0  0  0  0  0  0  0  0  0  # atno 17342 bound_to 10162
  139.5359  144.7209  151.4894 LP  0  0  0  0  0  0  0  0  0  0  0  0  # atno 17343 bound_to 10162
  155.9670  130.4456  150.5506 LP  0  0  0  0  0  0  0  0  0  0  0  0  # atno 17370 bound_to 10713
  157.3371  131.0710  151.1816 LP  0  0  0  0  0  0  0  0  0  0  0  0  # atno 17371 bound_to 10713
  139.8887  135.0100  156.6637 LP  0  0  0  0  0  0  0  0  0  0  0  0  # atno 17394 bound_to 11000
  140.7429  133.8962  155.8291 LP  0  0  0  0  0  0  0  0  0  0  0  0  # atno 17395 bound_to 11000

$$$$
