#       Name:                AV-unprocessed.smi:249
#       Creating user name   scv26
#       Creation time:       Thu Mar 26 21:02:26 2020


#       File generated by GOLD software.
#

@<TRIPOS>MOLECULE
AV-unprocessed.smi:249
    71    74     1
SMALL
NO_CHARGES


@<TRIPOS>ATOM
      1 ****        -5.6966  -2.5521   3.8659 C.3            1 S1                 0.0000
      2 ****        -5.3449  -1.9199   2.5104 C.3            1 S1                 0.0000
      3 ****        -4.1733  -2.5669   1.8491 N.4            1 S1                 1.0000
      4 ****        -2.8917  -2.4098   2.5938 C.3            1 S1                 0.0000
      5 ****        -2.3344  -0.9769   2.4882 C.3            1 S1                 0.0000
      6 ****        -2.1657  -0.5612   1.0135 C.3            1 S1                 0.0000
      7 ****        -1.6368   0.7999   0.8707 N.pl3          1 S1                 0.0000
      8 ****        -2.4040   1.9385   1.3747 C.3            1 S1                 0.0000
      9 ****        -0.2842   0.9056   0.9289 C.ar           1 S1                 0.0000
     10 ****         0.2916   1.6359   1.9211 N.ar           1 S1                 0.0000
     11 ****         1.6217   1.7337   2.0023 C.ar           1 S1                 0.0000
     12 ****         2.5476   1.1943   1.2074 N.ar           1 S1                 0.0000
     13 ****         1.9767   0.4705   0.2030 C.ar           1 S1                 0.0000
     14 ****         0.5827   0.2723  -0.0060 C.ar           1 S1                 0.0000
     15 ****         0.3809  -0.5224  -1.1288 N.2            1 S1                 0.0000
     16 ****         1.5864  -0.7845  -1.5549 C.2            1 S1                 0.0000
     17 ****         2.6037  -0.2115  -0.8253 N.pl3          1 S1                 0.0000
     18 ****         4.0287  -0.3395  -1.0750 C.3            1 S1                 0.0000
     19 ****         4.7463   0.9893  -1.4317 C.3            1 S1                 0.0000
     20 ****         6.2756   0.7607  -1.4222 C.3            1 S1                 0.0000
     21 ****         6.6817  -0.0988  -2.4684 O.3            1 S1                 0.0000
     22 ****         4.2504   1.6560  -2.7485 C.3            1 S1                 0.0000
     23 ****         5.0412   2.8834  -3.1746 C.3            1 S1                 0.0000
     24 ****         4.0914   3.5540  -4.1560 C.3            1 S1                 0.0000
     25 ****         2.8052   3.3630  -3.5880 O.3            1 S1                 0.0000
     26 ****         2.8287   2.2410  -2.7102 C.3            1 S1                 0.0000
     27 ****        -3.4825  -0.7706   0.2404 C.3            1 S1                 0.0000
     28 ****        -3.9844  -2.2201   0.4066 C.3            1 S1                 0.0000
     29 ****        -5.2139  -2.5249  -0.4682 C.3            1 S1                 0.0000
     30 ****        -6.6402  -2.1526   4.2383 H              1 S1                 0.0000
     31 ****        -4.9441  -2.3454   4.6262 H              1 S1                 0.0000
     32 ****        -5.8085  -3.6334   3.7810 H              1 S1                 0.0000
     33 ****        -6.2285  -2.0286   1.8849 H              1 S1                 0.0000
     34 ****        -5.1865  -0.8480   2.6263 H              1 S1                 0.0000
     35 ****        -2.9987  -2.7010   3.6373 H              1 S1                 0.0000
     36 ****        -2.1652  -3.1071   2.1740 H              1 S1                 0.0000
     37 ****        -2.9931  -0.2838   3.0112 H              1 S1                 0.0000
     38 ****        -1.3727  -0.9247   2.9999 H              1 S1                 0.0000
     39 ****        -1.4478  -1.2570   0.5801 H              1 S1                 0.0000
     40 ****        -1.9675   2.8786   1.0343 H              1 S1                 0.0000
     41 ****        -2.4228   1.9471   2.4647 H              1 S1                 0.0000
     42 ****        -3.4317   1.9145   1.0156 H              1 S1                 0.0000
     43 ****         1.9977   2.3293   2.8211 H              1 S1                 0.0000
     44 ****         1.7674  -1.3951  -2.4276 H              1 S1                 0.0000
     45 ****         4.4730  -0.7735  -0.1785 H              1 S1                 0.0000
     46 ****         4.1750  -1.0701  -1.8716 H              1 S1                 0.0000
     47 ****         4.5518   1.6944  -0.6232 H              1 S1                 0.0000
     48 ****         6.8156   1.7032  -1.5106 H              1 S1                 0.0000
     49 ****         6.5873   0.3234  -0.4731 H              1 S1                 0.0000
     50 ****         7.6186  -0.2131  -2.4164 H              1 S1                 0.0000
     51 ****         4.3002   0.9281  -3.5600 H              1 S1                 0.0000
     52 ****         5.2199   3.5400  -2.3217 H              1 S1                 0.0000
     53 ****         6.0022   2.6405  -3.6289 H              1 S1                 0.0000
     54 ****         4.3123   4.6113  -4.3042 H              1 S1                 0.0000
     55 ****         4.1282   3.0565  -5.1260 H              1 S1                 0.0000
     56 ****         2.0790   1.5131  -3.0178 H              1 S1                 0.0000
     57 ****         2.5704   2.5929  -1.7110 H              1 S1                 0.0000
     58 ****        -4.2517  -0.0770   0.5786 H              1 S1                 0.0000
     59 ****        -3.3183  -0.5564  -0.8166 H              1 S1                 0.0000
     60 ****        -3.1956  -2.8801   0.0417 H              1 S1                 0.0000
     61 ****        -4.9547  -2.4622  -1.5255 H              1 S1                 0.0000
     62 ****        -6.0265  -1.8181  -0.3010 H              1 S1                 0.0000
     63 ****        -5.5918  -3.5310  -0.2843 H              1 S1                 0.0000
     64 ****        -4.3799  -3.5556   1.8624 H              1 S1                 0.0000
     65 ****        -0.2834   2.1022   2.5934 LP             1 S1                 0.0000
     66 ****         3.5334   1.3065   1.3323 LP             1 S1                 0.0000
     67 ****        -0.4885  -0.8240  -1.5201 LP             1 S1                 0.0000
     68 ****         6.4397   0.3057  -3.3503 LP             1 S1                 0.0000
     69 ****         6.2280  -0.9847  -2.3723 LP             1 S1                 0.0000
     70 ****         2.1407   3.2004  -4.3173 LP             1 S1                 0.0000
     71 ****         2.5437   4.1807  -3.0751 LP             1 S1                 0.0000
@<TRIPOS>BOND
    1    1    2 1     
    2    1   30 1     
    3    1   31 1     
    4    1   32 1     
    5    2    3 1     
    6    2   33 1     
    7    2   34 1     
    8    3   28 1     
    9    3    4 1     
   10    3   64 1     
   11    4    5 1     
   12    4   35 1     
   13    4   36 1     
   14    5    6 1     
   15    5   37 1     
   16    5   38 1     
   17    6    7 1     
   18    6   27 1     
   19    6   39 1     
   20    7    8 1     
   21    7    9 1     
   22    8   40 1     
   23    8   41 1     
   24    8   42 1     
   25    9   14 ar    
   26    9   10 ar    
   27   10   11 ar    
   28   11   12 ar    
   29   11   43 1     
   30   12   13 ar    
   31   13   17 1     
   32   13   14 ar    
   33   14   15 1     
   34   15   16 2     
   35   16   17 1     
   36   16   44 1     
   37   17   18 1     
   38   18   19 1     
   39   18   45 1     
   40   18   46 1     
   41   19   20 1     
   42   19   22 1     
   43   19   47 1     
   44   20   21 1     
   45   20   48 1     
   46   20   49 1     
   47   21   50 1     
   48   22   26 1     
   49   22   23 1     
   50   22   51 1     
   51   23   24 1     
   52   23   52 1     
   53   23   53 1     
   54   24   25 1     
   55   24   54 1     
   56   24   55 1     
   57   25   26 1     
   58   26   56 1     
   59   26   57 1     
   60   27   28 1     
   61   27   58 1     
   62   27   59 1     
   63   28   29 1     
   64   28   60 1     
   65   29   61 1     
   66   29   62 1     
   67   29   63 1     
   68   10   65 1     
   69   12   66 1     
   70   15   67 1     
   71   21   68 1     
   72   21   69 1     
   73   25   70 1     
   74   25   71 1     
@<TRIPOS>SUBSTRUCTURE
      1 S1             1
@<TRIPOS>SET
LONE_PAIRS      STATIC     ATOMS    <user>   **** ""
7 65 66 67 68 69 70 71
DONOR_HYDROGENS      STATIC     ATOMS    <user>   **** ""
2 64 50
ATOM$BLUE        STATIC     ATOMS    COLORGROUP SYSTEM
7 65 66 67 68 69 70 71
ATOM$RED        STATIC     ATOMS    COLORGROUP SYSTEM
2 64 50
