AV-unprocessed.smi:1251|AV-procd|sdf|5256|dock3
  -GOLD-   22720 4363D 1   1.00000     0.00000
 Structure written by MMmdl.
 39 40  0  0  0  0  0  0  0  0  1 V2000
  151.3913  142.4941  158.4055 C   0  0  0  0  0  0  0  0  0  0  0  0
  150.2993  141.8346  157.5563 C   0  0  0  0  0  0  0  0  0  0  0  0
  150.7188  141.6603  156.0898 C   0  0  0  0  0  0  0  0  0  0  0  0
  149.7118  140.8999  155.2929 C   0  0  0  0  0  0  0  0  0  0  0  0
  148.4232  141.2566  155.2249 N   0  0  0  0  0  0  0  0  0  0  0  0
  147.6742  140.3793  154.4530 N   0  0  0  0  0  0  0  0  0  0  0  0
  148.4197  139.3745  153.9731 C   0  0  0  0  0  0  0  0  0  0  0  0
  147.9071  138.3292  153.1600 N   0  0  0  0  0  0  0  0  0  0  0  0
  146.6311  137.9278  153.0243 C   0  0  0  0  0  0  0  0  0  0  0  0
  145.6634  138.4265  153.5993 O   0  0  0  0  0  0  0  0  0  0  0  0
  146.5368  136.9025  152.1644 N   0  0  0  0  0  0  0  0  0  0  0  0
  145.3035  136.2168  151.7802 C   0  0  2  0  0  0  0  0  0  0  0  0
  144.5673  135.7749  153.0537 C   0  0  0  0  0  0  0  0  0  0  0  0
  145.6141  135.0231  150.8532 C   0  0  2  0  0  0  0  0  0  0  0  0
  144.4048  134.1676  150.4699 C   0  0  0  0  0  0  0  0  0  0  0  0
  145.0612  132.8564  150.1060 C   0  0  0  0  0  0  0  0  0  0  0  0
  146.1740  132.7660  151.1456 C   0  0  0  0  0  0  0  0  0  0  0  0
  146.5037  134.1095  151.4915 O   0  0  0  0  0  0  0  0  0  0  0  0
  150.1148  139.4225  154.4261 S   0  0  0  0  0  0  0  0  0  0  0  0
  151.0653  142.6040  159.4398 H   0  0  0  0  0  0  0  0  0  0  0  0
  151.6390  143.4863  158.0271 H   0  0  0  0  0  0  0  0  0  0  0  0
  152.3034  141.8971  158.4058 H   0  0  0  0  0  0  0  0  0  0  0  0
  150.0519  140.8621  157.9835 H   0  0  0  0  0  0  0  0  0  0  0  0
  149.3907  142.4358  157.6085 H   0  0  0  0  0  0  0  0  0  0  0  0
  150.8723  142.6350  155.6247 H   0  0  0  0  0  0  0  0  0  0  0  0
  151.6725  141.1347  156.0339 H   0  0  0  0  0  0  0  0  0  0  0  0
  148.5949  137.8249  152.6203 H   0  0  0  0  0  0  0  0  0  0  0  0
  147.3877  136.5656  151.7387 H   0  0  0  0  0  0  0  0  0  0  0  0
  144.6473  136.9062  151.2458 H   0  0  0  0  0  0  0  0  0  0  0  0
  143.6197  135.2924  152.8137 H   0  0  0  0  0  0  0  0  0  0  0  0
  144.3449  136.6281  153.6951 H   0  0  0  0  0  0  0  0  0  0  0  0
  145.1625  135.0680  153.6330 H   0  0  0  0  0  0  0  0  0  0  0  0
  146.1007  135.3738  149.9411 H   0  0  0  0  0  0  0  0  0  0  0  0
  143.7443  134.0278  151.3271 H   0  0  0  0  0  0  0  0  0  0  0  0
  143.8212  134.5935  149.6533 H   0  0  0  0  0  0  0  0  0  0  0  0
  144.3762  132.0086  150.1376 H   0  0  0  0  0  0  0  0  0  0  0  0
  145.4861  132.9172  149.1031 H   0  0  0  0  0  0  0  0  0  0  0  0
  145.8188  132.2571  152.0425 H   0  0  0  0  0  0  0  0  0  0  0  0
  147.0450  132.2268  150.7726 H   0  0  0  0  0  0  0  0  0  0  0  0
  1  2  1  0  0  0  0
  1 20  1  0  0  0  0
  1 21  1  0  0  0  0
  1 22  1  0  0  0  0
  2  3  1  0  0  0  0
  2 23  1  0  0  0  0
  2 24  1  0  0  0  0
  3  4  1  0  0  0  0
  3 25  1  0  0  0  0
  3 26  1  0  0  0  0
  4 19  1  0  0  0  0
  4  5  2  0  0  0  0
  5  6  1  0  0  0  0
  6  7  2  0  0  0  0
  7  8  1  0  0  0  0
  7 19  1  0  0  0  0
  8  9  1  0  0  0  0
  8 27  1  0  0  0  0
  9 10  2  0  0  0  0
  9 11  1  0  0  0  0
 11 12  1  0  0  0  0
 11 28  1  0  0  0  0
 12 13  1  0  0  0  0
 12 14  1  0  0  0  0
 12 29  1  0  0  0  0
 13 30  1  0  0  0  0
 13 31  1  0  0  0  0
 13 32  1  0  0  0  0
 14 18  1  0  0  0  0
 14 15  1  0  0  0  0
 14 33  1  0  0  0  0
 15 16  1  0  0  0  0
 15 34  1  0  0  0  0
 15 35  1  0  0  0  0
 16 17  1  0  0  0  0
 16 36  1  0  0  0  0
 16 37  1  0  0  0  0
 17 18  1  0  0  0  0
 17 38  1  0  0  0  0
 17 39  1  0  0  0  0
M  END
> <s_m_source_file>
AV-unprocessed.smi

> <i_m_source_file_index>
1251

> <i_lp_mmshare_version>
43012

> <i_f3d_flags>
0

> <s_epik_input>
W0NIM11bQ0gyXVtDSDJdYzFubmMoczEpW05IXUMoPU8pW05IXVtDQEhdKFtDSDNdKVtDQEBIXTJbQ0gyXVtDSDJdW0NIMl1PMg==

> <s_epik_cmdline>
J2VwaWtfcHl0aG9uJywgJy1waCcsICc3LjAnLCAnLXRuJywgJzgnLCAnLW1hJywgJzIwMCcsICctbWV0YWxfYmluZGluZycsICctaW1hZScsICc8aW5maWxlLm1hZT4nLCAnLW9tYWUnLCAnPG91dGZpbGUubWFlPic=

> <r_lp_tautomer_probability>
1

> <r_epik_Ionization_Penalty>
0.000503621

> <r_epik_Ionization_Penalty_Charging>
0

> <r_epik_Ionization_Penalty_Neutral>
0.000503621

> <r_epik_State_Penalty>
-0

> <r_epik_Charging_Adjusted_Penalty>
0

> <i_epik_Tot_Q>
0

> <i_epik_Tot_abs_Q>
0

> <r_epik_Metal_State_Penalty>
0.219912

> <b_epik_Metal_Only>
0

> <s_lp_Force_Field>
OPLS_2005

> <r_lp_Energy>
13.0055

> <b_lp_Chiralities_Consistent>
1

> <s_lp_Variant>
AV-unprocessed.smi:1251-1

> <Gold.Version>
5.8.1

> <Gold.Id.Protein>
6NUR|6NUR_protein|mol2

> <Gold.PLP.Fitness>
36.1141

> <Gold.PLP.PLP>
-30.6168

> <Gold.PLP.part.hbond>
-2.8846

> <Gold.PLP.part.metal>
0.0000

> <Gold.PLP.part.buried>
-3.5194

> <Gold.PLP.part.nonpolar>
-26.0845

> <Gold.PLP.part.repulsive>
1.9459

> <Gold.PLP.ligand.clash>
0.0000

> <Gold.PLP.ligand.torsion>
0.1687

> <Gold.PLP.Chemscore.Hbond>
1.9280

> <Gold.PLP.Chemscore.CHOScore>
0.0000

> <Gold.PLP.Chemscore.Metal>
0.0000

> <Gold.Chemscore.Hbonds>
donor molecule, donor type, donor heavy atom, donor atom, acceptor molecule, acceptor atom, score
      L1  H     8    27       P1  7948  0.90
      L1  H    11    28       P1  7948  1.00

> <Gold.PLP.Chemscore.Internal.Correction>
0.0506

> <Gold.Rescore>
     Score         DG    S(hbond)    S(metal)    S(lipo)     H(rot)  DE(clash)    DE(int)     intcor
     14.04     -16.67       1.94        0.00      75.00       1.58       0.45       2.19       ----

> <Gold.Chemscore.Fitness>
14.0370

> <Gold.Chemscore.DG>
-16.6741

> <Gold.Chemscore.ZeroCoef>
-5.4800

> <Gold.Chemscore.Hbond>
1.9385

> <Gold.Chemscore.Metal>
0.0000

> <Gold.Chemscore.Lipo>
75.0034

> <Gold.Chemscore.Internal_Hbond>
0.0000

> <Gold.Chemscore.DEClash>
0.4509

> <Gold.Chemscore.DEInternal>
2.1862

> <Gold.Chemscore.Rot>
1.5843

> <Gold.Chemscore.Internal.Correction>
   9.000000E+99

> <Gold.Chemscore.Hbonds>
donor molecule, donor type, donor heavy atom, donor atom, acceptor molecule, acceptor atom, score
      L1  H     8    27       P1  7948  0.88
      L1  H    11    28       P1  7948  0.93

> <Gold.Chemscore.Hbond.Weighted>
-6.4745

> <Gold.Chemscore.Metal.Weighted>
-0.0000

> <Gold.Chemscore.Lipo.Weighted>
-8.7754

> <Gold.Chemscore.Internal_Hbond.Weighted>
0.0000

> <Gold.Chemscore.DEClash.Weighted>
0.4509

> <Gold.Chemscore.DEInternal.Weighted>
2.1862

> <Gold.Chemscore.Rot.Weighted>
4.0558

> <Gold.Chemscore.Internal.Correction.Weighted>
   9.000000E+99

> <Gold.Protein.RotatedTorsions>
[ 6907 6896 6895 6894 ] final  -82.02 input  -60.11 | X-H torsion
[ 7974 7965 7964 7962 ] final   93.64 input  175.53 | X-H torsion
[ 8008 7997 7996 7995 ] final -119.59 input   59.86 | X-H torsion
[ 10167 10162 10161 10158 ] final  163.67 input  -65.29 | X-H torsion
[ 10718 10713 10712 10709 ] final  125.18 input   66.30 | X-H torsion
[ 10763 10752 10751 10750 ] final -126.68 input  -60.55 | X-H torsion
[ 11005 11000 10999 10996 ] final  -78.55 input  -57.11 | X-H torsion

> <Gold.Protein.ActiveResidues>
 VAL166  LYS551  ARG553  GLY616  TRP617  ASP618  TYR619  PRO620  LYS621  CYS622 
 ASP623  PHE694  ASN695  SER759  ASP760  ASP761  ALA762  ILE779  LEU786  VAL792 
 PHE793  MET794  SER795  GLU796  ALA797  LYS798  CYS799  TRP800  GLU811  SER814 

> <Gold.Protein.RotatedAtoms>
  150.6903  134.3728  159.4999 H   0  0  0  0  0  0  0  0  0  0  0  0  # atno 6907 bound_to 6896
  152.1542  134.8962  160.0555 H   0  0  0  0  0  0  0  0  0  0  0  0  # atno 6908 bound_to 6896
  152.0048  133.3804  159.4233 H   0  0  0  0  0  0  0  0  0  0  0  0  # atno 6909 bound_to 6896
  145.4762  139.2280  143.2907 H   0  0  0  0  0  0  0  0  0  0  0  0  # atno 7974 bound_to 7965
  155.1182  140.0398  157.2743 H   0  0  0  0  0  0  0  0  0  0  0  0  # atno 8008 bound_to 7997
  154.6633  140.2596  155.7059 H   0  0  0  0  0  0  0  0  0  0  0  0  # atno 8009 bound_to 7997
  156.2628  140.2812  156.1114 H   0  0  0  0  0  0  0  0  0  0  0  0  # atno 8010 bound_to 7997
  139.4877  144.4313  151.9066 H   0  0  0  0  0  0  0  0  0  0  0  0  # atno 10167 bound_to 10162
  157.5524  131.1093  150.8678 H   0  0  0  0  0  0  0  0  0  0  0  0  # atno 10718 bound_to 10713
  154.8747  135.3987  154.3471 H   0  0  0  0  0  0  0  0  0  0  0  0  # atno 10763 bound_to 10752
  153.4262  135.7024  153.6266 H   0  0  0  0  0  0  0  0  0  0  0  0  # atno 10764 bound_to 10752
  153.4908  135.3749  155.2460 H   0  0  0  0  0  0  0  0  0  0  0  0  # atno 10765 bound_to 10752
  141.1665  133.7068  156.7988 H   0  0  0  0  0  0  0  0  0  0  0  0  # atno 11005 bound_to 11000
  146.2368  140.5545  142.8951 LP  0  0  0  0  0  0  0  0  0  0  0  0  # atno 17320 bound_to 7965
  144.7916  140.6042  143.6538 LP  0  0  0  0  0  0  0  0  0  0  0  0  # atno 17321 bound_to 7965
  140.3761  144.2794  150.5914 LP  0  0  0  0  0  0  0  0  0  0  0  0  # atno 17342 bound_to 10162
  140.5275  143.2251  151.8291 LP  0  0  0  0  0  0  0  0  0  0  0  0  # atno 17343 bound_to 10162
  156.9199  130.5311  149.5279 LP  0  0  0  0  0  0  0  0  0  0  0  0  # atno 17370 bound_to 10713
  156.0589  130.5645  150.9150 LP  0  0  0  0  0  0  0  0  0  0  0  0  # atno 17371 bound_to 10713
  140.2271  134.8713  157.3438 LP  0  0  0  0  0  0  0  0  0  0  0  0  # atno 17394 bound_to 11000
  140.1928  134.4350  155.7706 LP  0  0  0  0  0  0  0  0  0  0  0  0  # atno 17395 bound_to 11000

$$$$
