AV-unprocessed.smi:1292|AV-procd|sdf|5396|dock3
  -GOLD-   22720 4553D 1   1.00000     0.00000
 Structure written by MMmdl.
 40 41  0  0  0  0  0  0  0  0  1 V2000
  153.3094  142.9949  163.2957 C   0  0  0  0  0  0  0  0  0  0  0  0
  152.7618  142.4968  161.9513 C   0  0  1  0  0  0  0  0  0  0  0  0
  152.0609  143.6244  161.1774 C   0  0  0  0  0  0  0  0  0  0  0  0
  151.5050  143.0944  159.8499 C   0  0  0  0  0  0  0  0  0  0  0  0
  152.5903  142.4010  159.0082 C   0  0  0  0  0  0  0  0  0  0  0  0
  153.3546  141.4068  159.7902 N   0  0  0  0  0  0  0  0  0  0  0  0
  153.2426  139.7016  159.4649 S   0  0  0  0  0  0  0  0  0  0  0  0
  154.0290  139.3779  158.2644 O   0  0  0  0  0  0  0  0  0  0  0  0
  153.4622  138.9883  160.7321 O   0  0  0  0  0  0  0  0  0  0  0  0
  151.5636  139.5659  159.0867 N   0  0  0  0  0  0  0  0  0  0  0  0
  151.0450  138.5671  158.1506 C   0  0  0  0  0  0  0  0  0  0  0  0
  151.5042  138.8779  156.7176 C   0  0  0  0  0  0  0  0  0  0  0  0
  150.3978  139.4736  155.8641 C   0  0  0  0  0  0  0  0  0  0  0  0
  149.8191  138.7322  154.8116 C   0  0  0  0  0  0  0  0  0  0  0  0
  148.7789  139.3220  154.0680 C   0  0  0  0  0  0  0  0  0  0  0  0
  148.3593  140.6237  154.4033 C   0  0  0  0  0  0  0  0  0  0  0  0
  149.0027  141.2812  155.4706 C   0  0  0  0  0  0  0  0  0  0  0  0
  150.0010  140.7247  156.1902 N   0  0  0  0  0  0  0  0  0  0  0  0
  153.8766  141.8760  161.0874 C   0  0  0  0  0  0  0  0  0  0  0  0
  154.0566  143.7765  163.1548 H   0  0  0  0  0  0  0  0  0  0  0  0
  153.7770  142.1830  163.8533 H   0  0  0  0  0  0  0  0  0  0  0  0
  152.5121  143.4039  163.9168 H   0  0  0  0  0  0  0  0  0  0  0  0
  152.0262  141.7225  162.1698 H   0  0  0  0  0  0  0  0  0  0  0  0
  151.2508  144.0466  161.7729 H   0  0  0  0  0  0  0  0  0  0  0  0
  152.7633  144.4364  160.9842 H   0  0  0  0  0  0  0  0  0  0  0  0
  150.6840  142.4076  160.0401 H   0  0  0  0  0  0  0  0  0  0  0  0
  151.0737  143.9174  159.2796 H   0  0  0  0  0  0  0  0  0  0  0  0
  152.1453  141.9384  158.1282 H   0  0  0  0  0  0  0  0  0  0  0  0
  153.2914  143.1498  158.6385 H   0  0  0  0  0  0  0  0  0  0  0  0
  151.0493  140.4459  159.1179 H   0  0  0  0  0  0  0  0  0  0  0  0
  151.3995  137.5812  158.4434 H   0  0  0  0  0  0  0  0  0  0  0  0
  149.9561  138.5520  158.1961 H   0  0  0  0  0  0  0  0  0  0  0  0
  152.3394  139.5790  156.7459 H   0  0  0  0  0  0  0  0  0  0  0  0
  151.8858  137.9730  156.2425 H   0  0  0  0  0  0  0  0  0  0  0  0
  150.1579  137.7321  154.5839 H   0  0  0  0  0  0  0  0  0  0  0  0
  148.3094  138.7841  153.2576 H   0  0  0  0  0  0  0  0  0  0  0  0
  147.5627  141.1061  153.8564 H   0  0  0  0  0  0  0  0  0  0  0  0
  148.7061  142.2796  155.7555 H   0  0  0  0  0  0  0  0  0  0  0  0
  154.6595  142.6117  160.8996 H   0  0  0  0  0  0  0  0  0  0  0  0
  154.3492  141.0487  161.6173 H   0  0  0  0  0  0  0  0  0  0  0  0
  1  2  1  0  0  0  0
  1 20  1  0  0  0  0
  1 21  1  0  0  0  0
  1 22  1  0  0  0  0
  2 19  1  0  0  0  0
  2  3  1  0  0  0  0
  2 23  1  0  0  0  0
  3  4  1  0  0  0  0
  3 24  1  0  0  0  0
  3 25  1  0  0  0  0
  4  5  1  0  0  0  0
  4 26  1  0  0  0  0
  4 27  1  0  0  0  0
  5  6  1  0  0  0  0
  5 28  1  0  0  0  0
  5 29  1  0  0  0  0
  6  7  1  0  0  0  0
  6 19  1  0  0  0  0
  7  8  2  0  0  0  0
  7  9  2  0  0  0  0
  7 10  1  0  0  0  0
 10 11  1  0  0  0  0
 10 30  1  0  0  0  0
 11 12  1  0  0  0  0
 11 31  1  0  0  0  0
 11 32  1  0  0  0  0
 12 13  1  0  0  0  0
 12 33  1  0  0  0  0
 12 34  1  0  0  0  0
 13 18  1  0  0  0  0
 13 14  2  0  0  0  0
 14 15  1  0  0  0  0
 14 35  1  0  0  0  0
 15 16  2  0  0  0  0
 15 36  1  0  0  0  0
 16 17  1  0  0  0  0
 16 37  1  0  0  0  0
 17 18  2  0  0  0  0
 17 38  1  0  0  0  0
 19 39  1  0  0  0  0
 19 40  1  0  0  0  0
M  END
> <s_m_source_file>
AV-unprocessed.smi

> <i_m_source_file_index>
1292

> <i_lp_mmshare_version>
43012

> <i_f3d_flags>
0

> <s_epik_input>
W0NIM11bQ0BASF0xW0NIMl1bQ0gyXVtDSDJdTihbQ0gyXTEpUyg9TykoPU8pW05IXVtDSDJdW0NIMl1jMltjSF1bY0hdW2NIXVtjSF1uMg==

> <s_epik_cmdline>
J2VwaWtfcHl0aG9uJywgJy1waCcsICc3LjAnLCAnLXRuJywgJzgnLCAnLW1hJywgJzIwMCcsICctbWV0YWxfYmluZGluZycsICctaW1hZScsICc8aW5maWxlLm1hZT4nLCAnLW9tYWUnLCAnPG91dGZpbGUubWFlPic=

> <r_epik_Ionization_Penalty>
0.0252758

> <r_epik_Ionization_Penalty_Charging>
0

> <r_epik_Ionization_Penalty_Neutral>
0.0252758

> <r_epik_State_Penalty>
0.0138562

> <r_epik_Charging_Adjusted_Penalty>
0.0138562

> <i_epik_Tot_Q>
0

> <i_epik_Tot_abs_Q>
0

> <r_epik_Metal_State_Penalty>
0.204365

> <b_epik_Metal_Only>
0

> <s_lp_Force_Field>
OPLS_2005

> <r_lp_Energy>
8.19125

> <b_lp_Chiralities_Consistent>
1

> <s_lp_Variant>
AV-unprocessed.smi:1292-2

> <Gold.Version>
5.8.1

> <Gold.Id.Protein>
6NUR|6NUR_protein|mol2

> <Gold.PLP.Fitness>
44.4769

> <Gold.PLP.PLP>
-39.7960

> <Gold.PLP.part.hbond>
-0.8273

> <Gold.PLP.part.metal>
0.0000

> <Gold.PLP.part.buried>
2.5465

> <Gold.PLP.part.nonpolar>
-40.7798

> <Gold.PLP.part.repulsive>
0.2049

> <Gold.PLP.ligand.clash>
0.0000

> <Gold.PLP.ligand.torsion>
2.1574

> <Gold.PLP.Chemscore.Hbond>
1.0000

> <Gold.PLP.Chemscore.CHOScore>
1.0000

> <Gold.PLP.Chemscore.Metal>
0.0000

> <Gold.Chemscore.Hbonds>
donor molecule, donor type, donor heavy atom, donor atom, acceptor molecule, acceptor atom, score
      P1  H  7997  8008       L1     8  0.96
      L1  C    17    38       P1  8028  1.00

> <Gold.PLP.Chemscore.Internal.Correction>
2.9957

> <Gold.Rescore>
     Score         DG    S(hbond)    S(metal)    S(lipo)     H(rot)  DE(clash)    DE(int)     intcor
     16.19     -18.57       0.99        0.00     112.12       1.30       0.26       2.11       ----

> <Gold.Chemscore.Fitness>
16.1866

> <Gold.Chemscore.DG>
-18.5650

> <Gold.Chemscore.ZeroCoef>
-5.4800

> <Gold.Chemscore.Hbond>
0.9896

> <Gold.Chemscore.Metal>
0.0000

> <Gold.Chemscore.Lipo>
112.1166

> <Gold.Chemscore.Internal_Hbond>
0.0000

> <Gold.Chemscore.DEClash>
0.2639

> <Gold.Chemscore.DEInternal>
2.1145

> <Gold.Chemscore.Rot>
1.3039

> <Gold.Chemscore.Internal.Correction>
   9.000000E+99

> <Gold.Chemscore.Hbonds>
donor molecule, donor type, donor heavy atom, donor atom, acceptor molecule, acceptor atom, score
      P1  H  7997  8008       L1     8  0.89

> <Gold.Chemscore.Hbond.Weighted>
-3.3053

> <Gold.Chemscore.Metal.Weighted>
-0.0000

> <Gold.Chemscore.Lipo.Weighted>
-13.1176

> <Gold.Chemscore.Internal_Hbond.Weighted>
0.0000

> <Gold.Chemscore.DEClash.Weighted>
0.2639

> <Gold.Chemscore.DEInternal.Weighted>
2.1145

> <Gold.Chemscore.Rot.Weighted>
3.3379

> <Gold.Chemscore.Internal.Correction.Weighted>
   9.000000E+99

> <Gold.Protein.RotatedTorsions>
[ 6907 6896 6895 6894 ] final  179.79 input  -60.11 | X-H torsion
[ 7974 7965 7964 7962 ] final  -69.09 input  175.53 | X-H torsion
[ 8008 7997 7996 7995 ] final -120.92 input   59.86 | X-H torsion
[ 10167 10162 10161 10158 ] final -113.73 input  -65.29 | X-H torsion
[ 10718 10713 10712 10709 ] final  -37.43 input   66.30 | X-H torsion
[ 10763 10752 10751 10750 ] final  -12.53 input  -60.55 | X-H torsion
[ 11005 11000 10999 10996 ] final   82.71 input  -57.11 | X-H torsion

> <Gold.Protein.ActiveResidues>
 VAL166  LYS551  ARG553  GLY616  TRP617  ASP618  TYR619  PRO620  LYS621  CYS622 
 ASP623  PHE694  ASN695  SER759  ASP760  ASP761  ALA762  ILE779  LEU786  VAL792 
 PHE793  MET794  SER795  GLU796  ALA797  LYS798  CYS799  TRP800  GLU811  SER814 

> <Gold.Protein.RotatedAtoms>
  151.6659  133.3315  159.3184 H   0  0  0  0  0  0  0  0  0  0  0  0  # atno 6907 bound_to 6896
  150.7891  134.6904  159.6503 H   0  0  0  0  0  0  0  0  0  0  0  0  # atno 6908 bound_to 6896
  152.3967  134.6357  160.0138 H   0  0  0  0  0  0  0  0  0  0  0  0  # atno 6909 bound_to 6896
  145.7082  140.9089  143.0695 H   0  0  0  0  0  0  0  0  0  0  0  0  # atno 7974 bound_to 7965
  155.1396  140.0401  157.2795 H   0  0  0  0  0  0  0  0  0  0  0  0  # atno 8008 bound_to 7997
  154.6483  140.2563  155.7216 H   0  0  0  0  0  0  0  0  0  0  0  0  # atno 8009 bound_to 7997
  156.2565  140.2841  156.0906 H   0  0  0  0  0  0  0  0  0  0  0  0  # atno 8010 bound_to 7997
  140.1086  143.4547  152.1767 H   0  0  0  0  0  0  0  0  0  0  0  0  # atno 10167 bound_to 10162
  156.3153  130.4258  149.8011 H   0  0  0  0  0  0  0  0  0  0  0  0  # atno 10718 bound_to 10713
  153.4998  135.7017  153.5838 H   0  0  0  0  0  0  0  0  0  0  0  0  # atno 10763 bound_to 10752
  153.3974  135.3880  155.1964 H   0  0  0  0  0  0  0  0  0  0  0  0  # atno 10764 bound_to 10752
  154.8711  135.3873  154.4468 H   0  0  0  0  0  0  0  0  0  0  0  0  # atno 10765 bound_to 10752
  139.9054  134.8092  156.2212 H   0  0  0  0  0  0  0  0  0  0  0  0  # atno 11005 bound_to 11000
  144.6949  139.9038  143.7460 LP  0  0  0  0  0  0  0  0  0  0  0  0  # atno 17320 bound_to 7965
  146.0737  139.3725  143.0507 LP  0  0  0  0  0  0  0  0  0  0  0  0  # atno 17321 bound_to 7965
  139.5631  144.7418  151.4098 LP  0  0  0  0  0  0  0  0  0  0  0  0  # atno 17342 bound_to 10162
  140.6938  143.7798  150.7295 LP  0  0  0  0  0  0  0  0  0  0  0  0  # atno 17343 bound_to 10162
  156.5340  130.8270  151.3246 LP  0  0  0  0  0  0  0  0  0  0  0  0  # atno 17370 bound_to 10713
  157.7400  130.9842  150.2350 LP  0  0  0  0  0  0  0  0  0  0  0  0  # atno 17371 bound_to 10713
  141.0404  133.6940  156.1588 LP  0  0  0  0  0  0  0  0  0  0  0  0  # atno 17394 bound_to 11000
  140.6963  134.4612  157.5587 LP  0  0  0  0  0  0  0  0  0  0  0  0  # atno 17395 bound_to 11000

$$$$
