AV-unprocessed.smi:3248|AV-procd|sdf|12414|dock3
  -GOLD-   2272018293D 1   1.00000     0.00000
 Structure written by MMmdl.
 38 39  0  0  0  0  0  0  0  0  1 V2000
  151.2978  140.3839  155.9664 C   0  0  0  0  0  0  0  0  0  0  0  0
  150.6700  141.7750  156.1250 C   0  0  1  0  0  0  0  0  0  0  0  0
  149.1822  141.6769  156.5267 C   0  0  0  0  0  0  0  0  0  0  0  0
  148.3123  141.3836  155.4010 N   0  0  0  0  0  0  0  0  0  0  0  0
  148.6638  141.0624  154.1065 C   0  0  0  0  0  0  0  0  0  0  0  0
  147.5076  140.8540  153.4112 C   0  0  0  0  0  0  0  0  0  0  0  0
  146.4877  141.0786  154.3776 C   0  0  0  0  0  0  0  0  0  0  0  0
  146.9722  141.4010  155.5661 N   0  0  0  0  0  0  0  0  0  0  0  0
  151.4291  142.5251  157.1247 N   0  0  0  0  0  0  0  0  0  0  0  0
  151.7559  142.0918  158.3548 C   0  0  0  0  0  0  0  0  0  0  0  0
  151.4487  140.9748  158.7705 O   0  0  0  0  0  0  0  0  0  0  0  0
  152.5745  142.9457  159.0147 N   0  0  0  0  0  0  0  0  0  0  0  0
  152.3976  144.3994  158.8912 C   0  0  0  0  0  0  0  0  0  0  0  0
  151.5182  144.8831  160.0614 C   0  0  0  0  0  0  0  0  0  0  0  0
  152.1236  144.5300  161.3035 O   0  0  0  0  0  0  0  0  0  0  0  0
  152.3594  143.1301  161.4421 C   0  0  0  0  0  0  0  0  0  0  0  0
  153.2609  142.6499  160.2871 C   0  0  1  0  0  0  0  0  0  0  0  0
  153.7313  141.1902  160.4614 C   0  0  0  0  0  0  0  0  0  0  0  0
  150.7760  139.8035  155.2050 H   0  0  0  0  0  0  0  0  0  0  0  0
  151.2580  139.8207  156.8993 H   0  0  0  0  0  0  0  0  0  0  0  0
  152.3432  140.4564  155.6641 H   0  0  0  0  0  0  0  0  0  0  0  0
  150.7413  142.2715  155.1554 H   0  0  0  0  0  0  0  0  0  0  0  0
  149.0453  140.8913  157.2708 H   0  0  0  0  0  0  0  0  0  0  0  0
  148.8498  142.6059  156.9925 H   0  0  0  0  0  0  0  0  0  0  0  0
  149.6957  141.0003  153.7942 H   0  0  0  0  0  0  0  0  0  0  0  0
  147.4057  140.5799  152.3717 H   0  0  0  0  0  0  0  0  0  0  0  0
  145.4168  141.0187  154.2516 H   0  0  0  0  0  0  0  0  0  0  0  0
  151.7616  143.4373  156.8479 H   0  0  0  0  0  0  0  0  0  0  0  0
  153.3698  144.8935  158.9188 H   0  0  0  0  0  0  0  0  0  0  0  0
  151.9408  144.6950  157.9459 H   0  0  0  0  0  0  0  0  0  0  0  0
  151.3999  145.9659  160.0223 H   0  0  0  0  0  0  0  0  0  0  0  0
  150.5182  144.4504  160.0016 H   0  0  0  0  0  0  0  0  0  0  0  0
  152.8439  142.9545  162.4029 H   0  0  0  0  0  0  0  0  0  0  0  0
  151.4121  142.5887  161.4569 H   0  0  0  0  0  0  0  0  0  0  0  0
  154.1716  143.2510  160.3041 H   0  0  0  0  0  0  0  0  0  0  0  0
  154.3930  141.1042  161.3234 H   0  0  0  0  0  0  0  0  0  0  0  0
  154.2886  140.8468  159.5895 H   0  0  0  0  0  0  0  0  0  0  0  0
  152.9048  140.5009  160.6312 H   0  0  0  0  0  0  0  0  0  0  0  0
  1  2  1  0  0  0  0
  1 19  1  0  0  0  0
  1 20  1  0  0  0  0
  1 21  1  0  0  0  0
  2  3  1  0  0  0  0
  2  9  1  0  0  0  0
  2 22  1  0  0  0  0
  3  4  1  0  0  0  0
  3 23  1  0  0  0  0
  3 24  1  0  0  0  0
  4  8  1  0  0  0  0
  4  5  1  0  0  0  0
  5  6  2  0  0  0  0
  5 25  1  0  0  0  0
  6  7  1  0  0  0  0
  6 26  1  0  0  0  0
  7  8  2  0  0  0  0
  7 27  1  0  0  0  0
  9 10  1  0  0  0  0
  9 28  1  0  0  0  0
 10 11  2  0  0  0  0
 10 12  1  0  0  0  0
 12 17  1  0  0  0  0
 12 13  1  0  0  0  0
 13 14  1  0  0  0  0
 13 29  1  0  0  0  0
 13 30  1  0  0  0  0
 14 15  1  0  0  0  0
 14 31  1  0  0  0  0
 14 32  1  0  0  0  0
 15 16  1  0  0  0  0
 16 17  1  0  0  0  0
 16 33  1  0  0  0  0
 16 34  1  0  0  0  0
 17 18  1  0  0  0  0
 17 35  1  0  0  0  0
 18 36  1  0  0  0  0
 18 37  1  0  0  0  0
 18 38  1  0  0  0  0
M  END
> <s_m_source_file>
AV-unprocessed.smi

> <i_m_source_file_index>
3248

> <i_lp_mmshare_version>
43012

> <i_f3d_flags>
0

> <s_epik_input>
bjFbY0hdW2NIXVtjSF1uMVtDSDJdW0NAQEhdKFtDSDNdKVtOSF1DKD1PKU4yW0NIMl1bQ0gyXU9bQ0gyXVtDQEhdMltDSDNd

> <s_epik_cmdline>
J2VwaWtfcHl0aG9uJywgJy1waCcsICc3LjAnLCAnLXRuJywgJzgnLCAnLW1hJywgJzIwMCcsICctbWV0YWxfYmluZGluZycsICctaW1hZScsICc8aW5maWxlLm1hZT4nLCAnLW9tYWUnLCAnPG91dGZpbGUubWFlPic=

> <r_lp_tautomer_probability>
1

> <r_epik_Ionization_Penalty>
4.45233e-05

> <r_epik_Ionization_Penalty_Charging>
0

> <r_epik_Ionization_Penalty_Neutral>
4.45233e-05

> <r_epik_State_Penalty>
-0

> <r_epik_Charging_Adjusted_Penalty>
0

> <i_epik_Tot_Q>
0

> <i_epik_Tot_abs_Q>
0

> <r_epik_Metal_State_Penalty>
-0

> <b_epik_Metal_Only>
0

> <s_lp_Force_Field>
OPLS_2005

> <r_lp_Energy>
31.1231

> <b_lp_Chiralities_Consistent>
1

> <s_lp_Variant>
AV-unprocessed.smi:3248-2

> <Gold.Version>
5.8.1

> <Gold.Id.Protein>
6NUR|6NUR_protein|mol2

> <Gold.PLP.Fitness>
45.0064

> <Gold.PLP.PLP>
-42.1842

> <Gold.PLP.part.hbond>
0.0000

> <Gold.PLP.part.metal>
0.0000

> <Gold.PLP.part.buried>
-2.6587

> <Gold.PLP.part.nonpolar>
-39.6754

> <Gold.PLP.part.repulsive>
0.3331

> <Gold.PLP.ligand.clash>
0.0000

> <Gold.PLP.ligand.torsion>
0.5960

> <Gold.PLP.Chemscore.Hbond>
0.0000

> <Gold.PLP.Chemscore.CHOScore>
1.1624

> <Gold.PLP.Chemscore.Metal>
0.0000

> <Gold.Chemscore.Hbonds>
donor molecule, donor type, donor heavy atom, donor atom, acceptor molecule, acceptor atom, score
      L1  C     5    25       P1  7957  0.17
      L1  C     7    27       P1 10175  1.00

> <Gold.PLP.Chemscore.Internal.Correction>
0.5271

> <Gold.Rescore>
     Score         DG    S(hbond)    S(metal)    S(lipo)     H(rot)  DE(clash)    DE(int)     intcor
     10.41     -13.33       0.00        0.00      98.17       1.42       0.21       2.72       ----

> <Gold.Chemscore.Fitness>
10.4057

> <Gold.Chemscore.DG>
-13.3325

> <Gold.Chemscore.ZeroCoef>
-5.4800

> <Gold.Chemscore.Hbond>
0.0000

> <Gold.Chemscore.Metal>
0.0000

> <Gold.Chemscore.Lipo>
98.1669

> <Gold.Chemscore.Internal_Hbond>
0.0000

> <Gold.Chemscore.DEClash>
0.2056

> <Gold.Chemscore.DEInternal>
2.7212

> <Gold.Chemscore.Rot>
1.4191

> <Gold.Chemscore.Internal.Correction>
   9.000000E+99

> <Gold.Chemscore.Hbond.Weighted>
-0.0000

> <Gold.Chemscore.Metal.Weighted>
-0.0000

> <Gold.Chemscore.Lipo.Weighted>
-11.4855

> <Gold.Chemscore.Internal_Hbond.Weighted>
0.0000

> <Gold.Chemscore.DEClash.Weighted>
0.2056

> <Gold.Chemscore.DEInternal.Weighted>
2.7212

> <Gold.Chemscore.Rot.Weighted>
3.6330

> <Gold.Chemscore.Internal.Correction.Weighted>
   9.000000E+99

> <Gold.Protein.RotatedTorsions>
[ 6907 6896 6895 6894 ] final   22.62 input  -60.11 | X-H torsion
[ 7974 7965 7964 7962 ] final -123.16 input  175.53 | X-H torsion
[ 8008 7997 7996 7995 ] final -140.04 input   59.86 | X-H torsion
[ 10167 10162 10161 10158 ] final  145.50 input  -65.29 | X-H torsion
[ 10718 10713 10712 10709 ] final   -3.17 input   66.30 | X-H torsion
[ 10763 10752 10751 10750 ] final  -90.69 input  -60.55 | X-H torsion
[ 11005 11000 10999 10996 ] final   16.69 input  -57.11 | X-H torsion

> <Gold.Protein.ActiveResidues>
 VAL166  LYS551  ARG553  GLY616  TRP617  ASP618  TYR619  PRO620  LYS621  CYS622 
 ASP623  PHE694  ASN695  SER759  ASP760  ASP761  ALA762  ILE779  LEU786  VAL792 
 PHE793  MET794  SER795  GLU796  ALA797  LYS798  CYS799  TRP800  GLU811  SER814 

> <Gold.Protein.RotatedAtoms>
  151.9299  135.0261  160.0528 H   0  0  0  0  0  0  0  0  0  0  0  0  # atno 6907 bound_to 6896
  152.2127  133.4919  159.5127 H   0  0  0  0  0  0  0  0  0  0  0  0  # atno 6908 bound_to 6896
  150.6980  134.1362  159.4131 H   0  0  0  0  0  0  0  0  0  0  0  0  # atno 6909 bound_to 6896
  145.0217  140.7993  143.4377 H   0  0  0  0  0  0  0  0  0  0  0  0  # atno 7974 bound_to 7965
  155.4548  140.0541  157.2997 H   0  0  0  0  0  0  0  0  0  0  0  0  # atno 8008 bound_to 7997
  154.4762  140.2062  155.9828 H   0  0  0  0  0  0  0  0  0  0  0  0  # atno 8009 bound_to 7997
  156.1135  140.3200  155.8111 H   0  0  0  0  0  0  0  0  0  0  0  0  # atno 8010 bound_to 7997
  139.4925  144.5897  151.6706 H   0  0  0  0  0  0  0  0  0  0  0  0  # atno 10167 bound_to 10162
  156.7800  130.5328  149.5752 H   0  0  0  0  0  0  0  0  0  0  0  0  # atno 10718 bound_to 10713
  154.6684  135.5295  153.8106 H   0  0  0  0  0  0  0  0  0  0  0  0  # atno 10763 bound_to 10752
  153.0485  135.6523  154.0764 H   0  0  0  0  0  0  0  0  0  0  0  0  # atno 10764 bound_to 10752
  154.0665  135.2957  155.3295 H   0  0  0  0  0  0  0  0  0  0  0  0  # atno 10765 bound_to 10752
  140.4443  134.1290  155.7694 H   0  0  0  0  0  0  0  0  0  0  0  0  # atno 11005 bound_to 11000
  145.1887  139.2312  143.5254 LP  0  0  0  0  0  0  0  0  0  0  0  0  # atno 17320 bound_to 7965
  146.3486  140.1678  142.8590 LP  0  0  0  0  0  0  0  0  0  0  0  0  # atno 17321 bound_to 7965
  140.5521  144.0409  150.6131 LP  0  0  0  0  0  0  0  0  0  0  0  0  # atno 17342 bound_to 10162
  140.3466  143.2988  152.0532 LP  0  0  0  0  0  0  0  0  0  0  0  0  # atno 17343 bound_to 10162
  156.1224  130.6119  151.0213 LP  0  0  0  0  0  0  0  0  0  0  0  0  # atno 17370 bound_to 10713
  157.6650  131.0873  150.7748 LP  0  0  0  0  0  0  0  0  0  0  0  0  # atno 17371 bound_to 10713
  141.1692  133.8643  157.1623 LP  0  0  0  0  0  0  0  0  0  0  0  0  # atno 17394 bound_to 11000
  140.0049  135.0012  157.0270 LP  0  0  0  0  0  0  0  0  0  0  0  0  # atno 17395 bound_to 11000

$$$$
