AV-unprocessed.smi:102|AV-procd|sdf|968|dock4
  -GOLD-   2262017513D 1   1.00000     0.00000
 Structure written by MMmdl.
 43 44  0  0  0  0  0  0  0  0  2 V2000
  152.0194  144.1188  160.5996 C   0  0  0  0  0  0  0  0  0  0  0  0
  151.5264  143.6109  159.2505 C   0  0  0  0  0  0  0  0  0  0  0  0
  150.9775  144.3626  158.4447 O   0  0  0  0  0  0  0  0  0  0  0  0
  151.7615  142.3015  159.0744 O   0  0  0  0  0  0  0  0  0  0  0  0
  150.8834  141.5354  158.2666 C   0  0  0  0  0  0  0  0  0  0  0  0
  151.7078  140.6042  157.3560 C   0  0  1  0  0  0  0  0  0  0  0  0
  152.5778  139.8226  158.1644 O   0  0  0  0  0  0  0  0  0  0  0  0
  151.9049  138.6840  158.6137 C   0  0  2  0  0  0  0  0  0  0  0  0
  152.8812  137.5277  158.6449 N   0  0  0  0  0  0  0  0  0  0  0  0
  153.1598  136.8788  159.8354 C   0  0  0  0  0  0  0  0  0  0  0  0
  154.0476  135.8651  159.8868 C   0  0  0  0  0  0  0  0  0  0  0  0
  154.2999  135.2555  161.0579 F   0  0  0  0  0  0  0  0  0  0  0  0
  154.7340  135.4426  158.6672 C   0  0  0  0  0  0  0  0  0  0  0  0
  155.5360  134.5113  158.7182 O   0  0  0  0  0  0  0  0  0  0  0  0
  154.4526  136.1126  157.5119 N   0  5  0  0  0  0  0  0  0  0  0  0
  153.5621  137.1463  157.4569 C   0  0  0  0  0  0  0  0  0  0  0  0
  153.3264  137.7774  156.4265 O   0  0  0  0  0  0  0  0  0  0  0  0
  150.7085  138.4382  157.6681 C   0  0  2  0  0  0  0  0  0  0  0  0
  150.7536  137.1524  157.0566 O   0  0  0  0  0  0  0  0  0  0  0  0
  150.4198  136.0553  157.7534 C   0  0  0  0  0  0  0  0  0  0  0  0
  150.5195  134.7882  156.9155 C   0  0  0  0  0  0  0  0  0  0  0  0
  150.0627  136.0230  158.9312 O   0  0  0  0  0  0  0  0  0  0  0  0
  150.8837  139.5348  156.6270 C   0  0  1  0  0  0  0  0  0  0  0  0
  149.6172  140.0056  156.1831 O   0  0  0  0  0  0  0  0  0  0  0  0
  149.5143  140.6831  155.0280 C   0  0  0  0  0  0  0  0  0  0  0  0
  148.1820  141.4089  154.8997 C   0  0  0  0  0  0  0  0  0  0  0  0
  150.3704  140.7469  154.1457 O   0  0  0  0  0  0  0  0  0  0  0  0
  152.7122  143.4094  161.0533 H   0  0  0  0  0  0  0  0  0  0  0  0
  151.1781  144.2629  161.2774 H   0  0  0  0  0  0  0  0  0  0  0  0
  152.5335  145.0723  160.4788 H   0  0  0  0  0  0  0  0  0  0  0  0
  150.1895  140.9678  158.8879 H   0  0  0  0  0  0  0  0  0  0  0  0
  150.2905  142.2213  157.6600 H   0  0  0  0  0  0  0  0  0  0  0  0
  152.2788  141.1975  156.6410 H   0  0  0  0  0  0  0  0  0  0  0  0
  151.5972  138.8636  159.6448 H   0  0  0  0  0  0  0  0  0  0  0  0
  152.6685  137.1899  160.7452 H   0  0  0  0  0  0  0  0  0  0  0  0
  149.7977  138.5847  158.2514 H   0  0  0  0  0  0  0  0  0  0  0  0
  151.4943  134.7308  156.4305 H   0  0  0  0  0  0  0  0  0  0  0  0
  149.7482  134.7832  156.1454 H   0  0  0  0  0  0  0  0  0  0  0  0
  150.3921  133.9041  157.5403 H   0  0  0  0  0  0  0  0  0  0  0  0
  151.4718  139.1365  155.7980 H   0  0  0  0  0  0  0  0  0  0  0  0
  147.3565  140.7027  154.9891 H   0  0  0  0  0  0  0  0  0  0  0  0
  148.1079  141.9066  153.9327 H   0  0  0  0  0  0  0  0  0  0  0  0
  148.0831  142.1595  155.6838 H   0  0  0  0  0  0  0  0  0  0  0  0
  1  2  1  0  0  0  0
  1 28  1  0  0  0  0
  1 29  1  0  0  0  0
  1 30  1  0  0  0  0
  2  3  2  0  0  0  0
  2  4  1  0  0  0  0
  4  5  1  0  0  0  0
  5  6  1  0  0  0  0
  5 31  1  0  0  0  0
  5 32  1  0  0  0  0
  6 23  1  0  0  0  0
  6  7  1  0  0  0  0
  6 33  1  0  0  0  0
  7  8  1  0  0  0  0
  8  9  1  0  0  0  0
  8 18  1  0  0  0  0
  8 34  1  0  0  0  0
  9 16  1  0  0  0  0
  9 10  1  0  0  0  0
 10 11  2  0  0  0  0
 10 35  1  0  0  0  0
 11 12  1  0  0  0  0
 11 13  1  0  0  0  0
 13 14  2  0  0  0  0
 13 15  1  0  0  0  0
 15 16  1  0  0  0  0
 16 17  2  0  0  0  0
 18 19  1  0  0  0  0
 18 23  1  0  0  0  0
 18 36  1  0  0  0  0
 19 20  1  0  0  0  0
 20 21  1  0  0  0  0
 20 22  2  0  0  0  0
 21 37  1  0  0  0  0
 21 38  1  0  0  0  0
 21 39  1  0  0  0  0
 23 24  1  0  0  0  0
 23 40  1  0  0  0  0
 24 25  1  0  0  0  0
 25 26  1  0  0  0  0
 25 27  2  0  0  0  0
 26 41  1  0  0  0  0
 26 42  1  0  0  0  0
 26 43  1  0  0  0  0
M  CHG  1  15  -1
M  END
> <s_m_source_file>
AV-unprocessed.smi

> <i_m_source_file_index>
102

> <i_lp_mmshare_version>
43012

> <i_f3d_flags>
0

> <s_epik_input>
W0NIM11DKD1PKU9bQ0gyXVtDQEBIXTFPW0NASF0oW0NAQEhdKE9DKD1PKVtDSDNdKVtDQEhdMU9DKD1PKVtDSDNdKW4yW2NIXWMoRiljKD1PKVtuSF1jMj1P

> <s_epik_cmdline>
J2VwaWtfcHl0aG9uJywgJy1waCcsICc3LjAnLCAnLXRuJywgJzgnLCAnLW1hJywgJzIwMCcsICctbWV0YWxfYmluZGluZycsICctaW1hZScsICc8aW5maWxlLm1hZT4nLCAnLW9tYWUnLCAnPG91dGZpbGUubWFlPic=

> <r_epik_Ionization_Penalty>
1.40304

> <r_epik_Ionization_Penalty_Charging>
1.43915e-08

> <r_epik_Ionization_Penalty_Neutral>
1.40304

> <r_epik_State_Penalty>
1.48536

> <r_epik_Charging_Adjusted_Penalty>
1.48536

> <i_epik_Tot_Q>
-1

> <i_epik_Tot_abs_Q>
1

> <r_epik_Metal_State_Penalty>
0.00663881

> <b_epik_Metal_Only>
0

> <s_epik_Chemistry_Notes>
This compound has an ester and may undergo hydrolysis at high or low pH. This compound contains an acetal/aminal-like group ( X-CH(R)-Y where X, Y are N, S, or O) that may be acid/base labile, releasing an aldehyde.

> <s_lp_Force_Field>
OPLS_2005

> <r_lp_Energy>
24.6661

> <b_lp_Chiralities_Consistent>
1

> <s_lp_Variant>
AV-unprocessed.smi:102-24

> <Gold.Version>
5.8.1

> <Gold.Id.Protein>
6NUR|6NUR_protein|mol2

> <Gold.PLP.Fitness>
43.6327

> <Gold.PLP.PLP>
-30.3236

> <Gold.PLP.part.hbond>
-4.8378

> <Gold.PLP.part.metal>
0.0000

> <Gold.PLP.part.buried>
-4.2378

> <Gold.PLP.part.nonpolar>
-22.7294

> <Gold.PLP.part.repulsive>
2.3200

> <Gold.PLP.ligand.clash>
0.0000

> <Gold.PLP.ligand.torsion>
1.1967

> <Gold.PLP.Chemscore.Hbond>
5.1766

> <Gold.PLP.Chemscore.CHOScore>
0.0000

> <Gold.PLP.Chemscore.Metal>
0.0000

> <Gold.Chemscore.Hbonds>
donor molecule, donor type, donor heavy atom, donor atom, acceptor molecule, acceptor atom, score
      P1  H  6896  6908       L1    22  1.00
      P1  H  7989  7998       L1    27  0.51
      P1  H  7997  8008       L1     7  0.15
      P1  H 10752 10765       L1    15  0.61

> <Gold.PLP.Chemscore.Internal.Correction>
0.1728

> <Gold.Rescore>
     Score         DG    S(hbond)    S(metal)    S(lipo)     H(rot)  DE(clash)    DE(int)     intcor
      6.21     -11.13       3.00        0.00      49.98       4.00       0.99       3.92       ----

> <Gold.Chemscore.Fitness>
6.2122

> <Gold.Chemscore.DG>
-11.1273

> <Gold.Chemscore.ZeroCoef>
-5.4800

> <Gold.Chemscore.Hbond>
3.0021

> <Gold.Chemscore.Metal>
0.0000

> <Gold.Chemscore.Lipo>
49.9801

> <Gold.Chemscore.Internal_Hbond>
0.0000

> <Gold.Chemscore.DEClash>
0.9911

> <Gold.Chemscore.DEInternal>
3.9239

> <Gold.Chemscore.Rot>
3.9951

> <Gold.Chemscore.Internal.Correction>
   9.000000E+99

> <Gold.Chemscore.Hbonds>
donor molecule, donor type, donor heavy atom, donor atom, acceptor molecule, acceptor atom, score
      P1  H  6896  6908       L1    22  0.73
      P1  H  7989  7998       L1    27  0.51
      P1  H  7997  8008       L1     7  0.02
      P1  H  8011  8017       L1    27  0.01
      P1  H 10752 10765       L1    15  0.06

> <Gold.Chemscore.Hbond.Weighted>
-10.0270

> <Gold.Chemscore.Metal.Weighted>
-0.0000

> <Gold.Chemscore.Lipo.Weighted>
-5.8477

> <Gold.Chemscore.Internal_Hbond.Weighted>
0.0000

> <Gold.Chemscore.DEClash.Weighted>
0.9911

> <Gold.Chemscore.DEInternal.Weighted>
3.9239

> <Gold.Chemscore.Rot.Weighted>
10.2274

> <Gold.Chemscore.Internal.Correction.Weighted>
   9.000000E+99

> <Gold.Protein.RotatedTorsions>
[ 6907 6896 6895 6894 ] final -167.66 input  -60.11 | X-H torsion
[ 7974 7965 7964 7962 ] final   11.43 input  175.53 | X-H torsion
[ 8008 7997 7996 7995 ] final  -63.28 input   59.86 | X-H torsion
[ 10167 10162 10161 10158 ] final  -54.96 input  -65.29 | X-H torsion
[ 10718 10713 10712 10709 ] final  -13.51 input   66.30 | X-H torsion
[ 10763 10752 10751 10750 ] final  -86.54 input  -60.55 | X-H torsion
[ 11005 11000 10999 10996 ] final -171.33 input  -57.11 | X-H torsion

> <Gold.Protein.ActiveResidues>
 VAL166  LYS551  ARG553  GLY616  TRP617  ASP618  TYR619  PRO620  LYS621  CYS622 
 ASP623  PHE694  ASN695  SER759  ASP760  ASP761  ALA762  ILE779  LEU786  VAL792 
 PHE793  MET794  SER795  GLU796  ALA797  LYS798  CYS799  TRP800  GLU811  SER814 

> <Gold.Protein.RotatedAtoms>
  151.4631  133.3587  159.2811 H   0  0  0  0  0  0  0  0  0  0  0  0  # atno 6907 bound_to 6896
  150.9012  134.8426  159.7372 H   0  0  0  0  0  0  0  0  0  0  0  0  # atno 6908 bound_to 6896
  152.4880  134.4552  159.9639 H   0  0  0  0  0  0  0  0  0  0  0  0  # atno 6909 bound_to 6896
  146.2371  139.9486  142.8473 H   0  0  0  0  0  0  0  0  0  0  0  0  # atno 7974 bound_to 7965
  154.4546  140.0978  156.6718 H   0  0  0  0  0  0  0  0  0  0  0  0  # atno 8008 bound_to 7997
  155.5179  140.3478  155.4382 H   0  0  0  0  0  0  0  0  0  0  0  0  # atno 8009 bound_to 7997
  156.0750  140.1359  156.9771 H   0  0  0  0  0  0  0  0  0  0  0  0  # atno 8010 bound_to 7997
  140.6402  143.2503  151.5011 H   0  0  0  0  0  0  0  0  0  0  0  0  # atno 10167 bound_to 10162
  156.6292  130.4897  149.6135 H   0  0  0  0  0  0  0  0  0  0  0  0  # atno 10718 bound_to 10713
  154.6236  135.5445  153.7603 H   0  0  0  0  0  0  0  0  0  0  0  0  # atno 10763 bound_to 10752
  153.0250  135.6419  154.1404 H   0  0  0  0  0  0  0  0  0  0  0  0  # atno 10764 bound_to 10752
  154.1337  135.2912  155.3158 H   0  0  0  0  0  0  0  0  0  0  0  0  # atno 10765 bound_to 10752
  140.5095  134.5816  157.5014 H   0  0  0  0  0  0  0  0  0  0  0  0  # atno 11005 bound_to 11000
  145.1883  140.9799  143.4226 LP  0  0  0  0  0  0  0  0  0  0  0  0  # atno 17320 bound_to 7965
  144.9880  139.3717  143.6229 LP  0  0  0  0  0  0  0  0  0  0  0  0  # atno 17321 bound_to 7965
  139.5611  144.2155  152.1692 LP  0  0  0  0  0  0  0  0  0  0  0  0  # atno 17342 bound_to 10162
  140.1423  144.5191  150.6737 LP  0  0  0  0  0  0  0  0  0  0  0  0  # atno 17343 bound_to 10162
  156.2248  130.6759  151.1405 LP  0  0  0  0  0  0  0  0  0  0  0  0  # atno 17370 bound_to 10713
  157.7205  131.0684  150.6156 LP  0  0  0  0  0  0  0  0  0  0  0  0  # atno 17371 bound_to 10713
  139.9667  134.7361  156.0124 LP  0  0  0  0  0  0  0  0  0  0  0  0  # atno 17394 bound_to 11000
  141.1393  133.6568  156.3684 LP  0  0  0  0  0  0  0  0  0  0  0  0  # atno 17395 bound_to 11000

$$$$
