AV-unprocessed.smi:1244|AV-procd|sdf|5228|dock1
  -GOLD-   22720 4333D 1   1.00000     0.00000
 Structure written by MMmdl.
 55 57  0  0  0  0  0  0  0  0  2 V2000
  154.1584  141.0710  160.1156 C   0  0  0  0  0  0  0  0  0  0  0  0
  152.8191  141.6807  159.6889 C   0  0  2  0  0  0  0  0  0  0  0  0
  152.0237  140.7404  158.7660 C   0  0  0  0  0  0  0  0  0  0  0  0
  150.7919  141.3567  158.2917 N   0  0  0  0  0  0  0  0  0  0  0  0
  150.0269  140.4289  157.4577 C   0  0  0  0  0  0  0  0  0  0  0  0
  150.1775  138.9358  157.8161 C   0  0  0  0  0  0  0  0  0  0  0  0
  148.9200  138.3395  158.2556 N   0  0  0  0  0  0  0  0  0  0  0  0
  148.8051  137.3599  159.1625 C   0  0  0  0  0  0  0  0  0  0  0  0
  149.7659  136.8167  159.7074 O   0  0  0  0  0  0  0  0  0  0  0  0
  147.5155  137.0748  159.4070 N   0  0  0  0  0  0  0  0  0  0  0  0
  146.9938  136.2006  160.4005 C   0  0  0  0  0  0  0  0  0  0  0  0
  147.5581  136.1544  161.7011 C   0  0  0  0  0  0  0  0  0  0  0  0
  147.0702  135.2333  162.6467 C   0  0  0  0  0  0  0  0  0  0  0  0
  146.0359  134.3587  162.2724 C   0  0  0  0  0  0  0  0  0  0  0  0
  145.5295  134.4178  161.0235 N   0  3  0  0  0  0  0  0  0  0  0  0
  145.9450  135.2926  160.0732 C   0  0  0  0  0  0  0  0  0  0  0  0
  145.3107  135.2431  158.8103 N   0  0  0  0  0  0  0  0  0  0  0  0
  145.5629  134.1327  157.8996 C   0  0  0  0  0  0  0  0  0  0  0  0
  144.4826  134.2472  156.8275 C   0  0  0  0  0  0  0  0  0  0  0  0
  143.2865  134.7676  157.6194 C   0  0  0  0  0  0  0  0  0  0  0  0
  143.9193  135.6673  158.6866 C   0  0  0  0  0  0  0  0  0  0  0  0
  151.1176  142.5993  157.5969 C   0  0  0  0  0  0  0  0  0  0  0  0
  151.9385  143.5678  158.4718 C   0  0  1  0  0  0  0  0  0  0  0  0
  151.1067  144.2392  159.5777 C   0  0  0  0  0  0  0  0  0  0  0  0
  153.0861  142.9032  159.0036 O   0  0  0  0  0  0  0  0  0  0  0  0
  154.0089  140.1378  160.6593 H   0  0  0  0  0  0  0  0  0  0  0  0
  154.7061  141.7514  160.7680 H   0  0  0  0  0  0  0  0  0  0  0  0
  154.7887  140.8581  159.2518 H   0  0  0  0  0  0  0  0  0  0  0  0
  152.2359  141.8887  160.5863 H   0  0  0  0  0  0  0  0  0  0  0  0
  152.6436  140.4533  157.9150 H   0  0  0  0  0  0  0  0  0  0  0  0
  151.7919  139.8214  159.3056 H   0  0  0  0  0  0  0  0  0  0  0  0
  148.9699  140.6983  157.4806 H   0  0  0  0  0  0  0  0  0  0  0  0
  150.3380  140.5544  156.4196 H   0  0  0  0  0  0  0  0  0  0  0  0
  150.5402  138.3723  156.9569 H   0  0  0  0  0  0  0  0  0  0  0  0
  150.9323  138.8150  158.5945 H   0  0  0  0  0  0  0  0  0  0  0  0
  148.0753  138.7269  157.8615 H   0  0  0  0  0  0  0  0  0  0  0  0
  146.8369  137.6569  158.9385 H   0  0  0  0  0  0  0  0  0  0  0  0
  148.3769  136.7998  161.9818 H   0  0  0  0  0  0  0  0  0  0  0  0
  147.4931  135.1907  163.6396 H   0  0  0  0  0  0  0  0  0  0  0  0
  145.6043  133.6148  162.9266 H   0  0  0  0  0  0  0  0  0  0  0  0
  146.5647  134.1862  157.4719 H   0  0  0  0  0  0  0  0  0  0  0  0
  145.4609  133.1811  158.4230 H   0  0  0  0  0  0  0  0  0  0  0  0
  144.7781  134.9802  156.0753 H   0  0  0  0  0  0  0  0  0  0  0  0
  144.2831  133.3023  156.3215 H   0  0  0  0  0  0  0  0  0  0  0  0
  142.5610  135.2931  156.9981 H   0  0  0  0  0  0  0  0  0  0  0  0
  142.7742  133.9327  158.0999 H   0  0  0  0  0  0  0  0  0  0  0  0
  143.3804  135.5993  159.6326 H   0  0  0  0  0  0  0  0  0  0  0  0
  143.8971  136.7063  158.3564 H   0  0  0  0  0  0  0  0  0  0  0  0
  151.6862  142.3704  156.6942 H   0  0  0  0  0  0  0  0  0  0  0  0
  150.2088  143.1026  157.2682 H   0  0  0  0  0  0  0  0  0  0  0  0
  152.3152  144.3635  157.8287 H   0  0  0  0  0  0  0  0  0  0  0  0
  150.3002  144.8349  159.1498 H   0  0  0  0  0  0  0  0  0  0  0  0
  151.7252  144.9044  160.1806 H   0  0  0  0  0  0  0  0  0  0  0  0
  150.6518  143.5089  160.2459 H   0  0  0  0  0  0  0  0  0  0  0  0
  144.7810  133.7681  160.7820 H   0  0  0  0  0  0  0  0  0  0  0  0
  1  2  1  0  0  0  0
  1 26  1  0  0  0  0
  1 27  1  0  0  0  0
  1 28  1  0  0  0  0
  2 25  1  0  0  0  0
  2  3  1  0  0  0  0
  2 29  1  0  0  0  0
  3  4  1  0  0  0  0
  3 30  1  0  0  0  0
  3 31  1  0  0  0  0
  4  5  1  0  0  0  0
  4 22  1  0  0  0  0
  5  6  1  0  0  0  0
  5 32  1  0  0  0  0
  5 33  1  0  0  0  0
  6  7  1  0  0  0  0
  6 34  1  0  0  0  0
  6 35  1  0  0  0  0
  7  8  1  0  0  0  0
  7 36  1  0  0  0  0
  8  9  2  0  0  0  0
  8 10  1  0  0  0  0
 10 11  1  0  0  0  0
 10 37  1  0  0  0  0
 11 16  1  0  0  0  0
 11 12  2  0  0  0  0
 12 13  1  0  0  0  0
 12 38  1  0  0  0  0
 13 14  2  0  0  0  0
 13 39  1  0  0  0  0
 14 15  1  0  0  0  0
 14 40  1  0  0  0  0
 15 16  2  0  0  0  0
 15 55  1  0  0  0  0
 16 17  1  0  0  0  0
 17 21  1  0  0  0  0
 17 18  1  0  0  0  0
 18 19  1  0  0  0  0
 18 41  1  0  0  0  0
 18 42  1  0  0  0  0
 19 20  1  0  0  0  0
 19 43  1  0  0  0  0
 19 44  1  0  0  0  0
 20 21  1  0  0  0  0
 20 45  1  0  0  0  0
 20 46  1  0  0  0  0
 21 47  1  0  0  0  0
 21 48  1  0  0  0  0
 22 23  1  0  0  0  0
 22 49  1  0  0  0  0
 22 50  1  0  0  0  0
 23 24  1  0  0  0  0
 23 25  1  0  0  0  0
 23 51  1  0  0  0  0
 24 52  1  0  0  0  0
 24 53  1  0  0  0  0
 24 54  1  0  0  0  0
M  CHG  1  15   1
M  END
> <s_m_source_file>
AV-unprocessed.smi

> <i_m_source_file_index>
1244

> <i_lp_mmshare_version>
43012

> <i_f3d_flags>
0

> <s_epik_input>
W0NIM11bQ0BASF0xW0NIMl1OKFtDSDJdW0NASF0oTzEpW0NIM10pW0NIMl1bQ0gyXVtOSF1DKD1PKVtOSF1jMltjSF1bY0hdW2NIXW5jMk4zW0NIMl1bQ0gyXVtDSDJdW0NIMl0z

> <s_epik_cmdline>
J2VwaWtfcHl0aG9uJywgJy1waCcsICc3LjAnLCAnLXRuJywgJzgnLCAnLW1hJywgJzIwMCcsICctbWV0YWxfYmluZGluZycsICctaW1hZScsICc8aW5maWxlLm1hZT4nLCAnLW9tYWUnLCAnPG91dGZpbGUubWFlPic=

> <r_epik_Ionization_Penalty>
1.38385

> <r_epik_Ionization_Penalty_Charging>
1.11784

> <r_epik_Ionization_Penalty_Neutral>
0.26601

> <r_epik_State_Penalty>
1.46794

> <r_epik_Charging_Adjusted_Penalty>
2.58578

> <i_epik_Tot_Q>
1

> <i_epik_Tot_abs_Q>
1

> <r_epik_Metal_State_Penalty>
1.54908

> <b_epik_Metal_Only>
0

> <s_lp_Force_Field>
OPLS_2005

> <r_lp_Energy>
60.0137

> <b_lp_Chiralities_Consistent>
1

> <s_lp_Variant>
AV-unprocessed.smi:1244-8

> <Gold.Version>
5.8.1

> <Gold.Id.Protein>
6NUR|6NUR_protein|mol2

> <Gold.PLP.Fitness>
40.7770

> <Gold.PLP.PLP>
-40.1014

> <Gold.PLP.part.hbond>
-1.6439

> <Gold.PLP.part.metal>
0.0000

> <Gold.PLP.part.buried>
-6.7114

> <Gold.PLP.part.nonpolar>
-33.6579

> <Gold.PLP.part.repulsive>
0.3367

> <Gold.PLP.ligand.clash>
0.0000

> <Gold.PLP.ligand.torsion>
1.4266

> <Gold.PLP.Chemscore.Hbond>
0.9913

> <Gold.PLP.Chemscore.CHOScore>
0.0000

> <Gold.PLP.Chemscore.Metal>
0.0000

> <Gold.Chemscore.Hbonds>
donor molecule, donor type, donor heavy atom, donor atom, acceptor molecule, acceptor atom, score
      P1  H  6896  6909       L1     9  0.62

> <Gold.PLP.Chemscore.Internal.Correction>
0.5551

> <Gold.Rescore>
     Score         DG    S(hbond)    S(metal)    S(lipo)     H(rot)  DE(clash)    DE(int)     intcor
     14.77     -17.02       0.99        0.00     105.06       1.58       0.00       2.25       ----

> <Gold.Chemscore.Fitness>
14.7743

> <Gold.Chemscore.DG>
-17.0221

> <Gold.Chemscore.ZeroCoef>
-5.4800

> <Gold.Chemscore.Hbond>
0.9863

> <Gold.Chemscore.Metal>
0.0000

> <Gold.Chemscore.Lipo>
105.0568

> <Gold.Chemscore.Internal_Hbond>
0.0000

> <Gold.Chemscore.DEClash>
0.0000

> <Gold.Chemscore.DEInternal>
2.2478

> <Gold.Chemscore.Rot>
1.5797

> <Gold.Chemscore.Internal.Correction>
   9.000000E+99

> <Gold.Chemscore.Hbonds>
donor molecule, donor type, donor heavy atom, donor atom, acceptor molecule, acceptor atom, score
      P1  H  6896  6909       L1     9  0.60

> <Gold.Chemscore.Hbond.Weighted>
-3.2944

> <Gold.Chemscore.Metal.Weighted>
-0.0000

> <Gold.Chemscore.Lipo.Weighted>
-12.2916

> <Gold.Chemscore.Internal_Hbond.Weighted>
0.0000

> <Gold.Chemscore.DEClash.Weighted>
0.0000

> <Gold.Chemscore.DEInternal.Weighted>
2.2478

> <Gold.Chemscore.Rot.Weighted>
4.0439

> <Gold.Chemscore.Internal.Correction.Weighted>
   9.000000E+99

> <Gold.Protein.RotatedTorsions>
[ 6907 6896 6895 6894 ] final   86.01 input  -60.11 | X-H torsion
[ 7974 7965 7964 7962 ] final -152.61 input  175.53 | X-H torsion
[ 8008 7997 7996 7995 ] final    6.01 input   59.86 | X-H torsion
[ 10167 10162 10161 10158 ] final  158.87 input  -65.29 | X-H torsion
[ 10718 10713 10712 10709 ] final   24.61 input   66.30 | X-H torsion
[ 10763 10752 10751 10750 ] final   63.82 input  -60.55 | X-H torsion
[ 11005 11000 10999 10996 ] final  141.24 input  -57.11 | X-H torsion

> <Gold.Protein.ActiveResidues>
 VAL166  LYS551  ARG553  GLY616  TRP617  ASP618  TYR619  PRO620  LYS621  CYS622 
 ASP623  PHE694  ASN695  SER759  ASP760  ASP761  ALA762  ILE779  LEU786  VAL792 
 PHE793  MET794  SER795  GLU796  ALA797  LYS798  CYS799  TRP800  GLU811  SER814 

> <Gold.Protein.RotatedAtoms>
  152.5386  134.2497  159.8893 H   0  0  0  0  0  0  0  0  0  0  0  0  # atno 6907 bound_to 6896
  151.2461  133.4368  159.2617 H   0  0  0  0  0  0  0  0  0  0  0  0  # atno 6908 bound_to 6896
  151.0582  134.9733  159.8303 H   0  0  0  0  0  0  0  0  0  0  0  0  # atno 6909 bound_to 6896
  144.7785  140.4639  143.5856 H   0  0  0  0  0  0  0  0  0  0  0  0  # atno 7974 bound_to 7965
  154.7356  140.2739  155.6417 H   0  0  0  0  0  0  0  0  0  0  0  0  # atno 8008 bound_to 7997
  156.2861  140.2707  156.1995 H   0  0  0  0  0  0  0  0  0  0  0  0  # atno 8009 bound_to 7997
  155.0324  140.0371  157.2469 H   0  0  0  0  0  0  0  0  0  0  0  0  # atno 8010 bound_to 7997
  139.4829  144.4784  151.8479 H   0  0  0  0  0  0  0  0  0  0  0  0  # atno 10167 bound_to 10162
  157.1821  130.6807  149.6117 H   0  0  0  0  0  0  0  0  0  0  0  0  # atno 10718 bound_to 10713
  153.0032  135.5415  154.6412 H   0  0  0  0  0  0  0  0  0  0  0  0  # atno 10763 bound_to 10752
  154.5667  135.2838  155.0869 H   0  0  0  0  0  0  0  0  0  0  0  0  # atno 10764 bound_to 10752
  154.2051  135.6477  153.5151 H   0  0  0  0  0  0  0  0  0  0  0  0  # atno 10765 bound_to 10752
  140.0386  134.9316  157.0801 H   0  0  0  0  0  0  0  0  0  0  0  0  # atno 11005 bound_to 11000
  145.6117  139.1514  143.3072 LP  0  0  0  0  0  0  0  0  0  0  0  0  # atno 17320 bound_to 7965
  146.1979  140.6233  142.9116 LP  0  0  0  0  0  0  0  0  0  0  0  0  # atno 17321 bound_to 7965
  140.4258  144.2182  150.5887 LP  0  0  0  0  0  0  0  0  0  0  0  0  # atno 17342 bound_to 10162
  140.4828  143.2373  151.8930 LP  0  0  0  0  0  0  0  0  0  0  0  0  # atno 17343 bound_to 10162
  155.9723  130.4643  150.6213 LP  0  0  0  0  0  0  0  0  0  0  0  0  # atno 17370 bound_to 10713
  157.3943  131.0800  151.1366 LP  0  0  0  0  0  0  0  0  0  0  0  0  # atno 17371 bound_to 10713
  140.4106  134.1986  155.7163 LP  0  0  0  0  0  0  0  0  0  0  0  0  # atno 17394 bound_to 11000
  141.1871  133.8288  157.1044 LP  0  0  0  0  0  0  0  0  0  0  0  0  # atno 17395 bound_to 11000

$$$$
