AV-unprocessed.smi:3238|AV-procd|sdf|12377|dock2
  -GOLD-   2272018233D 1   1.00000     0.00000
 Structure written by MMmdl.
 37 39  0  0  0  0  0  0  0  0  1 V2000
  145.0844  142.8753  154.7972 C   0  0  0  0  0  0  0  0  0  0  0  0
  146.3128  142.2871  154.2853 N   0  0  0  0  0  0  0  0  0  0  0  0
  147.0611  141.3987  154.9555 C   0  0  0  0  0  0  0  0  0  0  0  0
  146.7728  140.9968  156.0841 O   0  0  0  0  0  0  0  0  0  0  0  0
  148.3101  140.8885  154.2251 C   0  0  0  0  0  0  0  0  0  0  0  0
  149.5050  140.8058  155.1241 C   0  0  0  0  0  0  0  0  0  0  0  0
  150.6761  140.3667  154.6768 N   0  0  0  0  0  0  0  0  0  0  0  0
  151.5087  140.4625  155.8006 O   0  0  0  0  0  0  0  0  0  0  0  0
  150.7301  140.9459  156.7983 C   0  0  0  0  0  0  0  0  0  0  0  0
  151.3455  141.2147  158.1322 C   0  0  0  0  0  0  0  0  0  0  0  0
  151.0578  142.6377  158.6503 C   0  0  2  0  0  0  0  0  0  0  0  0
  151.3280  143.7528  157.6125 C   0  0  0  0  0  0  0  0  0  0  0  0
  152.3008  144.6891  158.3517 C   0  0  1  0  0  0  0  0  0  0  0  0
  151.5583  145.4082  159.4931 C   0  0  0  0  0  0  0  0  0  0  0  0
  151.3552  144.2834  160.5262 C   0  0  0  0  0  0  0  0  0  0  0  0
  151.9738  143.0602  159.8220 C   0  0  2  0  0  0  0  0  0  0  0  0
  153.1669  143.6933  159.1123 C   0  0  0  0  0  0  0  0  0  0  0  0
  149.4764  141.1958  156.4291 N   0  0  0  0  0  0  0  0  0  0  0  0
  144.6540  143.5440  154.0519 H   0  0  0  0  0  0  0  0  0  0  0  0
  145.2775  143.4518  155.7028 H   0  0  0  0  0  0  0  0  0  0  0  0
  144.3493  142.1026  155.0265 H   0  0  0  0  0  0  0  0  0  0  0  0
  146.6108  142.5691  153.3625 H   0  0  0  0  0  0  0  0  0  0  0  0
  148.0975  139.9044  153.8055 H   0  0  0  0  0  0  0  0  0  0  0  0
  148.5410  141.5474  153.3867 H   0  0  0  0  0  0  0  0  0  0  0  0
  150.9525  140.4815  158.8371 H   0  0  0  0  0  0  0  0  0  0  0  0
  152.4188  141.0335  158.0682 H   0  0  0  0  0  0  0  0  0  0  0  0
  150.0173  142.6721  158.9774 H   0  0  0  0  0  0  0  0  0  0  0  0
  151.8035  143.3568  156.7143 H   0  0  0  0  0  0  0  0  0  0  0  0
  150.4143  144.2619  157.3040 H   0  0  0  0  0  0  0  0  0  0  0  0
  152.8454  145.3633  157.6903 H   0  0  0  0  0  0  0  0  0  0  0  0
  152.1684  146.2092  159.9127 H   0  0  0  0  0  0  0  0  0  0  0  0
  150.6152  145.8437  159.1605 H   0  0  0  0  0  0  0  0  0  0  0  0
  151.8920  144.5102  161.4485 H   0  0  0  0  0  0  0  0  0  0  0  0
  150.3055  144.1343  160.7815 H   0  0  0  0  0  0  0  0  0  0  0  0
  152.2219  142.2493  160.5076 H   0  0  0  0  0  0  0  0  0  0  0  0
  153.7071  143.0035  158.4621 H   0  0  0  0  0  0  0  0  0  0  0  0
  153.8745  144.1680  159.7945 H   0  0  0  0  0  0  0  0  0  0  0  0
  1  2  1  0  0  0  0
  1 19  1  0  0  0  0
  1 20  1  0  0  0  0
  1 21  1  0  0  0  0
  2  3  1  0  0  0  0
  2 22  1  0  0  0  0
  3  4  2  0  0  0  0
  3  5  1  0  0  0  0
  5  6  1  0  0  0  0
  5 23  1  0  0  0  0
  5 24  1  0  0  0  0
  6 18  1  0  0  0  0
  6  7  2  0  0  0  0
  7  8  1  0  0  0  0
  8  9  1  0  0  0  0
  9 10  1  0  0  0  0
  9 18  2  0  0  0  0
 10 11  1  0  0  0  0
 10 25  1  0  0  0  0
 10 26  1  0  0  0  0
 11 16  1  0  0  0  0
 11 12  1  0  0  0  0
 11 27  1  0  0  0  0
 12 13  1  0  0  0  0
 12 28  1  0  0  0  0
 12 29  1  0  0  0  0
 13 17  1  0  0  0  0
 13 14  1  0  0  0  0
 13 30  1  0  0  0  0
 14 15  1  0  0  0  0
 14 31  1  0  0  0  0
 14 32  1  0  0  0  0
 15 16  1  0  0  0  0
 15 33  1  0  0  0  0
 15 34  1  0  0  0  0
 16 17  1  0  0  0  0
 16 35  1  0  0  0  0
 17 36  1  0  0  0  0
 17 37  1  0  0  0  0
M  END
> <s_m_source_file>
AV-unprocessed.smi

> <i_m_source_file_index>
3238

> <i_lp_mmshare_version>
43012

> <i_f3d_flags>
0

> <s_epik_input>
W0NIM11bTkhdQyg9TylbQ0gyXWMxbm9jKG4xKVtDSDJdW0NASF0oW0NIMl1bQ0BIXTIzKVtDQEhdKFtDSDJdMylbQ0gyXVtDSDJdMg==

> <s_epik_cmdline>
J2VwaWtfcHl0aG9uJywgJy1waCcsICc3LjAnLCAnLXRuJywgJzgnLCAnLW1hJywgJzIwMCcsICctbWV0YWxfYmluZGluZycsICctaW1hZScsICc8aW5maWxlLm1hZT4nLCAnLW9tYWUnLCAnPG91dGZpbGUubWFlPic=

> <r_lp_tautomer_probability>
1

> <r_epik_Ionization_Penalty>
1.02915e-07

> <r_epik_Ionization_Penalty_Charging>
0

> <r_epik_Ionization_Penalty_Neutral>
1.02915e-07

> <r_epik_State_Penalty>
-0

> <r_epik_Charging_Adjusted_Penalty>
0

> <i_epik_Tot_Q>
0

> <i_epik_Tot_abs_Q>
0

> <r_epik_Metal_State_Penalty>
-0

> <b_epik_Metal_Only>
0

> <s_lp_Force_Field>
OPLS_2005

> <r_lp_Energy>
47.6747

> <b_lp_Chiralities_Consistent>
1

> <s_lp_Variant>
AV-unprocessed.smi:3238-3

> <Gold.Version>
5.8.1

> <Gold.Id.Protein>
6NUR|6NUR_protein|mol2

> <Gold.PLP.Fitness>
46.4517

> <Gold.PLP.PLP>
-44.2688

> <Gold.PLP.part.hbond>
-1.3667

> <Gold.PLP.part.metal>
0.0000

> <Gold.PLP.part.buried>
-6.9334

> <Gold.PLP.part.nonpolar>
-37.8670

> <Gold.PLP.part.repulsive>
0.3944

> <Gold.PLP.ligand.clash>
0.0000

> <Gold.PLP.ligand.torsion>
0.4212

> <Gold.PLP.Chemscore.Hbond>
1.0000

> <Gold.PLP.Chemscore.CHOScore>
0.0000

> <Gold.PLP.Chemscore.Metal>
0.0000

> <Gold.Chemscore.Hbonds>
donor molecule, donor type, donor heavy atom, donor atom, acceptor molecule, acceptor atom, score
      P1  H  7989  7998       L1     7  1.00

> <Gold.PLP.Chemscore.Internal.Correction>
0.0252

> <Gold.Rescore>
     Score         DG    S(hbond)    S(metal)    S(lipo)     H(rot)  DE(clash)    DE(int)     intcor
     14.53     -16.15       0.90        0.00     105.90       1.85       0.00       1.62       ----

> <Gold.Chemscore.Fitness>
14.5316

> <Gold.Chemscore.DG>
-16.1473

> <Gold.Chemscore.ZeroCoef>
-5.4800

> <Gold.Chemscore.Hbond>
0.9015

> <Gold.Chemscore.Metal>
0.0000

> <Gold.Chemscore.Lipo>
105.8992

> <Gold.Chemscore.Internal_Hbond>
0.0000

> <Gold.Chemscore.DEClash>
0.0000

> <Gold.Chemscore.DEInternal>
1.6156

> <Gold.Chemscore.Rot>
1.8492

> <Gold.Chemscore.Internal.Correction>
   9.000000E+99

> <Gold.Chemscore.Hbonds>
donor molecule, donor type, donor heavy atom, donor atom, acceptor molecule, acceptor atom, score
      P1  H  7989  7998       L1     7  0.39

> <Gold.Chemscore.Hbond.Weighted>
-3.0110

> <Gold.Chemscore.Metal.Weighted>
-0.0000

> <Gold.Chemscore.Lipo.Weighted>
-12.3902

> <Gold.Chemscore.Internal_Hbond.Weighted>
0.0000

> <Gold.Chemscore.DEClash.Weighted>
0.0000

> <Gold.Chemscore.DEInternal.Weighted>
1.6156

> <Gold.Chemscore.Rot.Weighted>
4.7340

> <Gold.Chemscore.Internal.Correction.Weighted>
   9.000000E+99

> <Gold.Protein.RotatedTorsions>
[ 6907 6896 6895 6894 ] final  -11.69 input  -60.11 | X-H torsion
[ 7974 7965 7964 7962 ] final -128.07 input  175.53 | X-H torsion
[ 8008 7997 7996 7995 ] final  177.06 input   59.86 | X-H torsion
[ 10167 10162 10161 10158 ] final   10.40 input  -65.29 | X-H torsion
[ 10718 10713 10712 10709 ] final    9.09 input   66.30 | X-H torsion
[ 10763 10752 10751 10750 ] final  -54.63 input  -60.55 | X-H torsion
[ 11005 11000 10999 10996 ] final  -94.42 input  -57.11 | X-H torsion

> <Gold.Protein.ActiveResidues>
 VAL166  LYS551  ARG553  GLY616  TRP617  ASP618  TYR619  PRO620  LYS621  CYS622 
 ASP623  PHE694  ASN695  SER759  ASP760  ASP761  ALA762  ILE779  LEU786  VAL792 
 PHE793  MET794  SER795  GLU796  ALA797  LYS798  CYS799  TRP800  GLU811  SER814 

> <Gold.Protein.RotatedAtoms>
  151.3822  135.0942  159.9499 H   0  0  0  0  0  0  0  0  0  0  0  0  # atno 6907 bound_to 6896
  152.5105  133.9061  159.7475 H   0  0  0  0  0  0  0  0  0  0  0  0  # atno 6908 bound_to 6896
  150.9496  133.6508  159.2803 H   0  0  0  0  0  0  0  0  0  0  0  0  # atno 6909 bound_to 6896
  144.9707  140.7543  143.4672 H   0  0  0  0  0  0  0  0  0  0  0  0  # atno 7974 bound_to 7965
  156.0698  140.1368  156.9843 H   0  0  0  0  0  0  0  0  0  0  0  0  # atno 8008 bound_to 7997
  154.4525  140.0974  156.6713 H   0  0  0  0  0  0  0  0  0  0  0  0  # atno 8009 bound_to 7997
  155.5247  140.3457  155.4416 H   0  0  0  0  0  0  0  0  0  0  0  0  # atno 8010 bound_to 7997
  140.6196  143.8233  150.7159 H   0  0  0  0  0  0  0  0  0  0  0  0  # atno 10167 bound_to 10162
  156.9613  130.5934  149.5662 H   0  0  0  0  0  0  0  0  0  0  0  0  # atno 10718 bound_to 10713
  154.1779  135.6448  153.5026 H   0  0  0  0  0  0  0  0  0  0  0  0  # atno 10763 bound_to 10752
  153.0067  135.5399  154.6544 H   0  0  0  0  0  0  0  0  0  0  0  0  # atno 10764 bound_to 10752
  154.5901  135.2933  155.0617 H   0  0  0  0  0  0  0  0  0  0  0  0  # atno 10765 bound_to 10752
  141.1471  133.7955  157.0295 H   0  0  0  0  0  0  0  0  0  0  0  0  # atno 11005 bound_to 11000
  145.2562  139.2011  143.4916 LP  0  0  0  0  0  0  0  0  0  0  0  0  # atno 17320 bound_to 7965
  146.3381  140.2484  142.8598 LP  0  0  0  0  0  0  0  0  0  0  0  0  # atno 17321 bound_to 7965
  140.1820  143.4107  152.1926 LP  0  0  0  0  0  0  0  0  0  0  0  0  # atno 17342 bound_to 10162
  139.5427  144.7271  151.4680 LP  0  0  0  0  0  0  0  0  0  0  0  0  # atno 17343 bound_to 10162
  156.0321  130.5411  150.8561 LP  0  0  0  0  0  0  0  0  0  0  0  0  # atno 17370 bound_to 10713
  157.5656  131.0946  150.9495 LP  0  0  0  0  0  0  0  0  0  0  0  0  # atno 17371 bound_to 10713
  140.0763  134.9674  157.1551 LP  0  0  0  0  0  0  0  0  0  0  0  0  # atno 17394 bound_to 11000
  140.3639  134.2464  155.7184 LP  0  0  0  0  0  0  0  0  0  0  0  0  # atno 17395 bound_to 11000

$$$$
