AV-unprocessed.smi:1552|AV-procd|sdf|6234|dock1
  -GOLD-   22720 6413D 1   1.00000     0.00000
 Structure written by MMmdl.
 50 51  0  0  0  0  0  0  0  0  2 V2000
  149.0469  135.2066  154.9922 C   0  0  0  0  0  0  0  0  0  0  0  0
  147.9593  135.1473  153.9867 N   0  3  0  0  0  0  0  0  0  0  0  0
  146.7887  135.9627  154.3868 C   0  0  0  0  0  0  0  0  0  0  0  0
  147.6010  133.7810  153.4919 C   0  0  2  0  0  0  0  0  0  0  0  0
  148.8448  132.9246  153.1225 C   0  0  0  0  0  0  0  0  0  0  0  0
  149.4806  132.3083  154.2843 N   0  0  0  0  0  0  0  0  0  0  0  0
  148.8873  131.5437  155.2140 C   0  0  0  0  0  0  0  0  0  0  0  0
  147.6885  131.2806  155.1339 O   0  0  0  0  0  0  0  0  0  0  0  0
  149.7345  130.9818  156.3724 C   0  0  0  0  0  0  0  0  0  0  0  0
  151.1172  130.6699  155.9806 N   0  0  0  0  0  0  0  0  0  0  0  0
  151.3717  129.7007  155.0203 C   0  0  0  0  0  0  0  0  0  0  0  0
  152.6188  129.3567  154.6199 C   0  0  0  0  0  0  0  0  0  0  0  0
  153.7873  130.0104  155.1994 C   0  0  0  0  0  0  0  0  0  0  0  0
  154.9551  129.7694  154.9019 O   0  0  0  0  0  0  0  0  0  0  0  0
  153.4905  130.9773  156.1638 N   0  0  0  0  0  0  0  0  0  0  0  0
  152.2080  131.3351  156.5825 C   0  0  0  0  0  0  0  0  0  0  0  0
  152.0574  132.1991  157.4456 O   0  0  0  0  0  0  0  0  0  0  0  0
  146.4953  133.8360  152.3944 C   0  0  0  0  0  0  0  0  0  0  0  0
  145.0756  133.9176  153.0089 C   0  0  0  0  0  0  0  0  0  0  0  0
  143.9800  133.9710  151.9323 C   0  0  0  0  0  0  0  0  0  0  0  0
  144.0694  132.7655  150.9877 C   0  0  0  0  0  0  0  0  0  0  0  0
  145.4657  132.6692  150.3595 C   0  0  0  0  0  0  0  0  0  0  0  0
  146.5613  132.6206  151.4367 C   0  0  0  0  0  0  0  0  0  0  0  0
  154.2687  131.4548  156.5949 H   0  0  0  0  0  0  0  0  0  0  0  0
  148.7208  134.8172  155.9569 H   0  0  0  0  0  0  0  0  0  0  0  0
  149.3619  136.2394  155.1431 H   0  0  0  0  0  0  0  0  0  0  0  0
  149.9230  134.6452  154.6694 H   0  0  0  0  0  0  0  0  0  0  0  0
  146.3159  135.5730  155.2884 H   0  0  0  0  0  0  0  0  0  0  0  0
  146.0424  135.9940  153.5925 H   0  0  0  0  0  0  0  0  0  0  0  0
  147.0937  136.9902  154.5867 H   0  0  0  0  0  0  0  0  0  0  0  0
  147.1365  133.2772  154.3411 H   0  0  0  0  0  0  0  0  0  0  0  0
  148.5827  132.1651  152.3860 H   0  0  0  0  0  0  0  0  0  0  0  0
  149.5864  133.5612  152.6385 H   0  0  0  0  0  0  0  0  0  0  0  0
  150.4716  132.4703  154.3917 H   0  0  0  0  0  0  0  0  0  0  0  0
  149.7344  131.7116  157.1834 H   0  0  0  0  0  0  0  0  0  0  0  0
  149.2615  130.0888  156.7847 H   0  0  0  0  0  0  0  0  0  0  0  0
  150.5366  129.1864  154.5664 H   0  0  0  0  0  0  0  0  0  0  0  0
  152.7528  128.5928  153.8675 H   0  0  0  0  0  0  0  0  0  0  0  0
  146.6416  134.7325  151.7913 H   0  0  0  0  0  0  0  0  0  0  0  0
  144.9041  133.0572  153.6571 H   0  0  0  0  0  0  0  0  0  0  0  0
  144.9779  134.8013  153.6393 H   0  0  0  0  0  0  0  0  0  0  0  0
  142.9970  134.0001  152.4034 H   0  0  0  0  0  0  0  0  0  0  0  0
  144.0750  134.8939  151.3588 H   0  0  0  0  0  0  0  0  0  0  0  0
  143.8507  131.8498  151.5387 H   0  0  0  0  0  0  0  0  0  0  0  0
  143.3126  132.8460  150.2068 H   0  0  0  0  0  0  0  0  0  0  0  0
  145.5270  131.7824  149.7278 H   0  0  0  0  0  0  0  0  0  0  0  0
  145.6337  133.5259  149.7053 H   0  0  0  0  0  0  0  0  0  0  0  0
  147.5278  132.5740  150.9357 H   0  0  0  0  0  0  0  0  0  0  0  0
  146.4673  131.6958  152.0074 H   0  0  0  0  0  0  0  0  0  0  0  0
  148.3279  135.6177  153.1723 H   0  0  0  0  0  0  0  0  0  0  0  0
  1  2  1  0  0  0  0
  1 25  1  0  0  0  0
  1 26  1  0  0  0  0
  1 27  1  0  0  0  0
  2  3  1  0  0  0  0
  2  4  1  0  0  0  0
  2 50  1  0  0  0  0
  3 28  1  0  0  0  0
  3 29  1  0  0  0  0
  3 30  1  0  0  0  0
  4  5  1  0  0  0  0
  4 18  1  0  0  0  0
  4 31  1  0  0  0  0
  5  6  1  0  0  0  0
  5 32  1  0  0  0  0
  5 33  1  0  0  0  0
  6  7  1  0  0  0  0
  6 34  1  0  0  0  0
  7  8  2  0  0  0  0
  7  9  1  0  0  0  0
  9 10  1  0  0  0  0
  9 35  1  0  0  0  0
  9 36  1  0  0  0  0
 10 16  1  0  0  0  0
 10 11  1  0  0  0  0
 11 12  2  0  0  0  0
 11 37  1  0  0  0  0
 12 13  1  0  0  0  0
 12 38  1  0  0  0  0
 13 14  2  0  0  0  0
 13 15  1  0  0  0  0
 15 24  1  0  0  0  0
 15 16  1  0  0  0  0
 16 17  2  0  0  0  0
 18 23  1  0  0  0  0
 18 19  1  0  0  0  0
 18 39  1  0  0  0  0
 19 20  1  0  0  0  0
 19 40  1  0  0  0  0
 19 41  1  0  0  0  0
 20 21  1  0  0  0  0
 20 42  1  0  0  0  0
 20 43  1  0  0  0  0
 21 22  1  0  0  0  0
 21 44  1  0  0  0  0
 21 45  1  0  0  0  0
 22 23  1  0  0  0  0
 22 46  1  0  0  0  0
 22 47  1  0  0  0  0
 23 48  1  0  0  0  0
 23 49  1  0  0  0  0
M  CHG  1   2   1
M  END
> <s_m_source_file>
AV-unprocessed.smi

> <i_m_source_file_index>
1552

> <i_lp_mmshare_version>
43012

> <i_f3d_flags>
0

> <s_epik_input>
W0NIMl0xW0NIMl1bQ0gyXVtDSDJdW0NIMl1bQ0hdMVtDQEhdKE4oW0NIM10pW0NIM10pW0NIMl1bTkhdQyg9TylbQ0gyXW4yW2NIXVtjSF1jKD1PKVtuSF1jMj1P

> <s_epik_cmdline>
J2VwaWtfcHl0aG9uJywgJy1waCcsICc3LjAnLCAnLXRuJywgJzgnLCAnLW1hJywgJzIwMCcsICctbWV0YWxfYmluZGluZycsICctaW1hZScsICc8aW5maWxlLm1hZT4nLCAnLW9tYWUnLCAnPG91dGZpbGUubWFlPic=

> <r_lp_tautomer_probability>
1

> <r_epik_Ionization_Penalty>
0.00705217

> <r_epik_Ionization_Penalty_Charging>
0.00705209

> <r_epik_Ionization_Penalty_Neutral>
7.66101e-08

> <r_epik_State_Penalty>
-0

> <r_epik_Charging_Adjusted_Penalty>
0.00705209

> <i_epik_Tot_Q>
1

> <i_epik_Tot_abs_Q>
1

> <r_epik_Metal_State_Penalty>
0.375122

> <b_epik_Metal_Only>
0

> <s_lp_Force_Field>
OPLS_2005

> <r_lp_Energy>
35.9588

> <b_lp_Chiralities_Consistent>
1

> <s_lp_Variant>
AV-unprocessed.smi:1552-1

> <Gold.Version>
5.8.1

> <Gold.Id.Protein>
6NUR|6NUR_protein|mol2

> <Gold.PLP.Fitness>
40.8249

> <Gold.PLP.PLP>
-33.9750

> <Gold.PLP.part.hbond>
-2.0000

> <Gold.PLP.part.metal>
0.0000

> <Gold.PLP.part.buried>
-3.9871

> <Gold.PLP.part.nonpolar>
-27.5988

> <Gold.PLP.part.repulsive>
0.0474

> <Gold.PLP.ligand.clash>
0.0000

> <Gold.PLP.ligand.torsion>
1.5056

> <Gold.PLP.Chemscore.Hbond>
3.0000

> <Gold.PLP.Chemscore.CHOScore>
0.0000

> <Gold.PLP.Chemscore.Metal>
0.0000

> <Gold.Chemscore.Hbonds>
donor molecule, donor type, donor heavy atom, donor atom, acceptor molecule, acceptor atom, score
      L1  H     2    50       P1  7948  2.00
      P1  H  6896  6909       L1    17  0.68

> <Gold.PLP.Chemscore.Internal.Correction>
0.8612

> <Gold.Rescore>
     Score         DG    S(hbond)    S(metal)    S(lipo)     H(rot)  DE(clash)    DE(int)     intcor
     11.57     -13.75       2.00        0.00      68.33       2.50       0.31       1.86       ----

> <Gold.Chemscore.Fitness>
11.5742

> <Gold.Chemscore.DG>
-13.7517

> <Gold.Chemscore.ZeroCoef>
-5.4800

> <Gold.Chemscore.Hbond>
1.9966

> <Gold.Chemscore.Metal>
0.0000

> <Gold.Chemscore.Lipo>
68.3319

> <Gold.Chemscore.Internal_Hbond>
0.0000

> <Gold.Chemscore.DEClash>
0.3145

> <Gold.Chemscore.DEInternal>
1.8630

> <Gold.Chemscore.Rot>
2.4968

> <Gold.Chemscore.Internal.Correction>
   9.000000E+99

> <Gold.Chemscore.Hbonds>
donor molecule, donor type, donor heavy atom, donor atom, acceptor molecule, acceptor atom, score
      L1  H     2    50       P1  7948  0.96
      P1  H  6896  6909       L1    17  0.69

> <Gold.Chemscore.Hbond.Weighted>
-6.6686

> <Gold.Chemscore.Metal.Weighted>
-0.0000

> <Gold.Chemscore.Lipo.Weighted>
-7.9948

> <Gold.Chemscore.Internal_Hbond.Weighted>
0.0000

> <Gold.Chemscore.DEClash.Weighted>
0.3145

> <Gold.Chemscore.DEInternal.Weighted>
1.8630

> <Gold.Chemscore.Rot.Weighted>
6.3917

> <Gold.Chemscore.Internal.Correction.Weighted>
   9.000000E+99

> <Gold.Protein.RotatedTorsions>
[ 6907 6896 6895 6894 ] final  -60.09 input  -60.11 | X-H torsion
[ 7974 7965 7964 7962 ] final -145.99 input  175.53 | X-H torsion
[ 8008 7997 7996 7995 ] final  123.08 input   59.86 | X-H torsion
[ 10167 10162 10161 10158 ] final -123.87 input  -65.29 | X-H torsion
[ 10718 10713 10712 10709 ] final  -55.17 input   66.30 | X-H torsion
[ 10763 10752 10751 10750 ] final   18.47 input  -60.55 | X-H torsion
[ 11005 11000 10999 10996 ] final   20.61 input  -57.11 | X-H torsion

> <Gold.Protein.ActiveResidues>
 VAL166  LYS551  ARG553  GLY616  TRP617  ASP618  TYR619  PRO620  LYS621  CYS622 
 ASP623  PHE694  ASN695  SER759  ASP760  ASP761  ALA762  ILE779  LEU786  VAL792 
 PHE793  MET794  SER795  GLU796  ALA797  LYS798  CYS799  TRP800  GLU811  SER814 

> <Gold.Protein.RotatedAtoms>
  150.7881  134.6882  159.6481 H   0  0  0  0  0  0  0  0  0  0  0  0  # atno 6907 bound_to 6896
  152.3982  134.6327  160.0089 H   0  0  0  0  0  0  0  0  0  0  0  0  # atno 6908 bound_to 6896
  151.6607  133.3280  159.3209 H   0  0  0  0  0  0  0  0  0  0  0  0  # atno 6909 bound_to 6896
  144.8190  140.5513  143.5591 H   0  0  0  0  0  0  0  0  0  0  0  0  # atno 7974 bound_to 7965
  156.2752  140.2771  156.1571 H   0  0  0  0  0  0  0  0  0  0  0  0  # atno 8008 bound_to 7997
  155.0793  140.0387  157.2651 H   0  0  0  0  0  0  0  0  0  0  0  0  # atno 8009 bound_to 7997
  154.6977  140.2642  155.6755 H   0  0  0  0  0  0  0  0  0  0  0  0  # atno 8010 bound_to 7997
  139.9988  143.5562  152.2312 H   0  0  0  0  0  0  0  0  0  0  0  0  # atno 10167 bound_to 10162
  156.1390  130.4155  150.0136 H   0  0  0  0  0  0  0  0  0  0  0  0  # atno 10718 bound_to 10713
  153.1246  135.6727  153.9278 H   0  0  0  0  0  0  0  0  0  0  0  0  # atno 10763 bound_to 10752
  153.8783  135.3061  155.3446 H   0  0  0  0  0  0  0  0  0  0  0  0  # atno 10764 bound_to 10752
  154.7653  135.4967  153.9622 H   0  0  0  0  0  0  0  0  0  0  0  0  # atno 10765 bound_to 10752
  140.4008  134.1721  155.7664 H   0  0  0  0  0  0  0  0  0  0  0  0  # atno 11005 bound_to 11000
  145.5149  139.1478  143.3584 LP  0  0  0  0  0  0  0  0  0  0  0  0  # atno 17320 bound_to 7965
  146.2494  140.5289  142.8900 LP  0  0  0  0  0  0  0  0  0  0  0  0  # atno 17321 bound_to 7965
  139.6286  144.7641  151.2584 LP  0  0  0  0  0  0  0  0  0  0  0  0  # atno 17342 bound_to 10162
  140.7427  143.6519  150.8241 LP  0  0  0  0  0  0  0  0  0  0  0  0  # atno 17343 bound_to 10162
  156.8026  130.9296  151.3645 LP  0  0  0  0  0  0  0  0  0  0  0  0  # atno 17370 bound_to 10713
  157.6558  130.8923  149.9727 LP  0  0  0  0  0  0  0  0  0  0  0  0  # atno 17371 bound_to 10713
  141.1857  133.8317  157.1093 LP  0  0  0  0  0  0  0  0  0  0  0  0  # atno 17394 bound_to 11000
  140.0338  134.9888  157.0831 LP  0  0  0  0  0  0  0  0  0  0  0  0  # atno 17395 bound_to 11000

$$$$
