AV-unprocessed.smi:2587|AV-procd|sdf|10147|dock4
  -GOLD-   2272014163D 1   1.00000     0.00000
 Structure written by MMmdl.
 40 41  0  0  0  0  0  0  0  0  2 V2000
  152.5772  137.7675  159.6533 C   0  0  0  0  0  0  0  0  0  0  0  0
  152.0684  138.2925  158.5288 C   0  0  0  0  0  0  0  0  0  0  0  0
  152.8392  138.4567  157.2346 C   0  0  0  0  0  0  0  0  0  0  0  0
  151.9968  138.8983  156.1256 N   0  0  0  0  0  0  0  0  0  0  0  0
  151.6054  137.9119  155.1182 C   0  0  0  0  0  0  0  0  0  0  0  0
  150.8890  136.6996  155.7325 C   0  0  0  0  0  0  0  0  0  0  0  0
  150.9789  135.6052  154.8478 O   0  0  0  0  0  0  0  0  0  0  0  0
  151.3748  140.1708  156.1613 C   0  0  0  0  0  0  0  0  0  0  0  0
  151.5581  141.0684  157.2368 C   0  0  0  0  0  0  0  0  0  0  0  0
  150.8960  142.3185  157.1894 C   0  0  0  0  0  0  0  0  0  0  0  0
  151.0140  143.3036  158.1957 N   0  0  0  0  0  0  0  0  0  0  0  0
  149.8133  143.6870  158.9340 C   0  0  0  0  0  0  0  0  0  0  0  0
  150.1826  144.5125  160.1780 C   0  0  0  0  0  0  0  0  0  0  0  0
  150.9842  145.6238  159.7957 O   0  0  0  0  0  0  0  0  0  0  0  0
  152.2112  145.2091  159.2067 C   0  0  0  0  0  0  0  0  0  0  0  0
  151.9273  144.4126  157.9223 C   0  0  0  0  0  0  0  0  0  0  0  0
  150.1123  142.6007  156.1160 N   0  3  0  0  0  0  0  0  0  0  0  0
  149.9757  141.7136  155.1226 C   0  0  0  0  0  0  0  0  0  0  0  0
  150.5832  140.5252  155.1249 N   0  0  0  0  0  0  0  0  0  0  0  0
  153.5982  137.4181  159.6980 H   0  0  0  0  0  0  0  0  0  0  0  0
  151.9757  137.6815  160.5465 H   0  0  0  0  0  0  0  0  0  0  0  0
  151.0441  138.6360  158.5235 H   0  0  0  0  0  0  0  0  0  0  0  0
  153.6175  139.2006  157.4079 H   0  0  0  0  0  0  0  0  0  0  0  0
  153.3628  137.5346  156.9796 H   0  0  0  0  0  0  0  0  0  0  0  0
  150.9873  138.3729  154.3468 H   0  0  0  0  0  0  0  0  0  0  0  0
  152.5064  137.5749  154.6038 H   0  0  0  0  0  0  0  0  0  0  0  0
  151.3396  136.4219  156.6859 H   0  0  0  0  0  0  0  0  0  0  0  0
  149.8372  136.9184  155.9184 H   0  0  0  0  0  0  0  0  0  0  0  0
  150.1139  135.2449  154.7253 H   0  0  0  0  0  0  0  0  0  0  0  0
  152.1868  140.8059  158.0715 H   0  0  0  0  0  0  0  0  0  0  0  0
  149.1578  144.2641  158.2806 H   0  0  0  0  0  0  0  0  0  0  0  0
  149.2646  142.8010  159.2546 H   0  0  0  0  0  0  0  0  0  0  0  0
  149.2797  144.8773  160.6678 H   0  0  0  0  0  0  0  0  0  0  0  0
  150.7153  143.9007  160.9080 H   0  0  0  0  0  0  0  0  0  0  0  0
  152.8102  146.0902  158.9766 H   0  0  0  0  0  0  0  0  0  0  0  0
  152.7855  144.6116  159.9167 H   0  0  0  0  0  0  0  0  0  0  0  0
  152.8745  144.0618  157.5129 H   0  0  0  0  0  0  0  0  0  0  0  0
  151.4754  145.0623  157.1718 H   0  0  0  0  0  0  0  0  0  0  0  0
  149.3425  142.0010  154.2961 H   0  0  0  0  0  0  0  0  0  0  0  0
  149.6336  143.5004  156.0689 H   0  0  0  0  0  0  0  0  0  0  0  0
  1  2  2  0  0  0  0
  1 20  1  0  0  0  0
  1 21  1  0  0  0  0
  2  3  1  0  0  0  0
  2 22  1  0  0  0  0
  3  4  1  0  0  0  0
  3 23  1  0  0  0  0
  3 24  1  0  0  0  0
  4  5  1  0  0  0  0
  4  8  1  0  0  0  0
  5  6  1  0  0  0  0
  5 25  1  0  0  0  0
  5 26  1  0  0  0  0
  6  7  1  0  0  0  0
  6 27  1  0  0  0  0
  6 28  1  0  0  0  0
  7 29  1  0  0  0  0
  8 19  1  0  0  0  0
  8  9  2  0  0  0  0
  9 10  1  0  0  0  0
  9 30  1  0  0  0  0
 10 11  1  0  0  0  0
 10 17  2  0  0  0  0
 11 16  1  0  0  0  0
 11 12  1  0  0  0  0
 12 13  1  0  0  0  0
 12 31  1  0  0  0  0
 12 32  1  0  0  0  0
 13 14  1  0  0  0  0
 13 33  1  0  0  0  0
 13 34  1  0  0  0  0
 14 15  1  0  0  0  0
 15 16  1  0  0  0  0
 15 35  1  0  0  0  0
 15 36  1  0  0  0  0
 16 37  1  0  0  0  0
 16 38  1  0  0  0  0
 17 18  1  0  0  0  0
 17 40  1  0  0  0  0
 18 19  2  0  0  0  0
 18 39  1  0  0  0  0
M  CHG  1  17   1
M  END
> <s_m_source_file>
AV-unprocessed.smi

> <i_m_source_file_index>
2587

> <i_lp_mmshare_version>
43012

> <i_f3d_flags>
0

> <s_epik_input>
W0NIMl09W0NIXVtDSDJdTihbQ0gyXVtDSDJdW09IXSljMVtjSF1jKG5bY0hdbjEpTjJbQ0gyXVtDSDJdT1tDSDJdW0NIMl0y

> <s_epik_cmdline>
J2VwaWtfcHl0aG9uJywgJy1waCcsICc3LjAnLCAnLXRuJywgJzgnLCAnLW1hJywgJzIwMCcsICctbWV0YWxfYmluZGluZycsICctaW1hZScsICc8aW5maWxlLm1hZT4nLCAnLW9tYWUnLCAnPG91dGZpbGUubWFlPic=

> <r_lp_tautomer_probability>
0.999336

> <r_epik_Ionization_Penalty>
3.67622

> <r_epik_Ionization_Penalty_Charging>
3.67622

> <r_epik_Ionization_Penalty_Neutral>
1.25637e-07

> <r_epik_State_Penalty>
2.4309

> <r_epik_Charging_Adjusted_Penalty>
6.10712

> <i_epik_Tot_Q>
1

> <i_epik_Tot_abs_Q>
1

> <r_epik_Metal_State_Penalty>
2.43203

> <b_epik_Metal_Only>
0

> <s_lp_Force_Field>
OPLS_2005

> <r_lp_Energy>
13.6673

> <b_lp_Chiralities_Consistent>
1

> <s_lp_Variant>
AV-unprocessed.smi:2587-2

> <Gold.Version>
5.8.1

> <Gold.Id.Protein>
6NUR|6NUR_protein|mol2

> <Gold.PLP.Fitness>
46.5377

> <Gold.PLP.PLP>
-36.2343

> <Gold.PLP.part.hbond>
-4.3089

> <Gold.PLP.part.metal>
0.0000

> <Gold.PLP.part.buried>
-5.8376

> <Gold.PLP.part.nonpolar>
-27.2982

> <Gold.PLP.part.repulsive>
0.5049

> <Gold.PLP.ligand.clash>
0.0000

> <Gold.PLP.ligand.torsion>
0.5842

> <Gold.PLP.Chemscore.Hbond>
3.6000

> <Gold.PLP.Chemscore.CHOScore>
0.0000

> <Gold.PLP.Chemscore.Metal>
0.0000

> <Gold.Chemscore.Hbonds>
donor molecule, donor type, donor heavy atom, donor atom, acceptor molecule, acceptor atom, score
      L1  H    17    40       P1  8028  1.79
      P1  H  7989  7998       L1    19  0.69
      P1  H 10752 10763       L1     7  1.00

> <Gold.PLP.Chemscore.Internal.Correction>
0.6718

> <Gold.Rescore>
     Score         DG    S(hbond)    S(metal)    S(lipo)     H(rot)  DE(clash)    DE(int)     intcor
     13.19     -14.06       1.91        0.00      74.76       2.57       0.13       0.74       ----

> <Gold.Chemscore.Fitness>
13.1930

> <Gold.Chemscore.DG>
-14.0557

> <Gold.Chemscore.ZeroCoef>
-5.4800

> <Gold.Chemscore.Hbond>
1.9148

> <Gold.Chemscore.Metal>
0.0000

> <Gold.Chemscore.Lipo>
74.7644

> <Gold.Chemscore.Internal_Hbond>
0.0000

> <Gold.Chemscore.DEClash>
0.1259

> <Gold.Chemscore.DEInternal>
0.7368

> <Gold.Chemscore.Rot>
2.5653

> <Gold.Chemscore.Internal.Correction>
   9.000000E+99

> <Gold.Chemscore.Hbonds>
donor molecule, donor type, donor heavy atom, donor atom, acceptor molecule, acceptor atom, score
      L1  H    17    40       P1  8028  0.86
      P1  H  7989  7998       L1    19  0.06
      P1  H 10752 10763       L1     7  0.25

> <Gold.Chemscore.Hbond.Weighted>
-6.3955

> <Gold.Chemscore.Metal.Weighted>
-0.0000

> <Gold.Chemscore.Lipo.Weighted>
-8.7474

> <Gold.Chemscore.Internal_Hbond.Weighted>
0.0000

> <Gold.Chemscore.DEClash.Weighted>
0.1259

> <Gold.Chemscore.DEInternal.Weighted>
0.7368

> <Gold.Chemscore.Rot.Weighted>
6.5671

> <Gold.Chemscore.Internal.Correction.Weighted>
   9.000000E+99

> <Gold.Protein.RotatedTorsions>
[ 6907 6896 6895 6894 ] final  -74.19 input  -60.11 | X-H torsion
[ 7974 7965 7964 7962 ] final    0.25 input  175.53 | X-H torsion
[ 8008 7997 7996 7995 ] final -134.87 input   59.86 | X-H torsion
[ 10167 10162 10161 10158 ] final   77.30 input  -65.29 | X-H torsion
[ 10718 10713 10712 10709 ] final  -62.27 input   66.30 | X-H torsion
[ 10763 10752 10751 10750 ] final   59.12 input  -60.55 | X-H torsion
[ 11005 11000 10999 10996 ] final -174.85 input  -57.11 | X-H torsion

> <Gold.Protein.ActiveResidues>
 VAL166  LYS551  ARG553  GLY616  TRP617  ASP618  TYR619  PRO620  LYS621  CYS622 
 ASP623  PHE694  ASN695  SER759  ASP760  ASP761  ALA762  ILE779  LEU786  VAL792 
 PHE793  MET794  SER795  GLU796  ALA797  LYS798  CYS799  TRP800  GLU811  SER814 

> <Gold.Protein.RotatedAtoms>
  150.7102  134.4906  159.5513 H   0  0  0  0  0  0  0  0  0  0  0  0  # atno 6907 bound_to 6896
  152.2524  134.8116  160.0453 H   0  0  0  0  0  0  0  0  0  0  0  0  # atno 6908 bound_to 6896
  151.8858  133.3470  159.3818 H   0  0  0  0  0  0  0  0  0  0  0  0  # atno 6909 bound_to 6896
  146.2433  140.1166  142.8342 H   0  0  0  0  0  0  0  0  0  0  0  0  # atno 7974 bound_to 7965
  155.3692  140.0487  157.3045 H   0  0  0  0  0  0  0  0  0  0  0  0  # atno 8008 bound_to 7997
  154.5138  140.2201  155.9067 H   0  0  0  0  0  0  0  0  0  0  0  0  # atno 8009 bound_to 7997
  156.1614  140.3115  155.8819 H   0  0  0  0  0  0  0  0  0  0  0  0  # atno 8010 bound_to 7997
  139.9830  144.5812  150.7884 H   0  0  0  0  0  0  0  0  0  0  0  0  # atno 10167 bound_to 10162
  156.0866  130.4207  150.1111 H   0  0  0  0  0  0  0  0  0  0  0  0  # atno 10718 bound_to 10713
  152.9887  135.5583  154.5662 H   0  0  0  0  0  0  0  0  0  0  0  0  # atno 10763 bound_to 10752
  154.5071  135.2800  155.1375 H   0  0  0  0  0  0  0  0  0  0  0  0  # atno 10764 bound_to 10752
  154.2782  135.6350  153.5389 H   0  0  0  0  0  0  0  0  0  0  0  0  # atno 10765 bound_to 10752
  140.4698  134.6176  157.4877 H   0  0  0  0  0  0  0  0  0  0  0  0  # atno 11005 bound_to 11000
  145.0442  140.8969  143.5034 LP  0  0  0  0  0  0  0  0  0  0  0  0  # atno 17320 bound_to 7965
  145.1252  139.2668  143.5568 LP  0  0  0  0  0  0  0  0  0  0  0  0  # atno 17321 bound_to 7965
  140.7482  143.2919  151.3309 LP  0  0  0  0  0  0  0  0  0  0  0  0  # atno 17342 bound_to 10162
  139.6396  144.0565  152.2543 LP  0  0  0  0  0  0  0  0  0  0  0  0  # atno 17343 bound_to 10162
  156.9130  130.9658  151.3560 LP  0  0  0  0  0  0  0  0  0  0  0  0  # atno 17370 bound_to 10713
  157.6003  130.8507  149.8792 LP  0  0  0  0  0  0  0  0  0  0  0  0  # atno 17371 bound_to 10713
  139.9892  134.7012  155.9719 LP  0  0  0  0  0  0  0  0  0  0  0  0  # atno 17394 bound_to 11000
  141.1582  133.6541  156.4231 LP  0  0  0  0  0  0  0  0  0  0  0  0  # atno 17395 bound_to 11000

$$$$
