#       Name:                AV-unprocessed.smi:1560
#       Creating user name   scv26
#       Creation time:       Fri Mar 27 06:47:45 2020


#       File generated by GOLD software.
#

@<TRIPOS>MOLECULE
AV-unprocessed.smi:1560
    56    57     1
SMALL
NO_CHARGES


@<TRIPOS>ATOM
      1 ****        -2.3403  -1.0378  -0.8054 C.3            1 S1                 0.0000
      2 ****        -0.9212  -0.6396  -0.3611 C.3            1 S1                 0.0000
      3 ****        -0.8341   0.2412   0.9267 C.3            1 S1                 0.0000
      4 ****        -1.4427   1.6197   0.5520 C.3            1 S1                 0.0000
      5 ****         0.6713   0.4583   1.2918 C.3            1 S1                 0.0000
      6 ****         1.4379   1.1312   0.2442 N.am           1 S1                 0.0000
      7 ****         2.2730   0.5372  -0.6213 C.2            1 S1                 0.0000
      8 ****         2.5461  -0.6630  -0.5889 O.2            1 S1                 0.0000
      9 ****         2.8981   1.4417  -1.6886 C.3            1 S1                 0.0000
     10 ****         2.6377   0.9372  -3.0455 N.am           1 S1                 0.0000
     11 ****         3.6501   0.1914  -3.6743 C.2            1 S1                 0.0000
     12 ****         3.4908  -0.3215  -4.9093 C.2            1 S1                 0.0000
     13 ****         2.2270  -0.0865  -5.5970 C.2            1 S1                 0.0000
     14 ****         2.0648  -0.5452  -6.7261 O.2            1 S1                 0.0000
     15 ****         1.2744   0.6410  -4.9436 N.pl3          1 S1                -1.0000
     16 ****         1.4491   1.1543  -3.6866 C.2            1 S1                 0.0000
     17 ****         0.5737   1.8040  -3.1130 O.2            1 S1                 0.0000
     18 ****        -1.5957  -0.3794   2.0478 N.3            1 S1                 0.0000
     19 ****        -1.6969   0.4356   3.2641 C.3            1 S1                 0.0000
     20 ****        -2.6158  -0.2097   4.3157 C.3            1 S1                 0.0000
     21 ****        -2.1490  -1.5175   4.6251 O.3            1 S1                 0.0000
     22 ****        -2.0896  -2.3580   3.4788 C.3            1 S1                 0.0000
     23 ****        -1.1616  -1.7301   2.4254 C.3            1 S1                 0.0000
     24 ****        -2.2969  -1.6515  -1.7054 H              1 S1                 0.0000
     25 ****        -2.9500  -0.1655  -1.0391 H              1 S1                 0.0000
     26 ****        -2.8595  -1.6175  -0.0426 H              1 S1                 0.0000
     27 ****        -0.3222  -1.5426  -0.2423 H              1 S1                 0.0000
     28 ****        -0.4615  -0.1186  -1.2010 H              1 S1                 0.0000
     29 ****        -1.0663   1.9878  -0.4034 H              1 S1                 0.0000
     30 ****        -1.2055   2.3855   1.2906 H              1 S1                 0.0000
     31 ****        -2.5289   1.5721   0.4705 H              1 S1                 0.0000
     32 ****         0.7631   1.0866   2.1766 H              1 S1                 0.0000
     33 ****         1.1514  -0.4858   1.5496 H              1 S1                 0.0000
     34 ****         1.2765   2.1216   0.1321 H              1 S1                 0.0000
     35 ****         2.5292   2.4645  -1.5876 H              1 S1                 0.0000
     36 ****         3.9707   1.5032  -1.4996 H              1 S1                 0.0000
     37 ****         4.5509   0.0568  -3.0937 H              1 S1                 0.0000
     38 ****         4.2770  -0.8956  -5.3772 H              1 S1                 0.0000
     39 ****        -0.7114   0.5807   3.7064 H              1 S1                 0.0000
     40 ****        -2.0922   1.4245   3.0390 H              1 S1                 0.0000
     41 ****        -2.6263   0.3885   5.2270 H              1 S1                 0.0000
     42 ****        -3.6435  -0.2584   3.9525 H              1 S1                 0.0000
     43 ****        -1.7173  -3.3387   3.7752 H              1 S1                 0.0000
     44 ****        -3.0917  -2.5048   3.0724 H              1 S1                 0.0000
     45 ****        -1.1432  -2.3917   1.5616 H              1 S1                 0.0000
     46 ****        -0.1483  -1.7045   2.8253 H              1 S1                 0.0000
     47 ****         2.1374  -1.2501   0.1099 LP             1 S1                 0.0000
     48 ****         3.1765  -1.0507  -1.2613 LP             1 S1                 0.0000
     49 ****         2.7948  -1.0720  -7.1614 LP             1 S1                 0.0000
     50 ****         1.2028  -0.3915  -7.2091 LP             1 S1                 0.0000
     51 ****         0.4041   0.8075  -5.4070 LP             1 S1                 0.0000
     52 ****         0.7383   2.1627  -2.1941 LP             1 S1                 0.0000
     53 ****        -0.3016   1.9727  -3.5661 LP             1 S1                 0.0000
     54 ****        -2.5049  -0.4431   1.6363 LP             1 S1                 0.0000
     55 ****        -2.7681  -1.9296   5.2937 LP             1 S1                 0.0000
     56 ****        -1.2326  -1.4465   5.0190 LP             1 S1                 0.0000
@<TRIPOS>BOND
    1    1    2 1     
    2    1   24 1     
    3    1   25 1     
    4    1   26 1     
    5    2    3 1     
    6    2   27 1     
    7    2   28 1     
    8    3    4 1     
    9    3    5 1     
   10    3   18 1     
   11    4   29 1     
   12    4   30 1     
   13    4   31 1     
   14    5    6 1     
   15    5   32 1     
   16    5   33 1     
   17    6    7 am    
   18    6   34 1     
   19    7    8 2     
   20    7    9 1     
   21    9   10 1     
   22    9   35 1     
   23    9   36 1     
   24   10   16 am    
   25   10   11 1     
   26   11   12 2     
   27   11   37 1     
   28   12   13 1     
   29   12   38 1     
   30   13   14 2     
   31   13   15 1     
   32   15   16 1     
   33   16   17 2     
   34   18   23 1     
   35   18   19 1     
   36   19   20 1     
   37   19   39 1     
   38   19   40 1     
   39   20   21 1     
   40   20   41 1     
   41   20   42 1     
   42   21   22 1     
   43   22   23 1     
   44   22   43 1     
   45   22   44 1     
   46   23   45 1     
   47   23   46 1     
   48    8   47 1     
   49    8   48 1     
   50   14   49 1     
   51   14   50 1     
   52   15   51 1     
   53   17   52 1     
   54   17   53 1     
   55   18   54 1     
   56   21   55 1     
   57   21   56 1     
@<TRIPOS>SUBSTRUCTURE
      1 S1             1
@<TRIPOS>SET
LONE_PAIRS      STATIC     ATOMS    <user>   **** ""
10 47 48 49 50 51 52 53 54 55 56
DONOR_HYDROGENS      STATIC     ATOMS    <user>   **** ""
1 34
ATOM$BLUE        STATIC     ATOMS    COLORGROUP SYSTEM
10 47 48 49 50 51 52 53 54 55 56
ATOM$RED        STATIC     ATOMS    COLORGROUP SYSTEM
1 34
