#       Name:                AV-unprocessed.smi:1047
#       Creating user name   scv26
#       Creation time:       Fri Mar 27 03:03:22 2020


#       File generated by GOLD software.
#

@<TRIPOS>MOLECULE
AV-unprocessed.smi:1047
    62    64     1
SMALL
NO_CHARGES


@<TRIPOS>ATOM
      1 ****        -3.6561   6.0972   0.8382 C.3            1 S1                 0.0000
      2 ****        -2.7365   4.8782   0.6817 C.3            1 S1                 0.0000
      3 ****        -2.9772   4.1450  -0.5894 N.4            1 S1                 1.0000
      4 ****        -2.4820   4.8345  -1.8081 C.3            1 S1                 0.0000
      5 ****        -0.9582   4.6751  -1.9660 C.3            1 S1                 0.0000
      6 ****        -0.6176   3.2943  -1.9490 O.3            1 S1                 0.0000
      7 ****        -0.9699   2.6586  -0.7237 C.3            1 S1                 0.0000
      8 ****        -0.4789   1.2049  -0.7869 C.3            1 S1                 0.0000
      9 ****         0.9716   1.1387  -0.6449 N.3            1 S1                 0.0000
     10 ****         1.5067  -0.2148  -0.7585 C.3            1 S1                 0.0000
     11 ****         3.0410  -0.2190  -0.6117 C.3            1 S1                 0.0000
     12 ****         3.6093   0.2911  -1.8006 O.3            1 S1                 0.0000
     13 ****         3.6368  -1.6233  -0.3920 C.3            1 S1                 0.0000
     14 ****         3.1235  -2.2742   0.7996 N.pl3          1 S1                 0.0000
     15 ****         3.4368  -1.9859   2.0775 C.2            1 S1                 0.0000
     16 ****         2.8547  -2.7135   3.0263 N.2            1 S1                 0.0000
     17 ****         2.0773  -3.5791   2.2761 C.ar           1 S1                 0.0000
     18 ****         1.2109  -4.6177   2.6818 C.ar           1 S1                 0.0000
     19 ****         0.5071  -5.3883   1.7290 C.ar           1 S1                 0.0000
     20 ****        -0.4097  -6.4997   2.2093 C.3            1 S1                 0.0000
     21 ****         0.6624  -5.1216   0.3450 C.ar           1 S1                 0.0000
     22 ****        -0.0858  -5.9341  -0.6968 C.3            1 S1                 0.0000
     23 ****         1.5237  -4.0877  -0.0777 C.ar           1 S1                 0.0000
     24 ****         2.2220  -3.3304   0.8797 C.ar           1 S1                 0.0000
     25 ****        -2.5026   2.7391  -0.5614 C.3            1 S1                 0.0000
     26 ****        -3.5301   6.5470   1.8232 H              1 S1                 0.0000
     27 ****        -4.7047   5.8157   0.7369 H              1 S1                 0.0000
     28 ****        -3.4412   6.8708   0.1018 H              1 S1                 0.0000
     29 ****        -1.6919   5.1769   0.7688 H              1 S1                 0.0000
     30 ****        -2.9335   4.2082   1.5195 H              1 S1                 0.0000
     31 ****        -2.9769   4.3892  -2.6721 H              1 S1                 0.0000
     32 ****        -2.7611   5.8873  -1.8106 H              1 S1                 0.0000
     33 ****        -0.6353   5.1030  -2.9151 H              1 S1                 0.0000
     34 ****        -0.4160   5.2068  -1.1832 H              1 S1                 0.0000
     35 ****        -0.4838   3.1643   0.1129 H              1 S1                 0.0000
     36 ****        -0.9444   0.6281   0.0133 H              1 S1                 0.0000
     37 ****        -0.7946   0.7475  -1.7255 H              1 S1                 0.0000
     38 ****         1.4064   1.7329  -1.3436 H              1 S1                 0.0000
     39 ****         1.0586  -0.8307   0.0214 H              1 S1                 0.0000
     40 ****         1.2193  -0.6660  -1.7094 H              1 S1                 0.0000
     41 ****         3.3373   0.4231   0.2194 H              1 S1                 0.0000
     42 ****         3.3058   1.1775  -1.9218 H              1 S1                 0.0000
     43 ****         3.4328  -2.2606  -1.2533 H              1 S1                 0.0000
     44 ****         4.7223  -1.5628  -0.3021 H              1 S1                 0.0000
     45 ****         4.1311  -1.1959   2.3244 H              1 S1                 0.0000
     46 ****         1.0930  -4.8203   3.7362 H              1 S1                 0.0000
     47 ****        -0.0770  -7.4633   1.8222 H              1 S1                 0.0000
     48 ****        -1.4321  -6.3246   1.8733 H              1 S1                 0.0000
     49 ****        -0.4223  -6.5633   3.2978 H              1 S1                 0.0000
     50 ****         0.1487  -5.5980  -1.7072 H              1 S1                 0.0000
     51 ****        -1.1625  -5.8390  -0.5542 H              1 S1                 0.0000
     52 ****         0.1819  -6.9883  -0.6241 H              1 S1                 0.0000
     53 ****         1.6504  -3.8755  -1.1290 H              1 S1                 0.0000
     54 ****        -2.8235   2.2481   0.3583 H              1 S1                 0.0000
     55 ****        -2.9839   2.1998  -1.3785 H              1 S1                 0.0000
     56 ****        -3.9824   4.0942  -0.6760 H              1 S1                 0.0000
     57 ****         0.3694   3.2061  -2.0835 LP             1 S1                 0.0000
     58 ****        -1.0981   2.8366  -2.6971 LP             1 S1                 0.0000
     59 ****         1.1849   1.4559   0.2792 LP             1 S1                 0.0000
     60 ****         3.3269  -0.2713  -2.5778 LP             1 S1                 0.0000
     61 ****         4.6066   0.2830  -1.7282 LP             1 S1                 0.0000
     62 ****         2.9527  -2.6517   4.0195 LP             1 S1                 0.0000
@<TRIPOS>BOND
    1    1    2 1     
    2    1   26 1     
    3    1   27 1     
    4    1   28 1     
    5    2    3 1     
    6    2   29 1     
    7    2   30 1     
    8    3   25 1     
    9    3    4 1     
   10    3   56 1     
   11    4    5 1     
   12    4   31 1     
   13    4   32 1     
   14    5    6 1     
   15    5   33 1     
   16    5   34 1     
   17    6    7 1     
   18    7    8 1     
   19    7   25 1     
   20    7   35 1     
   21    8    9 1     
   22    8   36 1     
   23    8   37 1     
   24    9   10 1     
   25    9   38 1     
   26   10   11 1     
   27   10   39 1     
   28   10   40 1     
   29   11   12 1     
   30   11   13 1     
   31   11   41 1     
   32   12   42 1     
   33   13   14 1     
   34   13   43 1     
   35   13   44 1     
   36   14   24 1     
   37   14   15 1     
   38   15   16 2     
   39   15   45 1     
   40   16   17 1     
   41   17   24 ar    
   42   17   18 ar    
   43   18   19 ar    
   44   18   46 1     
   45   19   20 1     
   46   19   21 ar    
   47   20   47 1     
   48   20   48 1     
   49   20   49 1     
   50   21   22 1     
   51   21   23 ar    
   52   22   50 1     
   53   22   51 1     
   54   22   52 1     
   55   23   24 ar    
   56   23   53 1     
   57   25   54 1     
   58   25   55 1     
   59    6   57 1     
   60    6   58 1     
   61    9   59 1     
   62   12   60 1     
   63   12   61 1     
   64   16   62 1     
@<TRIPOS>SUBSTRUCTURE
      1 S1             1
@<TRIPOS>SET
LONE_PAIRS      STATIC     ATOMS    <user>   **** ""
6 57 58 59 60 61 62
DONOR_HYDROGENS      STATIC     ATOMS    <user>   **** ""
3 56 38 42
ATOM$BLUE        STATIC     ATOMS    COLORGROUP SYSTEM
6 57 58 59 60 61 62
ATOM$RED        STATIC     ATOMS    COLORGROUP SYSTEM
3 56 38 42
