AV-unprocessed.smi:3102|AV-procd|sdf|11813|dock4
  -GOLD-   2272017183D 1   1.00000     0.00000
 Structure written by MMmdl.
 31 32  0  0  0  0  0  0  0  0  1 V2000
  154.2964  140.7820  161.5653 C   0  0  0  0  0  0  0  0  0  0  0  0
  153.7847  142.0596  161.2022 O   0  0  0  0  0  0  0  0  0  0  0  0
  152.9766  142.1484  160.0875 C   0  0  0  0  0  0  0  0  0  0  0  0
  152.4178  140.9676  159.5632 C   0  0  0  0  0  0  0  0  0  0  0  0
  151.5907  141.0539  158.4279 C   0  0  0  0  0  0  0  0  0  0  0  0
  151.3415  142.3195  157.8462 C   0  0  0  0  0  0  0  0  0  0  0  0
  150.5262  142.4879  156.7143 N   0  0  0  0  0  0  0  0  0  0  0  0
  149.9366  141.3491  156.0214 C   0  0  1  0  0  0  0  0  0  0  0  0
  149.1819  141.7265  154.7611 C   0  0  0  0  0  0  0  0  0  0  0  0
  149.1470  140.3965  154.0147 C   0  0  0  0  0  0  0  0  0  0  0  0
  150.3419  139.7123  154.3833 O   0  0  0  0  0  0  0  0  0  0  0  0
  150.9873  140.3979  155.4527 C   0  0  0  0  0  0  0  0  0  0  0  0
  151.9559  143.4464  158.4463 C   0  0  0  0  0  0  0  0  0  0  0  0
  151.7556  144.8468  157.8932 C   0  0  0  0  0  0  0  0  0  0  0  0
  152.7498  143.3656  159.5368 N   0  0  0  0  0  0  0  0  0  0  0  0
  154.9137  140.8810  162.4580 H   0  0  0  0  0  0  0  0  0  0  0  0
  154.9224  140.3640  160.7756 H   0  0  0  0  0  0  0  0  0  0  0  0
  153.4931  140.0805  161.7948 H   0  0  0  0  0  0  0  0  0  0  0  0
  152.6197  140.0117  160.0233 H   0  0  0  0  0  0  0  0  0  0  0  0
  151.1643  140.1485  158.0239 H   0  0  0  0  0  0  0  0  0  0  0  0
  150.1235  143.3983  156.5436 H   0  0  0  0  0  0  0  0  0  0  0  0
  149.2885  140.7865  156.6943 H   0  0  0  0  0  0  0  0  0  0  0  0
  148.1879  142.1313  154.9515 H   0  0  0  0  0  0  0  0  0  0  0  0
  149.7447  142.4614  154.1829 H   0  0  0  0  0  0  0  0  0  0  0  0
  148.2928  139.8009  154.3383 H   0  0  0  0  0  0  0  0  0  0  0  0
  149.0790  140.5277  152.9345 H   0  0  0  0  0  0  0  0  0  0  0  0
  151.8312  140.9522  155.0383 H   0  0  0  0  0  0  0  0  0  0  0  0
  151.3727  139.7036  156.2000 H   0  0  0  0  0  0  0  0  0  0  0  0
  150.6989  145.1149  157.9117 H   0  0  0  0  0  0  0  0  0  0  0  0
  152.1079  144.9018  156.8628 H   0  0  0  0  0  0  0  0  0  0  0  0
  152.3022  145.5901  158.4749 H   0  0  0  0  0  0  0  0  0  0  0  0
  1  2  1  0  0  0  0
  1 16  1  0  0  0  0
  1 17  1  0  0  0  0
  1 18  1  0  0  0  0
  2  3  1  0  0  0  0
  3 15  1  0  0  0  0
  3  4  2  0  0  0  0
  4  5  1  0  0  0  0
  4 19  1  0  0  0  0
  5  6  2  0  0  0  0
  5 20  1  0  0  0  0
  6  7  1  0  0  0  0
  6 13  1  0  0  0  0
  7  8  1  0  0  0  0
  7 21  1  0  0  0  0
  8 12  1  0  0  0  0
  8  9  1  0  0  0  0
  8 22  1  0  0  0  0
  9 10  1  0  0  0  0
  9 23  1  0  0  0  0
  9 24  1  0  0  0  0
 10 11  1  0  0  0  0
 10 25  1  0  0  0  0
 10 26  1  0  0  0  0
 11 12  1  0  0  0  0
 12 27  1  0  0  0  0
 12 28  1  0  0  0  0
 13 14  1  0  0  0  0
 13 15  2  0  0  0  0
 14 29  1  0  0  0  0
 14 30  1  0  0  0  0
 14 31  1  0  0  0  0
M  END
> <s_m_source_file>
AV-unprocessed.smi

> <i_m_source_file_index>
3102

> <i_lp_mmshare_version>
43012

> <i_f3d_flags>
0

> <s_epik_input>
W0NIM11PYzFbY0hdW2NIXWMoYyhuMSlbQ0gzXSlbTkhdW0NAQEhdMltDSDJdW0NIMl1PW0NIMl0y

> <s_epik_cmdline>
J2VwaWtfcHl0aG9uJywgJy1waCcsICc3LjAnLCAnLXRuJywgJzgnLCAnLW1hJywgJzIwMCcsICctbWV0YWxfYmluZGluZycsICctaW1hZScsICc8aW5maWxlLm1hZT4nLCAnLW9tYWUnLCAnPG91dGZpbGUubWFlPic=

> <r_lp_tautomer_probability>
1

> <r_epik_Ionization_Penalty>
0.00117248

> <r_epik_Ionization_Penalty_Charging>
0

> <r_epik_Ionization_Penalty_Neutral>
0.00117248

> <r_epik_State_Penalty>
0.000742146

> <r_epik_Charging_Adjusted_Penalty>
0.000742146

> <i_epik_Tot_Q>
0

> <i_epik_Tot_abs_Q>
0

> <r_epik_Metal_State_Penalty>
-0

> <b_epik_Metal_Only>
0

> <s_lp_Force_Field>
OPLS_2005

> <r_lp_Energy>
20.62

> <b_lp_Chiralities_Consistent>
1

> <s_lp_Variant>
AV-unprocessed.smi:3102-2

> <Gold.Version>
5.8.1

> <Gold.Id.Protein>
6NUR|6NUR_protein|mol2

> <Gold.PLP.Fitness>
35.5180

> <Gold.PLP.PLP>
-32.9416

> <Gold.PLP.part.hbond>
-2.1562

> <Gold.PLP.part.metal>
0.0000

> <Gold.PLP.part.buried>
-0.4051

> <Gold.PLP.part.nonpolar>
-29.3262

> <Gold.PLP.part.repulsive>
0.1758

> <Gold.PLP.ligand.clash>
0.0000

> <Gold.PLP.ligand.torsion>
0.2226

> <Gold.PLP.Chemscore.Hbond>
1.0000

> <Gold.PLP.Chemscore.CHOScore>
0.0000

> <Gold.PLP.Chemscore.Metal>
0.0000

> <Gold.Chemscore.Hbonds>
donor molecule, donor type, donor heavy atom, donor atom, acceptor molecule, acceptor atom, score
      L1  H     7    21       P1  8028  1.00

> <Gold.PLP.Chemscore.Internal.Correction>
0.0217

> <Gold.Rescore>
     Score         DG    S(hbond)    S(metal)    S(lipo)     H(rot)  DE(clash)    DE(int)     intcor
     15.18     -15.27       0.99        0.00      81.35       1.18       0.03       0.06       ----

> <Gold.Chemscore.Fitness>
15.1789

> <Gold.Chemscore.DG>
-15.2707

> <Gold.Chemscore.ZeroCoef>
-5.4800

> <Gold.Chemscore.Hbond>
0.9896

> <Gold.Chemscore.Metal>
0.0000

> <Gold.Chemscore.Lipo>
81.3523

> <Gold.Chemscore.Internal_Hbond>
0.0000

> <Gold.Chemscore.DEClash>
0.0273

> <Gold.Chemscore.DEInternal>
0.0645

> <Gold.Chemscore.Rot>
1.1847

> <Gold.Chemscore.Internal.Correction>
   9.000000E+99

> <Gold.Chemscore.Hbonds>
donor molecule, donor type, donor heavy atom, donor atom, acceptor molecule, acceptor atom, score
      L1  H     7    21       P1  8028  0.94

> <Gold.Chemscore.Hbond.Weighted>
-3.3053

> <Gold.Chemscore.Metal.Weighted>
-0.0000

> <Gold.Chemscore.Lipo.Weighted>
-9.5182

> <Gold.Chemscore.Internal_Hbond.Weighted>
0.0000

> <Gold.Chemscore.DEClash.Weighted>
0.0273

> <Gold.Chemscore.DEInternal.Weighted>
0.0645

> <Gold.Chemscore.Rot.Weighted>
3.0328

> <Gold.Chemscore.Internal.Correction.Weighted>
   9.000000E+99

> <Gold.Protein.RotatedTorsions>
[ 6907 6896 6895 6894 ] final  124.53 input  -60.11 | X-H torsion
[ 7974 7965 7964 7962 ] final   15.02 input  175.53 | X-H torsion
[ 8008 7997 7996 7995 ] final  -54.67 input   59.86 | X-H torsion
[ 10167 10162 10161 10158 ] final    5.66 input  -65.29 | X-H torsion
[ 10718 10713 10712 10709 ] final -113.64 input   66.30 | X-H torsion
[ 10763 10752 10751 10750 ] final -140.03 input  -60.55 | X-H torsion
[ 11005 11000 10999 10996 ] final  147.58 input  -57.11 | X-H torsion

> <Gold.Protein.ActiveResidues>
 VAL166  LYS551  ARG553  GLY616  TRP617  ASP618  TYR619  PRO620  LYS621  CYS622 
 ASP623  PHE694  ASN695  SER759  ASP760  ASP761  ALA762  ILE779  LEU786  VAL792 
 PHE793  MET794  SER795  GLU796  ALA797  LYS798  CYS799  TRP800  GLU811  SER814 

> <Gold.Protein.RotatedAtoms>
  152.4070  133.6904  159.6364 H   0  0  0  0  0  0  0  0  0  0  0  0  # atno 6907 bound_to 6896
  150.7954  133.8692  159.3262 H   0  0  0  0  0  0  0  0  0  0  0  0  # atno 6908 bound_to 6896
  151.6444  135.1011  160.0199 H   0  0  0  0  0  0  0  0  0  0  0  0  # atno 6909 bound_to 6896
  146.2290  139.8956  142.8547 H   0  0  0  0  0  0  0  0  0  0  0  0  # atno 7974 bound_to 7965
  154.4170  140.1171  156.5352 H   0  0  0  0  0  0  0  0  0  0  0  0  # atno 8008 bound_to 7997
  155.6564  140.3496  155.4747 H   0  0  0  0  0  0  0  0  0  0  0  0  # atno 8009 bound_to 7997
  155.9750  140.1149  157.0768 H   0  0  0  0  0  0  0  0  0  0  0  0  # atno 8010 bound_to 7997
  140.6470  143.7638  150.7514 H   0  0  0  0  0  0  0  0  0  0  0  0  # atno 10167 bound_to 10162
  156.0779  130.5984  150.8669 H   0  0  0  0  0  0  0  0  0  0  0  0  # atno 10718 bound_to 10713
  154.8591  135.3565  154.5642 H   0  0  0  0  0  0  0  0  0  0  0  0  # atno 10763 bound_to 10752
  153.6257  135.7004  153.5299 H   0  0  0  0  0  0  0  0  0  0  0  0  # atno 10764 bound_to 10752
  153.3092  135.4183  155.1280 H   0  0  0  0  0  0  0  0  0  0  0  0  # atno 10765 bound_to 10752
  140.0888  134.9053  157.1618 H   0  0  0  0  0  0  0  0  0  0  0  0  # atno 11005 bound_to 11000
  145.2374  140.9996  143.3955 LP  0  0  0  0  0  0  0  0  0  0  0  0  # atno 17320 bound_to 7965
  144.9480  139.4115  143.6416 LP  0  0  0  0  0  0  0  0  0  0  0  0  # atno 17321 bound_to 7965
  140.1281  143.4551  152.2271 LP  0  0  0  0  0  0  0  0  0  0  0  0  # atno 17342 bound_to 10162
  139.5681  144.7447  151.3965 LP  0  0  0  0  0  0  0  0  0  0  0  0  # atno 17343 bound_to 10162
  157.5883  131.0945  150.9160 LP  0  0  0  0  0  0  0  0  0  0  0  0  # atno 17370 bound_to 10713
  156.9341  130.5360  149.5279 LP  0  0  0  0  0  0  0  0  0  0  0  0  # atno 17371 bound_to 10713
  140.3382  134.2733  155.7216 LP  0  0  0  0  0  0  0  0  0  0  0  0  # atno 17394 bound_to 11000
  141.2071  133.7815  157.0138 LP  0  0  0  0  0  0  0  0  0  0  0  0  # atno 17395 bound_to 11000

$$$$
