#       Name:                AV-unprocessed.smi:2063
#       Creating user name   scv26
#       Creation time:       Fri Mar 27 11:10:26 2020


#       File generated by GOLD software.
#

@<TRIPOS>MOLECULE
AV-unprocessed.smi:2063
    45    46     1
SMALL
NO_CHARGES


@<TRIPOS>ATOM
      1 ****        -6.3025   0.5438   0.2847 C.3            1 S1                 0.0000
      2 ****        -5.4065   1.7809   0.1275 C.3            1 S1                 0.0000
      3 ****        -6.0859   2.9240  -0.6403 C.3            1 S1                 0.0000
      4 ****        -4.0658   1.4358  -0.4416 C.2            1 S1                 0.0000
      5 ****        -3.8987   0.9475  -1.6746 N.2            1 S1                 0.0000
      6 ****        -2.5649   0.7007  -1.9648 N.2            1 S1                 0.0000
      7 ****        -1.7425   0.9940  -0.9477 C.2            1 S1                 0.0000
      8 ****        -0.4122   0.8226  -1.0231 N.pl3          1 S1                -1.0000
      9 ****         0.1562  -0.2854  -0.4942 C.2            1 S1                 0.0000
     10 ****        -0.4340  -1.2089   0.0712 O.2            1 S1                 0.0000
     11 ****         1.4899  -0.3258  -0.6286 N.am           1 S1                 0.0000
     12 ****         2.3744  -1.3864  -0.1496 C.3            1 S1                 0.0000
     13 ****         2.4058  -2.5352  -1.1736 C.3            1 S1                 0.0000
     14 ****         3.7753  -0.7990   0.1113 C.3            1 S1                 0.0000
     15 ****         4.7838  -1.7888   0.6956 C.3            1 S1                 0.0000
     16 ****         5.7864  -0.8596   1.3403 C.3            1 S1                 0.0000
     17 ****         4.8903   0.2482   1.8874 C.3            1 S1                 0.0000
     18 ****         3.7107   0.2392   1.0867 O.3            1 S1                 0.0000
     19 ****        -2.5758   1.6374   0.4666 S.3            1 S1                 0.0000
     20 ****        -5.8198  -0.2130   0.9039 H              1 S1                 0.0000
     21 ****        -6.5260   0.0905  -0.6816 H              1 S1                 0.0000
     22 ****        -7.2501   0.8025   0.7575 H              1 S1                 0.0000
     23 ****        -5.2240   2.1560   1.1352 H              1 S1                 0.0000
     24 ****        -5.4542   3.8126  -0.6596 H              1 S1                 0.0000
     25 ****        -7.0323   3.2015  -0.1752 H              1 S1                 0.0000
     26 ****        -6.2937   2.6399  -1.6724 H              1 S1                 0.0000
     27 ****         1.9296   0.4555  -1.0928 H              1 S1                 0.0000
     28 ****         1.9880  -1.7713   0.7959 H              1 S1                 0.0000
     29 ****         3.0277  -3.3608  -0.8282 H              1 S1                 0.0000
     30 ****         2.7997  -2.1991  -2.1332 H              1 S1                 0.0000
     31 ****         1.4070  -2.9365  -1.3476 H              1 S1                 0.0000
     32 ****         4.1838  -0.3713  -0.8061 H              1 S1                 0.0000
     33 ****         4.3129  -2.4150   1.4546 H              1 S1                 0.0000
     34 ****         5.2309  -2.4384  -0.0572 H              1 S1                 0.0000
     35 ****         6.3872  -1.3424   2.1114 H              1 S1                 0.0000
     36 ****         6.4607  -0.4573   0.5832 H              1 S1                 0.0000
     37 ****         4.6085   0.0413   2.9202 H              1 S1                 0.0000
     38 ****         5.3797   1.2219   1.8591 H              1 S1                 0.0000
     39 ****        -4.6488   0.7794  -2.3142 LP             1 S1                 0.0000
     40 ****        -2.2492   0.3408  -2.8428 LP             1 S1                 0.0000
     41 ****         0.1571   1.5129  -1.4695 LP             1 S1                 0.0000
     42 ****        -1.4285  -1.1795   0.1718 LP             1 S1                 0.0000
     43 ****         0.0819  -1.9873   0.4291 LP             1 S1                 0.0000
     44 ****         2.9156   0.0893   1.6743 LP             1 S1                 0.0000
     45 ****         3.6212   1.1207   0.6232 LP             1 S1                 0.0000
@<TRIPOS>BOND
    1    1    2 1     
    2    1   20 1     
    3    1   21 1     
    4    1   22 1     
    5    2    3 1     
    6    2    4 1     
    7    2   23 1     
    8    3   24 1     
    9    3   25 1     
   10    3   26 1     
   11    4   19 1     
   12    4    5 2     
   13    5    6 1     
   14    6    7 2     
   15    7    8 1     
   16    7   19 1     
   17    8    9 1     
   18    9   10 2     
   19    9   11 am    
   20   11   12 1     
   21   11   27 1     
   22   12   13 1     
   23   12   14 1     
   24   12   28 1     
   25   13   29 1     
   26   13   30 1     
   27   13   31 1     
   28   14   18 1     
   29   14   15 1     
   30   14   32 1     
   31   15   16 1     
   32   15   33 1     
   33   15   34 1     
   34   16   17 1     
   35   16   35 1     
   36   16   36 1     
   37   17   18 1     
   38   17   37 1     
   39   17   38 1     
   40    5   39 1     
   41    6   40 1     
   42    8   41 1     
   43   10   42 1     
   44   10   43 1     
   45   18   44 1     
   46   18   45 1     
@<TRIPOS>SUBSTRUCTURE
      1 S1             1
@<TRIPOS>SET
LONE_PAIRS      STATIC     ATOMS    <user>   **** ""
7 39 40 41 42 43 44 45
DONOR_HYDROGENS      STATIC     ATOMS    <user>   **** ""
1 27
ATOM$BLUE        STATIC     ATOMS    COLORGROUP SYSTEM
7 39 40 41 42 43 44 45
ATOM$RED        STATIC     ATOMS    COLORGROUP SYSTEM
1 27
