AV-unprocessed.smi:1514|AV-procd|sdf|6114|dock4
  -GOLD-   22720 6243D 1   1.00000     0.00000
 Structure written by MMmdl.
 48 49  0  0  0  0  0  0  0  0  2 V2000
  143.9519  136.4522  152.7849 C   0  0  0  0  0  0  0  0  0  0  0  0
  145.3644  137.0028  152.5391 C   0  0  0  0  0  0  0  0  0  0  0  0
  145.5364  138.3874  153.0456 N   0  3  0  0  0  0  0  0  0  0  0  0
  146.6985  139.0994  152.4566 C   0  0  0  0  0  0  0  0  0  0  0  0
  146.7725  140.5482  152.9849 C   0  0  0  0  0  0  0  0  0  0  0  0
  146.8598  140.6002  154.4461 N   0  0  0  0  0  0  0  0  0  0  0  0
  148.1644  140.1502  154.9429 C   0  0  0  0  0  0  0  0  0  0  0  0
  149.3269  141.0488  154.4830 C   0  0  0  0  0  0  0  0  0  0  0  0
  149.7151  141.9886  155.5270 N   0  0  0  0  0  0  0  0  0  0  0  0
  150.5438  141.6951  156.5376 C   0  0  0  0  0  0  0  0  0  0  0  0
  151.0658  140.5896  156.6829 O   0  0  0  0  0  0  0  0  0  0  0  0
  150.7155  142.7540  157.3480 N   0  0  0  0  0  0  0  0  0  0  0  0
  151.4809  142.8527  158.4671 C   0  0  0  0  0  0  0  0  0  0  0  0
  152.1763  141.8746  159.1241 C   0  0  0  0  0  0  0  0  0  0  0  0
  152.7710  142.5861  160.2064 C   0  0  0  0  0  0  0  0  0  0  0  0
  153.6622  142.0473  161.2864 C   0  0  0  0  0  0  0  0  0  0  0  0
  152.4623  143.8782  160.2021 N   0  0  0  0  0  0  0  0  0  0  0  0
  151.6638  144.0481  159.1259 N   0  0  0  0  0  0  0  0  0  0  0  0
  151.1323  145.3608  158.8152 C   0  0  0  0  0  0  0  0  0  0  0  0
  145.7009  139.9023  155.0136 C   0  0  0  0  0  0  0  0  0  0  0  0
  145.6041  138.4413  154.5263 C   0  0  0  0  0  0  0  0  0  0  0  0
  143.8937  135.4042  152.4903 H   0  0  0  0  0  0  0  0  0  0  0  0
  143.1969  136.9889  152.2111 H   0  0  0  0  0  0  0  0  0  0  0  0
  143.6819  136.5125  153.8394 H   0  0  0  0  0  0  0  0  0  0  0  0
  146.0705  136.3484  153.0521 H   0  0  0  0  0  0  0  0  0  0  0  0
  145.6151  136.9581  151.4784 H   0  0  0  0  0  0  0  0  0  0  0  0
  147.6198  138.5558  152.6699 H   0  0  0  0  0  0  0  0  0  0  0  0
  146.6034  139.1328  151.3719 H   0  0  0  0  0  0  0  0  0  0  0  0
  147.6242  141.0695  152.5458 H   0  0  0  0  0  0  0  0  0  0  0  0
  145.8836  141.0966  152.6696 H   0  0  0  0  0  0  0  0  0  0  0  0
  148.1667  140.0760  156.0296 H   0  0  0  0  0  0  0  0  0  0  0  0
  148.3477  139.1416  154.5696 H   0  0  0  0  0  0  0  0  0  0  0  0
  150.1886  140.4572  154.1728 H   0  0  0  0  0  0  0  0  0  0  0  0
  149.0123  141.6138  153.6044 H   0  0  0  0  0  0  0  0  0  0  0  0
  149.3214  142.9170  155.4783 H   0  0  0  0  0  0  0  0  0  0  0  0
  150.2143  143.5928  157.0958 H   0  0  0  0  0  0  0  0  0  0  0  0
  152.2595  140.8243  158.8887 H   0  0  0  0  0  0  0  0  0  0  0  0
  153.7314  140.9606  161.2343 H   0  0  0  0  0  0  0  0  0  0  0  0
  153.2844  142.3074  162.2756 H   0  0  0  0  0  0  0  0  0  0  0  0
  154.6719  142.4489  161.1976 H   0  0  0  0  0  0  0  0  0  0  0  0
  150.0496  145.3558  158.9425 H   0  0  0  0  0  0  0  0  0  0  0  0
  151.3689  145.6178  157.7824 H   0  0  0  0  0  0  0  0  0  0  0  0
  151.5635  146.1161  159.4737 H   0  0  0  0  0  0  0  0  0  0  0  0
  145.7240  139.9401  156.1019 H   0  0  0  0  0  0  0  0  0  0  0  0
  144.7987  140.4402  154.7187 H   0  0  0  0  0  0  0  0  0  0  0  0
  144.7042  137.9892  154.9450 H   0  0  0  0  0  0  0  0  0  0  0  0
  146.4450  137.8477  154.8872 H   0  0  0  0  0  0  0  0  0  0  0  0
  144.7083  138.9014  152.7808 H   0  0  0  0  0  0  0  0  0  0  0  0
  1  2  1  0  0  0  0
  1 22  1  0  0  0  0
  1 23  1  0  0  0  0
  1 24  1  0  0  0  0
  2  3  1  0  0  0  0
  2 25  1  0  0  0  0
  2 26  1  0  0  0  0
  3 21  1  0  0  0  0
  3  4  1  0  0  0  0
  3 48  1  0  0  0  0
  4  5  1  0  0  0  0
  4 27  1  0  0  0  0
  4 28  1  0  0  0  0
  5  6  1  0  0  0  0
  5 29  1  0  0  0  0
  5 30  1  0  0  0  0
  6  7  1  0  0  0  0
  6 20  1  0  0  0  0
  7  8  1  0  0  0  0
  7 31  1  0  0  0  0
  7 32  1  0  0  0  0
  8  9  1  0  0  0  0
  8 33  1  0  0  0  0
  8 34  1  0  0  0  0
  9 10  1  0  0  0  0
  9 35  1  0  0  0  0
 10 11  2  0  0  0  0
 10 12  1  0  0  0  0
 12 13  1  0  0  0  0
 12 36  1  0  0  0  0
 13 18  1  0  0  0  0
 13 14  2  0  0  0  0
 14 15  1  0  0  0  0
 14 37  1  0  0  0  0
 15 16  1  0  0  0  0
 15 17  2  0  0  0  0
 16 38  1  0  0  0  0
 16 39  1  0  0  0  0
 16 40  1  0  0  0  0
 17 18  1  0  0  0  0
 18 19  1  0  0  0  0
 19 41  1  0  0  0  0
 19 42  1  0  0  0  0
 19 43  1  0  0  0  0
 20 21  1  0  0  0  0
 20 44  1  0  0  0  0
 20 45  1  0  0  0  0
 21 46  1  0  0  0  0
 21 47  1  0  0  0  0
M  CHG  1   3   1
M  END
> <s_m_source_file>
AV-unprocessed.smi

> <i_m_source_file_index>
1514

> <i_lp_mmshare_version>
43012

> <i_f3d_flags>
0

> <s_epik_input>
W0NIM11bQ0gyXU4xW0NIMl1bQ0gyXU4oW0NIMl1bQ0gyXTEpW0NIMl1bQ0gyXVtOSF1DKD1PKVtOSF1jMltjSF1jKFtDSDNdKW5uMltDSDNd

> <s_epik_cmdline>
J2VwaWtfcHl0aG9uJywgJy1waCcsICc3LjAnLCAnLXRuJywgJzgnLCAnLW1hJywgJzIwMCcsICctbWV0YWxfYmluZGluZycsICctaW1hZScsICc8aW5maWxlLm1hZT4nLCAnLW9tYWUnLCAnPG91dGZpbGUubWFlPic=

> <r_lp_tautomer_probability>
1

> <r_epik_Ionization_Penalty>
0.0527919

> <r_epik_Ionization_Penalty_Charging>
0.052373

> <r_epik_Ionization_Penalty_Neutral>
0.000418955

> <r_epik_State_Penalty>
0.130843

> <r_epik_Charging_Adjusted_Penalty>
0.183216

> <i_epik_Tot_Q>
1

> <i_epik_Tot_abs_Q>
1

> <r_epik_Metal_State_Penalty>
0.130841

> <b_epik_Metal_Only>
0

> <s_lp_Force_Field>
OPLS_2005

> <r_lp_Energy>
24.8956

> <b_lp_Chiralities_Consistent>
1

> <s_lp_Variant>
AV-unprocessed.smi:1514-1

> <Gold.Version>
5.8.1

> <Gold.Id.Protein>
6NUR|6NUR_protein|mol2

> <Gold.PLP.Fitness>
48.7214

> <Gold.PLP.PLP>
-39.7042

> <Gold.PLP.part.hbond>
-2.4560

> <Gold.PLP.part.metal>
0.0000

> <Gold.PLP.part.buried>
-2.7456

> <Gold.PLP.part.nonpolar>
-34.7159

> <Gold.PLP.part.repulsive>
0.3464

> <Gold.PLP.ligand.clash>
0.0000

> <Gold.PLP.ligand.torsion>
0.5966

> <Gold.PLP.Chemscore.Hbond>
3.3900

> <Gold.PLP.Chemscore.CHOScore>
0.0000

> <Gold.PLP.Chemscore.Metal>
0.0000

> <Gold.Chemscore.Hbonds>
donor molecule, donor type, donor heavy atom, donor atom, acceptor molecule, acceptor atom, score
      L1  H     3    48       P1 10175  2.00
      L1  H     9    35       P1  8028  1.00
      L1  H    12    36       P1  8028  0.47

> <Gold.PLP.Chemscore.Internal.Correction>
0.0403

> <Gold.Rescore>
     Score         DG    S(hbond)    S(metal)    S(lipo)     H(rot)  DE(clash)    DE(int)     intcor
     18.90     -20.92       2.88        0.00      86.68       1.69       0.39       1.63       ----

> <Gold.Chemscore.Fitness>
18.9011

> <Gold.Chemscore.DG>
-20.9155

> <Gold.Chemscore.ZeroCoef>
-5.4800

> <Gold.Chemscore.Hbond>
2.8813

> <Gold.Chemscore.Metal>
0.0000

> <Gold.Chemscore.Lipo>
86.6813

> <Gold.Chemscore.Internal_Hbond>
0.0000

> <Gold.Chemscore.DEClash>
0.3882

> <Gold.Chemscore.DEInternal>
1.6262

> <Gold.Chemscore.Rot>
1.6914

> <Gold.Chemscore.Internal.Correction>
   9.000000E+99

> <Gold.Chemscore.Hbonds>
donor molecule, donor type, donor heavy atom, donor atom, acceptor molecule, acceptor atom, score
      L1  H     3    48       P1 10175  0.98
      L1  H     9    35       P1  8028  1.00
      L1  H    12    36       P1  8028  0.43

> <Gold.Chemscore.Hbond.Weighted>
-9.6237

> <Gold.Chemscore.Metal.Weighted>
-0.0000

> <Gold.Chemscore.Lipo.Weighted>
-10.1417

> <Gold.Chemscore.Internal_Hbond.Weighted>
0.0000

> <Gold.Chemscore.DEClash.Weighted>
0.3882

> <Gold.Chemscore.DEInternal.Weighted>
1.6262

> <Gold.Chemscore.Rot.Weighted>
4.3299

> <Gold.Chemscore.Internal.Correction.Weighted>
   9.000000E+99

> <Gold.Protein.RotatedTorsions>
[ 6907 6896 6895 6894 ] final   96.34 input  -60.11 | X-H torsion
[ 7974 7965 7964 7962 ] final -122.20 input  175.53 | X-H torsion
[ 8008 7997 7996 7995 ] final   81.52 input   59.86 | X-H torsion
[ 10167 10162 10161 10158 ] final  -14.67 input  -65.29 | X-H torsion
[ 10718 10713 10712 10709 ] final   15.68 input   66.30 | X-H torsion
[ 10763 10752 10751 10750 ] final  -52.92 input  -60.55 | X-H torsion
[ 11005 11000 10999 10996 ] final   -2.00 input  -57.11 | X-H torsion

> <Gold.Protein.ActiveResidues>
 VAL166  LYS551  ARG553  GLY616  TRP617  ASP618  TYR619  PRO620  LYS621  CYS622 
 ASP623  PHE694  ASN695  SER759  ASP760  ASP761  ALA762  ILE779  LEU786  VAL792 
 PHE793  MET794  SER795  GLU796  ALA797  LYS798  CYS799  TRP800  GLU811  SER814 

> <Gold.Protein.RotatedAtoms>
  152.5436  134.0902  159.8273 H   0  0  0  0  0  0  0  0  0  0  0  0  # atno 6907 bound_to 6896
  151.0992  133.5249  159.2618 H   0  0  0  0  0  0  0  0  0  0  0  0  # atno 6908 bound_to 6896
  151.2010  135.0451  159.8926 H   0  0  0  0  0  0  0  0  0  0  0  0  # atno 6909 bound_to 6896
  145.0320  140.8075  143.4318 H   0  0  0  0  0  0  0  0  0  0  0  0  # atno 7974 bound_to 7965
  155.8982  140.3435  155.6007 H   0  0  0  0  0  0  0  0  0  0  0  0  # atno 8008 bound_to 7997
  155.7531  140.0822  157.2211 H   0  0  0  0  0  0  0  0  0  0  0  0  # atno 8009 bound_to 7997
  154.4041  140.1549  156.2733 H   0  0  0  0  0  0  0  0  0  0  0  0  # atno 8010 bound_to 7997
  140.7205  143.5297  150.9534 H   0  0  0  0  0  0  0  0  0  0  0  0  # atno 10167 bound_to 10162
  157.0571  130.6293  149.5779 H   0  0  0  0  0  0  0  0  0  0  0  0  # atno 10718 bound_to 10713
  154.1506  135.6490  153.4962 H   0  0  0  0  0  0  0  0  0  0  0  0  # atno 10763 bound_to 10752
  153.0139  135.5337  154.6812 H   0  0  0  0  0  0  0  0  0  0  0  0  # atno 10764 bound_to 10752
  154.6099  135.2952  155.0415 H   0  0  0  0  0  0  0  0  0  0  0  0  # atno 10765 bound_to 10752
  140.6536  133.9383  155.8394 H   0  0  0  0  0  0  0  0  0  0  0  0  # atno 11005 bound_to 11000
  145.1758  139.2379  143.5318 LP  0  0  0  0  0  0  0  0  0  0  0  0  # atno 17320 bound_to 7965
  146.3499  140.1520  142.8592 LP  0  0  0  0  0  0  0  0  0  0  0  0  # atno 17321 bound_to 7965
  139.9017  143.6827  152.3130 LP  0  0  0  0  0  0  0  0  0  0  0  0  # atno 17342 bound_to 10162
  139.7179  144.7608  151.1003 LP  0  0  0  0  0  0  0  0  0  0  0  0  # atno 17343 bound_to 10162
  155.9990  130.5065  150.7590 LP  0  0  0  0  0  0  0  0  0  0  0  0  # atno 17370 bound_to 10713
  157.4984  131.0916  151.0343 LP  0  0  0  0  0  0  0  0  0  0  0  0  # atno 17371 bound_to 10713
  141.0518  134.0473  157.3773 LP  0  0  0  0  0  0  0  0  0  0  0  0  # atno 17394 bound_to 11000
  139.9037  135.0173  156.7389 LP  0  0  0  0  0  0  0  0  0  0  0  0  # atno 17395 bound_to 11000

$$$$
