#       Name:                AV-unprocessed.smi:3163
#       Creating user name   scv26
#       Creation time:       Fri Mar 27 17:50:44 2020


#       File generated by GOLD software.
#

@<TRIPOS>MOLECULE
AV-unprocessed.smi:3163
    39    40     1
SMALL
NO_CHARGES


@<TRIPOS>ATOM
      1 ****        -3.2654  -3.7525   2.4872 C.3            1 S1                 0.0000
      2 ****        -2.7253  -2.5144   1.8879 N.4            1 S1                 1.0000
      3 ****        -2.7521  -2.4860   0.4065 C.3            1 S1                 0.0000
      4 ****        -1.3654  -2.0176  -0.0514 C.3            1 S1                 0.0000
      5 ****        -0.7698  -1.3409   1.1837 C.3            1 S1                 0.0000
      6 ****         0.7688  -1.2573   1.1975 C.3            1 S1                 0.0000
      7 ****         1.2901  -0.5047   0.0610 N.am           1 S1                 0.0000
      8 ****         1.2954   0.8321  -0.0399 C.2            1 S1                 0.0000
      9 ****         0.8516   1.5771   0.8331 O.2            1 S1                 0.0000
     10 ****         1.8521   1.2302  -1.1973 N.am           1 S1                 0.0000
     11 ****         2.0462   2.5506  -1.6898 C.ar           1 S1                 0.0000
     12 ****         2.9672   2.7186  -2.7479 C.ar           1 S1                 0.0000
     13 ****         3.1878   4.0040  -3.2829 C.ar           1 S1                 0.0000
     14 ****         2.5132   5.0632  -2.7872 N.pl3          1 S1                 1.0000
     15 ****         1.6144   4.9518  -1.7859 C.ar           1 S1                 0.0000
     16 ****         1.3513   3.6914  -1.2112 C.ar           1 S1                 0.0000
     17 ****        -1.3536  -2.1779   2.3214 C.3            1 S1                 0.0000
     18 ****        -2.6800  -4.6227   2.1873 H              1 S1                 0.0000
     19 ****        -4.2978  -3.9082   2.1723 H              1 S1                 0.0000
     20 ****        -3.2507  -3.6869   3.5756 H              1 S1                 0.0000
     21 ****        -2.9968  -3.4578  -0.0252 H              1 S1                 0.0000
     22 ****        -3.5221  -1.7817   0.0903 H              1 S1                 0.0000
     23 ****        -0.7618  -2.8830  -0.3294 H              1 S1                 0.0000
     24 ****        -1.4122  -1.3540  -0.9156 H              1 S1                 0.0000
     25 ****        -1.1872  -0.3351   1.2583 H              1 S1                 0.0000
     26 ****         1.1150  -0.8079   2.1298 H              1 S1                 0.0000
     27 ****         1.1990  -2.2588   1.1623 H              1 S1                 0.0000
     28 ****         1.6816  -1.0429  -0.6984 H              1 S1                 0.0000
     29 ****         2.2295   0.4958  -1.7783 H              1 S1                 0.0000
     30 ****         3.5067   1.8715  -3.1469 H              1 S1                 0.0000
     31 ****         3.8776   4.2145  -4.0872 H              1 S1                 0.0000
     32 ****         1.1308   5.8677  -1.4791 H              1 S1                 0.0000
     33 ****         0.6152   3.6289  -0.4250 H              1 S1                 0.0000
     34 ****        -1.3546  -1.6475   3.2742 H              1 S1                 0.0000
     35 ****        -0.7719  -3.0930   2.4463 H              1 S1                 0.0000
     36 ****        -3.3140  -1.7518   2.1920 H              1 S1                 0.0000
     37 ****         2.6863   5.9853  -3.1886 H              1 S1                 0.0000
     38 ****         0.4621   1.1910   1.6693 LP             1 S1                 0.0000
     39 ****         0.8805   2.5686   0.7064 LP             1 S1                 0.0000
@<TRIPOS>BOND
    1    1    2 1     
    2    1   18 1     
    3    1   19 1     
    4    1   20 1     
    5    2   17 1     
    6    2    3 1     
    7    2   36 1     
    8    3    4 1     
    9    3   21 1     
   10    3   22 1     
   11    4    5 1     
   12    4   23 1     
   13    4   24 1     
   14    5    6 1     
   15    5   17 1     
   16    5   25 1     
   17    6    7 1     
   18    6   26 1     
   19    6   27 1     
   20    7    8 am    
   21    7   28 1     
   22    8    9 2     
   23    8   10 am    
   24   10   11 1     
   25   10   29 1     
   26   11   16 ar    
   27   11   12 ar    
   28   12   13 ar    
   29   12   30 1     
   30   13   14 ar    
   31   13   31 1     
   32   14   15 ar    
   33   14   37 1     
   34   15   16 ar    
   35   15   32 1     
   36   16   33 1     
   37   17   34 1     
   38   17   35 1     
   39    9   38 1     
   40    9   39 1     
@<TRIPOS>SUBSTRUCTURE
      1 S1             1
@<TRIPOS>SET
LONE_PAIRS      STATIC     ATOMS    <user>   **** ""
2 38 39
DONOR_HYDROGENS      STATIC     ATOMS    <user>   **** ""
4 36 28 29 37
ATOM$BLUE        STATIC     ATOMS    COLORGROUP SYSTEM
2 38 39
ATOM$RED        STATIC     ATOMS    COLORGROUP SYSTEM
4 36 28 29 37
