AV-unprocessed.smi:2985|AV-procd|sdf|11380|dock3
  -GOLD-   2272016303D 1   1.00000     0.00000
 Structure written by MMmdl.
 34 35  0  0  0  0  0  0  0  0  2 V2000
  150.7640  138.1580  154.4927 C   0  0  0  0  0  0  0  0  0  0  0  0
  151.6326  139.2436  154.7648 O   0  0  0  0  0  0  0  0  0  0  0  0
  152.3427  139.0813  155.9818 C   0  0  0  0  0  0  0  0  0  0  0  0
  151.4939  139.5889  157.1563 C   0  0  0  0  0  0  0  0  0  0  0  0
  151.2451  141.0364  157.0795 N   0  0  0  0  0  0  0  0  0  0  0  0
  150.4874  141.7554  156.2052 C   0  0  0  0  0  0  0  0  0  0  0  0
  149.5620  141.1223  154.8482 S   0  0  0  0  0  0  0  0  0  0  0  0
  147.8563  141.6225  155.2016 C   0  0  0  0  0  0  0  0  0  0  0  0
  146.8512  140.9736  154.2547 C   0  0  0  0  0  0  0  0  0  0  0  0
  145.5625  141.2719  154.4383 N   0  0  0  0  0  0  0  0  0  0  0  0
  147.2316  140.2101  153.3703 O   0  0  0  0  0  0  0  0  0  0  0  0
  150.5655  143.0652  156.5650 N   0  3  0  0  0  0  0  0  0  0  0  0
  151.3855  143.1902  157.6876 C   0  0  0  0  0  0  0  0  0  0  0  0
  151.7658  144.3130  158.4164 C   0  0  0  0  0  0  0  0  0  0  0  0
  152.6138  144.0929  159.5214 C   0  0  0  0  0  0  0  0  0  0  0  0
  153.0501  142.7970  159.8658 C   0  0  0  0  0  0  0  0  0  0  0  0
  152.6599  141.6662  159.1189 C   0  0  0  0  0  0  0  0  0  0  0  0
  151.8233  141.8914  158.0258 C   0  0  0  0  0  0  0  0  0  0  0  0
  150.2446  138.3319  153.5506 H   0  0  0  0  0  0  0  0  0  0  0  0
  150.0128  138.0483  155.2758 H   0  0  0  0  0  0  0  0  0  0  0  0
  151.3174  137.2222  154.4042 H   0  0  0  0  0  0  0  0  0  0  0  0
  152.5875  138.0291  156.1335 H   0  0  0  0  0  0  0  0  0  0  0  0
  153.2840  139.6318  155.9400 H   0  0  0  0  0  0  0  0  0  0  0  0
  150.5415  139.0617  157.2099 H   0  0  0  0  0  0  0  0  0  0  0  0
  152.0065  139.3875  158.0965 H   0  0  0  0  0  0  0  0  0  0  0  0
  147.6164  141.3520  156.2304 H   0  0  0  0  0  0  0  0  0  0  0  0
  147.7742  142.7073  155.1324 H   0  0  0  0  0  0  0  0  0  0  0  0
  144.8585  140.8652  153.8396 H   0  0  0  0  0  0  0  0  0  0  0  0
  145.2961  141.9029  155.1803 H   0  0  0  0  0  0  0  0  0  0  0  0
  151.4302  145.3065  158.1568 H   0  0  0  0  0  0  0  0  0  0  0  0
  152.9341  144.9343  160.1188 H   0  0  0  0  0  0  0  0  0  0  0  0
  153.6962  142.6665  160.7219 H   0  0  0  0  0  0  0  0  0  0  0  0
  152.9959  140.6783  159.3966 H   0  0  0  0  0  0  0  0  0  0  0  0
  150.0909  143.8147  156.0782 H   0  0  0  0  0  0  0  0  0  0  0  0
  1  2  1  0  0  0  0
  1 19  1  0  0  0  0
  1 20  1  0  0  0  0
  1 21  1  0  0  0  0
  2  3  1  0  0  0  0
  3  4  1  0  0  0  0
  3 22  1  0  0  0  0
  3 23  1  0  0  0  0
  4  5  1  0  0  0  0
  4 24  1  0  0  0  0
  4 25  1  0  0  0  0
  5 18  1  0  0  0  0
  5  6  1  0  0  0  0
  6  7  1  0  0  0  0
  6 12  2  0  0  0  0
  7  8  1  0  0  0  0
  8  9  1  0  0  0  0
  8 26  1  0  0  0  0
  8 27  1  0  0  0  0
  9 10  1  0  0  0  0
  9 11  2  0  0  0  0
 10 28  1  0  0  0  0
 10 29  1  0  0  0  0
 12 13  1  0  0  0  0
 12 34  1  0  0  0  0
 13 18  2  0  0  0  0
 13 14  1  0  0  0  0
 14 15  2  0  0  0  0
 14 30  1  0  0  0  0
 15 16  1  0  0  0  0
 15 31  1  0  0  0  0
 16 17  2  0  0  0  0
 16 32  1  0  0  0  0
 17 18  1  0  0  0  0
 17 33  1  0  0  0  0
M  CHG  1  12   1
M  END
> <s_m_source_file>
AV-unprocessed.smi

> <i_m_source_file_index>
2985

> <i_lp_mmshare_version>
43012

> <i_f3d_flags>
0

> <s_epik_input>
W2NIXTFbY0hdW2NIXVtjSF1jKGMxMiluKFtDSDJdW0NIMl1PW0NIM10pYyhuMilTW0NIMl1DKD1PKVtOSDJd

> <s_epik_cmdline>
J2VwaWtfcHl0aG9uJywgJy1waCcsICc3LjAnLCAnLXRuJywgJzgnLCAnLW1hJywgJzIwMCcsICctbWV0YWxfYmluZGluZycsICctaW1hZScsICc8aW5maWxlLm1hZT4nLCAnLW9tYWUnLCAnPG91dGZpbGUubWFlPic=

> <r_epik_Ionization_Penalty>
1.83623

> <r_epik_Ionization_Penalty_Charging>
1.83623

> <r_epik_Ionization_Penalty_Neutral>
3.318e-07

> <r_epik_State_Penalty>
1.95261

> <r_epik_Charging_Adjusted_Penalty>
3.78884

> <i_epik_Tot_Q>
1

> <i_epik_Tot_abs_Q>
1

> <r_epik_Metal_State_Penalty>
1.97924

> <b_epik_Metal_Only>
0

> <s_lp_Force_Field>
OPLS_2005

> <r_lp_Energy>
8.01345

> <b_lp_Chiralities_Consistent>
1

> <s_lp_Variant>
AV-unprocessed.smi:2985-2

> <Gold.Version>
5.8.1

> <Gold.Id.Protein>
6NUR|6NUR_protein|mol2

> <Gold.PLP.Fitness>
53.5117

> <Gold.PLP.PLP>
-41.9675

> <Gold.PLP.part.hbond>
-2.8758

> <Gold.PLP.part.metal>
0.0000

> <Gold.PLP.part.buried>
-4.9136

> <Gold.PLP.part.nonpolar>
-35.3626

> <Gold.PLP.part.repulsive>
0.3276

> <Gold.PLP.ligand.clash>
0.0000

> <Gold.PLP.ligand.torsion>
0.2386

> <Gold.PLP.Chemscore.Hbond>
4.0000

> <Gold.PLP.Chemscore.CHOScore>
0.0000

> <Gold.PLP.Chemscore.Metal>
0.0000

> <Gold.Chemscore.Hbonds>
donor molecule, donor type, donor heavy atom, donor atom, acceptor molecule, acceptor atom, score
      L1  H    10    28       P1 10175  1.00
      L1  H    12    34       P1  8028  2.00
      P1  H  7989  7998       L1     2  0.94

> <Gold.PLP.Chemscore.Internal.Correction>
0.0213

> <Gold.Rescore>
     Score         DG    S(hbond)    S(metal)    S(lipo)     H(rot)  DE(clash)    DE(int)     intcor
     18.14     -19.72       2.88        0.00      99.65       2.75       0.09       1.49       ----

> <Gold.Chemscore.Fitness>
18.1429

> <Gold.Chemscore.DG>
-19.7181

> <Gold.Chemscore.ZeroCoef>
-5.4800

> <Gold.Chemscore.Hbond>
2.8827

> <Gold.Chemscore.Metal>
0.0000

> <Gold.Chemscore.Lipo>
99.6530

> <Gold.Chemscore.Internal_Hbond>
0.0000

> <Gold.Chemscore.DEClash>
0.0858

> <Gold.Chemscore.DEInternal>
1.4894

> <Gold.Chemscore.Rot>
2.7537

> <Gold.Chemscore.Internal.Correction>
   9.000000E+99

> <Gold.Chemscore.Hbonds>
donor molecule, donor type, donor heavy atom, donor atom, acceptor molecule, acceptor atom, score
      L1  H    10    28       P1 10175  0.93
      L1  H    12    34       P1  8028  0.94
      P1  H  7989  7998       L1     2  0.86

> <Gold.Chemscore.Hbond.Weighted>
-9.6283

> <Gold.Chemscore.Metal.Weighted>
-0.0000

> <Gold.Chemscore.Lipo.Weighted>
-11.6594

> <Gold.Chemscore.Internal_Hbond.Weighted>
0.0000

> <Gold.Chemscore.DEClash.Weighted>
0.0858

> <Gold.Chemscore.DEInternal.Weighted>
1.4894

> <Gold.Chemscore.Rot.Weighted>
7.0496

> <Gold.Chemscore.Internal.Correction.Weighted>
   9.000000E+99

> <Gold.Protein.RotatedTorsions>
[ 6907 6896 6895 6894 ] final  -25.31 input  -60.11 | X-H torsion
[ 7974 7965 7964 7962 ] final   67.08 input  175.53 | X-H torsion
[ 8008 7997 7996 7995 ] final   96.86 input   59.86 | X-H torsion
[ 10167 10162 10161 10158 ] final  -13.69 input  -65.29 | X-H torsion
[ 10718 10713 10712 10709 ] final  -59.52 input   66.30 | X-H torsion
[ 10763 10752 10751 10750 ] final   72.06 input  -60.55 | X-H torsion
[ 11005 11000 10999 10996 ] final   16.06 input  -57.11 | X-H torsion

> <Gold.Protein.ActiveResidues>
 VAL166  LYS551  ARG553  GLY616  TRP617  ASP618  TYR619  PRO620  LYS621  CYS622 
 ASP623  PHE694  ASN695  SER759  ASP760  ASP761  ALA762  ILE779  LEU786  VAL792 
 PHE793  MET794  SER795  GLU796  ALA797  LYS798  CYS799  TRP800  GLU811  SER814 

> <Gold.Protein.RotatedAtoms>
  151.1770  135.0343  159.8775 H   0  0  0  0  0  0  0  0  0  0  0  0  # atno 6907 bound_to 6896
  152.5446  134.1106  159.8367 H   0  0  0  0  0  0  0  0  0  0  0  0  # atno 6908 bound_to 6896
  151.1219  133.5051  159.2634 H   0  0  0  0  0  0  0  0  0  0  0  0  # atno 6909 bound_to 6896
  145.8190  139.3074  143.1055 H   0  0  0  0  0  0  0  0  0  0  0  0  # atno 7974 bound_to 7965
  156.0841  140.3266  155.7731 H   0  0  0  0  0  0  0  0  0  0  0  0  # atno 8008 bound_to 7997
  155.5105  140.0576  157.2941 H   0  0  0  0  0  0  0  0  0  0  0  0  # atno 8009 bound_to 7997
  154.4599  140.1961  156.0291 H   0  0  0  0  0  0  0  0  0  0  0  0  # atno 8010 bound_to 7997
  140.7187  143.5400  150.9421 H   0  0  0  0  0  0  0  0  0  0  0  0  # atno 10167 bound_to 10162
  156.1055  130.4181  150.0727 H   0  0  0  0  0  0  0  0  0  0  0  0  # atno 10718 bound_to 10713
  153.0436  135.5114  154.7687 H   0  0  0  0  0  0  0  0  0  0  0  0  # atno 10763 bound_to 10752
  154.6605  135.2938  154.9875 H   0  0  0  0  0  0  0  0  0  0  0  0  # atno 10764 bound_to 10752
  154.0728  135.6675  153.4879 H   0  0  0  0  0  0  0  0  0  0  0  0  # atno 10765 bound_to 10752
  140.4514  134.1221  155.7703 H   0  0  0  0  0  0  0  0  0  0  0  0  # atno 11005 bound_to 11000
  145.9696  140.8771  143.0169 LP  0  0  0  0  0  0  0  0  0  0  0  0  # atno 17320 bound_to 7965
  144.6749  140.1927  143.7395 LP  0  0  0  0  0  0  0  0  0  0  0  0  # atno 17321 bound_to 7965
  139.9122  143.6706  152.3113 LP  0  0  0  0  0  0  0  0  0  0  0  0  # atno 17342 bound_to 10162
  139.7094  144.7623  151.1138 LP  0  0  0  0  0  0  0  0  0  0  0  0  # atno 17343 bound_to 10162
  156.8704  130.9522  151.3610 LP  0  0  0  0  0  0  0  0  0  0  0  0  # atno 17370 bound_to 10713
  157.6232  130.8671  149.9144 LP  0  0  0  0  0  0  0  0  0  0  0  0  # atno 17371 bound_to 10713
  141.1662  133.8697  157.1706 LP  0  0  0  0  0  0  0  0  0  0  0  0  # atno 17394 bound_to 11000
  140.0004  135.0030  157.0178 LP  0  0  0  0  0  0  0  0  0  0  0  0  # atno 17395 bound_to 11000

$$$$
