AV-unprocessed.smi:972|AV-procd|sdf|4298|dock3
  -GOLD-   22720 2203D 1   1.00000     0.00000
 Structure written by MMmdl.
 50 52  0  0  0  0  0  0  0  0  1 V2000
  147.9029  128.2489  151.9436 C   0  0  0  0  0  0  0  0  0  0  0  0
  146.9057  129.0239  152.8371 C   0  0  0  0  0  0  0  0  0  0  0  0
  145.5908  129.1165  152.0276 C   0  0  0  0  0  0  0  0  0  0  0  0
  146.6597  128.2347  154.1361 C   0  0  0  0  0  0  0  0  0  0  0  0
  147.4412  130.4244  153.1823 C   0  0  0  0  0  0  0  0  0  0  0  0
  146.7948  131.4725  152.6550 N   0  0  0  0  0  0  0  0  0  0  0  0
  147.3304  132.6968  152.8412 C   0  0  0  0  0  0  0  0  0  0  0  0
  148.5480  132.8836  153.5253 C   0  0  0  0  0  0  0  0  0  0  0  0
  149.0456  134.2042  153.6905 N   0  0  0  0  0  0  0  0  0  0  0  0
  149.8853  134.6732  154.6291 C   0  0  0  0  0  0  0  0  0  0  0  0
  150.3926  134.0042  155.5288 O   0  0  0  0  0  0  0  0  0  0  0  0
  150.1202  135.9809  154.4509 N   0  0  0  0  0  0  0  0  0  0  0  0
  150.9964  136.8130  155.2711 C   0  0  0  0  0  0  0  0  0  0  0  0
  150.3787  137.0180  156.6635 C   0  0  0  0  0  0  0  0  0  0  0  0
  151.1988  138.0251  157.4891 C   0  0  0  0  0  0  0  0  0  0  0  0
  151.2818  139.3059  156.7864 N   0  0  0  0  0  0  0  0  0  0  0  0
  152.0227  140.2473  157.6097 C   0  0  0  0  0  0  0  0  0  0  0  0
  151.3324  140.7978  158.8368 C   0  0  0  0  0  0  0  0  0  0  0  0
  151.5461  141.6818  157.6317 C   0  0  0  0  0  0  0  0  0  0  0  0
  151.9882  139.1317  155.5171 C   0  0  0  0  0  0  0  0  0  0  0  0
  151.2022  138.1795  154.5993 C   0  0  0  0  0  0  0  0  0  0  0  0
  149.1644  131.7072  154.0146 C   0  0  0  0  0  0  0  0  0  0  0  0
  148.6157  130.4885  153.8230 N   0  0  0  0  0  0  0  0  0  0  0  0
  147.5052  127.2745  151.6577 H   0  0  0  0  0  0  0  0  0  0  0  0
  148.8497  128.0641  152.4524 H   0  0  0  0  0  0  0  0  0  0  0  0
  148.1216  128.7953  151.0254 H   0  0  0  0  0  0  0  0  0  0  0  0
  145.7276  129.6954  151.1133 H   0  0  0  0  0  0  0  0  0  0  0  0
  144.7898  129.5865  152.5995 H   0  0  0  0  0  0  0  0  0  0  0  0
  145.2315  128.1283  151.7383 H   0  0  0  0  0  0  0  0  0  0  0  0
  146.2762  127.2354  153.9286 H   0  0  0  0  0  0  0  0  0  0  0  0
  145.9344  128.7398  154.7751 H   0  0  0  0  0  0  0  0  0  0  0  0
  147.5802  128.1215  154.7101 H   0  0  0  0  0  0  0  0  0  0  0  0
  146.7843  133.5331  152.4300 H   0  0  0  0  0  0  0  0  0  0  0  0
  148.7612  134.8640  152.9813 H   0  0  0  0  0  0  0  0  0  0  0  0
  149.6578  136.4407  153.6804 H   0  0  0  0  0  0  0  0  0  0  0  0
  151.9738  136.3430  155.3949 H   0  0  0  0  0  0  0  0  0  0  0  0
  149.3533  137.3793  156.5690 H   0  0  0  0  0  0  0  0  0  0  0  0
  150.3237  136.0654  157.1915 H   0  0  0  0  0  0  0  0  0  0  0  0
  150.7224  138.1722  158.4590 H   0  0  0  0  0  0  0  0  0  0  0  0
  152.1995  137.6334  157.6798 H   0  0  0  0  0  0  0  0  0  0  0  0
  153.0997  140.1170  157.7037 H   0  0  0  0  0  0  0  0  0  0  0  0
  150.3156  140.4681  159.0424 H   0  0  0  0  0  0  0  0  0  0  0  0
  151.9470  140.9868  159.7146 H   0  0  0  0  0  0  0  0  0  0  0  0
  152.3034  142.4596  157.7053 H   0  0  0  0  0  0  0  0  0  0  0  0
  150.6711  141.9385  157.0375 H   0  0  0  0  0  0  0  0  0  0  0  0
  152.0991  140.0994  155.0262 H   0  0  0  0  0  0  0  0  0  0  0  0
  152.9933  138.7452  155.6939 H   0  0  0  0  0  0  0  0  0  0  0  0
  151.7330  138.0555  153.6548 H   0  0  0  0  0  0  0  0  0  0  0  0
  150.2372  138.6274  154.3558 H   0  0  0  0  0  0  0  0  0  0  0  0
  150.0886  131.7158  154.5704 H   0  0  0  0  0  0  0  0  0  0  0  0
  1  2  1  0  0  0  0
  1 24  1  0  0  0  0
  1 25  1  0  0  0  0
  1 26  1  0  0  0  0
  2  3  1  0  0  0  0
  2  4  1  0  0  0  0
  2  5  1  0  0  0  0
  3 27  1  0  0  0  0
  3 28  1  0  0  0  0
  3 29  1  0  0  0  0
  4 30  1  0  0  0  0
  4 31  1  0  0  0  0
  4 32  1  0  0  0  0
  5 23  1  0  0  0  0
  5  6  2  0  0  0  0
  6  7  1  0  0  0  0
  7  8  2  0  0  0  0
  7 33  1  0  0  0  0
  8  9  1  0  0  0  0
  8 22  1  0  0  0  0
  9 10  1  0  0  0  0
  9 34  1  0  0  0  0
 10 11  2  0  0  0  0
 10 12  1  0  0  0  0
 12 13  1  0  0  0  0
 12 35  1  0  0  0  0
 13 21  1  0  0  0  0
 13 14  1  0  0  0  0
 13 36  1  0  0  0  0
 14 15  1  0  0  0  0
 14 37  1  0  0  0  0
 14 38  1  0  0  0  0
 15 16  1  0  0  0  0
 15 39  1  0  0  0  0
 15 40  1  0  0  0  0
 16 17  1  0  0  0  0
 16 20  1  0  0  0  0
 17 19  1  0  0  0  0
 17 18  1  0  0  0  0
 17 41  1  0  0  0  0
 18 19  1  0  0  0  0
 18 42  1  0  0  0  0
 18 43  1  0  0  0  0
 19 44  1  0  0  0  0
 19 45  1  0  0  0  0
 20 21  1  0  0  0  0
 20 46  1  0  0  0  0
 20 47  1  0  0  0  0
 21 48  1  0  0  0  0
 21 49  1  0  0  0  0
 22 23  2  0  0  0  0
 22 50  1  0  0  0  0
M  END
> <s_m_source_file>
AV-unprocessed.smi

> <i_m_source_file_index>
972

> <i_lp_mmshare_version>
43012

> <i_f3d_flags>
0

> <s_epik_input>
W0NIM11DKFtDSDNdKShbQ0gzXSljMW5bY0hdYyhbY0hdbjEpW05IXUMoPU8pW05IXVtDSF0yW0NIMl1bQ0gyXU4oW0NIMl1bQ0gyXTIpW0NIXTNbQ0gyXVtDSDJdMw==

> <s_epik_cmdline>
J2VwaWtfcHl0aG9uJywgJy1waCcsICc3LjAnLCAnLXRuJywgJzgnLCAnLW1hJywgJzIwMCcsICctbWV0YWxfYmluZGluZycsICctaW1hZScsICc8aW5maWxlLm1hZT4nLCAnLW9tYWUnLCAnPG91dGZpbGUubWFlPic=

> <r_lp_tautomer_probability>
1

> <r_epik_Ionization_Penalty>
0.990889

> <r_epik_Ionization_Penalty_Charging>
0

> <r_epik_Ionization_Penalty_Neutral>
0.990889

> <r_epik_State_Penalty>
1.03856

> <r_epik_Charging_Adjusted_Penalty>
1.03856

> <i_epik_Tot_Q>
0

> <i_epik_Tot_abs_Q>
0

> <r_epik_Metal_State_Penalty>
1.03856

> <b_epik_Metal_Only>
0

> <s_lp_Force_Field>
OPLS_2005

> <r_lp_Energy>
19.7386

> <b_lp_Chiralities_Consistent>
1

> <s_lp_Variant>
AV-unprocessed.smi:972-3

> <Gold.Version>
5.8.1

> <Gold.Id.Protein>
6NUR|6NUR_protein|mol2

> <Gold.PLP.Fitness>
43.5184

> <Gold.PLP.PLP>
-38.3403

> <Gold.PLP.part.hbond>
-2.5837

> <Gold.PLP.part.metal>
0.0000

> <Gold.PLP.part.buried>
-4.4029

> <Gold.PLP.part.nonpolar>
-31.5464

> <Gold.PLP.part.repulsive>
0.3221

> <Gold.PLP.ligand.clash>
0.0000

> <Gold.PLP.ligand.torsion>
0.9171

> <Gold.PLP.Chemscore.Hbond>
1.8960

> <Gold.PLP.Chemscore.CHOScore>
0.0000

> <Gold.PLP.Chemscore.Metal>
0.0000

> <Gold.Chemscore.Hbonds>
donor molecule, donor type, donor heavy atom, donor atom, acceptor molecule, acceptor atom, score
      L1  H     9    34       P1  7948  0.95
      L1  H    12    35       P1  7948  0.90

> <Gold.PLP.Chemscore.Internal.Correction>
1.3244

> <Gold.Rescore>
     Score         DG    S(hbond)    S(metal)    S(lipo)     H(rot)  DE(clash)    DE(int)     intcor
     14.63     -16.48       1.18        0.00      88.61       1.30       0.06       1.79       ----

> <Gold.Chemscore.Fitness>
14.6295

> <Gold.Chemscore.DG>
-16.4770

> <Gold.Chemscore.ZeroCoef>
-5.4800

> <Gold.Chemscore.Hbond>
1.1811

> <Gold.Chemscore.Metal>
0.0000

> <Gold.Chemscore.Lipo>
88.6108

> <Gold.Chemscore.Internal_Hbond>
0.0000

> <Gold.Chemscore.DEClash>
0.0590

> <Gold.Chemscore.DEInternal>
1.7885

> <Gold.Chemscore.Rot>
1.2951

> <Gold.Chemscore.Internal.Correction>
   9.000000E+99

> <Gold.Chemscore.Hbonds>
donor molecule, donor type, donor heavy atom, donor atom, acceptor molecule, acceptor atom, score
      L1  H     9    34       P1  7948  0.21
      L1  H    12    35       P1  7948  0.48

> <Gold.Chemscore.Hbond.Weighted>
-3.9449

> <Gold.Chemscore.Metal.Weighted>
-0.0000

> <Gold.Chemscore.Lipo.Weighted>
-10.3675

> <Gold.Chemscore.Internal_Hbond.Weighted>
0.0000

> <Gold.Chemscore.DEClash.Weighted>
0.0590

> <Gold.Chemscore.DEInternal.Weighted>
1.7885

> <Gold.Chemscore.Rot.Weighted>
3.3154

> <Gold.Chemscore.Internal.Correction.Weighted>
   9.000000E+99

> <Gold.Protein.RotatedTorsions>
[ 6907 6896 6895 6894 ] final   -2.66 input  -60.11 | X-H torsion
[ 7974 7965 7964 7962 ] final -114.83 input  175.53 | X-H torsion
[ 8008 7997 7996 7995 ] final   99.21 input   59.86 | X-H torsion
[ 10167 10162 10161 10158 ] final   -7.42 input  -65.29 | X-H torsion
[ 10718 10713 10712 10709 ] final  112.21 input   66.30 | X-H torsion
[ 10763 10752 10751 10750 ] final   33.53 input  -60.55 | X-H torsion
[ 11005 11000 10999 10996 ] final  -45.25 input  -57.11 | X-H torsion

> <Gold.Protein.ActiveResidues>
 VAL166  LYS551  ARG553  GLY616  TRP617  ASP618  TYR619  PRO620  LYS621  CYS622 
 ASP623  PHE694  ASN695  SER759  ASP760  ASP761  ALA762  ILE779  LEU786  VAL792 
 PHE793  MET794  SER795  GLU796  ALA797  LYS798  CYS799  TRP800  GLU811  SER814 

> <Gold.Protein.RotatedAtoms>
  151.5264  135.1068  159.9891 H   0  0  0  0  0  0  0  0  0  0  0  0  # atno 6907 bound_to 6896
  152.4598  133.7794  159.6853 H   0  0  0  0  0  0  0  0  0  0  0  0  # atno 6908 bound_to 6896
  150.8555  133.7656  159.3035 H   0  0  0  0  0  0  0  0  0  0  0  0  # atno 6909 bound_to 6896
  145.1156  140.8638  143.3844 H   0  0  0  0  0  0  0  0  0  0  0  0  # atno 7974 bound_to 7965
  156.1082  140.3232  155.8035 H   0  0  0  0  0  0  0  0  0  0  0  0  # atno 8008 bound_to 7997
  155.4719  140.0547  157.2995 H   0  0  0  0  0  0  0  0  0  0  0  0  # atno 8009 bound_to 7997
  154.4742  140.2025  155.9934 H   0  0  0  0  0  0  0  0  0  0  0  0  # atno 8010 bound_to 7997
  140.7028  143.6083  150.8729 H   0  0  0  0  0  0  0  0  0  0  0  0  # atno 10167 bound_to 10162
  157.6404  131.0964  150.6862 H   0  0  0  0  0  0  0  0  0  0  0  0  # atno 10718 bound_to 10713
  153.0207  135.6384  154.1526 H   0  0  0  0  0  0  0  0  0  0  0  0  # atno 10763 bound_to 10752
  154.1260  135.2843  155.3198 H   0  0  0  0  0  0  0  0  0  0  0  0  # atno 10764 bound_to 10752
  154.6229  135.5519  153.7657 H   0  0  0  0  0  0  0  0  0  0  0  0  # atno 10765 bound_to 10752
  141.0503  133.6745  156.2987 H   0  0  0  0  0  0  0  0  0  0  0  0  # atno 11005 bound_to 11000
  145.0798  139.2968  143.5789 LP  0  0  0  0  0  0  0  0  0  0  0  0  # atno 17320 bound_to 7965
  146.3524  140.0301  142.8651 LP  0  0  0  0  0  0  0  0  0  0  0  0  # atno 17321 bound_to 7965
  139.9806  143.5955  152.2944 LP  0  0  0  0  0  0  0  0  0  0  0  0  # atno 17342 bound_to 10162
  139.6575  144.7662  151.2027 LP  0  0  0  0  0  0  0  0  0  0  0  0  # atno 17343 bound_to 10162
  156.7187  130.4674  149.5528 LP  0  0  0  0  0  0  0  0  0  0  0  0  # atno 17370 bound_to 10713
  156.1680  130.6418  151.0802 LP  0  0  0  0  0  0  0  0  0  0  0  0  # atno 17371 bound_to 10713
  140.6067  134.5500  157.5527 LP  0  0  0  0  0  0  0  0  0  0  0  0  # atno 17394 bound_to 11000
  139.9345  134.7901  156.0839 LP  0  0  0  0  0  0  0  0  0  0  0  0  # atno 17395 bound_to 11000

$$$$
