#       Name:                AV-unprocessed.smi:1413
#       Creating user name   scv26
#       Creation time:       Fri Mar 27 05:39:10 2020


#       File generated by GOLD software.
#

@<TRIPOS>MOLECULE
AV-unprocessed.smi:1413
    61    63     1
SMALL
NO_CHARGES


@<TRIPOS>ATOM
      1 ****        -7.2209  -0.6615   1.2785 C.3            1 S1                 0.0000
      2 ****        -6.3269  -0.6936   0.0347 C.3            1 S1                 0.0000
      3 ****        -4.8409  -0.4895   0.3849 C.3            1 S1                 0.0000
      4 ****        -4.0361  -0.4140  -0.8313 N.3            1 S1                 0.0000
      5 ****        -2.6393  -0.5127  -0.6479 C.ar           1 S1                 0.0000
      6 ****        -2.0916  -1.5891   0.0888 C.ar           1 S1                 0.0000
      7 ****        -0.6970  -1.6611   0.2653 C.ar           1 S1                 0.0000
      8 ****         0.1221  -0.6597  -0.2905 C.ar           1 S1                 0.0000
      9 ****         1.5266  -0.7698  -0.1009 N.am           1 S1                 0.0000
     10 ****         2.4737   0.1723  -0.2493 C.2            1 S1                 0.0000
     11 ****         2.2749   1.3376  -0.5911 O.2            1 S1                 0.0000
     12 ****         3.6876  -0.3172   0.0397 N.am           1 S1                 0.0000
     13 ****         4.9371   0.4389   0.0052 C.3            1 S1                 0.0000
     14 ****         5.5380   0.3695  -1.4093 C.3            1 S1                 0.0000
     15 ****         5.8939  -0.1150   1.0790 C.3            1 S1                 0.0000
     16 ****         7.2200   0.6400   1.2002 C.3            1 S1                 0.0000
     17 ****         7.6024   0.3718   2.6370 C.3            1 S1                 0.0000
     18 ****         6.2469   0.4475   3.3294 C.3            1 S1                 0.0000
     19 ****         5.2983  -0.0174   2.3734 O.3            1 S1                 0.0000
     20 ****        -0.5117   0.3680  -1.0287 C.ar           1 S1                 0.0000
     21 ****        -1.8486   0.4394  -1.2012 N.ar           1 S1                 0.0000
     22 ****        -4.5335   0.5714  -1.7895 C.3            1 S1                 0.0000
     23 ****        -6.0292   0.3399  -2.0759 C.3            1 S1                 0.0000
     24 ****        -6.6165   1.4292  -2.9796 C.3            1 S1                 0.0000
     25 ****        -6.7481   0.3446  -0.8457 O.3            1 S1                 0.0000
     26 ****        -6.9428  -1.4472   1.9817 H              1 S1                 0.0000
     27 ****        -8.2670  -0.8108   1.0102 H              1 S1                 0.0000
     28 ****        -7.1428   0.2946   1.7965 H              1 S1                 0.0000
     29 ****        -6.4578  -1.6578  -0.4598 H              1 S1                 0.0000
     30 ****        -4.7110   0.4364   0.9469 H              1 S1                 0.0000
     31 ****        -4.5154  -1.3010   1.0339 H              1 S1                 0.0000
     32 ****        -2.7183  -2.3627   0.5063 H              1 S1                 0.0000
     33 ****        -0.2642  -2.4783   0.8240 H              1 S1                 0.0000
     34 ****         1.8453  -1.6633   0.2440 H              1 S1                 0.0000
     35 ****         3.7538  -1.2842   0.3212 H              1 S1                 0.0000
     36 ****         4.7313   1.4840   0.2443 H              1 S1                 0.0000
     37 ****         6.4535   0.9563  -1.4826 H              1 S1                 0.0000
     38 ****         4.8431   0.7628  -2.1521 H              1 S1                 0.0000
     39 ****         5.7773  -0.6571  -1.6885 H              1 S1                 0.0000
     40 ****         6.1013  -1.1704   0.8930 H              1 S1                 0.0000
     41 ****         7.9718   0.2972   0.4885 H              1 S1                 0.0000
     42 ****         7.0706   1.7105   1.0509 H              1 S1                 0.0000
     43 ****         8.0217  -0.6306   2.7340 H              1 S1                 0.0000
     44 ****         8.3236   1.0877   3.0322 H              1 S1                 0.0000
     45 ****         6.2128  -0.1404   4.2468 H              1 S1                 0.0000
     46 ****         6.0059   1.4814   3.5799 H              1 S1                 0.0000
     47 ****         0.0436   1.1524  -1.5175 H              1 S1                 0.0000
     48 ****        -4.3782   1.5734  -1.3867 H              1 S1                 0.0000
     49 ****        -3.9728   0.5038  -2.7227 H              1 S1                 0.0000
     50 ****        -6.1641  -0.6266  -2.5652 H              1 S1                 0.0000
     51 ****        -6.1034   1.4604  -3.9411 H              1 S1                 0.0000
     52 ****        -6.5263   2.4137  -2.5197 H              1 S1                 0.0000
     53 ****        -7.6740   1.2474  -3.1726 H              1 S1                 0.0000
     54 ****        -4.1888  -1.2778  -1.3115 LP             1 S1                 0.0000
     55 ****         1.3449   1.6503  -0.7841 LP             1 S1                 0.0000
     56 ****         3.0434   1.9718  -0.6759 LP             1 S1                 0.0000
     57 ****         4.9669  -0.9190   2.6512 LP             1 S1                 0.0000
     58 ****         4.5308   0.6224   2.3344 LP             1 S1                 0.0000
     59 ****        -2.2510   1.1859  -1.7310 LP             1 S1                 0.0000
     60 ****        -6.6060   1.2255  -0.3943 LP             1 S1                 0.0000
     61 ****        -7.7211   0.2238  -1.0421 LP             1 S1                 0.0000
@<TRIPOS>BOND
    1    1    2 1     
    2    1   26 1     
    3    1   27 1     
    4    1   28 1     
    5    2   25 1     
    6    2    3 1     
    7    2   29 1     
    8    3    4 1     
    9    3   30 1     
   10    3   31 1     
   11    4    5 1     
   12    4   22 1     
   13    5   21 ar    
   14    5    6 ar    
   15    6    7 ar    
   16    6   32 1     
   17    7    8 ar    
   18    7   33 1     
   19    8    9 1     
   20    8   20 ar    
   21    9   10 am    
   22    9   34 1     
   23   10   11 2     
   24   10   12 am    
   25   12   13 1     
   26   12   35 1     
   27   13   14 1     
   28   13   15 1     
   29   13   36 1     
   30   14   37 1     
   31   14   38 1     
   32   14   39 1     
   33   15   19 1     
   34   15   16 1     
   35   15   40 1     
   36   16   17 1     
   37   16   41 1     
   38   16   42 1     
   39   17   18 1     
   40   17   43 1     
   41   17   44 1     
   42   18   19 1     
   43   18   45 1     
   44   18   46 1     
   45   20   21 ar    
   46   20   47 1     
   47   22   23 1     
   48   22   48 1     
   49   22   49 1     
   50   23   24 1     
   51   23   25 1     
   52   23   50 1     
   53   24   51 1     
   54   24   52 1     
   55   24   53 1     
   56    4   54 1     
   57   11   55 1     
   58   11   56 1     
   59   19   57 1     
   60   19   58 1     
   61   21   59 1     
   62   25   60 1     
   63   25   61 1     
@<TRIPOS>SUBSTRUCTURE
      1 S1             1
@<TRIPOS>SET
LONE_PAIRS      STATIC     ATOMS    <user>   **** ""
8 54 55 56 57 58 59 60 61
DONOR_HYDROGENS      STATIC     ATOMS    <user>   **** ""
2 34 35
ATOM$BLUE        STATIC     ATOMS    COLORGROUP SYSTEM
8 54 55 56 57 58 59 60 61
ATOM$RED        STATIC     ATOMS    COLORGROUP SYSTEM
2 34 35
