AV-unprocessed.smi:729|AV-procd|sdf|3521|dock2
  -GOLD-   22720 0513D 1   1.00000     0.00000
 Structure written by MMmdl.
 21 21  0  0  0  0  0  0  0  0  2 V2000
  152.9045  139.9611  159.5741 C   0  0  0  0  0  0  0  0  0  0  0  0
  152.3570  141.2445  158.9635 C   0  0  0  0  0  0  0  0  0  0  0  0
  152.6155  142.4303  159.5623 C   0  0  0  0  0  0  0  0  0  0  0  0
  152.0983  143.6899  159.0000 C   0  0  0  0  0  0  0  0  0  0  0  0
  152.3231  144.7795  159.5235 O   0  0  0  0  0  0  0  0  0  0  0  0
  151.2986  143.5635  157.7737 C   0  0  0  0  0  0  0  0  0  0  0  0
  151.0956  142.3404  157.2473 C   0  0  0  0  0  0  0  0  0  0  0  0
  150.3740  142.1749  156.1286 O   0  0  0  0  0  0  0  0  0  0  0  0
  151.5933  141.1352  157.7804 N   0  0  0  0  0  0  0  0  0  0  0  0
  151.2991  139.8320  157.1608 C   0  0  0  0  0  0  0  0  0  0  0  0
  151.9499  139.6037  155.7926 C   0  0  0  0  0  0  0  0  0  0  0  0
  151.1887  139.5594  154.8014 O   0  0  0  0  0  0  0  0  0  0  0  0
  153.1926  139.4674  155.7587 O   0  5  0  0  0  0  0  0  0  0  0  0
  153.3444  140.1499  160.5538 H   0  0  0  0  0  0  0  0  0  0  0  0
  153.6834  139.5365  158.9407 H   0  0  0  0  0  0  0  0  0  0  0  0
  152.1200  139.2188  159.7168 H   0  0  0  0  0  0  0  0  0  0  0  0
  153.2042  142.4829  160.4665 H   0  0  0  0  0  0  0  0  0  0  0  0
  150.8904  144.4545  157.3194 H   0  0  0  0  0  0  0  0  0  0  0  0
  151.6017  139.0169  157.8178 H   0  0  0  0  0  0  0  0  0  0  0  0
  150.2227  139.6955  157.0648 H   0  0  0  0  0  0  0  0  0  0  0  0
  149.8629  142.9589  156.0005 H   0  0  0  0  0  0  0  0  0  0  0  0
  1  2  1  0  0  0  0
  1 14  1  0  0  0  0
  1 15  1  0  0  0  0
  1 16  1  0  0  0  0
  2  9  1  0  0  0  0
  2  3  2  0  0  0  0
  3  4  1  0  0  0  0
  3 17  1  0  0  0  0
  4  5  2  0  0  0  0
  4  6  1  0  0  0  0
  6  7  2  0  0  0  0
  6 18  1  0  0  0  0
  7  8  1  0  0  0  0
  7  9  1  0  0  0  0
  8 21  1  0  0  0  0
  9 10  1  0  0  0  0
 10 11  1  0  0  0  0
 10 19  1  0  0  0  0
 10 20  1  0  0  0  0
 11 12  2  0  0  0  0
 11 13  1  0  0  0  0
M  CHG  1  13  -1
M  END
> <s_m_source_file>
AV-unprocessed.smi

> <i_m_source_file_index>
729

> <i_lp_mmshare_version>
43012

> <i_f3d_flags>
0

> <s_epik_input>
W0NIM11jMVtjSF1jKFtPSF0pW2NIXWMoPU8pbjFbQ0gyXUMoPU8pW09IXQ==

> <s_epik_cmdline>
J2VwaWtfcHl0aG9uJywgJy1waCcsICc3LjAnLCAnLXRuJywgJzgnLCAnLW1hJywgJzIwMCcsICctbWV0YWxfYmluZGluZycsICctaW1hZScsICc8aW5maWxlLm1hZT4nLCAnLW9tYWUnLCAnPG91dGZpbGUubWFlPic=

> <r_epik_Ionization_Penalty>
0.00133656

> <r_epik_Ionization_Penalty_Charging>
0.00133656

> <r_epik_Ionization_Penalty_Neutral>
0

> <r_epik_State_Penalty>
1.59842

> <r_epik_Charging_Adjusted_Penalty>
1.59975

> <i_epik_Tot_Q>
-1

> <i_epik_Tot_abs_Q>
1

> <r_epik_Metal_State_Penalty>
1.59842

> <b_epik_Metal_Only>
0

> <s_lp_Force_Field>
OPLS_2005

> <r_lp_Energy>
2.46832

> <b_lp_Chiralities_Consistent>
1

> <s_lp_Variant>
AV-unprocessed.smi:729-3

> <Gold.Version>
5.8.1

> <Gold.Id.Protein>
6NUR|6NUR_protein|mol2

> <Gold.PLP.Fitness>
40.4621

> <Gold.PLP.PLP>
-28.7197

> <Gold.PLP.part.hbond>
-3.0403

> <Gold.PLP.part.metal>
0.0000

> <Gold.PLP.part.buried>
-3.2491

> <Gold.PLP.part.nonpolar>
-22.3305

> <Gold.PLP.part.repulsive>
0.1134

> <Gold.PLP.ligand.clash>
0.0000

> <Gold.PLP.ligand.torsion>
0.1301

> <Gold.PLP.Chemscore.Hbond>
4.0000

> <Gold.PLP.Chemscore.CHOScore>
0.0000

> <Gold.PLP.Chemscore.Metal>
0.0000

> <Gold.Chemscore.Hbonds>
donor molecule, donor type, donor heavy atom, donor atom, acceptor molecule, acceptor atom, score
      L1  H     8    21       P1  8028  0.98
      P1  H  7989  7998       L1    12  1.00
      P1  H  7997  8010       L1    13  1.40

> <Gold.PLP.Chemscore.Internal.Correction>
0.0026

> <Gold.Rescore>
     Score         DG    S(hbond)    S(metal)    S(lipo)     H(rot)  DE(clash)    DE(int)     intcor
     14.25     -14.70       2.98        0.00      41.84       2.20       0.01       0.44       ----

> <Gold.Chemscore.Fitness>
14.2476

> <Gold.Chemscore.DG>
-14.7010

> <Gold.Chemscore.ZeroCoef>
-5.4800

> <Gold.Chemscore.Hbond>
2.9819

> <Gold.Chemscore.Metal>
0.0000

> <Gold.Chemscore.Lipo>
41.8384

> <Gold.Chemscore.Internal_Hbond>
0.0000

> <Gold.Chemscore.DEClash>
0.0128

> <Gold.Chemscore.DEInternal>
0.4406

> <Gold.Chemscore.Rot>
2.2006

> <Gold.Chemscore.Internal.Correction>
   9.000000E+99

> <Gold.Chemscore.Hbonds>
donor molecule, donor type, donor heavy atom, donor atom, acceptor molecule, acceptor atom, score
      L1  H     8    21       P1  8028  0.91
      P1  H  7989  7998       L1    12  0.82
      P1  H  7997  8010       L1    13  0.71

> <Gold.Chemscore.Hbond.Weighted>
-9.9594

> <Gold.Chemscore.Metal.Weighted>
-0.0000

> <Gold.Chemscore.Lipo.Weighted>
-4.8951

> <Gold.Chemscore.Internal_Hbond.Weighted>
0.0000

> <Gold.Chemscore.DEClash.Weighted>
0.0128

> <Gold.Chemscore.DEInternal.Weighted>
0.4406

> <Gold.Chemscore.Rot.Weighted>
5.6335

> <Gold.Chemscore.Internal.Correction.Weighted>
   9.000000E+99

> <Gold.Protein.RotatedTorsions>
[ 6907 6896 6895 6894 ] final   30.20 input  -60.11 | X-H torsion
[ 7974 7965 7964 7962 ] final  138.48 input  175.53 | X-H torsion
[ 8008 7997 7996 7995 ] final   95.64 input   59.86 | X-H torsion
[ 10167 10162 10161 10158 ] final  -35.79 input  -65.29 | X-H torsion
[ 10718 10713 10712 10709 ] final  -59.42 input   66.30 | X-H torsion
[ 10763 10752 10751 10750 ] final   11.60 input  -60.55 | X-H torsion
[ 11005 11000 10999 10996 ] final -100.04 input  -57.11 | X-H torsion

> <Gold.Protein.ActiveResidues>
 VAL166  LYS551  ARG553  GLY616  TRP617  ASP618  TYR619  PRO620  LYS621  CYS622 
 ASP623  PHE694  ASN695  SER759  ASP760  ASP761  ALA762  ILE779  LEU786  VAL792 
 PHE793  MET794  SER795  GLU796  ALA797  LYS798  CYS799  TRP800  GLU811  SER814 

> <Gold.Protein.RotatedAtoms>
  152.0425  134.9703  160.0573 H   0  0  0  0  0  0  0  0  0  0  0  0  # atno 6907 bound_to 6896
  152.1136  133.4309  159.4650 H   0  0  0  0  0  0  0  0  0  0  0  0  # atno 6908 bound_to 6896
  150.6845  134.2538  159.4565 H   0  0  0  0  0  0  0  0  0  0  0  0  # atno 6909 bound_to 6896
  144.9369  139.4978  143.5591 H   0  0  0  0  0  0  0  0  0  0  0  0  # atno 7974 bound_to 7965
  156.0711  140.3283  155.7577 H   0  0  0  0  0  0  0  0  0  0  0  0  # atno 8008 bound_to 7997
  155.5304  140.0593  157.2907 H   0  0  0  0  0  0  0  0  0  0  0  0  # atno 8009 bound_to 7997
  154.4530  140.1928  156.0479 H   0  0  0  0  0  0  0  0  0  0  0  0  # atno 8010 bound_to 7997
  140.7157  143.3453  151.2269 H   0  0  0  0  0  0  0  0  0  0  0  0  # atno 10167 bound_to 10162
  156.1063  130.4180  150.0713 H   0  0  0  0  0  0  0  0  0  0  0  0  # atno 10718 bound_to 10713
  153.1909  135.6842  153.8354 H   0  0  0  0  0  0  0  0  0  0  0  0  # atno 10763 bound_to 10752
  153.7653  135.3204  155.3344 H   0  0  0  0  0  0  0  0  0  0  0  0  # atno 10764 bound_to 10752
  154.8117  135.4713  154.0631 H   0  0  0  0  0  0  0  0  0  0  0  0  # atno 10765 bound_to 10752
  141.1286  133.8368  157.1050 H   0  0  0  0  0  0  0  0  0  0  0  0  # atno 11005 bound_to 11000
  146.3270  139.8360  142.8899 LP  0  0  0  0  0  0  0  0  0  0  0  0  # atno 17320 bound_to 7965
  145.3053  141.0205  143.3585 LP  0  0  0  0  0  0  0  0  0  0  0  0  # atno 17321 bound_to 7965
  139.6971  143.9595  152.2888 LP  0  0  0  0  0  0  0  0  0  0  0  0  # atno 17342 bound_to 10162
  139.9275  144.6761  150.8397 LP  0  0  0  0  0  0  0  0  0  0  0  0  # atno 17343 bound_to 10162
  156.8687  130.9517  151.3611 LP  0  0  0  0  0  0  0  0  0  0  0  0  # atno 17370 bound_to 10713
  157.6240  130.8677  149.9157 LP  0  0  0  0  0  0  0  0  0  0  0  0  # atno 17371 bound_to 10713
  140.0310  134.9901  157.0780 LP  0  0  0  0  0  0  0  0  0  0  0  0  # atno 17394 bound_to 11000
  140.4286  134.1805  155.7167 LP  0  0  0  0  0  0  0  0  0  0  0  0  # atno 17395 bound_to 11000

$$$$
