AV-unprocessed.smi:512|AV-procd|sdf|2769|dock4
  -GOLD-   2262023233D 1   1.00000     0.00000
 Structure written by MMmdl.
 48 50  0  0  0  0  0  0  0  0  1 V2000
  151.6993  138.8693  155.0713 C   0  0  0  0  0  0  0  0  0  0  0  0
  152.3856  138.4702  156.3795 C   0  0  0  0  0  0  0  0  0  0  0  0
  151.4966  138.7274  157.4512 O   0  0  0  0  0  0  0  0  0  0  0  0
  152.0197  138.3418  158.7116 C   0  0  0  0  0  0  0  0  0  0  0  0
  153.3690  139.0371  158.9395 C   0  0  0  0  0  0  0  0  0  0  0  0
  153.7812  138.9661  160.3404 N   0  0  0  0  0  0  0  0  0  0  0  0
  153.9893  139.9886  161.2144 C   0  0  0  0  0  0  0  0  0  0  0  0
  153.7797  141.3222  160.8632 N   0  0  0  0  0  0  0  0  0  0  0  0
  153.4695  142.4329  161.7601 C   0  0  0  0  0  0  0  0  0  0  0  0
  152.2689  143.2453  161.2369 C   0  0  0  0  0  0  0  0  0  0  0  0
  152.6015  143.8044  159.9269 N   0  0  0  0  0  0  0  0  0  0  0  0
  151.4710  144.5668  159.4182 C   0  0  0  0  0  0  0  0  0  0  0  0
  152.9076  142.7058  159.0104 C   0  0  0  0  0  0  0  0  0  0  0  0
  154.0977  141.8923  159.5576 C   0  0  0  0  0  0  0  0  0  0  0  0
  154.4602  139.6151  162.4070 N   0  0  0  0  0  0  0  0  0  0  0  0
  154.5353  138.2355  162.2969 C   0  0  0  0  0  0  0  0  0  0  0  0
  154.1414  137.8261  161.0639 C   0  0  0  0  0  0  0  0  0  0  0  0
  154.1723  136.4124  160.6596 C   0  0  0  0  0  0  0  0  0  0  0  0
  153.8355  136.0137  159.5471 O   0  0  0  0  0  0  0  0  0  0  0  0
  154.6204  135.5886  161.6377 N   0  0  0  0  0  0  0  0  0  0  0  0
  155.0274  135.9357  162.8963 C   0  0  0  0  0  0  0  0  0  0  0  0
  155.4223  135.0688  163.6757 O   0  0  0  0  0  0  0  0  0  0  0  0
  154.9789  137.2629  163.2379 N   0  0  0  0  0  0  0  0  0  0  0  0
  155.4070  137.6948  164.5698 C   0  0  0  0  0  0  0  0  0  0  0  0
  154.6647  134.6062  161.4094 H   0  0  0  0  0  0  0  0  0  0  0  0
  152.3481  138.6792  154.2163 H   0  0  0  0  0  0  0  0  0  0  0  0
  151.4460  139.9299  155.0712 H   0  0  0  0  0  0  0  0  0  0  0  0
  150.7780  138.3047  154.9253 H   0  0  0  0  0  0  0  0  0  0  0  0
  152.6488  137.4117  156.3545 H   0  0  0  0  0  0  0  0  0  0  0  0
  153.3071  139.0396  156.5080 H   0  0  0  0  0  0  0  0  0  0  0  0
  151.3233  138.6181  159.5046 H   0  0  0  0  0  0  0  0  0  0  0  0
  152.1459  137.2591  158.7497 H   0  0  0  0  0  0  0  0  0  0  0  0
  154.1272  138.5940  158.3010 H   0  0  0  0  0  0  0  0  0  0  0  0
  153.3168  140.0770  158.6250 H   0  0  0  0  0  0  0  0  0  0  0  0
  153.2794  142.0663  162.7679 H   0  0  0  0  0  0  0  0  0  0  0  0
  154.3460  143.0772  161.8445 H   0  0  0  0  0  0  0  0  0  0  0  0
  151.3788  142.6175  161.1715 H   0  0  0  0  0  0  0  0  0  0  0  0
  152.0423  144.0557  161.9307 H   0  0  0  0  0  0  0  0  0  0  0  0
  151.7052  144.9911  158.4413 H   0  0  0  0  0  0  0  0  0  0  0  0
  151.2331  145.3919  160.0905 H   0  0  0  0  0  0  0  0  0  0  0  0
  150.5823  143.9421  159.3159 H   0  0  0  0  0  0  0  0  0  0  0  0
  152.0361  142.0616  158.8805 H   0  0  0  0  0  0  0  0  0  0  0  0
  153.1589  143.1101  158.0291 H   0  0  0  0  0  0  0  0  0  0  0  0
  154.9894  142.5164  159.6335 H   0  0  0  0  0  0  0  0  0  0  0  0
  154.3376  141.0883  158.8608 H   0  0  0  0  0  0  0  0  0  0  0  0
  154.9414  137.0880  165.3481 H   0  0  0  0  0  0  0  0  0  0  0  0
  155.1437  138.7324  164.7753 H   0  0  0  0  0  0  0  0  0  0  0  0
  156.4892  137.6013  164.6667 H   0  0  0  0  0  0  0  0  0  0  0  0
  1  2  1  0  0  0  0
  1 26  1  0  0  0  0
  1 27  1  0  0  0  0
  1 28  1  0  0  0  0
  2  3  1  0  0  0  0
  2 29  1  0  0  0  0
  2 30  1  0  0  0  0
  3  4  1  0  0  0  0
  4  5  1  0  0  0  0
  4 31  1  0  0  0  0
  4 32  1  0  0  0  0
  5  6  1  0  0  0  0
  5 33  1  0  0  0  0
  5 34  1  0  0  0  0
  6 17  1  0  0  0  0
  6  7  1  0  0  0  0
  7  8  1  0  0  0  0
  7 15  2  0  0  0  0
  8 14  1  0  0  0  0
  8  9  1  0  0  0  0
  9 10  1  0  0  0  0
  9 35  1  0  0  0  0
  9 36  1  0  0  0  0
 10 11  1  0  0  0  0
 10 37  1  0  0  0  0
 10 38  1  0  0  0  0
 11 12  1  0  0  0  0
 11 13  1  0  0  0  0
 12 39  1  0  0  0  0
 12 40  1  0  0  0  0
 12 41  1  0  0  0  0
 13 14  1  0  0  0  0
 13 42  1  0  0  0  0
 13 43  1  0  0  0  0
 14 44  1  0  0  0  0
 14 45  1  0  0  0  0
 15 16  1  0  0  0  0
 16 23  1  0  0  0  0
 16 17  2  0  0  0  0
 17 18  1  0  0  0  0
 18 19  2  0  0  0  0
 18 20  1  0  0  0  0
 20 25  1  0  0  0  0
 20 21  1  0  0  0  0
 21 22  2  0  0  0  0
 21 23  1  0  0  0  0
 23 24  1  0  0  0  0
 24 46  1  0  0  0  0
 24 47  1  0  0  0  0
 24 48  1  0  0  0  0
M  END
> <s_m_source_file>
AV-unprocessed.smi

> <i_m_source_file_index>
512

> <i_lp_mmshare_version>
43012

> <i_f3d_flags>
0

> <s_epik_input>
W0NIM11uMWMoPU8pW25IXWMoPU8pYyhjMTIpbihbQ0gyXVtDSDJdT1tDSDJdW0NIM10pYyhuMilOM1tDSDJdW0NIMl1OKFtDSDNdKVtDSDJdW0NIMl0z

> <s_epik_cmdline>
J2VwaWtfcHl0aG9uJywgJy1waCcsICc3LjAnLCAnLXRuJywgJzgnLCAnLW1hJywgJzIwMCcsICctbWV0YWxfYmluZGluZycsICctaW1hZScsICc8aW5maWxlLm1hZT4nLCAnLW9tYWUnLCAnPG91dGZpbGUubWFlPic=

> <r_epik_Ionization_Penalty>
1.34391

> <r_epik_Ionization_Penalty_Charging>
1.55829e-05

> <r_epik_Ionization_Penalty_Neutral>
1.34389

> <r_epik_State_Penalty>
1.4212

> <r_epik_Charging_Adjusted_Penalty>
1.42122

> <i_epik_Tot_Q>
0

> <i_epik_Tot_abs_Q>
0

> <r_epik_Metal_State_Penalty>
1.44738

> <b_epik_Metal_Only>
0

> <s_lp_Force_Field>
OPLS_2005

> <r_lp_Energy>
48.5788

> <b_lp_Chiralities_Consistent>
1

> <s_lp_Variant>
AV-unprocessed.smi:512-2

> <Gold.Version>
5.8.1

> <Gold.Id.Protein>
6NUR|6NUR_protein|mol2

> <Gold.PLP.Fitness>
46.7814

> <Gold.PLP.PLP>
-44.3882

> <Gold.PLP.part.hbond>
-1.0000

> <Gold.PLP.part.metal>
0.0000

> <Gold.PLP.part.buried>
-4.9033

> <Gold.PLP.part.nonpolar>
-38.1797

> <Gold.PLP.part.repulsive>
0.1376

> <Gold.PLP.ligand.clash>
0.0000

> <Gold.PLP.ligand.torsion>
0.5400

> <Gold.PLP.Chemscore.Hbond>
1.0000

> <Gold.PLP.Chemscore.CHOScore>
0.0000

> <Gold.PLP.Chemscore.Metal>
0.0000

> <Gold.Chemscore.Hbonds>
donor molecule, donor type, donor heavy atom, donor atom, acceptor molecule, acceptor atom, score
      P1  H  6896  6909       L1    19  1.00

> <Gold.PLP.Chemscore.Internal.Correction>
0.4733

> <Gold.Rescore>
     Score         DG    S(hbond)    S(metal)    S(lipo)     H(rot)  DE(clash)    DE(int)     intcor
     13.95     -14.72       1.00        0.00      86.32       1.63       0.04       0.73       ----

> <Gold.Chemscore.Fitness>
13.9468

> <Gold.Chemscore.DG>
-14.7234

> <Gold.Chemscore.ZeroCoef>
-5.4800

> <Gold.Chemscore.Hbond>
0.9953

> <Gold.Chemscore.Metal>
0.0000

> <Gold.Chemscore.Lipo>
86.3181

> <Gold.Chemscore.Internal_Hbond>
0.0000

> <Gold.Chemscore.DEClash>
0.0442

> <Gold.Chemscore.DEInternal>
0.7324

> <Gold.Chemscore.Rot>
1.6328

> <Gold.Chemscore.Internal.Correction>
   9.000000E+99

> <Gold.Chemscore.Hbonds>
donor molecule, donor type, donor heavy atom, donor atom, acceptor molecule, acceptor atom, score
      P1  H  6896  6909       L1    19  0.34

> <Gold.Chemscore.Hbond.Weighted>
-3.3242

> <Gold.Chemscore.Metal.Weighted>
-0.0000

> <Gold.Chemscore.Lipo.Weighted>
-10.0992

> <Gold.Chemscore.Internal_Hbond.Weighted>
0.0000

> <Gold.Chemscore.DEClash.Weighted>
0.0442

> <Gold.Chemscore.DEInternal.Weighted>
0.7324

> <Gold.Chemscore.Rot.Weighted>
4.1800

> <Gold.Chemscore.Internal.Correction.Weighted>
   9.000000E+99

> <Gold.Protein.RotatedTorsions>
[ 6907 6896 6895 6894 ] final  178.71 input  -60.11 | X-H torsion
[ 7974 7965 7964 7962 ] final  139.58 input  175.53 | X-H torsion
[ 8008 7997 7996 7995 ] final  164.69 input   59.86 | X-H torsion
[ 10167 10162 10161 10158 ] final  115.77 input  -65.29 | X-H torsion
[ 10718 10713 10712 10709 ] final -120.29 input   66.30 | X-H torsion
[ 10763 10752 10751 10750 ] final  109.33 input  -60.55 | X-H torsion
[ 11005 11000 10999 10996 ] final  -28.84 input  -57.11 | X-H torsion

> <Gold.Protein.ActiveResidues>
 VAL166  LYS551  ARG553  GLY616  TRP617  ASP618  TYR619  PRO620  LYS621  CYS622 
 ASP623  PHE694  ASN695  SER759  ASP760  ASP761  ALA762  ILE779  LEU786  VAL792 
 PHE793  MET794  SER795  GLU796  ALA797  LYS798  CYS799  TRP800  GLU811  SER814 

> <Gold.Protein.RotatedAtoms>
  151.6835  133.3311  159.3224 H   0  0  0  0  0  0  0  0  0  0  0  0  # atno 6907 bound_to 6896
  150.7812  134.6761  159.6427 H   0  0  0  0  0  0  0  0  0  0  0  0  # atno 6908 bound_to 6896
  152.3870  134.6505  160.0174 H   0  0  0  0  0  0  0  0  0  0  0  0  # atno 6909 bound_to 6896
  144.9265  139.5101  143.5638 H   0  0  0  0  0  0  0  0  0  0  0  0  # atno 7974 bound_to 7965
  156.1860  140.1690  156.8185 H   0  0  0  0  0  0  0  0  0  0  0  0  # atno 8008 bound_to 7997
  154.5414  140.0736  156.8549 H   0  0  0  0  0  0  0  0  0  0  0  0  # atno 8009 bound_to 7997
  155.3207  140.3373  155.4243 H   0  0  0  0  0  0  0  0  0  0  0  0  # atno 8010 bound_to 7997
  139.6294  144.7113  151.2465 H   0  0  0  0  0  0  0  0  0  0  0  0  # atno 10167 bound_to 10162
  156.1246  130.6349  150.9522 H   0  0  0  0  0  0  0  0  0  0  0  0  # atno 10718 bound_to 10713
  153.4332  135.3783  155.2183 H   0  0  0  0  0  0  0  0  0  0  0  0  # atno 10763 bound_to 10752
  154.8751  135.3845  154.4243 H   0  0  0  0  0  0  0  0  0  0  0  0  # atno 10764 bound_to 10752
  153.4778  135.7088  153.6019 H   0  0  0  0  0  0  0  0  0  0  0  0  # atno 10765 bound_to 10752
  140.9244  133.7378  156.0846 H   0  0  0  0  0  0  0  0  0  0  0  0  # atno 11005 bound_to 11000
  146.3228  139.8184  142.8931 LP  0  0  0  0  0  0  0  0  0  0  0  0  # atno 17320 bound_to 7965
  145.3210  141.0244  143.3500 LP  0  0  0  0  0  0  0  0  0  0  0  0  # atno 17321 bound_to 7965
  140.7430  143.6508  150.8250 LP  0  0  0  0  0  0  0  0  0  0  0  0  # atno 17342 bound_to 10162
  140.0131  143.5621  152.2831 LP  0  0  0  0  0  0  0  0  0  0  0  0  # atno 17343 bound_to 10162
  157.6428  131.0908  150.8215 LP  0  0  0  0  0  0  0  0  0  0  0  0  # atno 17370 bound_to 10713
  156.8307  130.5015  149.5332 LP  0  0  0  0  0  0  0  0  0  0  0  0  # atno 17371 bound_to 10713
  140.7946  134.3579  157.5456 LP  0  0  0  0  0  0  0  0  0  0  0  0  # atno 17394 bound_to 11000
  139.8782  134.9161  156.3146 LP  0  0  0  0  0  0  0  0  0  0  0  0  # atno 17395 bound_to 11000

$$$$
