#       Name:                AV-unprocessed.smi:2078
#       Creating user name   scv26
#       Creation time:       Fri Mar 27 11:17:03 2020


#       File generated by GOLD software.
#

@<TRIPOS>MOLECULE
AV-unprocessed.smi:2078
    47    48     1
SMALL
NO_CHARGES


@<TRIPOS>ATOM
      1 ****        -7.0307   3.0819   1.3893 C.3            1 S1                 0.0000
      2 ****        -6.0999   2.0801   0.7969 C.2            1 S1                 0.0000
      3 ****        -5.2608   1.1533   1.3474 C.2            1 S1                 0.0000
      4 ****        -4.6678   0.5373   0.2117 C.2            1 S1                 0.0000
      5 ****        -3.7708  -0.4606   0.2316 N.pl3          1 S1                -1.0000
      6 ****        -2.4561  -0.1921   0.3974 C.2            1 S1                 0.0000
      7 ****        -1.9498   0.9207   0.5606 O.2            1 S1                 0.0000
      8 ****        -1.6762  -1.2823   0.3673 N.am           1 S1                 0.0000
      9 ****        -0.2249  -1.2919   0.5026 C.3            1 S1                 0.0000
     10 ****         0.4614  -0.8313  -0.7972 C.3            1 S1                 0.0000
     11 ****         1.9412  -0.8689  -0.6970 N.4            1 S1                 1.0000
     12 ****         2.5905  -0.9752  -2.0288 C.3            1 S1                 0.0000
     13 ****         4.1086  -1.1700  -1.8914 C.3            1 S1                 0.0000
     14 ****         4.7361  -0.0409  -1.0617 C.3            1 S1                 0.0000
     15 ****         4.0261   0.1157   0.2957 C.3            1 S1                 0.0000
     16 ****         4.3799  -1.0063   1.2875 C.3            1 S1                 0.0000
     17 ****         2.5028   0.2585   0.0966 C.3            1 S1                 0.0000
     18 ****        -5.1186   1.0356  -0.9271 N.2            1 S1                 0.0000
     19 ****        -6.0347   2.0288  -0.5606 O.3            1 S1                 0.0000
     20 ****        -7.9709   2.6109   1.6765 H              1 S1                 0.0000
     21 ****        -7.2533   3.8784   0.6789 H              1 S1                 0.0000
     22 ****        -6.5938   3.5365   2.2785 H              1 S1                 0.0000
     23 ****        -5.0950   0.9495   2.3945 H              1 S1                 0.0000
     24 ****        -2.1316  -2.1736   0.2338 H              1 S1                 0.0000
     25 ****         0.0572  -0.6706   1.3528 H              1 S1                 0.0000
     26 ****         0.0849  -2.3085   0.7454 H              1 S1                 0.0000
     27 ****         0.1356  -1.4954  -1.5994 H              1 S1                 0.0000
     28 ****         0.1414   0.1720  -1.0824 H              1 S1                 0.0000
     29 ****         2.1733  -1.8196  -2.5787 H              1 S1                 0.0000
     30 ****         2.3748  -0.0786  -2.6122 H              1 S1                 0.0000
     31 ****         4.3153  -2.1346  -1.4268 H              1 S1                 0.0000
     32 ****         4.5692  -1.2026  -2.8792 H              1 S1                 0.0000
     33 ****         5.8022  -0.2211  -0.9195 H              1 S1                 0.0000
     34 ****         4.6570   0.8944  -1.6177 H              1 S1                 0.0000
     35 ****         4.3848   1.0437   0.7429 H              1 S1                 0.0000
     36 ****         4.0324  -1.9802   0.9433 H              1 S1                 0.0000
     37 ****         3.9268  -0.8221   2.2621 H              1 S1                 0.0000
     38 ****         5.4581  -1.0722   1.4368 H              1 S1                 0.0000
     39 ****         2.2852   1.1962  -0.4174 H              1 S1                 0.0000
     40 ****         2.0192   0.3243   1.0704 H              1 S1                 0.0000
     41 ****         2.1700  -1.7199  -0.2036 H              1 S1                 0.0000
     42 ****        -4.0760  -1.4067   0.1234 LP             1 S1                 0.0000
     43 ****        -2.5290   1.7357   0.5794 LP             1 S1                 0.0000
     44 ****        -0.9601   1.0080   0.6741 LP             1 S1                 0.0000
     45 ****        -4.8601   0.7613  -1.8533 LP             1 S1                 0.0000
     46 ****        -5.7332   2.9132  -0.9170 LP             1 S1                 0.0000
     47 ****        -6.9364   1.8093  -0.9330 LP             1 S1                 0.0000
@<TRIPOS>BOND
    1    1    2 1     
    2    1   20 1     
    3    1   21 1     
    4    1   22 1     
    5    2   19 1     
    6    2    3 2     
    7    3    4 1     
    8    3   23 1     
    9    4    5 1     
   10    4   18 2     
   11    5    6 1     
   12    6    7 2     
   13    6    8 am    
   14    8    9 1     
   15    8   24 1     
   16    9   10 1     
   17    9   25 1     
   18    9   26 1     
   19   10   11 1     
   20   10   27 1     
   21   10   28 1     
   22   11   17 1     
   23   11   12 1     
   24   11   41 1     
   25   12   13 1     
   26   12   29 1     
   27   12   30 1     
   28   13   14 1     
   29   13   31 1     
   30   13   32 1     
   31   14   15 1     
   32   14   33 1     
   33   14   34 1     
   34   15   16 1     
   35   15   17 1     
   36   15   35 1     
   37   16   36 1     
   38   16   37 1     
   39   16   38 1     
   40   17   39 1     
   41   17   40 1     
   42   18   19 1     
   43    5   42 1     
   44    7   43 1     
   45    7   44 1     
   46   18   45 1     
   47   19   46 1     
   48   19   47 1     
@<TRIPOS>SUBSTRUCTURE
      1 S1             1
@<TRIPOS>SET
LONE_PAIRS      STATIC     ATOMS    <user>   **** ""
6 42 43 44 45 46 47
DONOR_HYDROGENS      STATIC     ATOMS    <user>   **** ""
2 24 41
ATOM$BLUE        STATIC     ATOMS    COLORGROUP SYSTEM
6 42 43 44 45 46 47
ATOM$RED        STATIC     ATOMS    COLORGROUP SYSTEM
2 24 41
