AV-unprocessed.smi:597|AV-procd|sdf|3020|dock1
  -GOLD-   2262023533D 1   1.00000     0.00000
 Structure written by MMmdl.
 37 38  0  0  0  0  0  0  0  0  3 V2000
  150.7106  140.6004  155.0987 O   0  0  0  0  0  0  0  0  0  0  0  0
  149.9398  141.5437  155.2816 C   0  0  0  0  0  0  0  0  0  0  0  0
  148.6849  141.7176  154.4140 C   0  0  0  0  0  0  0  0  0  0  0  0
  147.7283  140.6047  154.5398 N   0  0  0  0  0  0  0  0  0  0  0  0
  147.4279  139.8838  153.3671 C   0  0  0  0  0  0  0  0  0  0  0  0
  146.5616  138.8516  153.3633 C   0  0  0  0  0  0  0  0  0  0  0  0
  146.2610  138.1259  152.1487 N   0  3  0  0  0  0  0  0  0  0  0  0
  145.5088  137.1587  152.2119 O   0  0  0  0  0  0  0  0  0  0  0  0
  146.7665  138.4961  151.0931 O   0  5  0  0  0  0  0  0  0  0  0  0
  145.9356  138.4924  154.6211 C   0  0  0  0  0  0  0  0  0  0  0  0
  146.2156  139.1809  155.7452 C   0  0  0  0  0  0  0  0  0  0  0  0
  147.1547  140.3073  155.7459 C   0  0  0  0  0  0  0  0  0  0  0  0
  147.4098  140.9441  156.7682 O   0  0  0  0  0  0  0  0  0  0  0  0
  150.1191  142.4632  156.2420 N   0  0  0  0  0  0  0  0  0  0  0  0
  151.2347  142.4950  157.1832 C   0  0  0  0  0  0  0  0  0  0  0  0
  150.8628  141.7749  158.4967 C   0  0  0  0  0  0  0  0  0  0  0  0
  151.9982  141.8659  159.5294 C   0  0  0  0  0  0  0  0  0  0  0  0
  152.3967  143.3261  159.7946 C   0  0  0  0  0  0  0  0  0  0  0  0
  152.7732  144.0437  158.4888 C   0  0  0  0  0  0  0  0  0  0  0  0
  151.6364  143.9567  157.4578 C   0  0  0  0  0  0  0  0  0  0  0  0
  148.2101  142.6608  154.6883 H   0  0  0  0  0  0  0  0  0  0  0  0
  148.9832  141.8429  153.3713 H   0  0  0  0  0  0  0  0  0  0  0  0
  147.9408  140.2335  152.4827 H   0  0  0  0  0  0  0  0  0  0  0  0
  145.2375  137.6696  154.6711 H   0  0  0  0  0  0  0  0  0  0  0  0
  145.7372  138.8971  156.6710 H   0  0  0  0  0  0  0  0  0  0  0  0
  149.4343  143.2006  156.3249 H   0  0  0  0  0  0  0  0  0  0  0  0
  152.0907  141.9884  156.7329 H   0  0  0  0  0  0  0  0  0  0  0  0
  149.9574  142.2161  158.9162 H   0  0  0  0  0  0  0  0  0  0  0  0
  150.6333  140.7266  158.3018 H   0  0  0  0  0  0  0  0  0  0  0  0
  151.6919  141.3891  160.4609 H   0  0  0  0  0  0  0  0  0  0  0  0
  152.8646  141.3103  159.1679 H   0  0  0  0  0  0  0  0  0  0  0  0
  151.5686  143.8498  160.2740 H   0  0  0  0  0  0  0  0  0  0  0  0
  153.2324  143.3630  160.4939 H   0  0  0  0  0  0  0  0  0  0  0  0
  153.0100  145.0880  158.6933 H   0  0  0  0  0  0  0  0  0  0  0  0
  153.6775  143.5969  158.0735 H   0  0  0  0  0  0  0  0  0  0  0  0
  151.9455  144.4410  156.5306 H   0  0  0  0  0  0  0  0  0  0  0  0
  150.7740  144.5149  157.8254 H   0  0  0  0  0  0  0  0  0  0  0  0
  1  2  2  0  0  0  0
  2  3  1  0  0  0  0
  2 14  1  0  0  0  0
  3  4  1  0  0  0  0
  3 21  1  0  0  0  0
  3 22  1  0  0  0  0
  4 12  1  0  0  0  0
  4  5  1  0  0  0  0
  5  6  2  0  0  0  0
  5 23  1  0  0  0  0
  6  7  1  0  0  0  0
  6 10  1  0  0  0  0
  7  8  2  0  0  0  0
  7  9  1  0  0  0  0
 10 11  2  0  0  0  0
 10 24  1  0  0  0  0
 11 12  1  0  0  0  0
 11 25  1  0  0  0  0
 12 13  2  0  0  0  0
 14 15  1  0  0  0  0
 14 26  1  0  0  0  0
 15 20  1  0  0  0  0
 15 16  1  0  0  0  0
 15 27  1  0  0  0  0
 16 17  1  0  0  0  0
 16 28  1  0  0  0  0
 16 29  1  0  0  0  0
 17 18  1  0  0  0  0
 17 30  1  0  0  0  0
 17 31  1  0  0  0  0
 18 19  1  0  0  0  0
 18 32  1  0  0  0  0
 18 33  1  0  0  0  0
 19 20  1  0  0  0  0
 19 34  1  0  0  0  0
 19 35  1  0  0  0  0
 20 36  1  0  0  0  0
 20 37  1  0  0  0  0
M  CHG  1   7   1
M  CHG  1   9  -1
M  END
> <s_m_source_file>
AV-unprocessed.smi

> <i_m_source_file_index>
597

> <i_lp_mmshare_version>
43012

> <i_f3d_flags>
0

> <s_epik_input>
W0NIMl0xW0NIMl1bQ0gyXVtDSDJdW0NIMl1bQ0hdMVtOSF1DKD1PKVtDSDJdbjJbY0hdYyhbTitdKD1PKVtPLV0pW2NIXVtjSF1jMj1P

> <s_epik_cmdline>
J2VwaWtfcHl0aG9uJywgJy1waCcsICc3LjAnLCAnLXRuJywgJzgnLCAnLW1hJywgJzIwMCcsICctbWV0YWxfYmluZGluZycsICctaW1hZScsICc8aW5maWxlLm1hZT4nLCAnLW9tYWUnLCAnPG91dGZpbGUubWFlPic=

> <r_lp_tautomer_probability>
1

> <r_epik_Ionization_Penalty>
1.91289e-08

> <r_epik_Ionization_Penalty_Charging>
8.20451e-11

> <r_epik_Ionization_Penalty_Neutral>
1.90469e-08

> <r_epik_State_Penalty>
-0

> <r_epik_Charging_Adjusted_Penalty>
8.20451e-11

> <i_epik_Tot_Q>
0

> <i_epik_Tot_abs_Q>
2

> <r_epik_Metal_State_Penalty>
-0

> <b_epik_Metal_Only>
0

> <s_lp_Force_Field>
OPLS_2005

> <r_lp_Energy>
19.9817

> <b_lp_Chiralities_Consistent>
1

> <s_lp_Variant>
AV-unprocessed.smi:597-1

> <Gold.Version>
5.8.1

> <Gold.Id.Protein>
6NUR|6NUR_protein|mol2

> <Gold.PLP.Fitness>
47.2629

> <Gold.PLP.PLP>
-36.5412

> <Gold.PLP.part.hbond>
-3.0000

> <Gold.PLP.part.metal>
0.0000

> <Gold.PLP.part.buried>
-3.1075

> <Gold.PLP.part.nonpolar>
-31.0311

> <Gold.PLP.part.repulsive>
0.7853

> <Gold.PLP.ligand.clash>
0.0000

> <Gold.PLP.ligand.torsion>
0.3602

> <Gold.PLP.Chemscore.Hbond>
2.8080

> <Gold.PLP.Chemscore.CHOScore>
1.0000

> <Gold.PLP.Chemscore.Metal>
0.0000

> <Gold.Chemscore.Hbonds>
donor molecule, donor type, donor heavy atom, donor atom, acceptor molecule, acceptor atom, score
      L1  H    14    26       P1  8028  0.90
      P1  H  7954  7966       L1     9  1.00
      P1  H  7989  7998       L1     1  0.96
      L1  C     5    23       P1  7957  1.00

> <Gold.PLP.Chemscore.Internal.Correction>
0.0181

> <Gold.Rescore>
     Score         DG    S(hbond)    S(metal)    S(lipo)     H(rot)  DE(clash)    DE(int)     intcor
     17.67     -19.29       2.36        0.00      84.90       1.56       0.19       1.44       ----

> <Gold.Chemscore.Fitness>
17.6659

> <Gold.Chemscore.DG>
-19.2911

> <Gold.Chemscore.ZeroCoef>
-5.4800

> <Gold.Chemscore.Hbond>
2.3603

> <Gold.Chemscore.Metal>
0.0000

> <Gold.Chemscore.Lipo>
84.8956

> <Gold.Chemscore.Internal_Hbond>
0.0000

> <Gold.Chemscore.DEClash>
0.1870

> <Gold.Chemscore.DEInternal>
1.4381

> <Gold.Chemscore.Rot>
1.5646

> <Gold.Chemscore.Internal.Correction>
   9.000000E+99

> <Gold.Chemscore.Hbonds>
donor molecule, donor type, donor heavy atom, donor atom, acceptor molecule, acceptor atom, score
      L1  H    14    26       P1  8028  0.88
      P1  H  7954  7966       L1     9  0.96
      P1  H  7989  7998       L1     1  0.60

> <Gold.Chemscore.Hbond.Weighted>
-7.8836

> <Gold.Chemscore.Metal.Weighted>
-0.0000

> <Gold.Chemscore.Lipo.Weighted>
-9.9328

> <Gold.Chemscore.Internal_Hbond.Weighted>
0.0000

> <Gold.Chemscore.DEClash.Weighted>
0.1870

> <Gold.Chemscore.DEInternal.Weighted>
1.4381

> <Gold.Chemscore.Rot.Weighted>
4.0053

> <Gold.Chemscore.Internal.Correction.Weighted>
   9.000000E+99

> <Gold.Protein.RotatedTorsions>
[ 6907 6896 6895 6894 ] final  -47.36 input  -60.11 | X-H torsion
[ 7974 7965 7964 7962 ] final  -48.79 input  175.53 | X-H torsion
[ 8008 7997 7996 7995 ] final  -14.78 input   59.86 | X-H torsion
[ 10167 10162 10161 10158 ] final  149.84 input  -65.29 | X-H torsion
[ 10718 10713 10712 10709 ] final  155.02 input   66.30 | X-H torsion
[ 10763 10752 10751 10750 ] final  138.67 input  -60.55 | X-H torsion
[ 11005 11000 10999 10996 ] final  -18.21 input  -57.11 | X-H torsion

> <Gold.Protein.ActiveResidues>
 VAL166  LYS551  ARG553  GLY616  TRP617  ASP618  TYR619  PRO620  LYS621  CYS622 
 ASP623  PHE694  ASN695  SER759  ASP760  ASP761  ALA762  ILE779  LEU786  VAL792 
 PHE793  MET794  SER795  GLU796  ALA797  LYS798  CYS799  TRP800  GLU811  SER814 

> <Gold.Protein.RotatedAtoms>
  150.9016  134.8429  159.7363 H   0  0  0  0  0  0  0  0  0  0  0  0  # atno 6907 bound_to 6896
  152.4896  134.4493  159.9579 H   0  0  0  0  0  0  0  0  0  0  0  0  # atno 6908 bound_to 6896
  151.4545  133.3570  159.2835 H   0  0  0  0  0  0  0  0  0  0  0  0  # atno 6909 bound_to 6896
  145.9475  140.7604  142.9521 H   0  0  0  0  0  0  0  0  0  0  0  0  # atno 7974 bound_to 7965
  154.5183  140.2214  155.9024 H   0  0  0  0  0  0  0  0  0  0  0  0  # atno 8008 bound_to 7997
  156.1632  140.3137  155.8809 H   0  0  0  0  0  0  0  0  0  0  0  0  # atno 8009 bound_to 7997
  155.3708  140.0466  157.3036 H   0  0  0  0  0  0  0  0  0  0  0  0  # atno 8010 bound_to 7997
  139.4857  144.5570  151.7300 H   0  0  0  0  0  0  0  0  0  0  0  0  # atno 10167 bound_to 10162
  157.2239  131.0724  151.1895 H   0  0  0  0  0  0  0  0  0  0  0  0  # atno 10718 bound_to 10713
  153.8934  135.3030  155.3448 H   0  0  0  0  0  0  0  0  0  0  0  0  # atno 10763 bound_to 10752
  154.7705  135.4888  153.9643 H   0  0  0  0  0  0  0  0  0  0  0  0  # atno 10764 bound_to 10752
  153.1285  135.6798  153.9316 H   0  0  0  0  0  0  0  0  0  0  0  0  # atno 10765 bound_to 10752
  140.8245  133.8043  155.9694 H   0  0  0  0  0  0  0  0  0  0  0  0  # atno 11005 bound_to 11000
  144.6790  140.2380  143.7347 LP  0  0  0  0  0  0  0  0  0  0  0  0  # atno 17320 bound_to 7965
  145.8216  139.2046  143.1934 LP  0  0  0  0  0  0  0  0  0  0  0  0  # atno 17321 bound_to 7965
  140.5133  144.0992  150.6001 LP  0  0  0  0  0  0  0  0  0  0  0  0  # atno 17342 bound_to 10162
  140.3925  143.2745  152.0043 LP  0  0  0  0  0  0  0  0  0  0  0  0  # atno 17343 bound_to 10162
  157.3547  130.7100  149.6463 LP  0  0  0  0  0  0  0  0  0  0  0  0  # atno 17370 bound_to 10713
  155.9680  130.4242  150.4599 LP  0  0  0  0  0  0  0  0  0  0  0  0  # atno 17371 bound_to 10713
  140.9064  134.2315  157.5012 LP  0  0  0  0  0  0  0  0  0  0  0  0  # atno 17394 bound_to 11000
  139.8707  134.9730  156.4793 LP  0  0  0  0  0  0  0  0  0  0  0  0  # atno 17395 bound_to 11000

$$$$
