AV-unprocessed.smi:2026|AV-procd|sdf|8206|dock7
  -GOLD-   2272010463D 1   1.00000     0.00000
 Structure written by MMmdl.
 45 47  0  0  0  0  0  0  0  0  2 V2000
  153.2535  143.5792  162.5491 C   0  0  0  0  0  0  0  0  0  0  0  0
  152.8844  142.9855  161.2010 C   0  0  0  0  0  0  0  0  0  0  0  0
  151.9387  143.6534  160.3905 C   0  0  0  0  0  0  0  0  0  0  0  0
  151.5683  143.1336  159.1309 C   0  0  0  0  0  0  0  0  0  0  0  0
  150.6764  143.6146  158.1871 N   0  0  0  0  0  0  0  0  0  0  0  0
  150.7713  142.6912  157.2345 C   0  0  0  0  0  0  0  0  0  0  0  0
  151.6175  141.6662  157.4512 N   0  0  0  0  0  0  0  0  0  0  0  0
  151.8807  140.5488  156.5616 C   0  0  0  0  0  0  0  0  0  0  0  0
  150.5902  139.9170  156.0043 C   0  0  1  0  0  0  0  0  0  0  0  0
  150.2095  140.6208  154.8373 O   0  0  0  0  0  0  0  0  0  0  0  0
  150.8012  138.4323  155.6436 C   0  0  0  0  0  0  0  0  0  0  0  0
  150.3534  137.5352  156.7145 N   0  0  0  0  0  0  0  0  0  0  0  0
  150.9336  136.3644  157.0392 C   0  0  0  0  0  0  0  0  0  0  0  0
  151.9247  135.9350  156.4497 O   0  0  0  0  0  0  0  0  0  0  0  0
  150.2835  135.7687  158.0669 N   0  5  0  0  0  0  0  0  0  0  0  0
  149.1680  136.6050  158.4630 C   0  0  0  0  0  0  0  0  0  0  0  0
  147.8411  135.8490  158.2624 C   0  0  0  0  0  0  0  0  0  0  0  0
  149.3422  137.0672  159.9221 C   0  0  0  0  0  0  0  0  0  0  0  0
  149.2938  137.7685  157.4960 C   0  0  0  0  0  0  0  0  0  0  0  0
  148.5340  138.7378  157.4629 O   0  0  0  0  0  0  0  0  0  0  0  0
  152.1734  141.9164  158.7013 C   0  0  0  0  0  0  0  0  0  0  0  0
  153.1163  141.2432  159.4983 C   0  0  0  0  0  0  0  0  0  0  0  0
  153.4756  141.7767  160.7536 C   0  0  0  0  0  0  0  0  0  0  0  0
  154.4967  141.0429  161.6048 C   0  0  0  0  0  0  0  0  0  0  0  0
  152.7384  144.5242  162.7235 H   0  0  0  0  0  0  0  0  0  0  0  0
  154.3258  143.7683  162.6040 H   0  0  0  0  0  0  0  0  0  0  0  0
  152.9804  142.8955  163.3531 H   0  0  0  0  0  0  0  0  0  0  0  0
  151.4887  144.5746  160.7305 H   0  0  0  0  0  0  0  0  0  0  0  0
  150.1927  142.7627  156.3250 H   0  0  0  0  0  0  0  0  0  0  0  0
  152.5219  140.8905  155.7481 H   0  0  0  0  0  0  0  0  0  0  0  0
  152.4536  139.8042  157.1157 H   0  0  0  0  0  0  0  0  0  0  0  0
  149.7985  140.0186  156.7478 H   0  0  0  0  0  0  0  0  0  0  0  0
  149.2662  140.6572  154.8013 H   0  0  0  0  0  0  0  0  0  0  0  0
  150.3216  138.1906  154.6935 H   0  0  0  0  0  0  0  0  0  0  0  0
  151.8640  138.2473  155.4784 H   0  0  0  0  0  0  0  0  0  0  0  0
  146.9875  136.4686  158.5398 H   0  0  0  0  0  0  0  0  0  0  0  0
  147.8043  134.9486  158.8766 H   0  0  0  0  0  0  0  0  0  0  0  0
  147.7021  135.5433  157.2241 H   0  0  0  0  0  0  0  0  0  0  0  0
  148.5123  137.7008  160.2372 H   0  0  0  0  0  0  0  0  0  0  0  0
  150.2621  137.6380  160.0595 H   0  0  0  0  0  0  0  0  0  0  0  0
  149.3801  136.2163  160.6033 H   0  0  0  0  0  0  0  0  0  0  0  0
  153.5611  140.3249  159.1445 H   0  0  0  0  0  0  0  0  0  0  0  0
  154.8168  140.1150  161.1302 H   0  0  0  0  0  0  0  0  0  0  0  0
  154.0759  140.7918  162.5786 H   0  0  0  0  0  0  0  0  0  0  0  0
  155.3804  141.6628  161.7578 H   0  0  0  0  0  0  0  0  0  0  0  0
  1  2  1  0  0  0  0
  1 25  1  0  0  0  0
  1 26  1  0  0  0  0
  1 27  1  0  0  0  0
  2 23  1  0  0  0  0
  2  3  2  0  0  0  0
  3  4  1  0  0  0  0
  3 28  1  0  0  0  0
  4 21  2  0  0  0  0
  4  5  1  0  0  0  0
  5  6  2  0  0  0  0
  6  7  1  0  0  0  0
  6 29  1  0  0  0  0
  7  8  1  0  0  0  0
  7 21  1  0  0  0  0
  8  9  1  0  0  0  0
  8 30  1  0  0  0  0
  8 31  1  0  0  0  0
  9 10  1  0  0  0  0
  9 11  1  0  0  0  0
  9 32  1  0  0  0  0
 10 33  1  0  0  0  0
 11 12  1  0  0  0  0
 11 34  1  0  0  0  0
 11 35  1  0  0  0  0
 12 19  1  0  0  0  0
 12 13  1  0  0  0  0
 13 14  2  0  0  0  0
 13 15  1  0  0  0  0
 15 16  1  0  0  0  0
 16 17  1  0  0  0  0
 16 18  1  0  0  0  0
 16 19  1  0  0  0  0
 17 36  1  0  0  0  0
 17 37  1  0  0  0  0
 17 38  1  0  0  0  0
 18 39  1  0  0  0  0
 18 40  1  0  0  0  0
 18 41  1  0  0  0  0
 19 20  2  0  0  0  0
 21 22  1  0  0  0  0
 22 23  2  0  0  0  0
 22 42  1  0  0  0  0
 23 24  1  0  0  0  0
 24 43  1  0  0  0  0
 24 44  1  0  0  0  0
 24 45  1  0  0  0  0
M  CHG  1  15  -1
M  END
> <s_m_source_file>
AV-unprocessed.smi

> <i_m_source_file_index>
2026

> <i_lp_mmshare_version>
43012

> <i_f3d_flags>
0

> <s_epik_input>
W0NIM11jKFtjSF0xKWMoW0NIM10pW2NIXWMoYzEyKW4oW2NIXW4yKVtDSDJdW0NASF0oW09IXSlbQ0gyXU4oQzM9TylDKD1PKVtOSF1DMyhbQ0gzXSlbQ0gzXQ==

> <s_epik_cmdline>
J2VwaWtfcHl0aG9uJywgJy1waCcsICc3LjAnLCAnLXRuJywgJzgnLCAnLW1hJywgJzIwMCcsICctbWV0YWxfYmluZGluZycsICctaW1hZScsICc8aW5maWxlLm1hZT4nLCAnLW9tYWUnLCAnPG91dGZpbGUubWFlPic=

> <r_lp_tautomer_probability>
1

> <r_epik_Ionization_Penalty>
5.78785

> <r_epik_Ionization_Penalty_Charging>
5.68049

> <r_epik_Ionization_Penalty_Neutral>
0.107354

> <r_epik_State_Penalty>
5.7743

> <r_epik_Charging_Adjusted_Penalty>
11.4548

> <i_epik_Tot_Q>
-1

> <i_epik_Tot_abs_Q>
1

> <r_epik_Metal_State_Penalty>
1.83778

> <b_epik_Metal_Only>
1

> <s_lp_Force_Field>
OPLS_2005

> <r_lp_Energy>
18.252

> <b_lp_Chiralities_Consistent>
1

> <s_lp_Variant>
AV-unprocessed.smi:2026-6

> <Gold.Version>
5.8.1

> <Gold.Id.Protein>
6NUR|6NUR_protein|mol2

> <Gold.PLP.Fitness>
51.5233

> <Gold.PLP.PLP>
-40.6832

> <Gold.PLP.part.hbond>
-3.0000

> <Gold.PLP.part.metal>
0.0000

> <Gold.PLP.part.buried>
-5.6357

> <Gold.PLP.part.nonpolar>
-32.4722

> <Gold.PLP.part.repulsive>
0.1436

> <Gold.PLP.ligand.clash>
0.0000

> <Gold.PLP.ligand.torsion>
1.3171

> <Gold.PLP.Chemscore.Hbond>
3.5280

> <Gold.PLP.Chemscore.CHOScore>
0.9626

> <Gold.PLP.Chemscore.Metal>
0.0000

> <Gold.Chemscore.Hbonds>
donor molecule, donor type, donor heavy atom, donor atom, acceptor molecule, acceptor atom, score
      P1  H  6896  6908       L1    15  1.54
      P1  H  7989  7998       L1    10  0.90
      P1  H 10752 10764       L1    14  1.00
      L1  C     6    29       P1  8028  0.89

> <Gold.PLP.Chemscore.Internal.Correction>
0.0025

> <Gold.Rescore>
     Score         DG    S(hbond)    S(metal)    S(lipo)     H(rot)  DE(clash)    DE(int)     intcor
     18.18     -21.24       2.71        0.00     109.51       2.38       0.21       2.85       ----

> <Gold.Chemscore.Fitness>
18.1810

> <Gold.Chemscore.DG>
-21.2441

> <Gold.Chemscore.ZeroCoef>
-5.4800

> <Gold.Chemscore.Hbond>
2.7064

> <Gold.Chemscore.Metal>
0.0000

> <Gold.Chemscore.Lipo>
109.5135

> <Gold.Chemscore.Internal_Hbond>
0.0000

> <Gold.Chemscore.DEClash>
0.2090

> <Gold.Chemscore.DEInternal>
2.8542

> <Gold.Chemscore.Rot>
2.3783

> <Gold.Chemscore.Internal.Correction>
   9.000000E+99

> <Gold.Chemscore.Hbonds>
donor molecule, donor type, donor heavy atom, donor atom, acceptor molecule, acceptor atom, score
      P1  H  6896  6908       L1    15  0.49
      P1  H  7989  7998       L1    10  0.81
      P1  H 10752 10764       L1    14  1.00

> <Gold.Chemscore.Hbond.Weighted>
-9.0394

> <Gold.Chemscore.Metal.Weighted>
-0.0000

> <Gold.Chemscore.Lipo.Weighted>
-12.8131

> <Gold.Chemscore.Internal_Hbond.Weighted>
0.0000

> <Gold.Chemscore.DEClash.Weighted>
0.2090

> <Gold.Chemscore.DEInternal.Weighted>
2.8542

> <Gold.Chemscore.Rot.Weighted>
6.0884

> <Gold.Chemscore.Internal.Correction.Weighted>
   9.000000E+99

> <Gold.Protein.RotatedTorsions>
[ 6907 6896 6895 6894 ] final  170.18 input  -60.11 | X-H torsion
[ 7974 7965 7964 7962 ] final   63.45 input  175.53 | X-H torsion
[ 8008 7997 7996 7995 ] final  -90.38 input   59.86 | X-H torsion
[ 10167 10162 10161 10158 ] final  -28.20 input  -65.29 | X-H torsion
[ 10718 10713 10712 10709 ] final -140.87 input   66.30 | X-H torsion
[ 10763 10752 10751 10750 ] final  -18.87 input  -60.55 | X-H torsion
[ 11005 11000 10999 10996 ] final   11.47 input  -57.11 | X-H torsion

> <Gold.Protein.ActiveResidues>
 VAL166  LYS551  ARG553  GLY616  TRP617  ASP618  TYR619  PRO620  LYS621  CYS622 
 ASP623  PHE694  ASN695  SER759  ASP760  ASP761  ALA762  ILE779  LEU786  VAL792 
 PHE793  MET794  SER795  GLU796  ALA797  LYS798  CYS799  TRP800  GLU811  SER814 

> <Gold.Protein.RotatedAtoms>
  151.8202  133.3393  159.3581 H   0  0  0  0  0  0  0  0  0  0  0  0  # atno 6907 bound_to 6896
  150.7297  134.5581  159.5838 H   0  0  0  0  0  0  0  0  0  0  0  0  # atno 6908 bound_to 6896
  152.3011  134.7610  160.0408 H   0  0  0  0  0  0  0  0  0  0  0  0  # atno 6909 bound_to 6896
  145.8617  139.3319  143.0815 H   0  0  0  0  0  0  0  0  0  0  0  0  # atno 7974 bound_to 7965
  154.6979  140.0531  157.0429 H   0  0  0  0  0  0  0  0  0  0  0  0  # atno 8008 bound_to 7997
  155.0725  140.3201  155.4607 H   0  0  0  0  0  0  0  0  0  0  0  0  # atno 8009 bound_to 7997
  156.2750  140.2079  156.5853 H   0  0  0  0  0  0  0  0  0  0  0  0  # atno 8010 bound_to 7997
  140.7272  143.4030  151.1233 H   0  0  0  0  0  0  0  0  0  0  0  0  # atno 10167 bound_to 10162
  156.3274  130.7567  151.1678 H   0  0  0  0  0  0  0  0  0  0  0  0  # atno 10718 bound_to 10713
  153.5960  135.7001  153.5403 H   0  0  0  0  0  0  0  0  0  0  0  0  # atno 10763 bound_to 10752
  153.3137  135.4094  155.1357 H   0  0  0  0  0  0  0  0  0  0  0  0  # atno 10764 bound_to 10752
  154.8591  135.3678  154.5494 H   0  0  0  0  0  0  0  0  0  0  0  0  # atno 10765 bound_to 10752
  140.5029  134.0728  155.7798 H   0  0  0  0  0  0  0  0  0  0  0  0  # atno 11005 bound_to 11000
  145.9240  140.9095  143.0390 LP  0  0  0  0  0  0  0  0  0  0  0  0  # atno 17320 bound_to 7965
  144.6726  140.1328  143.7442 LP  0  0  0  0  0  0  0  0  0  0  0  0  # atno 17321 bound_to 7965
  139.7652  143.8575  152.3109 LP  0  0  0  0  0  0  0  0  0  0  0  0  # atno 17342 bound_to 10162
  139.8475  144.7180  150.9255 LP  0  0  0  0  0  0  0  0  0  0  0  0  # atno 17343 bound_to 10162
  157.7424  131.0491  150.5028 LP  0  0  0  0  0  0  0  0  0  0  0  0  # atno 17370 bound_to 10713
  156.5189  130.4157  149.6261 LP  0  0  0  0  0  0  0  0  0  0  0  0  # atno 17371 bound_to 10713
  141.1426  133.9111  157.2291 LP  0  0  0  0  0  0  0  0  0  0  0  0  # atno 17394 bound_to 11000
  139.9703  135.0130  156.9494 LP  0  0  0  0  0  0  0  0  0  0  0  0  # atno 17395 bound_to 11000

$$$$
