AV-unprocessed.smi:1994|AV-procd|sdf|8073|dock8
  -GOLD-   2272010283D 1   1.00000     0.00000
 Structure written by MMmdl.
 39 41  0  0  0  0  0  0  0  0  1 V2000
  155.3351  138.7269  159.3507 C   0  0  0  0  0  0  0  0  0  0  0  0
  154.5528  139.9179  159.8057 C   0  0  0  0  0  0  0  0  0  0  0  0
  153.8795  140.6926  158.9545 N   0  0  0  0  0  0  0  0  0  0  0  0
  153.3268  141.6476  159.7860 C   0  0  0  0  0  0  0  0  0  0  0  0
  152.5007  142.7561  159.4916 C   0  0  0  0  0  0  0  0  0  0  0  0
  152.0530  143.6069  160.5235 C   0  0  0  0  0  0  0  0  0  0  0  0
  152.4235  143.3624  161.8618 C   0  0  0  0  0  0  0  0  0  0  0  0
  153.2459  142.2636  162.1771 C   0  0  0  0  0  0  0  0  0  0  0  0
  153.6900  141.4176  161.1434 C   0  0  0  0  0  0  0  0  0  0  0  0
  154.4883  140.2789  161.1114 N   0  0  0  0  0  0  0  0  0  0  0  0
  155.1134  139.6361  162.2590 C   0  0  0  0  0  0  0  0  0  0  0  0
  156.6450  139.5301  162.1129 C   0  0  1  0  0  0  0  0  0  0  0  0
  157.2533  140.8054  162.0610 O   0  0  0  0  0  0  0  0  0  0  0  0
  157.3126  138.6901  163.2143 C   0  0  0  0  0  0  0  0  0  0  0  0
  157.2622  137.3104  162.8725 O   0  0  0  0  0  0  0  0  0  0  0  0
  156.1966  136.5606  163.3232 C   0  0  0  0  0  0  0  0  0  0  0  0
  155.0204  137.1115  163.8933 C   0  0  0  0  0  0  0  0  0  0  0  0
  153.9788  136.2706  164.3319 C   0  0  0  0  0  0  0  0  0  0  0  0
  154.0971  134.8741  164.2066 C   0  0  0  0  0  0  0  0  0  0  0  0
  155.2596  134.3188  163.6411 C   0  0  0  0  0  0  0  0  0  0  0  0
  156.3019  135.1582  163.2026 C   0  0  0  0  0  0  0  0  0  0  0  0
  157.4163  134.6105  162.6611 F   0  0  0  0  0  0  0  0  0  0  0  0
  155.1802  138.5512  158.2856 H   0  0  0  0  0  0  0  0  0  0  0  0
  155.0218  137.8351  159.8933 H   0  0  0  0  0  0  0  0  0  0  0  0
  156.3995  138.8892  159.5213 H   0  0  0  0  0  0  0  0  0  0  0  0
  152.2120  142.9522  158.4695 H   0  0  0  0  0  0  0  0  0  0  0  0
  151.4222  144.4514  160.2871 H   0  0  0  0  0  0  0  0  0  0  0  0
  152.0764  144.0192  162.6460 H   0  0  0  0  0  0  0  0  0  0  0  0
  153.5323  142.0727  163.2007 H   0  0  0  0  0  0  0  0  0  0  0  0
  154.8465  140.1759  163.1675 H   0  0  0  0  0  0  0  0  0  0  0  0
  154.6824  138.6396  162.3629 H   0  0  0  0  0  0  0  0  0  0  0  0
  156.8689  139.0533  161.1579 H   0  0  0  0  0  0  0  0  0  0  0  0
  157.2217  141.1892  162.9237 H   0  0  0  0  0  0  0  0  0  0  0  0
  158.3561  138.9969  163.2998 H   0  0  0  0  0  0  0  0  0  0  0  0
  156.8325  138.8739  164.1770 H   0  0  0  0  0  0  0  0  0  0  0  0
  154.8922  138.1770  164.0068 H   0  0  0  0  0  0  0  0  0  0  0  0
  153.0874  136.6991  164.7659 H   0  0  0  0  0  0  0  0  0  0  0  0
  153.2982  134.2303  164.5437 H   0  0  0  0  0  0  0  0  0  0  0  0
  155.3532  133.2470  163.5441 H   0  0  0  0  0  0  0  0  0  0  0  0
  1  2  1  0  0  0  0
  1 23  1  0  0  0  0
  1 24  1  0  0  0  0
  1 25  1  0  0  0  0
  2 10  1  0  0  0  0
  2  3  2  0  0  0  0
  3  4  1  0  0  0  0
  4  9  2  0  0  0  0
  4  5  1  0  0  0  0
  5  6  2  0  0  0  0
  5 26  1  0  0  0  0
  6  7  1  0  0  0  0
  6 27  1  0  0  0  0
  7  8  2  0  0  0  0
  7 28  1  0  0  0  0
  8  9  1  0  0  0  0
  8 29  1  0  0  0  0
  9 10  1  0  0  0  0
 10 11  1  0  0  0  0
 11 12  1  0  0  0  0
 11 30  1  0  0  0  0
 11 31  1  0  0  0  0
 12 13  1  0  0  0  0
 12 14  1  0  0  0  0
 12 32  1  0  0  0  0
 13 33  1  0  0  0  0
 14 15  1  0  0  0  0
 14 34  1  0  0  0  0
 14 35  1  0  0  0  0
 15 16  1  0  0  0  0
 16 21  1  0  0  0  0
 16 17  2  0  0  0  0
 17 18  1  0  0  0  0
 17 36  1  0  0  0  0
 18 19  2  0  0  0  0
 18 37  1  0  0  0  0
 19 20  1  0  0  0  0
 19 38  1  0  0  0  0
 20 21  2  0  0  0  0
 20 39  1  0  0  0  0
 21 22  1  0  0  0  0
M  END
> <s_m_source_file>
AV-unprocessed.smi

> <i_m_source_file_index>
1994

> <i_lp_mmshare_version>
43012

> <i_f3d_flags>
0

> <s_epik_input>
W2NIXTFbY0hdW2NIXVtjSF1jKGMxMiluKGMobjIpW0NIM10pW0NIMl1bQ0BIXShbT0hdKVtDSDJdT2MzW2NIXVtjSF1bY0hdW2NIXWMzRg==

> <s_epik_cmdline>
J2VwaWtfcHl0aG9uJywgJy1waCcsICc3LjAnLCAnLXRuJywgJzgnLCAnLW1hJywgJzIwMCcsICctbWV0YWxfYmluZGluZycsICctaW1hZScsICc8aW5maWxlLm1hZT4nLCAnLW9tYWUnLCAnPG91dGZpbGUubWFlPic=

> <r_lp_tautomer_probability>
1

> <r_epik_Ionization_Penalty>
0.112614

> <r_epik_Ionization_Penalty_Charging>
0

> <r_epik_Ionization_Penalty_Neutral>
0.112614

> <r_epik_State_Penalty>
0.10231

> <r_epik_Charging_Adjusted_Penalty>
0.10231

> <i_epik_Tot_Q>
0

> <i_epik_Tot_abs_Q>
0

> <r_epik_Metal_State_Penalty>
0.000111664

> <b_epik_Metal_Only>
0

> <s_lp_Force_Field>
OPLS_2005

> <r_lp_Energy>
17.3721

> <b_lp_Chiralities_Consistent>
1

> <s_lp_Variant>
AV-unprocessed.smi:1994-2

> <Gold.Version>
5.8.1

> <Gold.Id.Protein>
6NUR|6NUR_protein|mol2

> <Gold.PLP.Fitness>
42.8093

> <Gold.PLP.PLP>
-42.2124

> <Gold.PLP.part.hbond>
-1.2585

> <Gold.PLP.part.metal>
0.0000

> <Gold.PLP.part.buried>
-2.3001

> <Gold.PLP.part.nonpolar>
-38.6136

> <Gold.PLP.part.repulsive>
0.0000

> <Gold.PLP.ligand.clash>
0.0000

> <Gold.PLP.ligand.torsion>
0.6911

> <Gold.PLP.Chemscore.Hbond>
0.6521

> <Gold.PLP.Chemscore.CHOScore>
0.0000

> <Gold.PLP.Chemscore.Metal>
0.0000

> <Gold.Chemscore.Hbonds>
donor molecule, donor type, donor heavy atom, donor atom, acceptor molecule, acceptor atom, score
      P1  H  7997  8008       L1     3  0.53

> <Gold.PLP.Chemscore.Internal.Correction>
0.0229

> <Gold.Rescore>
     Score         DG    S(hbond)    S(metal)    S(lipo)     H(rot)  DE(clash)    DE(int)     intcor
     14.88     -17.46       0.94        0.00     123.44       2.19       1.83       0.75       ----

> <Gold.Chemscore.Fitness>
14.8780

> <Gold.Chemscore.DG>
-17.4569

> <Gold.Chemscore.ZeroCoef>
-5.4800

> <Gold.Chemscore.Hbond>
0.9392

> <Gold.Chemscore.Metal>
0.0000

> <Gold.Chemscore.Lipo>
123.4425

> <Gold.Chemscore.Internal_Hbond>
0.0000

> <Gold.Chemscore.DEClash>
1.8317

> <Gold.Chemscore.DEInternal>
0.7472

> <Gold.Chemscore.Rot>
2.1886

> <Gold.Chemscore.Internal.Correction>
   9.000000E+99

> <Gold.Chemscore.Hbonds>
donor molecule, donor type, donor heavy atom, donor atom, acceptor molecule, acceptor atom, score
      P1  H  7997  8008       L1     3  0.10

> <Gold.Chemscore.Hbond.Weighted>
-3.1370

> <Gold.Chemscore.Metal.Weighted>
-0.0000

> <Gold.Chemscore.Lipo.Weighted>
-14.4428

> <Gold.Chemscore.Internal_Hbond.Weighted>
0.0000

> <Gold.Chemscore.DEClash.Weighted>
1.8317

> <Gold.Chemscore.DEInternal.Weighted>
0.7472

> <Gold.Chemscore.Rot.Weighted>
5.6028

> <Gold.Chemscore.Internal.Correction.Weighted>
   9.000000E+99

> <Gold.Protein.RotatedTorsions>
[ 6907 6896 6895 6894 ] final  -97.16 input  -60.11 | X-H torsion
[ 7974 7965 7964 7962 ] final   86.04 input  175.53 | X-H torsion
[ 8008 7997 7996 7995 ] final  -99.05 input   59.86 | X-H torsion
[ 10167 10162 10161 10158 ] final  -46.11 input  -65.29 | X-H torsion
[ 10718 10713 10712 10709 ] final  -56.82 input   66.30 | X-H torsion
[ 10763 10752 10751 10750 ] final   48.25 input  -60.55 | X-H torsion
[ 11005 11000 10999 10996 ] final   18.90 input  -57.11 | X-H torsion

> <Gold.Protein.ActiveResidues>
 VAL166  LYS551  ARG553  GLY616  TRP617  ASP618  TYR619  PRO620  LYS621  CYS622 
 ASP623  PHE694  ASN695  SER759  ASP760  ASP761  ALA762  ILE779  LEU786  VAL792 
 PHE793  MET794  SER795  GLU796  ALA797  LYS798  CYS799  TRP800  GLU811  SER814 

> <Gold.Protein.RotatedAtoms>
  150.7008  134.1391  159.4097 H   0  0  0  0  0  0  0  0  0  0  0  0  # atno 6907 bound_to 6896
  151.9375  135.0226  160.0543 H   0  0  0  0  0  0  0  0  0  0  0  0  # atno 6908 bound_to 6896
  152.2122  133.4884  159.5153 H   0  0  0  0  0  0  0  0  0  0  0  0  # atno 6909 bound_to 6896
  145.5775  139.2321  143.2371 H   0  0  0  0  0  0  0  0  0  0  0  0  # atno 7974 bound_to 7965
  154.8095  140.0450  157.1332 H   0  0  0  0  0  0  0  0  0  0  0  0  # atno 8008 bound_to 7997
  154.9385  140.3049  155.5112 H   0  0  0  0  0  0  0  0  0  0  0  0  # atno 8009 bound_to 7997
  156.2970  140.2310  156.4452 H   0  0  0  0  0  0  0  0  0  0  0  0  # atno 8010 bound_to 7997
  140.6831  143.2846  151.3736 H   0  0  0  0  0  0  0  0  0  0  0  0  # atno 10167 bound_to 10162
  156.1259  130.4162  150.0356 H   0  0  0  0  0  0  0  0  0  0  0  0  # atno 10718 bound_to 10713
  152.9793  135.5950  154.3896 H   0  0  0  0  0  0  0  0  0  0  0  0  # atno 10763 bound_to 10752
  154.3552  135.2767  155.2352 H   0  0  0  0  0  0  0  0  0  0  0  0  # atno 10764 bound_to 10752
  154.4373  135.6022  153.6162 H   0  0  0  0  0  0  0  0  0  0  0  0  # atno 10765 bound_to 10752
  140.4197  134.1532  155.7672 H   0  0  0  0  0  0  0  0  0  0  0  0  # atno 11005 bound_to 11000
  146.1740  140.6601  142.9220 LP  0  0  0  0  0  0  0  0  0  0  0  0  # atno 17320 bound_to 7965
  144.7409  140.4939  143.6870 LP  0  0  0  0  0  0  0  0  0  0  0  0  # atno 17321 bound_to 7965
  139.6167  144.0988  152.2353 LP  0  0  0  0  0  0  0  0  0  0  0  0  # atno 17342 bound_to 10162
  140.0419  144.6000  150.7404 LP  0  0  0  0  0  0  0  0  0  0  0  0  # atno 17343 bound_to 10162
  156.8282  130.9383  151.3638 LP  0  0  0  0  0  0  0  0  0  0  0  0  # atno 17370 bound_to 10713
  157.6440  130.8829  149.9503 LP  0  0  0  0  0  0  0  0  0  0  0  0  # atno 17371 bound_to 10713
  141.1789  133.8456  157.1327 LP  0  0  0  0  0  0  0  0  0  0  0  0  # atno 17394 bound_to 11000
  140.0209  134.9946  157.0590 LP  0  0  0  0  0  0  0  0  0  0  0  0  # atno 17395 bound_to 11000

$$$$
