AV-unprocessed.smi:1385|AV-procd|sdf|5632|dock7
  -GOLD-   22720 5253D 1   1.00000     0.00000
 Structure written by MMmdl.
 38 39  0  0  0  0  0  0  0  0  3 V2000
  152.1043  144.2820  158.8618 C   0  0  0  0  0  0  0  0  0  0  0  0
  151.6627  143.1936  157.9446 C   0  0  0  0  0  0  0  0  0  0  0  0
  151.6103  141.9118  158.3154 N   0  0  0  0  0  0  0  0  0  0  0  0
  151.1679  141.0889  157.2899 N   0  0  0  0  0  0  0  0  0  0  0  0
  150.8825  141.7585  156.1641 C   0  0  0  0  0  0  0  0  0  0  0  0
  150.4427  141.1440  155.0535 N   0  5  0  0  0  0  0  0  0  0  0  0
  149.2606  140.4885  155.0672 C   0  0  0  0  0  0  0  0  0  0  0  0
  148.6138  140.1660  156.0663 O   0  0  0  0  0  0  0  0  0  0  0  0
  148.8007  140.1847  153.8449 N   0  0  0  0  0  0  0  0  0  0  0  0
  147.5606  139.4746  153.5476 C   0  0  2  0  0  0  0  0  0  0  0  0
  147.4767  138.1605  154.3461 C   0  0  0  0  0  0  0  0  0  0  0  0
  146.2298  137.3507  153.9570 C   0  0  0  0  0  0  0  0  0  0  0  0
  146.2021  137.0793  152.4973 N   0  3  1  0  0  0  0  0  0  0  0  0
  145.0873  136.1774  152.1092 C   0  0  0  0  0  0  0  0  0  0  0  0
  145.3782  135.3769  150.8354 C   0  0  0  0  0  0  0  0  0  0  0  0
  145.1901  136.0055  149.6729 N   0  0  0  0  0  0  0  0  0  0  0  0
  145.7515  134.2066  150.8939 O   0  0  0  0  0  0  0  0  0  0  0  0
  146.2361  138.3395  151.7077 C   0  0  0  0  0  0  0  0  0  0  0  0
  147.4863  139.1681  152.0436 C   0  0  0  0  0  0  0  0  0  0  0  0
  151.1644  143.4948  156.2885 S   0  0  0  0  0  0  0  0  0  0  0  0
  151.2576  144.6419  159.4464 H   0  0  0  0  0  0  0  0  0  0  0  0
  152.5150  145.1139  158.2896 H   0  0  0  0  0  0  0  0  0  0  0  0
  152.8723  143.9160  159.5438 H   0  0  0  0  0  0  0  0  0  0  0  0
  149.3650  140.4704  153.0580 H   0  0  0  0  0  0  0  0  0  0  0  0
  146.7128  140.1104  153.8106 H   0  0  0  0  0  0  0  0  0  0  0  0
  148.3698  137.5600  154.1658 H   0  0  0  0  0  0  0  0  0  0  0  0
  147.4565  138.3681  155.4166 H   0  0  0  0  0  0  0  0  0  0  0  0
  146.2312  136.4095  154.5079 H   0  0  0  0  0  0  0  0  0  0  0  0
  145.3252  137.8880  154.2468 H   0  0  0  0  0  0  0  0  0  0  0  0
  144.9130  135.4481  152.9013 H   0  0  0  0  0  0  0  0  0  0  0  0
  144.1641  136.7492  152.0007 H   0  0  0  0  0  0  0  0  0  0  0  0
  145.3687  135.5280  148.8012 H   0  0  0  0  0  0  0  0  0  0  0  0
  144.8703  136.9637  149.6690 H   0  0  0  0  0  0  0  0  0  0  0  0
  146.2332  138.1164  150.6405 H   0  0  0  0  0  0  0  0  0  0  0  0
  145.3359  138.9220  151.9102 H   0  0  0  0  0  0  0  0  0  0  0  0
  147.4770  140.0973  151.4724 H   0  0  0  0  0  0  0  0  0  0  0  0
  148.3772  138.6211  151.7302 H   0  0  0  0  0  0  0  0  0  0  0  0
  147.0537  136.5776  152.2873 H   0  0  0  0  0  0  0  0  0  0  0  0
  1  2  1  0  0  0  0
  1 21  1  0  0  0  0
  1 22  1  0  0  0  0
  1 23  1  0  0  0  0
  2 20  1  0  0  0  0
  2  3  2  0  0  0  0
  3  4  1  0  0  0  0
  4  5  2  0  0  0  0
  5  6  1  0  0  0  0
  5 20  1  0  0  0  0
  6  7  1  0  0  0  0
  7  8  2  0  0  0  0
  7  9  1  0  0  0  0
  9 10  1  0  0  0  0
  9 24  1  0  0  0  0
 10 19  1  0  0  0  0
 10 11  1  0  0  0  0
 10 25  1  0  0  0  0
 11 12  1  0  0  0  0
 11 26  1  0  0  0  0
 11 27  1  0  0  0  0
 12 13  1  0  0  0  0
 12 28  1  0  0  0  0
 12 29  1  0  0  0  0
 13 14  1  0  0  0  0
 13 18  1  0  0  0  0
 13 38  1  0  0  0  0
 14 15  1  0  0  0  0
 14 30  1  0  0  0  0
 14 31  1  0  0  0  0
 15 16  1  0  0  0  0
 15 17  2  0  0  0  0
 16 32  1  0  0  0  0
 16 33  1  0  0  0  0
 18 19  1  0  0  0  0
 18 34  1  0  0  0  0
 18 35  1  0  0  0  0
 19 36  1  0  0  0  0
 19 37  1  0  0  0  0
M  CHG  1   6  -1
M  CHG  1  13   1
M  END
> <s_m_source_file>
AV-unprocessed.smi

> <i_m_source_file_index>
1385

> <i_lp_mmshare_version>
43012

> <i_f3d_flags>
0

> <s_epik_input>
W0NIM11jMW5uYyhzMSlbTkhdQyg9TylbTkhdW0NIXTJbQ0gyXVtDSDJdTihbQ0gyXVtDSDJdMilbQ0gyXUMoPU8pW05IMl0=

> <s_epik_cmdline>
J2VwaWtfcHl0aG9uJywgJy1waCcsICc3LjAnLCAnLXRuJywgJzgnLCAnLW1hJywgJzIwMCcsICctbWV0YWxfYmluZGluZycsICctaW1hZScsICc8aW5maWxlLm1hZT4nLCAnLW9tYWUnLCAnPG91dGZpbGUubWFlPic=

> <r_lp_tautomer_probability>
1

> <r_epik_Ionization_Penalty>
3.90109

> <r_epik_Ionization_Penalty_Charging>
3.79141

> <r_epik_Ionization_Penalty_Neutral>
0.109679

> <r_epik_State_Penalty>
3.87237

> <r_epik_Charging_Adjusted_Penalty>
7.66378

> <i_epik_Tot_Q>
0

> <i_epik_Tot_abs_Q>
2

> <r_epik_Metal_State_Penalty>
1.33354

> <b_epik_Metal_Only>
1

> <s_lp_Force_Field>
OPLS_2005

> <r_lp_Energy>
4.67367

> <b_lp_Chiralities_Consistent>
1

> <s_lp_Variant>
AV-unprocessed.smi:1385-5

> <Gold.Version>
5.8.1

> <Gold.Id.Protein>
6NUR|6NUR_protein|mol2

> <Gold.PLP.Fitness>
41.3844

> <Gold.PLP.PLP>
-27.3349

> <Gold.PLP.part.hbond>
-5.0000

> <Gold.PLP.part.metal>
0.0000

> <Gold.PLP.part.buried>
4.0520

> <Gold.PLP.part.nonpolar>
-27.0148

> <Gold.PLP.part.repulsive>
0.6072

> <Gold.PLP.ligand.clash>
0.0000

> <Gold.PLP.ligand.torsion>
1.2292

> <Gold.PLP.Chemscore.Hbond>
5.4820

> <Gold.PLP.Chemscore.CHOScore>
0.0000

> <Gold.PLP.Chemscore.Metal>
0.0000

> <Gold.Chemscore.Hbonds>
donor molecule, donor type, donor heavy atom, donor atom, acceptor molecule, acceptor atom, score
      L1  H     9    24       P1  7957  0.80
      L1  H    13    38       P1  7948  2.00
      L1  H    16    32       P1  7921  1.00
      L1  H    16    33       P1 10171  1.00
      P1  H  7989  7998       L1     6  0.64

> <Gold.PLP.Chemscore.Internal.Correction>
0.0619

> <Gold.Rescore>
     Score         DG    S(hbond)    S(metal)    S(lipo)     H(rot)  DE(clash)    DE(int)     intcor
     15.26     -22.94       4.22        0.00      73.46       2.04       4.06       3.62       ----

> <Gold.Chemscore.Fitness>
15.2579

> <Gold.Chemscore.DG>
-22.9361

> <Gold.Chemscore.ZeroCoef>
-5.4800

> <Gold.Chemscore.Hbond>
4.2178

> <Gold.Chemscore.Metal>
0.0000

> <Gold.Chemscore.Lipo>
73.4610

> <Gold.Chemscore.Internal_Hbond>
0.0000

> <Gold.Chemscore.DEClash>
4.0610

> <Gold.Chemscore.DEInternal>
3.6172

> <Gold.Chemscore.Rot>
2.0415

> <Gold.Chemscore.Internal.Correction>
   9.000000E+99

> <Gold.Chemscore.Hbonds>
donor molecule, donor type, donor heavy atom, donor atom, acceptor molecule, acceptor atom, score
      L1  H     9    24       P1  7957  0.78
      L1  H    13    38       P1  7948  0.98
      L1  H    16    32       P1  7921  0.95
      L1  H    16    33       P1 10171  1.00
      P1  H  7989  7998       L1     6  0.59

> <Gold.Chemscore.Hbond.Weighted>
-14.0874

> <Gold.Chemscore.Metal.Weighted>
-0.0000

> <Gold.Chemscore.Lipo.Weighted>
-8.5949

> <Gold.Chemscore.Internal_Hbond.Weighted>
0.0000

> <Gold.Chemscore.DEClash.Weighted>
4.0610

> <Gold.Chemscore.DEInternal.Weighted>
3.6172

> <Gold.Chemscore.Rot.Weighted>
5.2262

> <Gold.Chemscore.Internal.Correction.Weighted>
   9.000000E+99

> <Gold.Protein.RotatedTorsions>
[ 6907 6896 6895 6894 ] final -170.13 input  -60.11 | X-H torsion
[ 7974 7965 7964 7962 ] final   14.53 input  175.53 | X-H torsion
[ 8008 7997 7996 7995 ] final  -16.31 input   59.86 | X-H torsion
[ 10167 10162 10161 10158 ] final  -59.49 input  -65.29 | X-H torsion
[ 10718 10713 10712 10709 ] final  161.06 input   66.30 | X-H torsion
[ 10763 10752 10751 10750 ] final  124.01 input  -60.55 | X-H torsion
[ 11005 11000 10999 10996 ] final  119.48 input  -57.11 | X-H torsion

> <Gold.Protein.ActiveResidues>
 VAL166  LYS551  ARG553  GLY616  TRP617  ASP618  TYR619  PRO620  LYS621  CYS622 
 ASP623  PHE694  ASN695  SER759  ASP760  ASP761  ALA762  ILE779  LEU786  VAL792 
 PHE793  MET794  SER795  GLU796  ALA797  LYS798  CYS799  TRP800  GLU811  SER814 

> <Gold.Protein.RotatedAtoms>
  151.5028  133.3501  159.2871 H   0  0  0  0  0  0  0  0  0  0  0  0  # atno 6907 bound_to 6896
  150.8762  134.8147  159.7202 H   0  0  0  0  0  0  0  0  0  0  0  0  # atno 6908 bound_to 6896
  152.4732  134.4919  159.9750 H   0  0  0  0  0  0  0  0  0  0  0  0  # atno 6909 bound_to 6896
  146.2302  139.9027  142.8536 H   0  0  0  0  0  0  0  0  0  0  0  0  # atno 7974 bound_to 7965
  154.5063  140.2173  155.9245 H   0  0  0  0  0  0  0  0  0  0  0  0  # atno 8008 bound_to 7997
  156.1497  140.3164  155.8595 H   0  0  0  0  0  0  0  0  0  0  0  0  # atno 8009 bound_to 7997
  155.3962  140.0481  157.3029 H   0  0  0  0  0  0  0  0  0  0  0  0  # atno 8010 bound_to 7997
  140.6132  143.2393  151.5661 H   0  0  0  0  0  0  0  0  0  0  0  0  # atno 10167 bound_to 10162
  157.1418  131.0542  151.2323 H   0  0  0  0  0  0  0  0  0  0  0  0  # atno 10718 bound_to 10713
  153.6547  135.3357  155.3110 H   0  0  0  0  0  0  0  0  0  0  0  0  # atno 10763 bound_to 10752
  154.8529  135.4349  154.1867 H   0  0  0  0  0  0  0  0  0  0  0  0  # atno 10764 bound_to 10752
  153.2819  135.7009  153.7452 H   0  0  0  0  0  0  0  0  0  0  0  0  # atno 10765 bound_to 10752
  139.9148  134.9628  156.7661 H   0  0  0  0  0  0  0  0  0  0  0  0  # atno 11005 bound_to 11000
  145.2307  140.9972  143.3992 LP  0  0  0  0  0  0  0  0  0  0  0  0  # atno 17320 bound_to 7965
  144.9533  139.4059  143.6392 LP  0  0  0  0  0  0  0  0  0  0  0  0  # atno 17321 bound_to 7965
  139.5377  144.2734  152.1286 LP  0  0  0  0  0  0  0  0  0  0  0  0  # atno 17342 bound_to 10162
  140.1937  144.4726  150.6466 LP  0  0  0  0  0  0  0  0  0  0  0  0  # atno 17343 bound_to 10162
  157.4300  130.7485  149.6982 LP  0  0  0  0  0  0  0  0  0  0  0  0  # atno 17370 bound_to 10713
  155.9787  130.4048  150.3632 LP  0  0  0  0  0  0  0  0  0  0  0  0  # atno 17371 bound_to 10713
  140.6658  133.9604  155.7829 LP  0  0  0  0  0  0  0  0  0  0  0  0  # atno 17394 bound_to 11000
  141.0612  134.0344  157.3656 LP  0  0  0  0  0  0  0  0  0  0  0  0  # atno 17395 bound_to 11000

$$$$
