AV-unprocessed.smi:2823|AV-procd|sdf|10885|dock3
  -GOLD-   2272015323D 1   1.00000     0.00000
 Structure written by MMmdl.
 41 42  0  0  0  0  0  0  0  0  2 V2000
  146.5996  134.2492  162.8134 C   0  0  0  0  0  0  0  0  0  0  0  0
  147.3408  135.2471  161.9909 C   0  0  0  0  0  0  0  0  0  0  0  0
  147.1097  136.5460  162.1111 N   0  0  0  0  0  0  0  0  0  0  0  0
  147.9977  137.1131  161.1865 O   0  0  0  0  0  0  0  0  0  0  0  0
  148.6651  136.0826  160.6050 C   0  0  0  0  0  0  0  0  0  0  0  0
  149.6016  136.2976  159.6664 N   0  5  0  0  0  0  0  0  0  0  0  0
  149.3156  137.0715  158.5954 C   0  0  0  0  0  0  0  0  0  0  0  0
  148.7647  136.7022  157.5564 O   0  0  0  0  0  0  0  0  0  0  0  0
  149.6862  138.3523  158.7421 N   0  0  0  0  0  0  0  0  0  0  0  0
  149.4966  139.4370  157.7768 C   0  0  0  0  0  0  0  0  0  0  0  0
  150.7665  140.3280  157.6054 C   0  0  0  0  0  0  0  0  0  0  0  0
  151.8873  139.6207  156.7703 C   0  0  0  0  0  0  0  0  0  0  0  0
  152.9760  139.4190  157.3147 O   0  0  0  0  0  0  0  0  0  0  0  0
  151.7029  139.2476  155.4743 N   0  0  0  0  0  0  0  0  0  0  0  0
  152.8323  138.7008  154.7154 C   0  0  0  0  0  0  0  0  0  0  0  0
  150.4734  139.3224  154.6785 C   0  0  0  0  0  0  0  0  0  0  0  0
  150.3278  141.6631  156.9398 C   0  0  0  0  0  0  0  0  0  0  0  0
  151.3607  142.7274  157.3251 C   0  0  0  0  0  0  0  0  0  0  0  0
  151.9932  142.2300  158.6261 C   0  0  0  0  0  0  0  0  0  0  0  0
  151.3285  140.8821  158.9387 C   0  0  0  0  0  0  0  0  0  0  0  0
  148.2928  134.8956  161.0860 N   0  0  0  0  0  0  0  0  0  0  0  0
  145.6019  134.6159  163.0575 H   0  0  0  0  0  0  0  0  0  0  0  0
  147.1365  134.0566  163.7422 H   0  0  0  0  0  0  0  0  0  0  0  0
  146.4964  133.3092  162.2706 H   0  0  0  0  0  0  0  0  0  0  0  0
  150.1319  138.5998  159.6133 H   0  0  0  0  0  0  0  0  0  0  0  0
  149.2584  138.9624  156.8246 H   0  0  0  0  0  0  0  0  0  0  0  0
  148.6031  140.0085  158.0149 H   0  0  0  0  0  0  0  0  0  0  0  0
  153.1697  137.7593  155.1512 H   0  0  0  0  0  0  0  0  0  0  0  0
  153.6706  139.3995  154.7152 H   0  0  0  0  0  0  0  0  0  0  0  0
  152.5786  138.5074  153.6722 H   0  0  0  0  0  0  0  0  0  0  0  0
  149.5671  139.5404  155.2326 H   0  0  0  0  0  0  0  0  0  0  0  0
  150.2973  138.3713  154.1751 H   0  0  0  0  0  0  0  0  0  0  0  0
  150.5765  140.0869  153.9084 H   0  0  0  0  0  0  0  0  0  0  0  0
  150.1929  141.5951  155.8593 H   0  0  0  0  0  0  0  0  0  0  0  0
  149.3610  141.9736  157.3390 H   0  0  0  0  0  0  0  0  0  0  0  0
  152.1230  142.8172  156.5505 H   0  0  0  0  0  0  0  0  0  0  0  0
  150.8985  143.7080  157.4425 H   0  0  0  0  0  0  0  0  0  0  0  0
  153.0668  142.0980  158.4856 H   0  0  0  0  0  0  0  0  0  0  0  0
  151.8562  142.9385  159.4436 H   0  0  0  0  0  0  0  0  0  0  0  0
  150.5099  141.0426  159.6415 H   0  0  0  0  0  0  0  0  0  0  0  0
  152.0446  140.2340  159.4392 H   0  0  0  0  0  0  0  0  0  0  0  0
  1  2  1  0  0  0  0
  1 22  1  0  0  0  0
  1 23  1  0  0  0  0
  1 24  1  0  0  0  0
  2 21  1  0  0  0  0
  2  3  2  0  0  0  0
  3  4  1  0  0  0  0
  4  5  1  0  0  0  0
  5  6  1  0  0  0  0
  5 21  2  0  0  0  0
  6  7  1  0  0  0  0
  7  8  2  0  0  0  0
  7  9  1  0  0  0  0
  9 10  1  0  0  0  0
  9 25  1  0  0  0  0
 10 11  1  0  0  0  0
 10 26  1  0  0  0  0
 10 27  1  0  0  0  0
 11 20  1  0  0  0  0
 11 12  1  0  0  0  0
 11 17  1  0  0  0  0
 12 13  2  0  0  0  0
 12 14  1  0  0  0  0
 14 15  1  0  0  0  0
 14 16  1  0  0  0  0
 15 28  1  0  0  0  0
 15 29  1  0  0  0  0
 15 30  1  0  0  0  0
 16 31  1  0  0  0  0
 16 32  1  0  0  0  0
 16 33  1  0  0  0  0
 17 18  1  0  0  0  0
 17 34  1  0  0  0  0
 17 35  1  0  0  0  0
 18 19  1  0  0  0  0
 18 36  1  0  0  0  0
 18 37  1  0  0  0  0
 19 20  1  0  0  0  0
 19 38  1  0  0  0  0
 19 39  1  0  0  0  0
 20 40  1  0  0  0  0
 20 41  1  0  0  0  0
M  CHG  1   6  -1
M  END
> <s_m_source_file>
AV-unprocessed.smi

> <i_m_source_file_index>
2823

> <i_lp_mmshare_version>
43012

> <i_f3d_flags>
0

> <s_epik_input>
W0NIM11jMW5vYyhuMSlbTkhdQyg9TylbTkhdW0NIMl1DMihDKD1PKU4oW0NIM10pW0NIM10pW0NIMl1bQ0gyXVtDSDJdW0NIMl0y

> <s_epik_cmdline>
J2VwaWtfcHl0aG9uJywgJy1waCcsICc3LjAnLCAnLXRuJywgJzgnLCAnLW1hJywgJzIwMCcsICctbWV0YWxfYmluZGluZycsICctaW1hZScsICc8aW5maWxlLm1hZT4nLCAnLW9tYWUnLCAnPG91dGZpbGUubWFlPic=

> <r_lp_tautomer_probability>
1

> <r_epik_Ionization_Penalty>
6.03325

> <r_epik_Ionization_Penalty_Charging>
6.03318

> <r_epik_Ionization_Penalty_Neutral>
6.91426e-05

> <r_epik_State_Penalty>
6.03316

> <r_epik_Charging_Adjusted_Penalty>
12.0663

> <i_epik_Tot_Q>
-1

> <i_epik_Tot_abs_Q>
1

> <r_epik_Metal_State_Penalty>
1.98358

> <b_epik_Metal_Only>
1

> <s_lp_Force_Field>
OPLS_2005

> <r_lp_Energy>
29.6758

> <b_lp_Chiralities_Consistent>
1

> <s_lp_Variant>
AV-unprocessed.smi:2823-2

> <Gold.Version>
5.8.1

> <Gold.Id.Protein>
6NUR|6NUR_protein|mol2

> <Gold.PLP.Fitness>
48.3534

> <Gold.PLP.PLP>
-36.7164

> <Gold.PLP.part.hbond>
-4.0000

> <Gold.PLP.part.metal>
0.0000

> <Gold.PLP.part.buried>
-5.9274

> <Gold.PLP.part.nonpolar>
-27.9501

> <Gold.PLP.part.repulsive>
0.1899

> <Gold.PLP.ligand.clash>
0.0000

> <Gold.PLP.ligand.torsion>
1.5519

> <Gold.PLP.Chemscore.Hbond>
4.8400

> <Gold.PLP.Chemscore.CHOScore>
0.0000

> <Gold.PLP.Chemscore.Metal>
0.0000

> <Gold.Chemscore.Hbonds>
donor molecule, donor type, donor heavy atom, donor atom, acceptor molecule, acceptor atom, score
      P1  H  6896  6908       L1     6  2.00
      P1  H  6931  6943       L1     4  1.00
      P1  H  6934  6947       L1     4  0.62
      P1  H  7997  8008       L1    13  1.00

> <Gold.PLP.Chemscore.Internal.Correction>
0.2208

> <Gold.Rescore>
     Score         DG    S(hbond)    S(metal)    S(lipo)     H(rot)  DE(clash)    DE(int)     intcor
     16.43     -18.03       2.99        0.00      59.38       1.71       0.00       1.61       ----

> <Gold.Chemscore.Fitness>
16.4293

> <Gold.Chemscore.DG>
-18.0346

> <Gold.Chemscore.ZeroCoef>
-5.4800

> <Gold.Chemscore.Hbond>
2.9932

> <Gold.Chemscore.Metal>
0.0000

> <Gold.Chemscore.Lipo>
59.3786

> <Gold.Chemscore.Internal_Hbond>
0.0000

> <Gold.Chemscore.DEClash>
0.0000

> <Gold.Chemscore.DEInternal>
1.6053

> <Gold.Chemscore.Rot>
1.7149

> <Gold.Chemscore.Internal.Correction>
   9.000000E+99

> <Gold.Chemscore.Hbonds>
donor molecule, donor type, donor heavy atom, donor atom, acceptor molecule, acceptor atom, score
      P1  H  6896  6908       L1     6  0.65
      P1  H  6931  6943       L1     4  0.68
      P1  H  6934  6947       L1     4  0.21
      P1  H  7997  8008       L1    13  0.84

> <Gold.Chemscore.Hbond.Weighted>
-9.9974

> <Gold.Chemscore.Metal.Weighted>
-0.0000

> <Gold.Chemscore.Lipo.Weighted>
-6.9473

> <Gold.Chemscore.Internal_Hbond.Weighted>
0.0000

> <Gold.Chemscore.DEClash.Weighted>
0.0000

> <Gold.Chemscore.DEInternal.Weighted>
1.6053

> <Gold.Chemscore.Rot.Weighted>
4.3901

> <Gold.Chemscore.Internal.Correction.Weighted>
   9.000000E+99

> <Gold.Protein.RotatedTorsions>
[ 6907 6896 6895 6894 ] final -173.32 input  -60.11 | X-H torsion
[ 7974 7965 7964 7962 ] final -123.37 input  175.53 | X-H torsion
[ 8008 7997 7996 7995 ] final  -47.62 input   59.86 | X-H torsion
[ 10167 10162 10161 10158 ] final  -84.10 input  -65.29 | X-H torsion
[ 10718 10713 10712 10709 ] final  170.99 input   66.30 | X-H torsion
[ 10763 10752 10751 10750 ] final  -53.39 input  -60.55 | X-H torsion
[ 11005 11000 10999 10996 ] final  118.94 input  -57.11 | X-H torsion

> <Gold.Protein.ActiveResidues>
 VAL166  LYS551  ARG553  GLY616  TRP617  ASP618  TYR619  PRO620  LYS621  CYS622 
 ASP623  PHE694  ASN695  SER759  ASP760  ASP761  ALA762  ILE779  LEU786  VAL792 
 PHE793  MET794  SER795  GLU796  ALA797  LYS798  CYS799  TRP800  GLU811  SER814 

> <Gold.Protein.RotatedAtoms>
  151.5542  133.3413  159.2958 H   0  0  0  0  0  0  0  0  0  0  0  0  # atno 6907 bound_to 6896
  150.8460  134.7772  159.6982 H   0  0  0  0  0  0  0  0  0  0  0  0  # atno 6908 bound_to 6896
  152.4518  134.5385  159.9884 H   0  0  0  0  0  0  0  0  0  0  0  0  # atno 6909 bound_to 6896
  145.0194  140.7975  143.4390 H   0  0  0  0  0  0  0  0  0  0  0  0  # atno 7974 bound_to 7965
  154.4019  140.1342  156.4205 H   0  0  0  0  0  0  0  0  0  0  0  0  # atno 8008 bound_to 7997
  155.7647  140.3485  155.5196 H   0  0  0  0  0  0  0  0  0  0  0  0  # atno 8009 bound_to 7997
  155.8825  140.0989  157.1466 H   0  0  0  0  0  0  0  0  0  0  0  0  # atno 8010 bound_to 7997
  140.4165  143.2601  151.8948 H   0  0  0  0  0  0  0  0  0  0  0  0  # atno 10167 bound_to 10162
  157.0001  131.0173  151.2833 H   0  0  0  0  0  0  0  0  0  0  0  0  # atno 10718 bound_to 10713
  154.1580  135.6479  153.4979 H   0  0  0  0  0  0  0  0  0  0  0  0  # atno 10763 bound_to 10752
  153.0118  135.5354  154.6740 H   0  0  0  0  0  0  0  0  0  0  0  0  # atno 10764 bound_to 10752
  154.6046  135.2947  155.0470 H   0  0  0  0  0  0  0  0  0  0  0  0  # atno 10765 bound_to 10752
  139.9128  134.9624  156.7579 H   0  0  0  0  0  0  0  0  0  0  0  0  # atno 11005 bound_to 11000
  145.1916  139.2298  143.5240 LP  0  0  0  0  0  0  0  0  0  0  0  0  # atno 17320 bound_to 7965
  146.3483  140.1713  142.8589 LP  0  0  0  0  0  0  0  0  0  0  0  0  # atno 17321 bound_to 7965
  139.4782  144.5483  151.8425 LP  0  0  0  0  0  0  0  0  0  0  0  0  # atno 17342 bound_to 10162
  140.4581  144.1761  150.5903 LP  0  0  0  0  0  0  0  0  0  0  0  0  # atno 17343 bound_to 10162
  157.5396  130.8111  149.8013 LP  0  0  0  0  0  0  0  0  0  0  0  0  # atno 17370 bound_to 10713
  156.0174  130.3808  150.2067 LP  0  0  0  0  0  0  0  0  0  0  0  0  # atno 17371 bound_to 10713
  140.6721  133.9550  155.7862 LP  0  0  0  0  0  0  0  0  0  0  0  0  # atno 17394 bound_to 11000
  141.0570  134.0402  157.3709 LP  0  0  0  0  0  0  0  0  0  0  0  0  # atno 17395 bound_to 11000

$$$$
