AV-unprocessed.smi:1579|AV-procd|sdf|6355|dock5
  -GOLD-   22720 6573D 1   1.00000     0.00000
 Structure written by MMmdl.
 47 48  0  0  0  0  0  0  0  0  2 V2000
  151.5821  142.1401  157.3392 C   0  0  0  0  0  0  0  0  0  0  0  0
  151.8816  140.6700  157.2212 C   0  0  0  0  0  0  0  0  0  0  0  0
  151.9358  140.1823  156.0251 N   0  0  0  0  0  0  0  0  0  0  0  0
  152.2064  138.8466  155.8051 N   0  0  0  0  0  0  0  0  0  0  0  0
  152.2292  138.4677  154.3871 C   0  0  0  0  0  0  0  0  0  0  0  0
  150.9343  137.7426  153.9589 C   0  0  1  0  0  0  0  0  0  0  0  0
  151.0471  136.3822  154.3291 O   0  0  0  0  0  0  0  0  0  0  0  0
  149.6974  138.3167  154.6796 C   0  0  0  0  0  0  0  0  0  0  0  0
  148.4228  137.9019  154.0390 N   0  3  2  0  0  0  0  0  0  0  0  0
  147.7144  139.0185  153.3584 C   0  0  0  0  0  0  0  0  0  0  0  0
  146.4819  138.5068  152.5942 C   0  0  0  0  0  0  0  0  0  0  0  0
  145.5196  137.7512  153.5262 C   0  0  1  0  0  0  0  0  0  0  0  0
  144.3032  137.2058  152.7650 C   0  0  0  0  0  0  0  0  0  0  0  0
  146.2878  136.6313  154.2480 C   0  0  0  0  0  0  0  0  0  0  0  0
  147.5250  137.1815  154.9774 C   0  0  0  0  0  0  0  0  0  0  0  0
  152.4337  137.9276  156.7871 C   0  0  0  0  0  0  0  0  0  0  0  0
  152.6596  136.7413  156.5425 O   0  0  0  0  0  0  0  0  0  0  0  0
  152.3718  138.4862  158.1394 C   0  0  0  0  0  0  0  0  0  0  0  0
  152.6087  137.5588  159.1983 C   0  0  0  0  0  0  0  0  0  0  0  0
  152.7935  136.7925  160.0461 N   0  0  0  0  0  0  0  0  0  0  0  0
  152.1055  139.7964  158.3688 C   0  0  0  0  0  0  0  0  0  0  0  0
  152.0290  140.4245  159.7538 C   0  0  0  0  0  0  0  0  0  0  0  0
  152.3417  142.6447  157.9364 H   0  0  0  0  0  0  0  0  0  0  0  0
  150.6150  142.2993  157.8168 H   0  0  0  0  0  0  0  0  0  0  0  0
  151.5536  142.6293  156.3644 H   0  0  0  0  0  0  0  0  0  0  0  0
  152.4127  139.3356  153.7500 H   0  0  0  0  0  0  0  0  0  0  0  0
  153.0901  137.8173  154.2217 H   0  0  0  0  0  0  0  0  0  0  0  0
  150.8061  137.8079  152.8791 H   0  0  0  0  0  0  0  0  0  0  0  0
  151.1000  135.8600  153.5424 H   0  0  0  0  0  0  0  0  0  0  0  0
  149.7183  137.9847  155.7190 H   0  0  0  0  0  0  0  0  0  0  0  0
  149.7407  139.4066  154.7100 H   0  0  0  0  0  0  0  0  0  0  0  0
  147.4140  139.7643  154.0961 H   0  0  0  0  0  0  0  0  0  0  0  0
  148.3787  139.5218  152.6570 H   0  0  0  0  0  0  0  0  0  0  0  0
  145.9667  139.3467  152.1265 H   0  0  0  0  0  0  0  0  0  0  0  0
  146.8040  137.8517  151.7832 H   0  0  0  0  0  0  0  0  0  0  0  0
  145.1538  138.4521  154.2783 H   0  0  0  0  0  0  0  0  0  0  0  0
  144.6031  136.4982  151.9913 H   0  0  0  0  0  0  0  0  0  0  0  0
  143.7487  138.0111  152.2826 H   0  0  0  0  0  0  0  0  0  0  0  0
  143.6172  136.6914  153.4386 H   0  0  0  0  0  0  0  0  0  0  0  0
  145.6341  136.1296  154.9624 H   0  0  0  0  0  0  0  0  0  0  0  0
  146.5984  135.8718  153.5286 H   0  0  0  0  0  0  0  0  0  0  0  0
  148.0628  136.3523  155.4390 H   0  0  0  0  0  0  0  0  0  0  0  0
  147.2225  137.8521  155.7833 H   0  0  0  0  0  0  0  0  0  0  0  0
  152.0858  139.6800  160.5474 H   0  0  0  0  0  0  0  0  0  0  0  0
  151.0902  140.9639  159.8838 H   0  0  0  0  0  0  0  0  0  0  0  0
  152.8518  141.1254  159.8981 H   0  0  0  0  0  0  0  0  0  0  0  0
  148.6756  137.2323  153.3260 H   0  0  0  0  0  0  0  0  0  0  0  0
  1  2  1  0  0  0  0
  1 23  1  0  0  0  0
  1 24  1  0  0  0  0
  1 25  1  0  0  0  0
  2 21  1  0  0  0  0
  2  3  2  0  0  0  0
  3  4  1  0  0  0  0
  4  5  1  0  0  0  0
  4 16  1  0  0  0  0
  5  6  1  0  0  0  0
  5 26  1  0  0  0  0
  5 27  1  0  0  0  0
  6  7  1  0  0  0  0
  6  8  1  0  0  0  0
  6 28  1  0  0  0  0
  7 29  1  0  0  0  0
  8  9  1  0  0  0  0
  8 30  1  0  0  0  0
  8 31  1  0  0  0  0
  9 15  1  0  0  0  0
  9 10  1  0  0  0  0
  9 47  1  0  0  0  0
 10 11  1  0  0  0  0
 10 32  1  0  0  0  0
 10 33  1  0  0  0  0
 11 12  1  0  0  0  0
 11 34  1  0  0  0  0
 11 35  1  0  0  0  0
 12 13  1  0  0  0  0
 12 14  1  0  0  0  0
 12 36  1  0  0  0  0
 13 37  1  0  0  0  0
 13 38  1  0  0  0  0
 13 39  1  0  0  0  0
 14 15  1  0  0  0  0
 14 40  1  0  0  0  0
 14 41  1  0  0  0  0
 15 42  1  0  0  0  0
 15 43  1  0  0  0  0
 16 17  2  0  0  0  0
 16 18  1  0  0  0  0
 18 19  1  0  0  0  0
 18 21  2  0  0  0  0
 19 20  3  0  0  0  0
 21 22  1  0  0  0  0
 22 44  1  0  0  0  0
 22 45  1  0  0  0  0
 22 46  1  0  0  0  0
M  CHG  1   9   1
M  END
> <s_m_source_file>
AV-unprocessed.smi

> <i_m_source_file_index>
1579

> <i_lp_mmshare_version>
43012

> <i_f3d_flags>
0

> <s_epik_input>
TiNDYyhjMVtDSDNdKWMoPU8pbihuYzFbQ0gzXSlbQ0gyXVtDQEhdKFtPSF0pW0NIMl1OMltDSDJdW0NIMl1bQ0hdKFtDSDNdKVtDSDJdW0NIMl0y

> <s_epik_cmdline>
J2VwaWtfcHl0aG9uJywgJy1waCcsICc3LjAnLCAnLXRuJywgJzgnLCAnLW1hJywgJzIwMCcsICctbWV0YWxfYmluZGluZycsICctaW1hZScsICc8aW5maWxlLm1hZT4nLCAnLW9tYWUnLCAnPG91dGZpbGUubWFlPic=

> <r_epik_Ionization_Penalty>
0.00136816

> <r_epik_Ionization_Penalty_Charging>
0.00136813

> <r_epik_Ionization_Penalty_Neutral>
3.19884e-08

> <r_epik_State_Penalty>
0.000910892

> <r_epik_Charging_Adjusted_Penalty>
0.00227902

> <i_epik_Tot_Q>
1

> <i_epik_Tot_abs_Q>
1

> <r_epik_Metal_State_Penalty>
-0

> <b_epik_Metal_Only>
0

> <s_lp_Force_Field>
OPLS_2005

> <r_lp_Energy>
37.5904

> <b_lp_Chiralities_Consistent>
1

> <s_lp_Variant>
AV-unprocessed.smi:1579-2

> <Gold.Version>
5.8.1

> <Gold.Id.Protein>
6NUR|6NUR_protein|mol2

> <Gold.PLP.Fitness>
42.9407

> <Gold.PLP.PLP>
-30.8699

> <Gold.PLP.part.hbond>
-5.2292

> <Gold.PLP.part.metal>
0.0000

> <Gold.PLP.part.buried>
-3.1881

> <Gold.PLP.part.nonpolar>
-22.1047

> <Gold.PLP.part.repulsive>
0.0000

> <Gold.PLP.ligand.clash>
0.0000

> <Gold.PLP.ligand.torsion>
1.3315

> <Gold.PLP.Chemscore.Hbond>
4.9033

> <Gold.PLP.Chemscore.CHOScore>
0.0000

> <Gold.PLP.Chemscore.Metal>
0.0000

> <Gold.Chemscore.Hbonds>
donor molecule, donor type, donor heavy atom, donor atom, acceptor molecule, acceptor atom, score
      L1  H     7    29       P1  7949  0.84
      L1  H     9    47       P1  7948  2.00
      P1  H  6896  6908       L1    20  1.00
      P1  H 10752 10763       L1    17  1.00

> <Gold.PLP.Chemscore.Internal.Correction>
0.0242

> <Gold.Rescore>
     Score         DG    S(hbond)    S(metal)    S(lipo)     H(rot)  DE(clash)    DE(int)     intcor
     17.44     -21.22       3.60        0.00      79.26       2.17       1.05       2.73       ----

> <Gold.Chemscore.Fitness>
17.4449

> <Gold.Chemscore.DG>
-21.2215

> <Gold.Chemscore.ZeroCoef>
-5.4800

> <Gold.Chemscore.Hbond>
3.6009

> <Gold.Chemscore.Metal>
0.0000

> <Gold.Chemscore.Lipo>
79.2613

> <Gold.Chemscore.Internal_Hbond>
0.0000

> <Gold.Chemscore.DEClash>
1.0466

> <Gold.Chemscore.DEInternal>
2.7300

> <Gold.Chemscore.Rot>
2.1715

> <Gold.Chemscore.Internal.Correction>
   9.000000E+99

> <Gold.Chemscore.Hbonds>
donor molecule, donor type, donor heavy atom, donor atom, acceptor molecule, acceptor atom, score
      L1  H     7    29       P1  7949  0.20
      L1  H     9    47       P1  7948  1.00
      P1  H  6896  6908       L1    20  0.99
      P1  H 10752 10763       L1    17  0.93

> <Gold.Chemscore.Hbond.Weighted>
-12.0270

> <Gold.Chemscore.Metal.Weighted>
-0.0000

> <Gold.Chemscore.Lipo.Weighted>
-9.2736

> <Gold.Chemscore.Internal_Hbond.Weighted>
0.0000

> <Gold.Chemscore.DEClash.Weighted>
1.0466

> <Gold.Chemscore.DEInternal.Weighted>
2.7300

> <Gold.Chemscore.Rot.Weighted>
5.5591

> <Gold.Chemscore.Internal.Correction.Weighted>
   9.000000E+99

> <Gold.Protein.RotatedTorsions>
[ 6907 6896 6895 6894 ] final  -92.09 input  -60.11 | X-H torsion
[ 7974 7965 7964 7962 ] final   82.41 input  175.53 | X-H torsion
[ 8008 7997 7996 7995 ] final   58.52 input   59.86 | X-H torsion
[ 10167 10162 10161 10158 ] final  129.34 input  -65.29 | X-H torsion
[ 10718 10713 10712 10709 ] final  -12.21 input   66.30 | X-H torsion
[ 10763 10752 10751 10750 ] final  108.25 input  -60.55 | X-H torsion
[ 11005 11000 10999 10996 ] final  151.69 input  -57.11 | X-H torsion

> <Gold.Protein.ActiveResidues>
 VAL166  LYS551  ARG553  GLY616  TRP617  ASP618  TYR619  PRO620  LYS621  CYS622 
 ASP623  PHE694  ASN695  SER759  ASP760  ASP761  ALA762  ILE779  LEU786  VAL792 
 PHE793  MET794  SER795  GLU796  ALA797  LYS798  CYS799  TRP800  GLU811  SER814 

> <Gold.Protein.RotatedAtoms>
  150.6901  134.2176  159.4383 H   0  0  0  0  0  0  0  0  0  0  0  0  # atno 6907 bound_to 6896
  152.0134  134.9861  160.0578 H   0  0  0  0  0  0  0  0  0  0  0  0  # atno 6908 bound_to 6896
  152.1467  133.4462  159.4830 H   0  0  0  0  0  0  0  0  0  0  0  0  # atno 6909 bound_to 6896
  145.6254  139.2394  143.2114 H   0  0  0  0  0  0  0  0  0  0  0  0  # atno 7974 bound_to 7965
  155.5514  140.3486  155.4469 H   0  0  0  0  0  0  0  0  0  0  0  0  # atno 8008 bound_to 7997
  156.0580  140.1333  157.0000 H   0  0  0  0  0  0  0  0  0  0  0  0  # atno 8009 bound_to 7997
  154.4466  140.0991  156.6460 H   0  0  0  0  0  0  0  0  0  0  0  0  # atno 8010 bound_to 7997
  139.5482  144.6791  151.4405 H   0  0  0  0  0  0  0  0  0  0  0  0  # atno 10167 bound_to 10162
  156.6479  130.4946  149.6072 H   0  0  0  0  0  0  0  0  0  0  0  0  # atno 10718 bound_to 10713
  153.4180  135.3818  155.2093 H   0  0  0  0  0  0  0  0  0  0  0  0  # atno 10763 bound_to 10752
  154.8742  135.3810  154.4419 H   0  0  0  0  0  0  0  0  0  0  0  0  # atno 10764 bound_to 10752
  153.4936  135.7088  153.5933 H   0  0  0  0  0  0  0  0  0  0  0  0  # atno 10765 bound_to 10752
  140.1241  134.8844  157.2113 H   0  0  0  0  0  0  0  0  0  0  0  0  # atno 11005 bound_to 11000
  146.1398  140.7073  142.9372 LP  0  0  0  0  0  0  0  0  0  0  0  0  # atno 17320 bound_to 7965
  144.7214  140.4386  143.7005 LP  0  0  0  0  0  0  0  0  0  0  0  0  # atno 17321 bound_to 7965
  140.6737  143.8236  150.7032 LP  0  0  0  0  0  0  0  0  0  0  0  0  # atno 17342 bound_to 10162
  140.1668  143.4228  152.2028 LP  0  0  0  0  0  0  0  0  0  0  0  0  # atno 17343 bound_to 10162
  156.2107  130.6677  151.1266 LP  0  0  0  0  0  0  0  0  0  0  0  0  # atno 17370 bound_to 10713
  157.7150  131.0714  150.6360 LP  0  0  0  0  0  0  0  0  0  0  0  0  # atno 17371 bound_to 10713
  140.2926  134.3222  155.7311 LP  0  0  0  0  0  0  0  0  0  0  0  0  # atno 17394 bound_to 11000
  141.2158  133.7544  156.9526 LP  0  0  0  0  0  0  0  0  0  0  0  0  # atno 17395 bound_to 11000

$$$$
