AV-unprocessed.smi:1950|AV-procd|sdf|7879|dock1
  -GOLD-   2272010 33D 1   1.00000     0.00000
 Structure written by MMmdl.
 33 34  0  0  0  0  0  0  0  0  1 V2000
  152.1108  144.9229  161.6615 C   0  0  0  0  0  0  0  0  0  0  0  0
  152.2329  143.4549  161.2467 C   0  0  0  0  0  0  0  0  0  0  0  0
  151.9010  142.5941  162.0620 O   0  0  0  0  0  0  0  0  0  0  0  0
  152.6897  143.1527  160.0076 N   0  0  0  0  0  0  0  0  0  0  0  0
  152.7461  141.7789  159.4952 C   0  0  0  0  0  0  0  0  0  0  0  0
  151.6612  141.6078  158.4163 C   0  0  0  0  0  0  0  0  0  0  0  0
  151.8115  142.6577  157.2938 C   0  0  0  0  0  0  0  0  0  0  0  0
  150.6483  142.6061  156.4121 N   0  0  0  0  0  0  0  0  0  0  0  0
  150.1845  141.5162  155.7830 C   0  0  0  0  0  0  0  0  0  0  0  0
  150.6996  140.4019  155.8768 O   0  0  0  0  0  0  0  0  0  0  0  0
  149.0977  141.8098  155.0475 N   0  0  0  0  0  0  0  0  0  0  0  0
  148.3132  140.9375  154.2474 C   0  0  0  0  0  0  0  0  0  0  0  0
  148.6296  139.6540  154.0141 N   0  0  0  0  0  0  0  0  0  0  0  0
  147.6929  139.0270  153.2026 N   0  0  0  0  0  0  0  0  0  0  0  0
  146.7087  139.8613  152.8555 C   0  0  0  0  0  0  0  0  0  0  0  0
  146.8291  141.4944  153.4873 S   0  0  0  0  0  0  0  0  0  0  0  0
  151.9680  144.0837  157.8655 C   0  0  0  0  0  0  0  0  0  0  0  0
  153.0394  144.1296  158.9693 C   0  0  0  0  0  0  0  0  0  0  0  0
  151.4516  145.4639  160.9820 H   0  0  0  0  0  0  0  0  0  0  0  0
  153.0881  145.4057  161.6683 H   0  0  0  0  0  0  0  0  0  0  0  0
  151.6918  145.0052  162.6648 H   0  0  0  0  0  0  0  0  0  0  0  0
  153.7327  141.5914  159.0691 H   0  0  0  0  0  0  0  0  0  0  0  0
  152.6143  141.0299  160.2771 H   0  0  0  0  0  0  0  0  0  0  0  0
  151.7082  140.6021  157.9965 H   0  0  0  0  0  0  0  0  0  0  0  0
  150.6791  141.7019  158.8825 H   0  0  0  0  0  0  0  0  0  0  0  0
  152.7233  142.4223  156.7415 H   0  0  0  0  0  0  0  0  0  0  0  0
  150.1543  143.4753  156.2720 H   0  0  0  0  0  0  0  0  0  0  0  0
  148.7939  142.7721  155.0633 H   0  0  0  0  0  0  0  0  0  0  0  0
  145.9060  139.5125  152.2229 H   0  0  0  0  0  0  0  0  0  0  0  0
  152.2260  144.7801  157.0667 H   0  0  0  0  0  0  0  0  0  0  0  0
  151.0172  144.4250  158.2786 H   0  0  0  0  0  0  0  0  0  0  0  0
  153.1444  145.1469  159.3437 H   0  0  0  0  0  0  0  0  0  0  0  0
  154.0138  143.8737  158.5505 H   0  0  0  0  0  0  0  0  0  0  0  0
  1  2  1  0  0  0  0
  1 19  1  0  0  0  0
  1 20  1  0  0  0  0
  1 21  1  0  0  0  0
  2  3  2  0  0  0  0
  2  4  1  0  0  0  0
  4 18  1  0  0  0  0
  4  5  1  0  0  0  0
  5  6  1  0  0  0  0
  5 22  1  0  0  0  0
  5 23  1  0  0  0  0
  6  7  1  0  0  0  0
  6 24  1  0  0  0  0
  6 25  1  0  0  0  0
  7  8  1  0  0  0  0
  7 17  1  0  0  0  0
  7 26  1  0  0  0  0
  8  9  1  0  0  0  0
  8 27  1  0  0  0  0
  9 10  2  0  0  0  0
  9 11  1  0  0  0  0
 11 12  1  0  0  0  0
 11 28  1  0  0  0  0
 12 16  1  0  0  0  0
 12 13  2  0  0  0  0
 13 14  1  0  0  0  0
 14 15  2  0  0  0  0
 15 16  1  0  0  0  0
 15 29  1  0  0  0  0
 17 18  1  0  0  0  0
 17 30  1  0  0  0  0
 17 31  1  0  0  0  0
 18 32  1  0  0  0  0
 18 33  1  0  0  0  0
M  END
> <s_m_source_file>
AV-unprocessed.smi

> <i_m_source_file_index>
1950

> <i_lp_mmshare_version>
43012

> <i_f3d_flags>
0

> <s_epik_input>
W0NIM11DKD1PKU4xW0NIMl1bQ0gyXVtDSF0oW0NIMl1bQ0gyXTEpW05IXUMoPU8pW05IXWMybm5bY0hdczI=

> <s_epik_cmdline>
J2VwaWtfcHl0aG9uJywgJy1waCcsICc3LjAnLCAnLXRuJywgJzgnLCAnLW1hJywgJzIwMCcsICctbWV0YWxfYmluZGluZycsICctaW1hZScsICc8aW5maWxlLm1hZT4nLCAnLW9tYWUnLCAnPG91dGZpbGUubWFlPic=

> <r_lp_tautomer_probability>
1

> <r_epik_Ionization_Penalty>
0.00190949

> <r_epik_Ionization_Penalty_Charging>
0

> <r_epik_Ionization_Penalty_Neutral>
0.00190949

> <r_epik_State_Penalty>
-0

> <r_epik_Charging_Adjusted_Penalty>
0

> <i_epik_Tot_Q>
0

> <i_epik_Tot_abs_Q>
0

> <r_epik_Metal_State_Penalty>
0.336167

> <b_epik_Metal_Only>
0

> <s_lp_Force_Field>
OPLS_2005

> <r_lp_Energy>
22.3171

> <b_lp_Chiralities_Consistent>
1

> <s_lp_Variant>
AV-unprocessed.smi:1950-1

> <Gold.Version>
5.8.1

> <Gold.Id.Protein>
6NUR|6NUR_protein|mol2

> <Gold.PLP.Fitness>
44.8391

> <Gold.PLP.PLP>
-33.7313

> <Gold.PLP.part.hbond>
-3.0000

> <Gold.PLP.part.metal>
0.0000

> <Gold.PLP.part.buried>
-3.9636

> <Gold.PLP.part.nonpolar>
-29.5277

> <Gold.PLP.part.repulsive>
2.9820

> <Gold.PLP.ligand.clash>
0.0000

> <Gold.PLP.ligand.torsion>
0.0335

> <Gold.PLP.Chemscore.Hbond>
2.9199

> <Gold.PLP.Chemscore.CHOScore>
0.7993

> <Gold.PLP.Chemscore.Metal>
0.0000

> <Gold.Chemscore.Hbonds>
donor molecule, donor type, donor heavy atom, donor atom, acceptor molecule, acceptor atom, score
      L1  H     8    27       P1  8028  1.00
      L1  H    11    28       P1  8028  1.00
      P1  H  6933  6945       L1     3  0.90
      L1  C    15    29       P1 10175  0.80

> <Gold.PLP.Chemscore.Internal.Correction>
0.0173

> <Gold.Rescore>
     Score         DG    S(hbond)    S(metal)    S(lipo)     H(rot)  DE(clash)    DE(int)     intcor
     15.65     -22.04       2.87        0.00      81.43       1.00       3.82       2.57       ----

> <Gold.Chemscore.Fitness>
15.6493

> <Gold.Chemscore.DG>
-22.0383

> <Gold.Chemscore.ZeroCoef>
-5.4800

> <Gold.Chemscore.Hbond>
2.8716

> <Gold.Chemscore.Metal>
0.0000

> <Gold.Chemscore.Lipo>
81.4294

> <Gold.Chemscore.Internal_Hbond>
0.0000

> <Gold.Chemscore.DEClash>
3.8227

> <Gold.Chemscore.DEInternal>
2.5664

> <Gold.Chemscore.Rot>
1.0000

> <Gold.Chemscore.Internal.Correction>
   9.000000E+99

> <Gold.Chemscore.Hbonds>
donor molecule, donor type, donor heavy atom, donor atom, acceptor molecule, acceptor atom, score
      L1  H     8    27       P1  8028  1.00
      L1  H    11    28       P1  8028  0.92
      P1  H  6933  6945       L1     3  0.83

> <Gold.Chemscore.Hbond.Weighted>
-9.5911

> <Gold.Chemscore.Metal.Weighted>
-0.0000

> <Gold.Chemscore.Lipo.Weighted>
-9.5272

> <Gold.Chemscore.Internal_Hbond.Weighted>
0.0000

> <Gold.Chemscore.DEClash.Weighted>
3.8227

> <Gold.Chemscore.DEInternal.Weighted>
2.5664

> <Gold.Chemscore.Rot.Weighted>
2.5600

> <Gold.Chemscore.Internal.Correction.Weighted>
   9.000000E+99

> <Gold.Protein.RotatedTorsions>
[ 6907 6896 6895 6894 ] final   -5.66 input  -60.11 | X-H torsion
[ 7974 7965 7964 7962 ] final -133.57 input  175.53 | X-H torsion
[ 8008 7997 7996 7995 ] final  -88.12 input   59.86 | X-H torsion
[ 10167 10162 10161 10158 ] final   40.54 input  -65.29 | X-H torsion
[ 10718 10713 10712 10709 ] final  139.82 input   66.30 | X-H torsion
[ 10763 10752 10751 10750 ] final   61.66 input  -60.55 | X-H torsion
[ 11005 11000 10999 10996 ] final   62.07 input  -57.11 | X-H torsion

> <Gold.Protein.ActiveResidues>
 VAL166  LYS551  ARG553  GLY616  TRP617  ASP618  TYR619  PRO620  LYS621  CYS622 
 ASP623  PHE694  ASN695  SER759  ASP760  ASP761  ALA762  ILE779  LEU786  VAL792 
 PHE793  MET794  SER795  GLU796  ALA797  LYS798  CYS799  TRP800  GLU811  SER814 

> <Gold.Protein.RotatedAtoms>
  151.4780  135.1050  159.9769 H   0  0  0  0  0  0  0  0  0  0  0  0  # atno 6907 bound_to 6896
  152.4790  133.8205  159.7061 H   0  0  0  0  0  0  0  0  0  0  0  0  # atno 6908 bound_to 6896
  150.8849  133.7260  159.2948 H   0  0  0  0  0  0  0  0  0  0  0  0  # atno 6909 bound_to 6896
  144.9182  140.6980  143.4982 H   0  0  0  0  0  0  0  0  0  0  0  0  # atno 7974 bound_to 7965
  154.6711  140.0557  157.0166 H   0  0  0  0  0  0  0  0  0  0  0  0  # atno 8008 bound_to 7997
  155.1088  140.3236  155.4508 H   0  0  0  0  0  0  0  0  0  0  0  0  # atno 8009 bound_to 7997
  156.2657  140.2018  156.6212 H   0  0  0  0  0  0  0  0  0  0  0  0  # atno 8010 bound_to 7997
  140.3731  144.2078  150.6132 H   0  0  0  0  0  0  0  0  0  0  0  0  # atno 10167 bound_to 10162
  157.4101  131.1027  151.0462 H   0  0  0  0  0  0  0  0  0  0  0  0  # atno 10718 bound_to 10713
  152.9957  135.5493  154.6068 H   0  0  0  0  0  0  0  0  0  0  0  0  # atno 10763 bound_to 10752
  154.5398  135.2819  155.1108 H   0  0  0  0  0  0  0  0  0  0  0  0  # atno 10764 bound_to 10752
  154.2390  135.6420  153.5253 H   0  0  0  0  0  0  0  0  0  0  0  0  # atno 10765 bound_to 10752
  140.0117  134.6286  155.9770 H   0  0  0  0  0  0  0  0  0  0  0  0  # atno 11005 bound_to 11000
  145.3341  139.1751  143.4521 LP  0  0  0  0  0  0  0  0  0  0  0  0  # atno 17320 bound_to 7965
  146.3192  140.3374  142.8645 LP  0  0  0  0  0  0  0  0  0  0  0  0  # atno 17321 bound_to 7965
  140.5013  143.2317  151.8674 LP  0  0  0  0  0  0  0  0  0  0  0  0  # atno 17342 bound_to 10162
  139.4802  144.5056  151.9002 LP  0  0  0  0  0  0  0  0  0  0  0  0  # atno 17343 bound_to 10162
  157.1430  130.6151  149.5560 LP  0  0  0  0  0  0  0  0  0  0  0  0  # atno 17370 bound_to 10713
  155.9848  130.4875  150.7001 LP  0  0  0  0  0  0  0  0  0  0  0  0  # atno 17371 bound_to 10713
  141.1715  133.6537  156.4671 LP  0  0  0  0  0  0  0  0  0  0  0  0  # atno 17394 bound_to 11000
  140.4542  134.6900  157.5054 LP  0  0  0  0  0  0  0  0  0  0  0  0  # atno 17395 bound_to 11000

$$$$
