AV-unprocessed.smi:3147|AV-procd|sdf|11989|dock1
  -GOLD-   2272017393D 1   1.00000     0.00000
 Structure written by MMmdl.
 36 37  0  0  0  0  0  0  0  0  1 V2000
  149.0327  141.7622  154.8139 C   0  0  0  0  0  0  0  0  0  0  0  0
  150.0060  140.9034  155.5599 C   0  0  0  0  0  0  0  0  0  0  0  0
  151.0637  140.2734  154.9082 N   0  0  0  0  0  0  0  0  0  0  0  0
  151.6918  139.6248  155.8790 C   0  0  0  0  0  0  0  0  0  0  0  0
  151.1426  139.7708  157.0930 N   0  0  0  0  0  0  0  0  0  0  0  0
  151.6146  139.1764  158.3348 C   0  0  0  0  0  0  0  0  0  0  0  0
  152.7654  139.9622  158.9752 C   0  0  0  0  0  0  0  0  0  0  0  0
  153.9330  139.5844  158.8675 O   0  0  0  0  0  0  0  0  0  0  0  0
  152.4102  141.0702  159.6427 N   0  0  0  0  0  0  0  0  0  0  0  0
  153.3329  141.9970  160.2918 C   0  0  0  0  0  0  0  0  0  0  0  0
  153.0604  143.4664  159.9155 C   0  0  2  0  0  0  0  0  0  0  0  0
  152.0811  144.2162  160.8236 C   0  0  0  0  0  0  0  0  0  0  0  0
  151.5829  145.3011  159.8963 C   0  0  0  0  0  0  0  0  0  0  0  0
  151.4858  144.5513  158.5715 C   0  0  0  0  0  0  0  0  0  0  0  0
  152.5278  143.5798  158.5973 O   0  0  0  0  0  0  0  0  0  0  0  0
  150.0413  140.6045  156.9054 C   0  0  0  0  0  0  0  0  0  0  0  0
  149.1400  141.0399  158.0151 C   0  0  0  0  0  0  0  0  0  0  0  0
  148.0108  141.4093  154.9540 H   0  0  0  0  0  0  0  0  0  0  0  0
  149.2364  141.7639  153.7428 H   0  0  0  0  0  0  0  0  0  0  0  0
  149.0770  142.7950  155.1598 H   0  0  0  0  0  0  0  0  0  0  0  0
  152.5741  139.0273  155.7020 H   0  0  0  0  0  0  0  0  0  0  0  0
  150.7784  139.1109  159.0319 H   0  0  0  0  0  0  0  0  0  0  0  0
  151.9446  138.1561  158.1351 H   0  0  0  0  0  0  0  0  0  0  0  0
  151.4286  141.3025  159.6854 H   0  0  0  0  0  0  0  0  0  0  0  0
  153.2222  141.8738  161.3693 H   0  0  0  0  0  0  0  0  0  0  0  0
  154.3669  141.7352  160.0617 H   0  0  0  0  0  0  0  0  0  0  0  0
  154.0074  144.0083  159.9135 H   0  0  0  0  0  0  0  0  0  0  0  0
  151.2457  143.5830  161.1242 H   0  0  0  0  0  0  0  0  0  0  0  0
  152.5532  144.6074  161.7251 H   0  0  0  0  0  0  0  0  0  0  0  0
  150.6337  145.7352  160.2115 H   0  0  0  0  0  0  0  0  0  0  0  0
  152.3203  146.1017  159.8239 H   0  0  0  0  0  0  0  0  0  0  0  0
  150.5301  144.0313  158.5023 H   0  0  0  0  0  0  0  0  0  0  0  0
  151.5759  145.2111  157.7085 H   0  0  0  0  0  0  0  0  0  0  0  0
  148.3122  141.6404  157.6382 H   0  0  0  0  0  0  0  0  0  0  0  0
  149.6865  141.6434  158.7397 H   0  0  0  0  0  0  0  0  0  0  0  0
  148.7189  140.1805  158.5365 H   0  0  0  0  0  0  0  0  0  0  0  0
  1  2  1  0  0  0  0
  1 18  1  0  0  0  0
  1 19  1  0  0  0  0
  1 20  1  0  0  0  0
  2 16  2  0  0  0  0
  2  3  1  0  0  0  0
  3  4  2  0  0  0  0
  4  5  1  0  0  0  0
  4 21  1  0  0  0  0
  5  6  1  0  0  0  0
  5 16  1  0  0  0  0
  6  7  1  0  0  0  0
  6 22  1  0  0  0  0
  6 23  1  0  0  0  0
  7  8  2  0  0  0  0
  7  9  1  0  0  0  0
  9 10  1  0  0  0  0
  9 24  1  0  0  0  0
 10 11  1  0  0  0  0
 10 25  1  0  0  0  0
 10 26  1  0  0  0  0
 11 15  1  0  0  0  0
 11 12  1  0  0  0  0
 11 27  1  0  0  0  0
 12 13  1  0  0  0  0
 12 28  1  0  0  0  0
 12 29  1  0  0  0  0
 13 14  1  0  0  0  0
 13 30  1  0  0  0  0
 13 31  1  0  0  0  0
 14 15  1  0  0  0  0
 14 32  1  0  0  0  0
 14 33  1  0  0  0  0
 16 17  1  0  0  0  0
 17 34  1  0  0  0  0
 17 35  1  0  0  0  0
 17 36  1  0  0  0  0
M  END
> <s_m_source_file>
AV-unprocessed.smi

> <i_m_source_file_index>
3147

> <i_lp_mmshare_version>
43012

> <i_f3d_flags>
0

> <s_epik_input>
W0NIM11jMW5bY0hdbihjMVtDSDNdKVtDSDJdQyg9TylbTkhdW0NIMl1bQ0BASF0yW0NIMl1bQ0gyXVtDSDJdTzI=

> <s_epik_cmdline>
J2VwaWtfcHl0aG9uJywgJy1waCcsICc3LjAnLCAnLXRuJywgJzgnLCAnLW1hJywgJzIwMCcsICctbWV0YWxfYmluZGluZycsICctaW1hZScsICc8aW5maWxlLm1hZT4nLCAnLW9tYWUnLCAnPG91dGZpbGUubWFlPic=

> <r_lp_tautomer_probability>
1

> <r_epik_Ionization_Penalty>
0.957393

> <r_epik_Ionization_Penalty_Charging>
0.957393

> <r_epik_Ionization_Penalty_Neutral>
1.43432e-07

> <r_epik_State_Penalty>
1.0022

> <r_epik_Charging_Adjusted_Penalty>
1.9596

> <i_epik_Tot_Q>
0

> <i_epik_Tot_abs_Q>
0

> <r_epik_Metal_State_Penalty>
0.374967

> <b_epik_Metal_Only>
0

> <s_lp_Force_Field>
OPLS_2005

> <r_lp_Energy>
19.2408

> <b_lp_Chiralities_Consistent>
1

> <s_lp_Variant>
AV-unprocessed.smi:3147-3

> <Gold.Version>
5.8.1

> <Gold.Id.Protein>
6NUR|6NUR_protein|mol2

> <Gold.PLP.Fitness>
43.2388

> <Gold.PLP.PLP>
-39.1823

> <Gold.PLP.part.hbond>
-1.9719

> <Gold.PLP.part.metal>
0.0000

> <Gold.PLP.part.buried>
-4.5336

> <Gold.PLP.part.nonpolar>
-32.2361

> <Gold.PLP.part.repulsive>
0.2044

> <Gold.PLP.ligand.clash>
0.0000

> <Gold.PLP.ligand.torsion>
0.9866

> <Gold.PLP.Chemscore.Hbond>
2.0000

> <Gold.PLP.Chemscore.CHOScore>
0.0000

> <Gold.PLP.Chemscore.Metal>
0.0000

> <Gold.Chemscore.Hbonds>
donor molecule, donor type, donor heavy atom, donor atom, acceptor molecule, acceptor atom, score
      P1  H  7989  7998       L1     3  1.00
      P1  H  7997  8008       L1     8  1.00

> <Gold.PLP.Chemscore.Internal.Correction>
0.0297

> <Gold.Rescore>
     Score         DG    S(hbond)    S(metal)    S(lipo)     H(rot)  DE(clash)    DE(int)     intcor
     16.66     -17.76       1.96        0.00      86.34       1.70       0.11       0.99       ----

> <Gold.Chemscore.Fitness>
16.6575

> <Gold.Chemscore.DG>
-17.7588

> <Gold.Chemscore.ZeroCoef>
-5.4800

> <Gold.Chemscore.Hbond>
1.9575

> <Gold.Chemscore.Metal>
0.0000

> <Gold.Chemscore.Lipo>
86.3376

> <Gold.Chemscore.Internal_Hbond>
0.0000

> <Gold.Chemscore.DEClash>
0.1107

> <Gold.Chemscore.DEInternal>
0.9906

> <Gold.Chemscore.Rot>
1.7034

> <Gold.Chemscore.Internal.Correction>
   9.000000E+99

> <Gold.Chemscore.Hbonds>
donor molecule, donor type, donor heavy atom, donor atom, acceptor molecule, acceptor atom, score
      P1  H  7989  7998       L1     3  0.97
      P1  H  7997  8008       L1     8  0.92

> <Gold.Chemscore.Hbond.Weighted>
-6.5380

> <Gold.Chemscore.Metal.Weighted>
-0.0000

> <Gold.Chemscore.Lipo.Weighted>
-10.1015

> <Gold.Chemscore.Internal_Hbond.Weighted>
0.0000

> <Gold.Chemscore.DEClash.Weighted>
0.1107

> <Gold.Chemscore.DEInternal.Weighted>
0.9906

> <Gold.Chemscore.Rot.Weighted>
4.3607

> <Gold.Chemscore.Internal.Correction.Weighted>
   9.000000E+99

> <Gold.Protein.RotatedTorsions>
[ 6907 6896 6895 6894 ] final  156.82 input  -60.11 | X-H torsion
[ 7974 7965 7964 7962 ] final  179.42 input  175.53 | X-H torsion
[ 8008 7997 7996 7995 ] final -101.15 input   59.86 | X-H torsion
[ 10167 10162 10161 10158 ] final -122.83 input  -65.29 | X-H torsion
[ 10718 10713 10712 10709 ] final  -59.31 input   66.30 | X-H torsion
[ 10763 10752 10751 10750 ] final -168.60 input  -60.55 | X-H torsion
[ 11005 11000 10999 10996 ] final  122.42 input  -57.11 | X-H torsion

> <Gold.Protein.ActiveResidues>
 VAL166  LYS551  ARG553  GLY616  TRP617  ASP618  TYR619  PRO620  LYS621  CYS622 
 ASP623  PHE694  ASN695  SER759  ASP760  ASP761  ALA762  ILE779  LEU786  VAL792 
 PHE793  MET794  SER795  GLU796  ALA797  LYS798  CYS799  TRP800  GLU811  SER814 

> <Gold.Protein.RotatedAtoms>
  152.0241  133.3910  159.4269 H   0  0  0  0  0  0  0  0  0  0  0  0  # atno 6907 bound_to 6896
  150.6887  134.3593  159.4953 H   0  0  0  0  0  0  0  0  0  0  0  0  # atno 6908 bound_to 6896
  152.1371  134.9090  160.0606 H   0  0  0  0  0  0  0  0  0  0  0  0  # atno 6909 bound_to 6896
  144.7146  140.0545  143.6434 H   0  0  0  0  0  0  0  0  0  0  0  0  # atno 7974 bound_to 7965
  154.8386  140.0436  157.1526 H   0  0  0  0  0  0  0  0  0  0  0  0  # atno 8008 bound_to 7997
  154.9072  140.3008  155.5265 H   0  0  0  0  0  0  0  0  0  0  0  0  # atno 8009 bound_to 7997
  156.2991  140.2365  156.4107 H   0  0  0  0  0  0  0  0  0  0  0  0  # atno 8010 bound_to 7997
  140.0100  143.5451  152.2267 H   0  0  0  0  0  0  0  0  0  0  0  0  # atno 10167 bound_to 10162
  156.1071  130.4179  150.0697 H   0  0  0  0  0  0  0  0  0  0  0  0  # atno 10718 bound_to 10713
  154.6612  135.2925  154.9864 H   0  0  0  0  0  0  0  0  0  0  0  0  # atno 10763 bound_to 10752
  154.0923  135.6589  153.4858 H   0  0  0  0  0  0  0  0  0  0  0  0  # atno 10764 bound_to 10752
  153.0431  135.5223  154.7563 H   0  0  0  0  0  0  0  0  0  0  0  0  # atno 10765 bound_to 10752
  139.9268  134.9641  156.8107 H   0  0  0  0  0  0  0  0  0  0  0  0  # atno 11005 bound_to 11000
  145.9916  139.3019  143.0981 LP  0  0  0  0  0  0  0  0  0  0  0  0  # atno 17320 bound_to 7965
  145.8897  140.9312  143.0559 LP  0  0  0  0  0  0  0  0  0  0  0  0  # atno 17321 bound_to 7965
  139.6211  144.7629  151.2737 LP  0  0  0  0  0  0  0  0  0  0  0  0  # atno 17342 bound_to 10162
  140.7385  143.6646  150.8134 LP  0  0  0  0  0  0  0  0  0  0  0  0  # atno 17343 bound_to 10162
  156.8670  130.9511  151.3613 LP  0  0  0  0  0  0  0  0  0  0  0  0  # atno 17370 bound_to 10713
  157.6249  130.8683  149.9172 LP  0  0  0  0  0  0  0  0  0  0  0  0  # atno 17371 bound_to 10713
  140.6315  133.9902  155.7664 LP  0  0  0  0  0  0  0  0  0  0  0  0  # atno 17394 bound_to 11000
  141.0830  134.0033  157.3356 LP  0  0  0  0  0  0  0  0  0  0  0  0  # atno 17395 bound_to 11000

$$$$
