AV-unprocessed.smi:1626|AV-procd|sdf|6512|dock6
  -GOLD-   22720 7183D 1   1.00000     0.00000
 Structure written by MMmdl.
 49 51  0  0  0  0  0  0  0  0  3 V2000
  152.8781  142.8039  160.2614 C   0  0  0  0  0  0  0  0  0  0  0  0
  152.3159  142.0643  159.0593 C   0  0  0  0  0  0  0  0  0  0  0  0
  151.3857  142.7325  158.2312 C   0  0  0  0  0  0  0  0  0  0  0  0
  150.8925  142.0314  157.1372 C   0  0  0  0  0  0  0  0  0  0  0  0
  149.9858  142.4051  156.1429 N   0  3  0  0  0  0  0  0  0  0  0  0
  149.8152  141.3725  155.2715 C   0  0  0  0  0  0  0  0  0  0  0  0
  150.5903  140.3398  155.7029 N   0  0  0  0  0  0  0  0  0  0  0  0
  150.7851  139.0003  155.1328 C   0  0  0  0  0  0  0  0  0  0  0  0
  149.4671  138.2256  154.9246 C   0  0  2  0  0  0  0  0  0  0  0  0
  149.8039  136.9714  154.3669 O   0  0  0  0  0  0  0  0  0  0  0  0
  148.4736  138.9480  153.9868 C   0  0  0  0  0  0  0  0  0  0  0  0
  147.5746  138.0103  153.2657 N   0  3  2  0  0  0  0  0  0  0  0  0
  146.7906  138.6910  152.2029 C   0  0  0  0  0  0  0  0  0  0  0  0
  145.9809  137.6800  151.3710 C   0  0  0  0  0  0  0  0  0  0  0  0
  145.0719  136.8065  152.2510 C   0  0  2  0  0  0  0  0  0  0  0  0
  144.0127  137.5824  152.7747 O   0  0  0  0  0  0  0  0  0  0  0  0
  145.8835  136.1745  153.3939 C   0  0  0  0  0  0  0  0  0  0  0  0
  146.6940  137.2265  154.1733 C   0  0  0  0  0  0  0  0  0  0  0  0
  151.2895  140.7096  156.8567 C   0  0  0  0  0  0  0  0  0  0  0  0
  152.2058  140.0368  157.6609 C   0  0  0  0  0  0  0  0  0  0  0  0
  152.7208  140.7337  158.7773 C   0  0  0  0  0  0  0  0  0  0  0  0
  153.7236  140.0266  159.6731 C   0  0  0  0  0  0  0  0  0  0  0  0
  152.4954  143.8236  160.3181 H   0  0  0  0  0  0  0  0  0  0  0  0
  153.9652  142.8607  160.2033 H   0  0  0  0  0  0  0  0  0  0  0  0
  152.6062  142.2940  161.1859 H   0  0  0  0  0  0  0  0  0  0  0  0
  151.0753  143.7463  158.4384 H   0  0  0  0  0  0  0  0  0  0  0  0
  149.1785  141.3732  154.3982 H   0  0  0  0  0  0  0  0  0  0  0  0
  151.3040  139.1261  154.1812 H   0  0  0  0  0  0  0  0  0  0  0  0
  151.4642  138.4492  155.7852 H   0  0  0  0  0  0  0  0  0  0  0  0
  149.0133  138.0450  155.8977 H   0  0  0  0  0  0  0  0  0  0  0  0
  149.2725  136.8199  153.6004 H   0  0  0  0  0  0  0  0  0  0  0  0
  147.8585  139.6598  154.5386 H   0  0  0  0  0  0  0  0  0  0  0  0
  149.0473  139.5388  153.2709 H   0  0  0  0  0  0  0  0  0  0  0  0
  146.1278  139.4307  152.6548 H   0  0  0  0  0  0  0  0  0  0  0  0
  147.4640  139.2348  151.5391 H   0  0  0  0  0  0  0  0  0  0  0  0
  145.3902  138.2013  150.6166 H   0  0  0  0  0  0  0  0  0  0  0  0
  146.6721  137.0372  150.8244 H   0  0  0  0  0  0  0  0  0  0  0  0
  144.6253  136.0199  151.6422 H   0  0  0  0  0  0  0  0  0  0  0  0
  144.1595  138.4884  152.5465 H   0  0  0  0  0  0  0  0  0  0  0  0
  145.2247  135.6293  154.0710 H   0  0  0  0  0  0  0  0  0  0  0  0
  146.5694  135.4353  152.9777 H   0  0  0  0  0  0  0  0  0  0  0  0
  147.2847  136.7189  154.9346 H   0  0  0  0  0  0  0  0  0  0  0  0
  146.0208  137.9030  154.7023 H   0  0  0  0  0  0  0  0  0  0  0  0
  152.5177  139.0258  157.4437 H   0  0  0  0  0  0  0  0  0  0  0  0
  153.9168  139.0095  159.3311 H   0  0  0  0  0  0  0  0  0  0  0  0
  153.3508  139.9689  160.6960 H   0  0  0  0  0  0  0  0  0  0  0  0
  154.6740  140.5609  159.6800 H   0  0  0  0  0  0  0  0  0  0  0  0
  148.1736  137.3515  152.7896 H   0  0  0  0  0  0  0  0  0  0  0  0
  149.5228  143.3013  156.0582 H   0  0  0  0  0  0  0  0  0  0  0  0
  1  2  1  0  0  0  0
  1 23  1  0  0  0  0
  1 24  1  0  0  0  0
  1 25  1  0  0  0  0
  2 21  1  0  0  0  0
  2  3  2  0  0  0  0
  3  4  1  0  0  0  0
  3 26  1  0  0  0  0
  4 19  2  0  0  0  0
  4  5  1  0  0  0  0
  5  6  2  0  0  0  0
  5 49  1  0  0  0  0
  6  7  1  0  0  0  0
  6 27  1  0  0  0  0
  7  8  1  0  0  0  0
  7 19  1  0  0  0  0
  8  9  1  0  0  0  0
  8 28  1  0  0  0  0
  8 29  1  0  0  0  0
  9 10  1  0  0  0  0
  9 11  1  0  0  0  0
  9 30  1  0  0  0  0
 10 31  1  0  0  0  0
 11 12  1  0  0  0  0
 11 32  1  0  0  0  0
 11 33  1  0  0  0  0
 12 18  1  0  0  0  0
 12 13  1  0  0  0  0
 12 48  1  0  0  0  0
 13 14  1  0  0  0  0
 13 34  1  0  0  0  0
 13 35  1  0  0  0  0
 14 15  1  0  0  0  0
 14 36  1  0  0  0  0
 14 37  1  0  0  0  0
 15 16  1  0  0  0  0
 15 17  1  0  0  0  0
 15 38  1  0  0  0  0
 16 39  1  0  0  0  0
 17 18  1  0  0  0  0
 17 40  1  0  0  0  0
 17 41  1  0  0  0  0
 18 42  1  0  0  0  0
 18 43  1  0  0  0  0
 19 20  1  0  0  0  0
 20 21  2  0  0  0  0
 20 44  1  0  0  0  0
 21 22  1  0  0  0  0
 22 45  1  0  0  0  0
 22 46  1  0  0  0  0
 22 47  1  0  0  0  0
M  CHG  1   5   1
M  CHG  1  12   1
M  END
> <s_m_source_file>
AV-unprocessed.smi

> <i_m_source_file_index>
1626

> <i_lp_mmshare_version>
43012

> <i_f3d_flags>
0

> <s_epik_input>
W0NIM11jKFtjSF0xKWMoW0NIM10pW2NIXWMoYzEyKW4oW2NIXW4yKVtDSDJdW0NASF0oW09IXSlbQ0gyXU4zW0NIMl1bQ0gyXVtDSF0oW09IXSlbQ0gyXVtDSDJdMw==

> <s_epik_cmdline>
J2VwaWtfcHl0aG9uJywgJy1waCcsICc3LjAnLCAnLXRuJywgJzgnLCAnLW1hJywgJzIwMCcsICctbWV0YWxfYmluZGluZycsICctaW1hZScsICc8aW5maWxlLm1hZT4nLCAnLW9tYWUnLCAnPG91dGZpbGUubWFlPic=

> <r_epik_Ionization_Penalty>
1.19369

> <r_epik_Ionization_Penalty_Charging>
1.19369

> <r_epik_Ionization_Penalty_Neutral>
1.68219e-06

> <r_epik_State_Penalty>
1.27429

> <r_epik_Charging_Adjusted_Penalty>
2.46798

> <i_epik_Tot_Q>
2

> <i_epik_Tot_abs_Q>
2

> <r_epik_Metal_State_Penalty>
5.29157

> <b_epik_Metal_Only>
0

> <s_lp_Force_Field>
OPLS_2005

> <r_lp_Energy>
35.0493

> <b_lp_Chiralities_Consistent>
1

> <s_lp_Variant>
AV-unprocessed.smi:1626-7

> <Gold.Version>
5.8.1

> <Gold.Id.Protein>
6NUR|6NUR_protein|mol2

> <Gold.PLP.Fitness>
59.3022

> <Gold.PLP.PLP>
-42.0719

> <Gold.PLP.part.hbond>
-5.1033

> <Gold.PLP.part.metal>
0.0000

> <Gold.PLP.part.buried>
-0.2074

> <Gold.PLP.part.nonpolar>
-38.6421

> <Gold.PLP.part.repulsive>
0.1613

> <Gold.PLP.ligand.clash>
0.0000

> <Gold.PLP.ligand.torsion>
0.3958

> <Gold.PLP.Chemscore.Hbond>
6.0000

> <Gold.PLP.Chemscore.CHOScore>
0.0000

> <Gold.PLP.Chemscore.Metal>
0.0000

> <Gold.Chemscore.Hbonds>
donor molecule, donor type, donor heavy atom, donor atom, acceptor molecule, acceptor atom, score
      L1  H     5    49       P1  8028  2.00
      L1  H    10    31       P1  7948  1.00
      L1  H    12    48       P1  7948  2.00
      L1  H    16    39       P1 10175  1.00

> <Gold.PLP.Chemscore.Internal.Correction>
0.0218

> <Gold.Rescore>
     Score         DG    S(hbond)    S(metal)    S(lipo)     H(rot)  DE(clash)    DE(int)     intcor
     22.37     -24.01       3.89        0.00     107.14       2.74       1.27       0.36       ----

> <Gold.Chemscore.Fitness>
22.3744

> <Gold.Chemscore.DG>
-24.0095

> <Gold.Chemscore.ZeroCoef>
-5.4800

> <Gold.Chemscore.Hbond>
3.8934

> <Gold.Chemscore.Metal>
0.0000

> <Gold.Chemscore.Lipo>
107.1447

> <Gold.Chemscore.Internal_Hbond>
0.0000

> <Gold.Chemscore.DEClash>
1.2714

> <Gold.Chemscore.DEInternal>
0.3637

> <Gold.Chemscore.Rot>
2.7384

> <Gold.Chemscore.Internal.Correction>
   9.000000E+99

> <Gold.Chemscore.Hbonds>
donor molecule, donor type, donor heavy atom, donor atom, acceptor molecule, acceptor atom, score
      L1  H     5    49       P1  8028  0.99
      L1  H    10    31       P1  7948  0.94
      L1  H    12    48       P1  7948  1.00
      L1  H    16    39       P1 10175  0.92

> <Gold.Chemscore.Hbond.Weighted>
-13.0039

> <Gold.Chemscore.Metal.Weighted>
-0.0000

> <Gold.Chemscore.Lipo.Weighted>
-12.5359

> <Gold.Chemscore.Internal_Hbond.Weighted>
0.0000

> <Gold.Chemscore.DEClash.Weighted>
1.2714

> <Gold.Chemscore.DEInternal.Weighted>
0.3637

> <Gold.Chemscore.Rot.Weighted>
7.0103

> <Gold.Chemscore.Internal.Correction.Weighted>
   9.000000E+99

> <Gold.Protein.RotatedTorsions>
[ 6907 6896 6895 6894 ] final -105.38 input  -60.11 | X-H torsion
[ 7974 7965 7964 7962 ] final -170.89 input  175.53 | X-H torsion
[ 8008 7997 7996 7995 ] final   70.93 input   59.86 | X-H torsion
[ 10167 10162 10161 10158 ] final    3.98 input  -65.29 | X-H torsion
[ 10718 10713 10712 10709 ] final   57.18 input   66.30 | X-H torsion
[ 10763 10752 10751 10750 ] final -115.26 input  -60.55 | X-H torsion
[ 11005 11000 10999 10996 ] final -109.27 input  -57.11 | X-H torsion

> <Gold.Protein.ActiveResidues>
 VAL166  LYS551  ARG553  GLY616  TRP617  ASP618  TYR619  PRO620  LYS621  CYS622 
 ASP623  PHE694  ASN695  SER759  ASP760  ASP761  ALA762  ILE779  LEU786  VAL792 
 PHE793  MET794  SER795  GLU796  ALA797  LYS798  CYS799  TRP800  GLU811  SER814 

> <Gold.Protein.RotatedAtoms>
  150.7334  134.0135  159.3677 H   0  0  0  0  0  0  0  0  0  0  0  0  # atno 6907 bound_to 6896
  151.8096  135.0682  160.0420 H   0  0  0  0  0  0  0  0  0  0  0  0  # atno 6908 bound_to 6896
  152.3082  133.5689  159.5699 H   0  0  0  0  0  0  0  0  0  0  0  0  # atno 6909 bound_to 6896
  144.7164  140.2003  143.6339 H   0  0  0  0  0  0  0  0  0  0  0  0  # atno 7974 bound_to 7965
  155.7462  140.3489  155.5128 H   0  0  0  0  0  0  0  0  0  0  0  0  # atno 8008 bound_to 7997
  155.9047  140.1040  157.1345 H   0  0  0  0  0  0  0  0  0  0  0  0  # atno 8009 bound_to 7997
  154.4048  140.1279  156.4468 H   0  0  0  0  0  0  0  0  0  0  0  0  # atno 8010 bound_to 7997
  140.6558  143.7431  150.7651 H   0  0  0  0  0  0  0  0  0  0  0  0  # atno 10167 bound_to 10162
  157.5493  130.8754  149.8939 H   0  0  0  0  0  0  0  0  0  0  0  0  # atno 10718 bound_to 10713
  154.8474  135.4388  154.1636 H   0  0  0  0  0  0  0  0  0  0  0  0  # atno 10763 bound_to 10752
  153.2766  135.6950  153.7433 H   0  0  0  0  0  0  0  0  0  0  0  0  # atno 10764 bound_to 10752
  153.6652  135.3428  155.3113 H   0  0  0  0  0  0  0  0  0  0  0  0  # atno 10765 bound_to 10752
  141.0856  133.9144  157.2192 H   0  0  0  0  0  0  0  0  0  0  0  0  # atno 11005 bound_to 11000
  145.8686  139.2260  143.1674 LP  0  0  0  0  0  0  0  0  0  0  0  0  # atno 17320 bound_to 7965
  146.0106  140.8438  142.9972 LP  0  0  0  0  0  0  0  0  0  0  0  0  # atno 17321 bound_to 7965
  140.1090  143.4717  152.2381 LP  0  0  0  0  0  0  0  0  0  0  0  0  # atno 17342 bound_to 10162
  139.5780  144.7497  151.3713 LP  0  0  0  0  0  0  0  0  0  0  0  0  # atno 17343 bound_to 10162
  156.0563  130.3708  150.1084 LP  0  0  0  0  0  0  0  0  0  0  0  0  # atno 17370 bound_to 10713
  156.9258  130.9698  151.3541 LP  0  0  0  0  0  0  0  0  0  0  0  0  # atno 17371 bound_to 10713
  139.9674  135.0138  156.9424 LP  0  0  0  0  0  0  0  0  0  0  0  0  # atno 17394 bound_to 11000
  140.5369  134.0758  155.7331 LP  0  0  0  0  0  0  0  0  0  0  0  0  # atno 17395 bound_to 11000

$$$$
