AV-unprocessed.smi:243|AV-procd|sdf|1856|dock2
  -GOLD-   2262020483D 1   1.00000     0.00000
 Structure written by MMmdl.
 58 61  0  0  0  0  0  0  0  0  2 V2000
  145.1225  135.2891  153.1610 C   0  0  0  0  0  0  0  0  0  0  0  0
  144.4205  136.6548  153.1934 C   0  0  0  0  0  0  0  0  0  0  0  0
  145.3566  137.7741  153.4703 N   0  3  2  0  0  0  0  0  0  0  0  0
  146.4372  137.8611  152.4565 C   0  0  0  0  0  0  0  0  0  0  0  0
  147.2817  139.1256  152.6625 C   0  0  0  0  0  0  0  0  0  0  0  0
  147.8699  139.1783  154.0895 C   0  0  1  0  0  0  0  0  0  0  0  0
  148.7419  140.3435  154.3058 N   0  0  0  0  0  0  0  0  0  0  0  0
  148.1240  141.6618  154.3899 C   0  0  0  0  0  0  0  0  0  0  0  0
  149.9175  140.2530  154.9805 C   0  0  0  0  0  0  0  0  0  0  0  0
  151.0120  139.7116  154.3852 N   0  0  0  0  0  0  0  0  0  0  0  0
  152.1653  139.6139  155.0530 C   0  0  0  0  0  0  0  0  0  0  0  0
  152.4398  139.9898  156.3032 N   0  0  0  0  0  0  0  0  0  0  0  0
  151.3440  140.5305  156.9087 C   0  0  0  0  0  0  0  0  0  0  0  0
  150.0566  140.6971  156.3252 C   0  0  0  0  0  0  0  0  0  0  0  0
  149.1982  141.2982  157.2375 N   0  0  0  0  0  0  0  0  0  0  0  0
  149.9347  141.4739  158.3003 C   0  0  0  0  0  0  0  0  0  0  0  0
  151.2349  141.0333  158.1939 N   0  0  0  0  0  0  0  0  0  0  0  0
  152.2694  141.1053  159.2148 C   0  0  0  0  0  0  0  0  0  0  0  0
  152.8136  142.5346  159.4491 C   0  0  1  0  0  0  0  0  0  0  0  0
  154.2252  142.5221  159.3222 O   0  0  0  0  0  0  0  0  0  0  0  0
  152.2533  143.5484  158.4593 C   0  0  0  0  0  0  0  0  0  0  0  0
  152.2878  144.8476  159.2525 C   0  0  0  0  0  0  0  0  0  0  0  0
  151.8934  144.4351  160.5499 O   0  0  0  0  0  0  0  0  0  0  0  0
  152.4510  143.1510  160.8163 C   0  0  0  0  0  0  0  0  0  0  0  0
  146.7509  139.0080  155.1523 C   0  0  2  0  0  0  0  0  0  0  0  0
  147.3132  138.9292  156.5832 C   0  0  0  0  0  0  0  0  0  0  0  0
  145.9148  137.7473  154.8478 C   0  0  0  0  0  0  0  0  0  0  0  0
  144.3914  134.4861  153.0641 H   0  0  0  0  0  0  0  0  0  0  0  0
  145.6855  135.1124  154.0779 H   0  0  0  0  0  0  0  0  0  0  0  0
  145.8092  135.1992  152.3201 H   0  0  0  0  0  0  0  0  0  0  0  0
  143.8850  136.8355  152.2602 H   0  0  0  0  0  0  0  0  0  0  0  0
  143.6655  136.6177  153.9797 H   0  0  0  0  0  0  0  0  0  0  0  0
  147.0664  136.9711  152.5127 H   0  0  0  0  0  0  0  0  0  0  0  0
  146.0061  137.8823  151.4548 H   0  0  0  0  0  0  0  0  0  0  0  0
  148.0830  139.1473  151.9232 H   0  0  0  0  0  0  0  0  0  0  0  0
  146.6583  139.9959  152.4624 H   0  0  0  0  0  0  0  0  0  0  0  0
  148.5220  138.3095  154.1912 H   0  0  0  0  0  0  0  0  0  0  0  0
  148.1552  142.0428  155.4116 H   0  0  0  0  0  0  0  0  0  0  0  0
  147.0802  141.6282  154.0778 H   0  0  0  0  0  0  0  0  0  0  0  0
  148.6384  142.3714  153.7421 H   0  0  0  0  0  0  0  0  0  0  0  0
  152.9857  139.1703  154.5086 H   0  0  0  0  0  0  0  0  0  0  0  0
  149.5455  141.9357  159.1959 H   0  0  0  0  0  0  0  0  0  0  0  0
  151.8625  140.7016  160.1431 H   0  0  0  0  0  0  0  0  0  0  0  0
  153.0807  140.4371  158.9228 H   0  0  0  0  0  0  0  0  0  0  0  0
  154.4664  141.8357  158.7193 H   0  0  0  0  0  0  0  0  0  0  0  0
  152.8090  143.6016  157.5221 H   0  0  0  0  0  0  0  0  0  0  0  0
  151.2171  143.3079  158.2175 H   0  0  0  0  0  0  0  0  0  0  0  0
  153.2977  145.2590  159.2886 H   0  0  0  0  0  0  0  0  0  0  0  0
  151.6184  145.6081  158.8500 H   0  0  0  0  0  0  0  0  0  0  0  0
  151.7020  142.5660  161.3487 H   0  0  0  0  0  0  0  0  0  0  0  0
  153.3182  143.2456  161.4716 H   0  0  0  0  0  0  0  0  0  0  0  0
  146.0708  139.8584  155.1089 H   0  0  0  0  0  0  0  0  0  0  0  0
  148.0103  138.0974  156.6895 H   0  0  0  0  0  0  0  0  0  0  0  0
  146.5139  138.7876  157.3110 H   0  0  0  0  0  0  0  0  0  0  0  0
  147.8414  139.8412  156.8609 H   0  0  0  0  0  0  0  0  0  0  0  0
  145.1070  137.6810  155.5757 H   0  0  0  0  0  0  0  0  0  0  0  0
  146.5231  136.8500  154.9737 H   0  0  0  0  0  0  0  0  0  0  0  0
  144.8187  138.6248  153.3846 H   0  0  0  0  0  0  0  0  0  0  0  0
  1  2  1  0  0  0  0
  1 28  1  0  0  0  0
  1 29  1  0  0  0  0
  1 30  1  0  0  0  0
  2  3  1  0  0  0  0
  2 31  1  0  0  0  0
  2 32  1  0  0  0  0
  3 27  1  0  0  0  0
  3  4  1  0  0  0  0
  3 58  1  0  0  0  0
  4  5  1  0  0  0  0
  4 33  1  0  0  0  0
  4 34  1  0  0  0  0
  5  6  1  0  0  0  0
  5 35  1  0  0  0  0
  5 36  1  0  0  0  0
  6  7  1  0  0  0  0
  6 25  1  0  0  0  0
  6 37  1  0  0  0  0
  7  8  1  0  0  0  0
  7  9  1  0  0  0  0
  8 38  1  0  0  0  0
  8 39  1  0  0  0  0
  8 40  1  0  0  0  0
  9 14  1  0  0  0  0
  9 10  2  0  0  0  0
 10 11  1  0  0  0  0
 11 12  2  0  0  0  0
 11 41  1  0  0  0  0
 12 13  1  0  0  0  0
 13 17  1  0  0  0  0
 13 14  2  0  0  0  0
 14 15  1  0  0  0  0
 15 16  2  0  0  0  0
 16 17  1  0  0  0  0
 16 42  1  0  0  0  0
 17 18  1  0  0  0  0
 18 19  1  0  0  0  0
 18 43  1  0  0  0  0
 18 44  1  0  0  0  0
 19 24  1  0  0  0  0
 19 20  1  0  0  0  0
 19 21  1  0  0  0  0
 20 45  1  0  0  0  0
 21 22  1  0  0  0  0
 21 46  1  0  0  0  0
 21 47  1  0  0  0  0
 22 23  1  0  0  0  0
 22 48  1  0  0  0  0
 22 49  1  0  0  0  0
 23 24  1  0  0  0  0
 24 50  1  0  0  0  0
 24 51  1  0  0  0  0
 25 26  1  0  0  0  0
 25 27  1  0  0  0  0
 25 52  1  0  0  0  0
 26 53  1  0  0  0  0
 26 54  1  0  0  0  0
 26 55  1  0  0  0  0
 27 56  1  0  0  0  0
 27 57  1  0  0  0  0
M  CHG  1   3   1
M  END
> <s_m_source_file>
AV-unprocessed.smi

> <i_m_source_file_index>
243

> <i_lp_mmshare_version>
43012

> <i_f3d_flags>
0

> <s_epik_input>
W0NIM11bQ0gyXU4xW0NIMl1bQ0gyXVtDQEhdKFtDQEBIXShbQ0gzXSlbQ0gyXTEpTihbQ0gzXSljKG5bY0hdbjIpYyhjMjMpbltjSF1uM1tDSDJdW0NAQF00KFtPSF0pW0NIMl1bQ0gyXU9bQ0gyXTQ=

> <s_epik_cmdline>
J2VwaWtfcHl0aG9uJywgJy1waCcsICc3LjAnLCAnLXRuJywgJzgnLCAnLW1hJywgJzIwMCcsICctbWV0YWxfYmluZGluZycsICctaW1hZScsICc8aW5maWxlLm1hZT4nLCAnLW9tYWUnLCAnPG91dGZpbGUubWFlPic=

> <r_lp_tautomer_probability>
1

> <r_epik_Ionization_Penalty>
0.00253099

> <r_epik_Ionization_Penalty_Charging>
0.00137877

> <r_epik_Ionization_Penalty_Neutral>
0.00115221

> <r_epik_State_Penalty>
-0

> <r_epik_Charging_Adjusted_Penalty>
0.00137877

> <i_epik_Tot_Q>
1

> <i_epik_Tot_abs_Q>
1

> <r_epik_Metal_State_Penalty>
-0

> <b_epik_Metal_Only>
0

> <s_lp_Force_Field>
OPLS_2005

> <r_lp_Energy>
45.5206

> <b_lp_Chiralities_Consistent>
1

> <s_lp_Variant>
AV-unprocessed.smi:243-9

> <Gold.Version>
5.8.1

> <Gold.Id.Protein>
6NUR|6NUR_protein|mol2

> <Gold.PLP.Fitness>
52.6026

> <Gold.PLP.PLP>
-47.1718

> <Gold.PLP.part.hbond>
-2.6965

> <Gold.PLP.part.metal>
0.0000

> <Gold.PLP.part.buried>
-1.2991

> <Gold.PLP.part.nonpolar>
-43.9645

> <Gold.PLP.part.repulsive>
0.3297

> <Gold.PLP.ligand.clash>
0.0000

> <Gold.PLP.ligand.torsion>
2.7591

> <Gold.PLP.Chemscore.Hbond>
3.3150

> <Gold.PLP.Chemscore.CHOScore>
0.0000

> <Gold.PLP.Chemscore.Metal>
0.0000

> <Gold.Chemscore.Hbonds>
donor molecule, donor type, donor heavy atom, donor atom, acceptor molecule, acceptor atom, score
      L1  H     3    58       P1 10175  0.42
      P1  H  7989  7998       L1    10  0.50
      P1  H  7997  8008       L1    12  1.00

> <Gold.PLP.Chemscore.Internal.Correction>
1.0041

> <Gold.Rescore>
     Score         DG    S(hbond)    S(metal)    S(lipo)     H(rot)  DE(clash)    DE(int)     intcor
     10.66     -15.07       1.19        0.00      96.88       2.24       1.44       2.97       ----

> <Gold.Chemscore.Fitness>
10.6609

> <Gold.Chemscore.DG>
-15.0654

> <Gold.Chemscore.ZeroCoef>
-5.4800

> <Gold.Chemscore.Hbond>
1.1913

> <Gold.Chemscore.Metal>
0.0000

> <Gold.Chemscore.Lipo>
96.8850

> <Gold.Chemscore.Internal_Hbond>
0.0000

> <Gold.Chemscore.DEClash>
1.4364

> <Gold.Chemscore.DEInternal>
2.9681

> <Gold.Chemscore.Rot>
2.2379

> <Gold.Chemscore.Internal.Correction>
   9.000000E+99

> <Gold.Chemscore.Hbonds>
donor molecule, donor type, donor heavy atom, donor atom, acceptor molecule, acceptor atom, score
      L1  H     3    58       P1 10175  0.21
      P1  H  7989  7998       L1    10  0.01
      P1  H  7997  8008       L1    12  0.60

> <Gold.Chemscore.Hbond.Weighted>
-3.9790

> <Gold.Chemscore.Metal.Weighted>
-0.0000

> <Gold.Chemscore.Lipo.Weighted>
-11.3355

> <Gold.Chemscore.Internal_Hbond.Weighted>
0.0000

> <Gold.Chemscore.DEClash.Weighted>
1.4364

> <Gold.Chemscore.DEInternal.Weighted>
2.9681

> <Gold.Chemscore.Rot.Weighted>
5.7291

> <Gold.Chemscore.Internal.Correction.Weighted>
   9.000000E+99

> <Gold.Protein.RotatedTorsions>
[ 6907 6896 6895 6894 ] final   55.46 input  -60.11 | X-H torsion
[ 7974 7965 7964 7962 ] final  -82.00 input  175.53 | X-H torsion
[ 8008 7997 7996 7995 ] final  -49.95 input   59.86 | X-H torsion
[ 10167 10162 10161 10158 ] final   83.24 input  -65.29 | X-H torsion
[ 10718 10713 10712 10709 ] final   41.10 input   66.30 | X-H torsion
[ 10763 10752 10751 10750 ] final  101.69 input  -60.55 | X-H torsion
[ 11005 11000 10999 10996 ] final   64.37 input  -57.11 | X-H torsion

> <Gold.Protein.ActiveResidues>
 VAL166  LYS551  ARG553  GLY616  TRP617  ASP618  TYR619  PRO620  LYS621  CYS622 
 ASP623  PHE694  ASN695  SER759  ASP760  ASP761  ALA762  ILE779  LEU786  VAL792 
 PHE793  MET794  SER795  GLU796  ALA797  LYS798  CYS799  TRP800  GLU811  SER814 

> <Gold.Protein.RotatedAtoms>
  152.3541  134.6965  160.0227 H   0  0  0  0  0  0  0  0  0  0  0  0  # atno 6907 bound_to 6896
  151.7309  133.3312  159.3348 H   0  0  0  0  0  0  0  0  0  0  0  0  # atno 6908 bound_to 6896
  150.7559  134.6298  159.6224 H   0  0  0  0  0  0  0  0  0  0  0  0  # atno 6909 bound_to 6896
  145.5391  140.9512  143.1561 H   0  0  0  0  0  0  0  0  0  0  0  0  # atno 7974 bound_to 7965
  154.4053  140.1284  156.4585 H   0  0  0  0  0  0  0  0  0  0  0  0  # atno 8008 bound_to 7997
  155.7296  140.3491  155.5033 H   0  0  0  0  0  0  0  0  0  0  0  0  # atno 8009 bound_to 7997
  155.9140  140.1041  157.1248 H   0  0  0  0  0  0  0  0  0  0  0  0  # atno 8010 bound_to 7997
  139.9204  144.6216  150.8445 H   0  0  0  0  0  0  0  0  0  0  0  0  # atno 10167 bound_to 10162
  157.3897  130.7799  149.7259 H   0  0  0  0  0  0  0  0  0  0  0  0  # atno 10718 bound_to 10713
  153.3299  135.4036  155.1487 H   0  0  0  0  0  0  0  0  0  0  0  0  # atno 10763 bound_to 10752
  154.8620  135.3608  154.5484 H   0  0  0  0  0  0  0  0  0  0  0  0  # atno 10764 bound_to 10752
  153.5922  135.7073  153.5478 H   0  0  0  0  0  0  0  0  0  0  0  0  # atno 10765 bound_to 10752
  139.9963  134.6512  156.0005 H   0  0  0  0  0  0  0  0  0  0  0  0  # atno 11005 bound_to 11000
  144.7586  139.7012  143.7244 LP  0  0  0  0  0  0  0  0  0  0  0  0  # atno 17320 bound_to 7965
  146.1993  139.5278  142.9754 LP  0  0  0  0  0  0  0  0  0  0  0  0  # atno 17321 bound_to 7965
  140.7663  143.3301  151.2429 LP  0  0  0  0  0  0  0  0  0  0  0  0  # atno 17342 bound_to 10162
  139.6866  143.9763  152.2837 LP  0  0  0  0  0  0  0  0  0  0  0  0  # atno 17343 bound_to 10162
  155.9795  130.4039  150.3582 LP  0  0  0  0  0  0  0  0  0  0  0  0  # atno 17370 bound_to 10713
  157.1697  131.0365  151.2801 LP  0  0  0  0  0  0  0  0  0  0  0  0  # atno 17371 bound_to 10713
  141.1607  133.6539  156.4308 LP  0  0  0  0  0  0  0  0  0  0  0  0  # atno 17394 bound_to 11000
  140.4812  134.6663  157.5172 LP  0  0  0  0  0  0  0  0  0  0  0  0  # atno 17395 bound_to 11000

$$$$
