AV-unprocessed.smi:3263|AV-procd|sdf|12490|dock6
  -GOLD-   2272018393D 1   1.00000     0.00000
 Structure written by MMmdl.
 42 44  0  0  0  0  0  0  0  0  2 V2000
  152.8244  139.7089  157.3747 O   0  0  0  0  0  0  0  0  0  0  0  0
  151.6056  139.8819  157.3527 C   0  0  0  0  0  0  0  0  0  0  0  0
  150.9655  140.9741  158.2135 C   0  0  0  0  0  0  0  0  0  0  0  0
  151.6092  142.3624  157.9993 C   0  0  2  0  0  0  0  0  0  0  0  0
  152.7092  142.7117  159.0246 C   0  0  0  0  0  0  0  0  0  0  0  0
  152.2992  144.1167  159.5060 C   0  0  2  0  0  0  0  0  0  0  0  0
  151.0746  143.9952  160.4314 C   0  0  0  0  0  0  0  0  0  0  0  0
  149.9404  143.6550  159.4475 C   0  0  0  0  0  0  0  0  0  0  0  0
  150.6717  143.5937  158.0904 C   0  0  1  0  0  0  0  0  0  0  0  0
  151.6844  144.7227  158.2493 C   0  0  0  0  0  0  0  0  0  0  0  0
  150.7739  139.1624  156.5840 N   0  0  0  0  0  0  0  0  0  0  0  0
  151.1937  138.1309  155.6439 C   0  0  0  0  0  0  0  0  0  0  0  0
  151.0858  138.6230  154.1906 C   0  0  0  0  0  0  0  0  0  0  0  0
  149.6949  139.1234  153.8557 C   0  0  0  0  0  0  0  0  0  0  0  0
  149.2198  140.3786  154.2941 C   0  0  0  0  0  0  0  0  0  0  0  0
  147.9123  140.7787  153.9473 C   0  0  0  0  0  0  0  0  0  0  0  0
  147.1092  139.9169  153.1716 C   0  0  0  0  0  0  0  0  0  0  0  0
  147.6343  138.6744  152.7617 C   0  0  0  0  0  0  0  0  0  0  0  0
  148.8915  138.3268  153.1138 N   0  3  0  0  0  0  0  0  0  0  0  0
  149.8925  141.0163  158.0228 H   0  0  0  0  0  0  0  0  0  0  0  0
  151.0703  140.6847  159.2596 H   0  0  0  0  0  0  0  0  0  0  0  0
  152.0663  142.3667  157.0077 H   0  0  0  0  0  0  0  0  0  0  0  0
  152.7643  142.0008  159.8502 H   0  0  0  0  0  0  0  0  0  0  0  0
  153.6876  142.7328  158.5431 H   0  0  0  0  0  0  0  0  0  0  0  0
  153.1205  144.6870  159.9408 H   0  0  0  0  0  0  0  0  0  0  0  0
  151.2072  143.2282  161.1952 H   0  0  0  0  0  0  0  0  0  0  0  0
  150.8727  144.9401  160.9375 H   0  0  0  0  0  0  0  0  0  0  0  0
  149.4223  142.7313  159.7025 H   0  0  0  0  0  0  0  0  0  0  0  0
  149.1952  144.4516  159.4415 H   0  0  0  0  0  0  0  0  0  0  0  0
  150.0074  143.7030  157.2325 H   0  0  0  0  0  0  0  0  0  0  0  0
  151.2246  145.6979  158.4192 H   0  0  0  0  0  0  0  0  0  0  0  0
  152.3861  144.7986  157.4166 H   0  0  0  0  0  0  0  0  0  0  0  0
  149.7858  139.3656  156.6328 H   0  0  0  0  0  0  0  0  0  0  0  0
  152.2138  137.8157  155.8705 H   0  0  0  0  0  0  0  0  0  0  0  0
  150.5585  137.2565  155.7890 H   0  0  0  0  0  0  0  0  0  0  0  0
  151.8074  139.4218  154.0134 H   0  0  0  0  0  0  0  0  0  0  0  0
  151.3413  137.8211  153.4964 H   0  0  0  0  0  0  0  0  0  0  0  0
  149.8466  141.0274  154.8885 H   0  0  0  0  0  0  0  0  0  0  0  0
  147.5302  141.7353  154.2724 H   0  0  0  0  0  0  0  0  0  0  0  0
  146.1054  140.2047  152.8952 H   0  0  0  0  0  0  0  0  0  0  0  0
  147.0916  137.9535  152.1678 H   0  0  0  0  0  0  0  0  0  0  0  0
  149.2515  137.4226  152.8066 H   0  0  0  0  0  0  0  0  0  0  0  0
  1  2  2  0  0  0  0
  2  3  1  0  0  0  0
  2 11  1  0  0  0  0
  3  4  1  0  0  0  0
  3 20  1  0  0  0  0
  3 21  1  0  0  0  0
  4  9  1  0  0  0  0
  4  5  1  0  0  0  0
  4 22  1  0  0  0  0
  5  6  1  0  0  0  0
  5 23  1  0  0  0  0
  5 24  1  0  0  0  0
  6 10  1  0  0  0  0
  6  7  1  0  0  0  0
  6 25  1  0  0  0  0
  7  8  1  0  0  0  0
  7 26  1  0  0  0  0
  7 27  1  0  0  0  0
  8  9  1  0  0  0  0
  8 28  1  0  0  0  0
  8 29  1  0  0  0  0
  9 10  1  0  0  0  0
  9 30  1  0  0  0  0
 10 31  1  0  0  0  0
 10 32  1  0  0  0  0
 11 12  1  0  0  0  0
 11 33  1  0  0  0  0
 12 13  1  0  0  0  0
 12 34  1  0  0  0  0
 12 35  1  0  0  0  0
 13 14  1  0  0  0  0
 13 36  1  0  0  0  0
 13 37  1  0  0  0  0
 14 19  1  0  0  0  0
 14 15  2  0  0  0  0
 15 16  1  0  0  0  0
 15 38  1  0  0  0  0
 16 17  2  0  0  0  0
 16 39  1  0  0  0  0
 17 18  1  0  0  0  0
 17 40  1  0  0  0  0
 18 19  2  0  0  0  0
 18 41  1  0  0  0  0
 19 42  1  0  0  0  0
M  CHG  1  19   1
M  END
> <s_m_source_file>
AV-unprocessed.smi

> <i_m_source_file_index>
3263

> <i_lp_mmshare_version>
43012

> <i_f3d_flags>
0

> <s_epik_input>
W0NIMl0xW0NIMl1bQ0BASF0oW0NIMl0yKVtDQEBIXShbQ0gyXVtDQEhdMTIpW0NIMl1DKD1PKVtOSF1bQ0gyXVtDSDJdYzNbY0hdW2NIXVtjSF1bY0hdbjM=

> <s_epik_cmdline>
J2VwaWtfcHl0aG9uJywgJy1waCcsICc3LjAnLCAnLXRuJywgJzgnLCAnLW1hJywgJzIwMCcsICctbWV0YWxfYmluZGluZycsICctaW1hZScsICc8aW5maWxlLm1hZT4nLCAnLW9tYWUnLCAnPG91dGZpbGUubWFlPic=

> <r_epik_Ionization_Penalty>
1.83579

> <r_epik_Ionization_Penalty_Charging>
1.83579

> <r_epik_Ionization_Penalty_Neutral>
2.47288e-08

> <r_epik_State_Penalty>
1.95213

> <r_epik_Charging_Adjusted_Penalty>
3.78793

> <i_epik_Tot_Q>
1

> <i_epik_Tot_abs_Q>
1

> <r_epik_Metal_State_Penalty>
1.97847

> <b_epik_Metal_Only>
0

> <s_lp_Force_Field>
OPLS_2005

> <r_lp_Energy>
51.925

> <b_lp_Chiralities_Consistent>
1

> <s_lp_Variant>
AV-unprocessed.smi:3263-5

> <Gold.Version>
5.8.1

> <Gold.Id.Protein>
6NUR|6NUR_protein|mol2

> <Gold.PLP.Fitness>
48.4755

> <Gold.PLP.PLP>
-44.0688

> <Gold.PLP.part.hbond>
-2.0000

> <Gold.PLP.part.metal>
0.0000

> <Gold.PLP.part.buried>
-2.8644

> <Gold.PLP.part.nonpolar>
-39.4821

> <Gold.PLP.part.repulsive>
0.0510

> <Gold.PLP.ligand.clash>
0.0000

> <Gold.PLP.ligand.torsion>
0.8206

> <Gold.PLP.Chemscore.Hbond>
2.0000

> <Gold.PLP.Chemscore.CHOScore>
0.0000

> <Gold.PLP.Chemscore.Metal>
0.0000

> <Gold.Chemscore.Hbonds>
donor molecule, donor type, donor heavy atom, donor atom, acceptor molecule, acceptor atom, score
      L1  H    19    42       P1  7948  1.69
      P1  H  7997  8008       L1     1  0.51

> <Gold.PLP.Chemscore.Internal.Correction>
0.0478

> <Gold.Rescore>
     Score         DG    S(hbond)    S(metal)    S(lipo)     H(rot)  DE(clash)    DE(int)     intcor
     19.44     -20.25       0.97        0.00     132.83       1.56       0.10       0.71       ----

> <Gold.Chemscore.Fitness>
19.4406

> <Gold.Chemscore.DG>
-20.2541

> <Gold.Chemscore.ZeroCoef>
-5.4800

> <Gold.Chemscore.Hbond>
0.9692

> <Gold.Chemscore.Metal>
0.0000

> <Gold.Chemscore.Lipo>
132.8269

> <Gold.Chemscore.Internal_Hbond>
0.0000

> <Gold.Chemscore.DEClash>
0.1049

> <Gold.Chemscore.DEInternal>
0.7086

> <Gold.Chemscore.Rot>
1.5640

> <Gold.Chemscore.Internal.Correction>
   9.000000E+99

> <Gold.Chemscore.Hbonds>
donor molecule, donor type, donor heavy atom, donor atom, acceptor molecule, acceptor atom, score
      L1  H    19    42       P1  7948  0.76
      P1  H  7997  8008       L1     1  0.47

> <Gold.Chemscore.Hbond.Weighted>
-3.2371

> <Gold.Chemscore.Metal.Weighted>
-0.0000

> <Gold.Chemscore.Lipo.Weighted>
-15.5407

> <Gold.Chemscore.Internal_Hbond.Weighted>
0.0000

> <Gold.Chemscore.DEClash.Weighted>
0.1049

> <Gold.Chemscore.DEInternal.Weighted>
0.7086

> <Gold.Chemscore.Rot.Weighted>
4.0038

> <Gold.Chemscore.Internal.Correction.Weighted>
   9.000000E+99

> <Gold.Protein.RotatedTorsions>
[ 6907 6896 6895 6894 ] final  176.67 input  -60.11 | X-H torsion
[ 7974 7965 7964 7962 ] final  -10.69 input  175.53 | X-H torsion
[ 8008 7997 7996 7995 ] final -104.60 input   59.86 | X-H torsion
[ 10167 10162 10161 10158 ] final  140.45 input  -65.29 | X-H torsion
[ 10718 10713 10712 10709 ] final  121.56 input   66.30 | X-H torsion
[ 10763 10752 10751 10750 ] final  119.93 input  -60.55 | X-H torsion
[ 11005 11000 10999 10996 ] final  -71.87 input  -57.11 | X-H torsion

> <Gold.Protein.ActiveResidues>
 VAL166  LYS551  ARG553  GLY616  TRP617  ASP618  TYR619  PRO620  LYS621  CYS622 
 ASP623  PHE694  ASN695  SER759  ASP760  ASP761  ALA762  ILE779  LEU786  VAL792 
 PHE793  MET794  SER795  GLU796  ALA797  LYS798  CYS799  TRP800  GLU811  SER814 

> <Gold.Protein.RotatedAtoms>
  151.7163  133.3313  159.3303 H   0  0  0  0  0  0  0  0  0  0  0  0  # atno 6907 bound_to 6896
  150.7672  134.6488  159.6286 H   0  0  0  0  0  0  0  0  0  0  0  0  # atno 6908 bound_to 6896
  152.3680  134.6778  160.0237 H   0  0  0  0  0  0  0  0  0  0  0  0  # atno 6909 bound_to 6896
  146.2212  140.2801  142.8362 H   0  0  0  0  0  0  0  0  0  0  0  0  # atno 7974 bound_to 7965
  154.8876  140.0417  157.1819 H   0  0  0  0  0  0  0  0  0  0  0  0  # atno 8008 bound_to 7997
  154.8574  140.2938  155.5539 H   0  0  0  0  0  0  0  0  0  0  0  0  # atno 8009 bound_to 7997
  156.2997  140.2453  156.3543 H   0  0  0  0  0  0  0  0  0  0  0  0  # atno 8010 bound_to 7997
  139.5048  144.6233  151.5998 H   0  0  0  0  0  0  0  0  0  0  0  0  # atno 10167 bound_to 10162
  157.5808  131.1075  150.8190 H   0  0  0  0  0  0  0  0  0  0  0  0  # atno 10718 bound_to 10713
  153.5906  135.3466  155.2909 H   0  0  0  0  0  0  0  0  0  0  0  0  # atno 10763 bound_to 10752
  154.8653  135.4204  154.2520 H   0  0  0  0  0  0  0  0  0  0  0  0  # atno 10764 bound_to 10752
  153.3326  135.7045  153.7005 H   0  0  0  0  0  0  0  0  0  0  0  0  # atno 10765 bound_to 10752
  141.1599  133.6830  156.6972 H   0  0  0  0  0  0  0  0  0  0  0  0  # atno 11005 bound_to 11000
  144.9203  140.7860  143.5752 LP  0  0  0  0  0  0  0  0  0  0  0  0  # atno 17320 bound_to 7965
  145.2737  139.1944  143.4828 LP  0  0  0  0  0  0  0  0  0  0  0  0  # atno 17321 bound_to 7965
  140.5942  143.9726  150.6344 LP  0  0  0  0  0  0  0  0  0  0  0  0  # atno 17342 bound_to 10162
  140.2916  143.3320  152.1057 LP  0  0  0  0  0  0  0  0  0  0  0  0  # atno 17343 bound_to 10162
  156.8637  130.5122  149.5302 LP  0  0  0  0  0  0  0  0  0  0  0  0  # atno 17370 bound_to 10713
  156.0854  130.5854  150.9639 LP  0  0  0  0  0  0  0  0  0  0  0  0  # atno 17371 bound_to 10713
  140.2986  134.8182  157.4078 LP  0  0  0  0  0  0  0  0  0  0  0  0  # atno 17394 bound_to 11000
  140.1282  134.5129  155.8127 LP  0  0  0  0  0  0  0  0  0  0  0  0  # atno 17395 bound_to 11000

$$$$
