AV-unprocessed.smi:411|AV-procd|sdf|2508|dock2
  -GOLD-   2262022453D 1   1.00000     0.00000
 Structure written by MMmdl.
 35 36  0  0  0  0  0  0  0  0  1 V2000
  149.0387  139.7722  156.0447 O   0  0  0  0  0  0  0  0  0  0  0  0
  149.4772  140.9119  155.8935 C   0  0  0  0  0  0  0  0  0  0  0  0
  150.9916  141.1534  156.0211 C   0  0  0  0  0  0  0  0  0  0  0  0
  151.4025  141.8955  157.2280 N   0  0  0  0  0  0  0  0  0  0  0  0
  150.8193  143.1600  157.4238 C   0  0  0  0  0  0  0  0  0  0  0  0
  151.1115  143.9140  158.4918 C   0  0  0  0  0  0  0  0  0  0  0  0
  152.0536  143.3975  159.4545 C   0  0  0  0  0  0  0  0  0  0  0  0
  152.6272  142.1821  159.2962 C   0  0  0  0  0  0  0  0  0  0  0  0
  153.6260  141.6201  160.3047 C   0  0  0  0  0  0  0  0  0  0  0  0
  153.3102  140.3643  160.6232 F   0  0  0  0  0  0  0  0  0  0  0  0
  154.8596  141.6237  159.7978 F   0  0  0  0  0  0  0  0  0  0  0  0
  153.6469  142.3340  161.4313 F   0  0  0  0  0  0  0  0  0  0  0  0
  152.2950  141.3575  158.1164 C   0  0  0  0  0  0  0  0  0  0  0  0
  152.7803  140.2397  157.9353 O   0  0  0  0  0  0  0  0  0  0  0  0
  148.6868  141.9632  155.6177 N   0  0  0  0  0  0  0  0  0  0  0  0
  147.2371  141.9176  155.4706 C   0  0  2  0  0  0  0  0  0  0  0  0
  146.7669  142.5628  154.1508 C   0  0  0  0  0  0  0  0  0  0  0  0
  145.2598  142.8288  154.2433 C   0  0  0  0  0  0  0  0  0  0  0  0
  144.9074  143.1544  156.0122 S   0  0  0  0  0  0  0  0  0  0  0  0
  144.7308  144.5994  156.2221 O   0  0  0  0  0  0  0  0  0  0  0  0
  143.8999  142.1919  156.4830 O   0  0  0  0  0  0  0  0  0  0  0  0
  146.5592  142.6598  156.6307 C   0  0  0  0  0  0  0  0  0  0  0  0
  151.5003  140.1889  155.9763 H   0  0  0  0  0  0  0  0  0  0  0  0
  151.3225  141.6827  155.1265 H   0  0  0  0  0  0  0  0  0  0  0  0
  150.1201  143.4692  156.6602 H   0  0  0  0  0  0  0  0  0  0  0  0
  150.6517  144.8816  158.6304 H   0  0  0  0  0  0  0  0  0  0  0  0
  152.2934  144.0057  160.3140 H   0  0  0  0  0  0  0  0  0  0  0  0
  149.1263  142.8652  155.5053 H   0  0  0  0  0  0  0  0  0  0  0  0
  146.8987  140.8798  155.4906 H   0  0  0  0  0  0  0  0  0  0  0  0
  147.2810  143.5153  154.0143 H   0  0  0  0  0  0  0  0  0  0  0  0
  147.0090  141.9447  153.2855 H   0  0  0  0  0  0  0  0  0  0  0  0
  144.9381  143.6721  153.6320 H   0  0  0  0  0  0  0  0  0  0  0  0
  144.6932  141.9463  153.9456 H   0  0  0  0  0  0  0  0  0  0  0  0
  146.4579  142.0479  157.5274 H   0  0  0  0  0  0  0  0  0  0  0  0
  147.1002  143.5706  156.8904 H   0  0  0  0  0  0  0  0  0  0  0  0
  1  2  2  0  0  0  0
  2  3  1  0  0  0  0
  2 15  1  0  0  0  0
  3  4  1  0  0  0  0
  3 23  1  0  0  0  0
  3 24  1  0  0  0  0
  4 13  1  0  0  0  0
  4  5  1  0  0  0  0
  5  6  2  0  0  0  0
  5 25  1  0  0  0  0
  6  7  1  0  0  0  0
  6 26  1  0  0  0  0
  7  8  2  0  0  0  0
  7 27  1  0  0  0  0
  8  9  1  0  0  0  0
  8 13  1  0  0  0  0
  9 10  1  0  0  0  0
  9 11  1  0  0  0  0
  9 12  1  0  0  0  0
 13 14  2  0  0  0  0
 15 16  1  0  0  0  0
 15 28  1  0  0  0  0
 16 22  1  0  0  0  0
 16 17  1  0  0  0  0
 16 29  1  0  0  0  0
 17 18  1  0  0  0  0
 17 30  1  0  0  0  0
 17 31  1  0  0  0  0
 18 19  1  0  0  0  0
 18 32  1  0  0  0  0
 18 33  1  0  0  0  0
 19 20  2  0  0  0  0
 19 21  2  0  0  0  0
 19 22  1  0  0  0  0
 22 34  1  0  0  0  0
 22 35  1  0  0  0  0
M  END
> <s_m_source_file>
AV-unprocessed.smi

> <i_m_source_file_index>
411

> <i_lp_mmshare_version>
43012

> <i_f3d_flags>
0

> <s_epik_input>
Tz1TMSg9TylbQ0gyXVtDSDJdW0NASF0oW0NIMl0xKVtOSF1DKD1PKVtDSDJdbjJbY0hdW2NIXVtjSF1jKEMoRikoRilGKWMyPU8=

> <s_epik_cmdline>
J2VwaWtfcHl0aG9uJywgJy1waCcsICc3LjAnLCAnLXRuJywgJzgnLCAnLW1hJywgJzIwMCcsICctbWV0YWxfYmluZGluZycsICctaW1hZScsICc8aW5maWxlLm1hZT4nLCAnLW9tYWUnLCAnPG91dGZpbGUubWFlPic=

> <r_lp_tautomer_probability>
1

> <r_epik_Ionization_Penalty>
1.08759e-07

> <r_epik_Ionization_Penalty_Charging>
1.56656e-09

> <r_epik_Ionization_Penalty_Neutral>
1.07193e-07

> <r_epik_State_Penalty>
-0

> <r_epik_Charging_Adjusted_Penalty>
1.56656e-09

> <i_epik_Tot_Q>
0

> <i_epik_Tot_abs_Q>
0

> <r_epik_Metal_State_Penalty>
-0

> <b_epik_Metal_Only>
0

> <s_lp_Force_Field>
OPLS_2005

> <r_lp_Energy>
11.8943

> <b_lp_Chiralities_Consistent>
1

> <s_lp_Variant>
AV-unprocessed.smi:411-1

> <Gold.Version>
5.8.1

> <Gold.Id.Protein>
6NUR|6NUR_protein|mol2

> <Gold.PLP.Fitness>
48.1277

> <Gold.PLP.PLP>
-40.1438

> <Gold.PLP.part.hbond>
-2.0000

> <Gold.PLP.part.metal>
0.0000

> <Gold.PLP.part.buried>
-3.0044

> <Gold.PLP.part.nonpolar>
-33.8117

> <Gold.PLP.part.repulsive>
0.2747

> <Gold.PLP.ligand.clash>
0.0000

> <Gold.PLP.ligand.torsion>
0.5642

> <Gold.PLP.Chemscore.Hbond>
1.9280

> <Gold.PLP.Chemscore.CHOScore>
1.0000

> <Gold.PLP.Chemscore.Metal>
0.0000

> <Gold.Chemscore.Hbonds>
donor molecule, donor type, donor heavy atom, donor atom, acceptor molecule, acceptor atom, score
      L1  H    15    28       P1  8028  0.90
      P1  H  7997  8010       L1    14  0.98
      L1  C     5    25       P1  8028  0.96

> <Gold.PLP.Chemscore.Internal.Correction>
0.3284

> <Gold.Rescore>
     Score         DG    S(hbond)    S(metal)    S(lipo)     H(rot)  DE(clash)    DE(int)     intcor
     13.97     -16.07       1.90        0.00      74.18       1.73       0.06       2.04       ----

> <Gold.Chemscore.Fitness>
13.9712

> <Gold.Chemscore.DG>
-16.0662

> <Gold.Chemscore.ZeroCoef>
-5.4800

> <Gold.Chemscore.Hbond>
1.8981

> <Gold.Chemscore.Metal>
0.0000

> <Gold.Chemscore.Lipo>
74.1796

> <Gold.Chemscore.Internal_Hbond>
0.0000

> <Gold.Chemscore.DEClash>
0.0572

> <Gold.Chemscore.DEInternal>
2.0379

> <Gold.Chemscore.Rot>
1.7314

> <Gold.Chemscore.Internal.Correction>
   9.000000E+99

> <Gold.Chemscore.Hbonds>
donor molecule, donor type, donor heavy atom, donor atom, acceptor molecule, acceptor atom, score
      L1  H    15    28       P1  8028  0.88
      P1  H  7997  8010       L1    14  0.86

> <Gold.Chemscore.Hbond.Weighted>
-6.3396

> <Gold.Chemscore.Metal.Weighted>
-0.0000

> <Gold.Chemscore.Lipo.Weighted>
-8.6790

> <Gold.Chemscore.Internal_Hbond.Weighted>
0.0000

> <Gold.Chemscore.DEClash.Weighted>
0.0572

> <Gold.Chemscore.DEInternal.Weighted>
2.0379

> <Gold.Chemscore.Rot.Weighted>
4.4324

> <Gold.Chemscore.Internal.Correction.Weighted>
   9.000000E+99

> <Gold.Protein.RotatedTorsions>
[ 6907 6896 6895 6894 ] final  -81.02 input  -60.11 | X-H torsion
[ 7974 7965 7964 7962 ] final  -35.96 input  175.53 | X-H torsion
[ 8008 7997 7996 7995 ] final   44.71 input   59.86 | X-H torsion
[ 10167 10162 10161 10158 ] final  -28.71 input  -65.29 | X-H torsion
[ 10718 10713 10712 10709 ] final -176.87 input   66.30 | X-H torsion
[ 10763 10752 10751 10750 ] final  -77.28 input  -60.55 | X-H torsion
[ 11005 11000 10999 10996 ] final  115.25 input  -57.11 | X-H torsion

> <Gold.Protein.ActiveResidues>
 VAL166  LYS551  ARG553  GLY616  TRP617  ASP618  TYR619  PRO620  LYS621  CYS622 
 ASP623  PHE694  ASN695  SER759  ASP760  ASP761  ALA762  ILE779  LEU786  VAL792 
 PHE793  MET794  SER795  GLU796  ALA797  LYS798  CYS799  TRP800  GLU811  SER814 

> <Gold.Protein.RotatedAtoms>
  150.6919  134.3881  159.5063 H   0  0  0  0  0  0  0  0  0  0  0  0  # atno 6907 bound_to 6896
  152.1674  134.8860  160.0546 H   0  0  0  0  0  0  0  0  0  0  0  0  # atno 6908 bound_to 6896
  151.9899  133.3752  159.4177 H   0  0  0  0  0  0  0  0  0  0  0  0  # atno 6909 bound_to 6896
  146.0702  140.6222  142.8956 H   0  0  0  0  0  0  0  0  0  0  0  0  # atno 7974 bound_to 7965
  155.3237  140.3398  155.4240 H   0  0  0  0  0  0  0  0  0  0  0  0  # atno 8008 bound_to 7997
  156.1896  140.1693  156.8155 H   0  0  0  0  0  0  0  0  0  0  0  0  # atno 8009 bound_to 7997
  154.5426  140.0721  156.8519 H   0  0  0  0  0  0  0  0  0  0  0  0  # atno 8010 bound_to 7997
  140.7267  143.3988  151.1301 H   0  0  0  0  0  0  0  0  0  0  0  0  # atno 10167 bound_to 10162
  156.8211  130.9620  151.3111 H   0  0  0  0  0  0  0  0  0  0  0  0  # atno 10718 bound_to 10713
  154.5109  135.5769  153.6604 H   0  0  0  0  0  0  0  0  0  0  0  0  # atno 10763 bound_to 10752
  152.9897  135.6158  154.2880 H   0  0  0  0  0  0  0  0  0  0  0  0  # atno 10764 bound_to 10752
  154.2794  135.2851  155.2683 H   0  0  0  0  0  0  0  0  0  0  0  0  # atno 10765 bound_to 10752
  139.9004  134.9581  156.7017 H   0  0  0  0  0  0  0  0  0  0  0  0  # atno 11005 bound_to 11000
  144.7227  140.4425  143.6996 LP  0  0  0  0  0  0  0  0  0  0  0  0  # atno 17320 bound_to 7965
  145.6405  139.1549  143.2918 LP  0  0  0  0  0  0  0  0  0  0  0  0  # atno 17321 bound_to 7965
  139.7605  143.8643  152.3099 LP  0  0  0  0  0  0  0  0  0  0  0  0  # atno 17342 bound_to 10162
  139.8527  144.7156  150.9194 LP  0  0  0  0  0  0  0  0  0  0  0  0  # atno 17343 bound_to 10162
  157.6456  130.8842  149.9532 LP  0  0  0  0  0  0  0  0  0  0  0  0  # atno 17370 bound_to 10713
  156.0988  130.3657  150.0256 LP  0  0  0  0  0  0  0  0  0  0  0  0  # atno 17371 bound_to 10713
  140.7145  133.9194  155.8106 LP  0  0  0  0  0  0  0  0  0  0  0  0  # atno 17394 bound_to 11000
  141.0275  134.0803  157.4052 LP  0  0  0  0  0  0  0  0  0  0  0  0  # atno 17395 bound_to 11000

$$$$
