AV-unprocessed.smi:1949|AV-procd|sdf|7877|dock2
  -GOLD-   2272010 23D 1   1.00000     0.00000
 Structure written by MMmdl.
 29 30  0  0  0  0  0  0  0  0  1 V2000
  146.8997  139.0709  152.7239 C   0  0  0  0  0  0  0  0  0  0  0  0
  147.8577  139.7360  153.6522 C   0  0  0  0  0  0  0  0  0  0  0  0
  148.8164  139.0694  154.3058 N   0  0  0  0  0  0  0  0  0  0  0  0
  149.5805  139.9023  155.1098 N   0  0  0  0  0  0  0  0  0  0  0  0
  149.1747  141.1788  155.0440 C   0  0  0  0  0  0  0  0  0  0  0  0
  149.7706  142.2592  155.7587 N   0  0  0  0  0  0  0  0  0  0  0  0
  150.8016  142.3032  156.6300 C   0  0  0  0  0  0  0  0  0  0  0  0
  151.4160  141.2822  156.9342 O   0  0  0  0  0  0  0  0  0  0  0  0
  151.1110  143.5106  157.1305 N   0  0  0  0  0  0  0  0  0  0  0  0
  152.1825  143.7869  158.0829 C   0  0  0  0  0  0  0  0  0  0  0  0
  152.0442  142.8924  159.3305 C   0  0  0  0  0  0  0  0  0  0  0  0
  152.1398  143.8267  160.5384 C   0  0  0  0  0  0  0  0  0  0  0  0
  151.6098  145.1626  160.0280 C   0  0  0  0  0  0  0  0  0  0  0  0
  152.1247  145.2412  158.5909 C   0  0  0  0  0  0  0  0  0  0  0  0
  147.8102  141.4642  153.9761 S   0  0  0  0  0  0  0  0  0  0  0  0
  147.2423  138.0665  152.4729 H   0  0  0  0  0  0  0  0  0  0  0  0
  146.8092  139.6477  151.8036 H   0  0  0  0  0  0  0  0  0  0  0  0
  145.9178  138.9995  153.1916 H   0  0  0  0  0  0  0  0  0  0  0  0
  149.3432  143.1564  155.5803 H   0  0  0  0  0  0  0  0  0  0  0  0
  150.5583  144.3001  156.8277 H   0  0  0  0  0  0  0  0  0  0  0  0
  153.1482  143.6033  157.6081 H   0  0  0  0  0  0  0  0  0  0  0  0
  151.0727  142.3951  159.3430 H   0  0  0  0  0  0  0  0  0  0  0  0
  152.8041  142.1109  159.3622 H   0  0  0  0  0  0  0  0  0  0  0  0
  151.5854  143.4559  161.4009 H   0  0  0  0  0  0  0  0  0  0  0  0
  153.1836  143.9376  160.8355 H   0  0  0  0  0  0  0  0  0  0  0  0
  150.5191  145.1501  160.0283 H   0  0  0  0  0  0  0  0  0  0  0  0
  151.9352  146.0058  160.6376 H   0  0  0  0  0  0  0  0  0  0  0  0
  153.1325  145.6581  158.5941 H   0  0  0  0  0  0  0  0  0  0  0  0
  151.5109  145.8968  157.9716 H   0  0  0  0  0  0  0  0  0  0  0  0
  1  2  1  0  0  0  0
  1 16  1  0  0  0  0
  1 17  1  0  0  0  0
  1 18  1  0  0  0  0
  2 15  1  0  0  0  0
  2  3  2  0  0  0  0
  3  4  1  0  0  0  0
  4  5  2  0  0  0  0
  5  6  1  0  0  0  0
  5 15  1  0  0  0  0
  6  7  1  0  0  0  0
  6 19  1  0  0  0  0
  7  8  2  0  0  0  0
  7  9  1  0  0  0  0
  9 10  1  0  0  0  0
  9 20  1  0  0  0  0
 10 14  1  0  0  0  0
 10 11  1  0  0  0  0
 10 21  1  0  0  0  0
 11 12  1  0  0  0  0
 11 22  1  0  0  0  0
 11 23  1  0  0  0  0
 12 13  1  0  0  0  0
 12 24  1  0  0  0  0
 12 25  1  0  0  0  0
 13 14  1  0  0  0  0
 13 26  1  0  0  0  0
 13 27  1  0  0  0  0
 14 28  1  0  0  0  0
 14 29  1  0  0  0  0
M  END
> <s_m_source_file>
AV-unprocessed.smi

> <i_m_source_file_index>
1949

> <i_lp_mmshare_version>
43012

> <i_f3d_flags>
0

> <s_epik_input>
W0NIM11jMW5uYyhzMSlbTkhdQyg9TylbTkhdW0NIXTJbQ0gyXVtDSDJdW0NIMl1bQ0gyXTI=

> <s_epik_cmdline>
J2VwaWtfcHl0aG9uJywgJy1waCcsICc3LjAnLCAnLXRuJywgJzgnLCAnLW1hJywgJzIwMCcsICctbWV0YWxfYmluZGluZycsICctaW1hZScsICc8aW5maWxlLm1hZT4nLCAnLW9tYWUnLCAnPG91dGZpbGUubWFlPic=

> <r_lp_tautomer_probability>
1

> <r_epik_Ionization_Penalty>
0.00038779

> <r_epik_Ionization_Penalty_Charging>
0

> <r_epik_Ionization_Penalty_Neutral>
0.00038779

> <r_epik_State_Penalty>
-0

> <r_epik_Charging_Adjusted_Penalty>
0

> <i_epik_Tot_Q>
0

> <i_epik_Tot_abs_Q>
0

> <r_epik_Metal_State_Penalty>
0.190371

> <b_epik_Metal_Only>
0

> <s_lp_Force_Field>
OPLS_2005

> <r_lp_Energy>
20.1691

> <b_lp_Chiralities_Consistent>
1

> <s_lp_Variant>
AV-unprocessed.smi:1949-1

> <Gold.Version>
5.8.1

> <Gold.Id.Protein>
6NUR|6NUR_protein|mol2

> <Gold.PLP.Fitness>
40.4042

> <Gold.PLP.PLP>
-35.1059

> <Gold.PLP.part.hbond>
-2.0000

> <Gold.PLP.part.metal>
0.0000

> <Gold.PLP.part.buried>
-3.8738

> <Gold.PLP.part.nonpolar>
-29.6588

> <Gold.PLP.part.repulsive>
0.4048

> <Gold.PLP.ligand.clash>
0.0000

> <Gold.PLP.ligand.torsion>
0.0486

> <Gold.PLP.Chemscore.Hbond>
1.7977

> <Gold.PLP.Chemscore.CHOScore>
0.0000

> <Gold.PLP.Chemscore.Metal>
0.0000

> <Gold.Chemscore.Hbonds>
donor molecule, donor type, donor heavy atom, donor atom, acceptor molecule, acceptor atom, score
      L1  H     6    19       P1  8028  1.00
      L1  H     9    20       P1  8028  0.78

> <Gold.PLP.Chemscore.Internal.Correction>
0.0025

> <Gold.Rescore>
     Score         DG    S(hbond)    S(metal)    S(lipo)     H(rot)  DE(clash)    DE(int)     intcor
     16.25     -18.76       1.85        0.00      82.54       1.00       0.07       2.45       ----

> <Gold.Chemscore.Fitness>
16.2455

> <Gold.Chemscore.DG>
-18.7605

> <Gold.Chemscore.ZeroCoef>
-5.4800

> <Gold.Chemscore.Hbond>
1.8514

> <Gold.Chemscore.Metal>
0.0000

> <Gold.Chemscore.Lipo>
82.5376

> <Gold.Chemscore.Internal_Hbond>
0.0000

> <Gold.Chemscore.DEClash>
0.0677

> <Gold.Chemscore.DEInternal>
2.4474

> <Gold.Chemscore.Rot>
1.0000

> <Gold.Chemscore.Internal.Correction>
   9.000000E+99

> <Gold.Chemscore.Hbonds>
donor molecule, donor type, donor heavy atom, donor atom, acceptor molecule, acceptor atom, score
      L1  H     6    19       P1  8028  0.99
      L1  H     9    20       P1  8028  0.72

> <Gold.Chemscore.Hbond.Weighted>
-6.1836

> <Gold.Chemscore.Metal.Weighted>
-0.0000

> <Gold.Chemscore.Lipo.Weighted>
-9.6569

> <Gold.Chemscore.Internal_Hbond.Weighted>
0.0000

> <Gold.Chemscore.DEClash.Weighted>
0.0677

> <Gold.Chemscore.DEInternal.Weighted>
2.4474

> <Gold.Chemscore.Rot.Weighted>
2.5600

> <Gold.Chemscore.Internal.Correction.Weighted>
   9.000000E+99

> <Gold.Protein.RotatedTorsions>
[ 6907 6896 6895 6894 ] final   90.42 input  -60.11 | X-H torsion
[ 7974 7965 7964 7962 ] final  -76.63 input  175.53 | X-H torsion
[ 8008 7997 7996 7995 ] final   -8.27 input   59.86 | X-H torsion
[ 10167 10162 10161 10158 ] final   92.83 input  -65.29 | X-H torsion
[ 10718 10713 10712 10709 ] final -114.63 input   66.30 | X-H torsion
[ 10763 10752 10751 10750 ] final   -5.36 input  -60.55 | X-H torsion
[ 11005 11000 10999 10996 ] final  169.16 input  -57.11 | X-H torsion

> <Gold.Protein.ActiveResidues>
 VAL166  LYS551  ARG553  GLY616  TRP617  ASP618  TYR619  PRO620  LYS621  CYS622 
 ASP623  PHE694  ASN695  SER759  ASP760  ASP761  ALA762  ILE779  LEU786  VAL792 
 PHE793  MET794  SER795  GLU796  ALA797  LYS798  CYS799  TRP800  GLU811  SER814 

> <Gold.Protein.RotatedAtoms>
  152.5444  134.1815  159.8637 H   0  0  0  0  0  0  0  0  0  0  0  0  # atno 6907 bound_to 6896
  151.1817  133.4714  159.2601 H   0  0  0  0  0  0  0  0  0  0  0  0  # atno 6908 bound_to 6896
  151.1172  135.0071  159.8577 H   0  0  0  0  0  0  0  0  0  0  0  0  # atno 6909 bound_to 6896
  145.6103  140.9388  143.1193 H   0  0  0  0  0  0  0  0  0  0  0  0  # atno 7974 bound_to 7965
  154.5758  140.2385  155.8125 H   0  0  0  0  0  0  0  0  0  0  0  0  # atno 8008 bound_to 7997
  156.2142  140.3017  155.9758 H   0  0  0  0  0  0  0  0  0  0  0  0  # atno 8009 bound_to 7997
  155.2630  140.0415  157.2990 H   0  0  0  0  0  0  0  0  0  0  0  0  # atno 8010 bound_to 7997
  139.8239  144.6719  150.9484 H   0  0  0  0  0  0  0  0  0  0  0  0  # atno 10167 bound_to 10162
  156.0843  130.6037  150.8800 H   0  0  0  0  0  0  0  0  0  0  0  0  # atno 10718 bound_to 10713
  153.3974  135.7004  153.6450 H   0  0  0  0  0  0  0  0  0  0  0  0  # atno 10763 bound_to 10752
  153.4997  135.3655  155.2534 H   0  0  0  0  0  0  0  0  0  0  0  0  # atno 10764 bound_to 10752
  154.8707  135.4109  154.3303 H   0  0  0  0  0  0  0  0  0  0  0  0  # atno 10765 bound_to 10752
  140.2948  134.7643  157.3868 H   0  0  0  0  0  0  0  0  0  0  0  0  # atno 11005 bound_to 11000
  144.7273  139.7836  143.7360 LP  0  0  0  0  0  0  0  0  0  0  0  0  # atno 17320 bound_to 7965
  146.1509  139.4592  143.0049 LP  0  0  0  0  0  0  0  0  0  0  0  0  # atno 17321 bound_to 7965
  140.7811  143.4065  151.1062 LP  0  0  0  0  0  0  0  0  0  0  0  0  # atno 17342 bound_to 10162
  139.7724  143.8475  152.3123 LP  0  0  0  0  0  0  0  0  0  0  0  0  # atno 17343 bound_to 10162
  157.5971  131.0942  150.9022 LP  0  0  0  0  0  0  0  0  0  0  0  0  # atno 17370 bound_to 10713
  156.9187  130.5307  149.5279 LP  0  0  0  0  0  0  0  0  0  0  0  0  # atno 17371 bound_to 10713
  140.1162  134.5280  155.8222 LP  0  0  0  0  0  0  0  0  0  0  0  0  # atno 17394 bound_to 11000
  141.2139  133.6741  156.6782 LP  0  0  0  0  0  0  0  0  0  0  0  0  # atno 17395 bound_to 11000

$$$$
