AV-unprocessed.smi:1645|AV-procd|sdf|6623|dock2
  -GOLD-   22720 7323D 1   1.00000     0.00000
 Structure written by MMmdl.
 55 58  0  0  0  0  0  0  0  0  4 V2000
  147.7267  137.2158  155.4224 O   0  0  0  0  0  0  0  0  0  0  0  0
  147.4065  137.8743  154.4261 C   0  0  0  0  0  0  0  0  0  0  0  0
  147.9330  139.0947  154.2216 N   0  0  0  0  0  0  0  0  0  0  0  0
  148.7962  139.8457  155.0631 C   0  0  0  0  0  0  0  0  0  0  0  0
  149.8169  139.2712  155.8576 C   0  0  0  0  0  0  0  0  0  0  0  0
  150.6040  140.0987  156.6842 C   0  0  0  0  0  0  0  0  0  0  0  0
  150.3652  141.4959  156.7230 C   0  0  0  0  0  0  0  0  0  0  0  0
  151.0971  142.3991  157.5275 N   0  0  0  0  0  0  0  0  0  0  0  0
  151.3507  143.7239  156.9515 C   0  0  0  0  0  0  0  0  0  0  0  0
  151.7587  144.7402  158.0320 C   0  0  0  0  0  0  0  0  0  0  0  0
  152.9357  144.2182  158.8673 C   0  0  0  0  0  0  0  0  0  0  0  0
  152.5816  142.8505  159.4661 C   0  0  0  0  0  0  0  0  0  0  0  0
  152.1634  141.8547  158.3708 C   0  0  0  0  0  0  0  0  0  0  0  0
  149.3644  141.9911  155.9545 N   0  3  0  0  0  0  0  0  0  0  0  0
  148.5861  141.2355  155.1503 C   0  0  0  0  0  0  0  0  0  0  0  0
  146.5549  137.5091  153.4304 N   0  5  0  0  0  0  0  0  0  0  0  0
  145.4903  136.5127  153.5673 C   0  0  1  0  0  0  0  0  0  0  0  0
  144.1241  137.0636  153.1133 C   0  0  0  0  0  0  0  0  0  0  0  0
  143.4034  135.8795  152.4405 C   0  0  0  0  0  0  0  0  0  0  0  0
  144.3507  134.7499  152.5070 N   0  3  1  0  0  0  0  0  0  0  0  0
  144.2484  133.7172  151.4524 C   0  0  0  0  0  0  0  0  0  0  0  0
  145.2381  132.5755  151.7609 C   0  0  0  0  0  0  0  0  0  0  0  0
  146.6729  133.1007  151.9757 C   0  0  0  0  0  0  0  0  0  0  0  0
  146.7029  134.2318  153.0231 C   0  0  0  0  0  0  0  0  0  0  0  0
  145.6994  135.3299  152.6141 C   0  0  2  0  0  0  0  0  0  0  0  0
  147.7173  139.5159  153.3300 H   0  0  0  0  0  0  0  0  0  0  0  0
  150.0010  138.2077  155.8590 H   0  0  0  0  0  0  0  0  0  0  0  0
  151.3827  139.6375  157.2720 H   0  0  0  0  0  0  0  0  0  0  0  0
  152.1444  143.6332  156.2091 H   0  0  0  0  0  0  0  0  0  0  0  0
  150.4763  144.1111  156.4293 H   0  0  0  0  0  0  0  0  0  0  0  0
  152.0219  145.6910  157.5677 H   0  0  0  0  0  0  0  0  0  0  0  0
  150.9081  144.9403  158.6852 H   0  0  0  0  0  0  0  0  0  0  0  0
  153.8247  144.1297  158.2416 H   0  0  0  0  0  0  0  0  0  0  0  0
  153.1787  144.9264  159.6601 H   0  0  0  0  0  0  0  0  0  0  0  0
  153.4304  142.4551  160.0245 H   0  0  0  0  0  0  0  0  0  0  0  0
  151.7670  142.9674  160.1824 H   0  0  0  0  0  0  0  0  0  0  0  0
  151.8315  140.9359  158.8550 H   0  0  0  0  0  0  0  0  0  0  0  0
  153.0203  141.6037  157.7442 H   0  0  0  0  0  0  0  0  0  0  0  0
  147.8238  141.7667  154.5990 H   0  0  0  0  0  0  0  0  0  0  0  0
  145.3979  136.1276  154.5844 H   0  0  0  0  0  0  0  0  0  0  0  0
  143.5578  137.4615  153.9559 H   0  0  0  0  0  0  0  0  0  0  0  0
  144.2405  137.8717  152.3890 H   0  0  0  0  0  0  0  0  0  0  0  0
  142.4705  135.6215  152.9433 H   0  0  0  0  0  0  0  0  0  0  0  0
  143.1703  136.1221  151.4019 H   0  0  0  0  0  0  0  0  0  0  0  0
  143.2290  133.3319  151.4142 H   0  0  0  0  0  0  0  0  0  0  0  0
  144.4646  134.1592  150.4785 H   0  0  0  0  0  0  0  0  0  0  0  0
  144.9113  132.0497  152.6592 H   0  0  0  0  0  0  0  0  0  0  0  0
  145.2251  131.8419  150.9543 H   0  0  0  0  0  0  0  0  0  0  0  0
  147.3292  132.2863  152.2837 H   0  0  0  0  0  0  0  0  0  0  0  0
  147.0670  133.4735  151.0295 H   0  0  0  0  0  0  0  0  0  0  0  0
  146.4568  133.8225  154.0048 H   0  0  0  0  0  0  0  0  0  0  0  0
  147.7138  134.6370  153.0961 H   0  0  0  0  0  0  0  0  0  0  0  0
  145.9784  135.7158  151.6303 H   0  0  0  0  0  0  0  0  0  0  0  0
  144.1782  134.2938  153.3914 H   0  0  0  0  0  0  0  0  0  0  0  0
  149.1841  142.9944  155.9877 H   0  0  0  0  0  0  0  0  0  0  0  0
  1  2  2  0  0  0  0
  2  3  1  0  0  0  0
  2 16  1  0  0  0  0
  3  4  1  0  0  0  0
  3 26  1  0  0  0  0
  4 15  1  0  0  0  0
  4  5  2  0  0  0  0
  5  6  1  0  0  0  0
  5 27  1  0  0  0  0
  6  7  2  0  0  0  0
  6 28  1  0  0  0  0
  7  8  1  0  0  0  0
  7 14  1  0  0  0  0
  8 13  1  0  0  0  0
  8  9  1  0  0  0  0
  9 10  1  0  0  0  0
  9 29  1  0  0  0  0
  9 30  1  0  0  0  0
 10 11  1  0  0  0  0
 10 31  1  0  0  0  0
 10 32  1  0  0  0  0
 11 12  1  0  0  0  0
 11 33  1  0  0  0  0
 11 34  1  0  0  0  0
 12 13  1  0  0  0  0
 12 35  1  0  0  0  0
 12 36  1  0  0  0  0
 13 37  1  0  0  0  0
 13 38  1  0  0  0  0
 14 15  2  0  0  0  0
 14 55  1  0  0  0  0
 15 39  1  0  0  0  0
 16 17  1  0  0  0  0
 17 25  1  0  0  0  0
 17 18  1  0  0  0  0
 17 40  1  0  0  0  0
 18 19  1  0  0  0  0
 18 41  1  0  0  0  0
 18 42  1  0  0  0  0
 19 20  1  0  0  0  0
 19 43  1  0  0  0  0
 19 44  1  0  0  0  0
 20 25  1  0  0  0  0
 20 21  1  0  0  0  0
 20 54  1  0  0  0  0
 21 22  1  0  0  0  0
 21 45  1  0  0  0  0
 21 46  1  0  0  0  0
 22 23  1  0  0  0  0
 22 47  1  0  0  0  0
 22 48  1  0  0  0  0
 23 24  1  0  0  0  0
 23 49  1  0  0  0  0
 23 50  1  0  0  0  0
 24 25  1  0  0  0  0
 24 51  1  0  0  0  0
 24 52  1  0  0  0  0
 25 53  1  0  0  0  0
M  CHG  1  14   1
M  CHG  1  16  -1
M  CHG  1  20   1
M  END
> <s_m_source_file>
AV-unprocessed.smi

> <i_m_source_file_index>
1645

> <i_lp_mmshare_version>
43012

> <i_f3d_flags>
0

> <s_epik_input>
W0NIMl0xW0NIMl1bQ0gyXVtDSDJdW0NASF0oTjEyKVtDQEBIXShbQ0gyXVtDSDJdMilbTkhdQyg9TylbTkhdYzNbY0hdW2NIXWMobltjSF0zKU40W0NIMl1bQ0gyXVtDSDJdW0NIMl1bQ0gyXTQ=

> <s_epik_cmdline>
J2VwaWtfcHl0aG9uJywgJy1waCcsICc3LjAnLCAnLXRuJywgJzgnLCAnLW1hJywgJzIwMCcsICctbWV0YWxfYmluZGluZycsICctaW1hZScsICc8aW5maWxlLm1hZT4nLCAnLW9tYWUnLCAnPG91dGZpbGUubWFlPic=

> <r_lp_tautomer_probability>
0.999994

> <r_epik_Ionization_Penalty>
8.55589

> <r_epik_Ionization_Penalty_Charging>
8.55589

> <r_epik_Ionization_Penalty_Neutral>
3.8092e-06

> <r_epik_State_Penalty>
8.15703

> <r_epik_Charging_Adjusted_Penalty>
16.7129

> <i_epik_Tot_Q>
1

> <i_epik_Tot_abs_Q>
3

> <r_epik_Metal_State_Penalty>
4.13781

> <b_epik_Metal_Only>
1

> <s_lp_Force_Field>
OPLS_2005

> <r_lp_Energy>
51.9528

> <b_lp_Chiralities_Consistent>
1

> <s_lp_Variant>
AV-unprocessed.smi:1645-24

> <Gold.Version>
5.8.1

> <Gold.Id.Protein>
6NUR|6NUR_protein|mol2

> <Gold.PLP.Fitness>
44.0114

> <Gold.PLP.PLP>
-39.0282

> <Gold.PLP.part.hbond>
-1.0000

> <Gold.PLP.part.metal>
0.0000

> <Gold.PLP.part.buried>
-3.4083

> <Gold.PLP.part.nonpolar>
-35.3597

> <Gold.PLP.part.repulsive>
0.5538

> <Gold.PLP.ligand.clash>
0.0000

> <Gold.PLP.ligand.torsion>
0.6882

> <Gold.PLP.Chemscore.Hbond>
2.0000

> <Gold.PLP.Chemscore.CHOScore>
0.0000

> <Gold.PLP.Chemscore.Metal>
0.0000

> <Gold.Chemscore.Hbonds>
donor molecule, donor type, donor heavy atom, donor atom, acceptor molecule, acceptor atom, score
      L1  H    14    55       P1  8028  2.00

> <Gold.PLP.Chemscore.Internal.Correction>
0.3597

> <Gold.Rescore>
     Score         DG    S(hbond)    S(metal)    S(lipo)     H(rot)  DE(clash)    DE(int)     intcor
     17.36     -19.62       0.99        0.00     114.41       1.00       0.32       1.94       ----

> <Gold.Chemscore.Fitness>
17.3650

> <Gold.Chemscore.DG>
-19.6171

> <Gold.Chemscore.ZeroCoef>
-5.4800

> <Gold.Chemscore.Hbond>
0.9915

> <Gold.Chemscore.Metal>
0.0000

> <Gold.Chemscore.Lipo>
114.4066

> <Gold.Chemscore.Internal_Hbond>
0.0000

> <Gold.Chemscore.DEClash>
0.3168

> <Gold.Chemscore.DEInternal>
1.9353

> <Gold.Chemscore.Rot>
1.0000

> <Gold.Chemscore.Internal.Correction>
   9.000000E+99

> <Gold.Chemscore.Hbonds>
donor molecule, donor type, donor heavy atom, donor atom, acceptor molecule, acceptor atom, score
      L1  H    14    55       P1  8028  1.00

> <Gold.Chemscore.Hbond.Weighted>
-3.3115

> <Gold.Chemscore.Metal.Weighted>
-0.0000

> <Gold.Chemscore.Lipo.Weighted>
-13.3856

> <Gold.Chemscore.Internal_Hbond.Weighted>
0.0000

> <Gold.Chemscore.DEClash.Weighted>
0.3168

> <Gold.Chemscore.DEInternal.Weighted>
1.9353

> <Gold.Chemscore.Rot.Weighted>
2.5600

> <Gold.Chemscore.Internal.Correction.Weighted>
   9.000000E+99

> <Gold.Protein.RotatedTorsions>
[ 6907 6896 6895 6894 ] final   81.22 input  -60.11 | X-H torsion
[ 7974 7965 7964 7962 ] final -123.84 input  175.53 | X-H torsion
[ 8008 7997 7996 7995 ] final  -27.10 input   59.86 | X-H torsion
[ 10167 10162 10161 10158 ] final   61.48 input  -65.29 | X-H torsion
[ 10718 10713 10712 10709 ] final  -30.22 input   66.30 | X-H torsion
[ 10763 10752 10751 10750 ] final   42.34 input  -60.55 | X-H torsion
[ 11005 11000 10999 10996 ] final   35.18 input  -57.11 | X-H torsion

> <Gold.Protein.ActiveResidues>
 VAL166  LYS551  ARG553  GLY616  TRP617  ASP618  TYR619  PRO620  LYS621  CYS622 
 ASP623  PHE694  ASN695  SER759  ASP760  ASP761  ALA762  ILE779  LEU786  VAL792 
 PHE793  MET794  SER795  GLU796  ALA797  LYS798  CYS799  TRP800  GLU811  SER814 

> <Gold.Protein.RotatedAtoms>
  152.5261  134.3237  159.9157 H   0  0  0  0  0  0  0  0  0  0  0  0  # atno 6907 bound_to 6896
  151.3186  133.4043  159.2660 H   0  0  0  0  0  0  0  0  0  0  0  0  # atno 6908 bound_to 6896
  150.9978  134.9314  159.7994 H   0  0  0  0  0  0  0  0  0  0  0  0  # atno 6909 bound_to 6896
  145.0144  140.7934  143.4419 H   0  0  0  0  0  0  0  0  0  0  0  0  # atno 7974 bound_to 7965
  154.4393  140.1881  156.0879 H   0  0  0  0  0  0  0  0  0  0  0  0  # atno 8008 bound_to 7997
  156.0388  140.3322  155.7194 H   0  0  0  0  0  0  0  0  0  0  0  0  # atno 8009 bound_to 7997
  155.5730  140.0614  157.2792 H   0  0  0  0  0  0  0  0  0  0  0  0  # atno 8010 bound_to 7997
  140.1543  144.4433  150.6743 H   0  0  0  0  0  0  0  0  0  0  0  0  # atno 10167 bound_to 10162
  156.4025  130.4393  149.7311 H   0  0  0  0  0  0  0  0  0  0  0  0  # atno 10718 bound_to 10713
  152.9885  135.6134  154.2934 H   0  0  0  0  0  0  0  0  0  0  0  0  # atno 10763 bound_to 10752
  154.2658  135.2781  155.2761 H   0  0  0  0  0  0  0  0  0  0  0  0  # atno 10764 bound_to 10752
  154.5166  135.5826  153.6704 H   0  0  0  0  0  0  0  0  0  0  0  0  # atno 10765 bound_to 10752
  140.2452  134.3367  155.7910 H   0  0  0  0  0  0  0  0  0  0  0  0  # atno 11005 bound_to 11000
  145.1979  139.2267  143.5208 LP  0  0  0  0  0  0  0  0  0  0  0  0  # atno 17320 bound_to 7965
  146.3475  140.1790  142.8589 LP  0  0  0  0  0  0  0  0  0  0  0  0  # atno 17321 bound_to 7965
  140.6683  143.2276  151.5688 LP  0  0  0  0  0  0  0  0  0  0  0  0  # atno 17342 bound_to 10162
  139.5411  144.2645  152.1352 LP  0  0  0  0  0  0  0  0  0  0  0  0  # atno 17343 bound_to 10162
  156.4322  130.7820  151.2840 LP  0  0  0  0  0  0  0  0  0  0  0  0  # atno 17370 bound_to 10713
  157.7504  131.0150  150.3488 LP  0  0  0  0  0  0  0  0  0  0  0  0  # atno 17371 bound_to 10713
  141.2207  133.7322  156.8950 LP  0  0  0  0  0  0  0  0  0  0  0  0  # atno 17394 bound_to 11000
  140.1613  134.9164  157.2718 LP  0  0  0  0  0  0  0  0  0  0  0  0  # atno 17395 bound_to 11000

$$$$
