AV-unprocessed.smi:1517|AV-procd|sdf|6121|dock8
  -GOLD-   22720 6253D 1   1.00000     0.00000
 Structure written by MMmdl.
 42 44  0  0  0  0  0  0  0  0  2 V2000
  144.9129  136.3282  151.0596 O   0  0  0  0  0  0  0  0  0  0  0  0
  145.3107  137.1260  152.1541 C   0  0  0  0  0  0  0  0  0  0  0  0
  146.3521  138.1567  151.6992 C   0  0  0  0  0  0  0  0  0  0  0  0
  146.3685  139.3217  152.5690 N   0  0  0  0  0  0  0  0  0  0  0  0
  147.5063  139.5777  153.3409 C   0  0  0  0  0  0  0  0  0  0  0  0
  148.5545  138.7309  153.5255 N   0  3  0  0  0  0  0  0  0  0  0  0
  149.4867  139.3594  154.3565 C   0  0  0  0  0  0  0  0  0  0  0  0
  150.7164  138.9205  154.8376 C   0  0  0  0  0  0  0  0  0  0  0  0
  151.4266  139.8120  155.6685 C   0  0  0  0  0  0  0  0  0  0  0  0
  150.9125  141.0849  155.9913 C   0  0  0  0  0  0  0  0  0  0  0  0
  149.6653  141.5224  155.4991 C   0  0  0  0  0  0  0  0  0  0  0  0
  148.9667  140.6358  154.6804 C   0  0  0  0  0  0  0  0  0  0  0  0
  147.7309  140.7272  154.0287 N   0  0  0  0  0  0  0  0  0  0  0  0
  146.9261  141.9507  154.1606 C   0  0  0  0  0  0  0  0  0  0  0  0
  146.1589  142.0188  155.4953 C   0  0  1  0  0  0  0  0  0  0  0  0
  146.9931  142.5698  156.4975 O   0  0  0  0  0  0  0  0  0  0  0  0
  144.8489  142.7786  155.3362 C   0  0  0  0  0  0  0  0  0  0  0  0
  144.8396  144.1013  154.8381 C   0  0  0  0  0  0  0  0  0  0  0  0
  143.6244  144.7962  154.6858 C   0  0  0  0  0  0  0  0  0  0  0  0
  142.4090  144.1725  155.0249 C   0  0  0  0  0  0  0  0  0  0  0  0
  141.2402  144.8402  154.8780 F   0  0  0  0  0  0  0  0  0  0  0  0
  142.4094  142.8519  155.5128 C   0  0  0  0  0  0  0  0  0  0  0  0
  143.6240  142.1551  155.6663 C   0  0  0  0  0  0  0  0  0  0  0  0
  143.6062  140.8809  156.1275 F   0  0  0  0  0  0  0  0  0  0  0  0
  144.5140  136.8864  150.4094 H   0  0  0  0  0  0  0  0  0  0  0  0
  144.4451  137.6005  152.6181 H   0  0  0  0  0  0  0  0  0  0  0  0
  145.7519  136.4637  152.8993 H   0  0  0  0  0  0  0  0  0  0  0  0
  147.3423  137.7010  151.7397 H   0  0  0  0  0  0  0  0  0  0  0  0
  146.1792  138.4516  150.6631 H   0  0  0  0  0  0  0  0  0  0  0  0
  145.6804  140.0484  152.4303 H   0  0  0  0  0  0  0  0  0  0  0  0
  151.1146  137.9469  154.5914 H   0  0  0  0  0  0  0  0  0  0  0  0
  152.3861  139.5138  156.0658 H   0  0  0  0  0  0  0  0  0  0  0  0
  151.4870  141.7402  156.6299 H   0  0  0  0  0  0  0  0  0  0  0  0
  149.2814  142.5003  155.7510 H   0  0  0  0  0  0  0  0  0  0  0  0
  147.5980  142.8046  154.0633 H   0  0  0  0  0  0  0  0  0  0  0  0
  146.2410  142.0028  153.3136 H   0  0  0  0  0  0  0  0  0  0  0  0
  145.9274  141.0049  155.8230 H   0  0  0  0  0  0  0  0  0  0  0  0
  147.6964  143.0409  156.0768 H   0  0  0  0  0  0  0  0  0  0  0  0
  145.7642  144.5896  154.5668 H   0  0  0  0  0  0  0  0  0  0  0  0
  143.6250  145.8075  154.3067 H   0  0  0  0  0  0  0  0  0  0  0  0
  141.4762  142.3716  155.7680 H   0  0  0  0  0  0  0  0  0  0  0  0
  148.6259  137.8083  153.1167 H   0  0  0  0  0  0  0  0  0  0  0  0
  1  2  1  0  0  0  0
  1 25  1  0  0  0  0
  2  3  1  0  0  0  0
  2 26  1  0  0  0  0
  2 27  1  0  0  0  0
  3  4  1  0  0  0  0
  3 28  1  0  0  0  0
  3 29  1  0  0  0  0
  4  5  1  0  0  0  0
  4 30  1  0  0  0  0
  5 13  1  0  0  0  0
  5  6  2  0  0  0  0
  6  7  1  0  0  0  0
  6 42  1  0  0  0  0
  7 12  2  0  0  0  0
  7  8  1  0  0  0  0
  8  9  2  0  0  0  0
  8 31  1  0  0  0  0
  9 10  1  0  0  0  0
  9 32  1  0  0  0  0
 10 11  2  0  0  0  0
 10 33  1  0  0  0  0
 11 12  1  0  0  0  0
 11 34  1  0  0  0  0
 12 13  1  0  0  0  0
 13 14  1  0  0  0  0
 14 15  1  0  0  0  0
 14 35  1  0  0  0  0
 14 36  1  0  0  0  0
 15 16  1  0  0  0  0
 15 17  1  0  0  0  0
 15 37  1  0  0  0  0
 16 38  1  0  0  0  0
 17 23  1  0  0  0  0
 17 18  2  0  0  0  0
 18 19  1  0  0  0  0
 18 39  1  0  0  0  0
 19 20  2  0  0  0  0
 19 40  1  0  0  0  0
 20 21  1  0  0  0  0
 20 22  1  0  0  0  0
 22 23  2  0  0  0  0
 22 41  1  0  0  0  0
 23 24  1  0  0  0  0
M  CHG  1   6   1
M  END
> <s_m_source_file>
AV-unprocessed.smi

> <i_m_source_file_index>
1517

> <i_lp_mmshare_version>
43012

> <i_f3d_flags>
0

> <s_epik_input>
W09IXVtDSDJdW0NIMl1bTkhdYyhuMSluKGMoYzEyKVtjSF1bY0hdW2NIXVtjSF0yKVtDSDJdW0NASF0oW09IXSljM1tjSF1bY0hdYyhGKVtjSF1jM0Y=

> <s_epik_cmdline>
J2VwaWtfcHl0aG9uJywgJy1waCcsICc3LjAnLCAnLXRuJywgJzgnLCAnLW1hJywgJzIwMCcsICctbWV0YWxfYmluZGluZycsICctaW1hZScsICc8aW5maWxlLm1hZT4nLCAnLW9tYWUnLCAnPG91dGZpbGUubWFlPic=

> <r_epik_Ionization_Penalty>
0.0688096

> <r_epik_Ionization_Penalty_Charging>
0.0688055

> <r_epik_Ionization_Penalty_Neutral>
4.12262e-06

> <r_epik_State_Penalty>
0.0602293

> <r_epik_Charging_Adjusted_Penalty>
0.129035

> <i_epik_Tot_Q>
1

> <i_epik_Tot_abs_Q>
1

> <r_epik_Metal_State_Penalty>
2.77411

> <b_epik_Metal_Only>
0

> <s_lp_Force_Field>
OPLS_2005

> <r_lp_Energy>
23.6459

> <b_lp_Chiralities_Consistent>
1

> <s_lp_Variant>
AV-unprocessed.smi:1517-2

> <Gold.Version>
5.8.1

> <Gold.Id.Protein>
6NUR|6NUR_protein|mol2

> <Gold.PLP.Fitness>
60.0238

> <Gold.PLP.PLP>
-43.8994

> <Gold.PLP.part.hbond>
-5.0000

> <Gold.PLP.part.metal>
0.0000

> <Gold.PLP.part.buried>
-2.8637

> <Gold.PLP.part.nonpolar>
-36.7419

> <Gold.PLP.part.repulsive>
0.0739

> <Gold.PLP.ligand.clash>
0.0000

> <Gold.PLP.ligand.torsion>
0.8069

> <Gold.PLP.Chemscore.Hbond>
5.8880

> <Gold.PLP.Chemscore.CHOScore>
0.0000

> <Gold.PLP.Chemscore.Metal>
0.0000

> <Gold.Chemscore.Hbonds>
donor molecule, donor type, donor heavy atom, donor atom, acceptor molecule, acceptor atom, score
      L1  H     1    25       P1 10171  1.00
      L1  H     4    30       P1 10175  1.78
      L1  H     6    42       P1  7948  2.00
      L1  H    16    38       P1  8028  0.85

> <Gold.PLP.Chemscore.Internal.Correction>
0.0742

> <Gold.Rescore>
     Score         DG    S(hbond)    S(metal)    S(lipo)     H(rot)  DE(clash)    DE(int)     intcor
     17.14     -18.27       3.14        0.00      91.75       3.29       0.25       0.88       ----

> <Gold.Chemscore.Fitness>
17.1379

> <Gold.Chemscore.DG>
-18.2737

> <Gold.Chemscore.ZeroCoef>
-5.4800

> <Gold.Chemscore.Hbond>
3.1363

> <Gold.Chemscore.Metal>
0.0000

> <Gold.Chemscore.Lipo>
91.7463

> <Gold.Chemscore.Internal_Hbond>
0.0000

> <Gold.Chemscore.DEClash>
0.2547

> <Gold.Chemscore.DEInternal>
0.8812

> <Gold.Chemscore.Rot>
3.2874

> <Gold.Chemscore.Internal.Correction>
   9.000000E+99

> <Gold.Chemscore.Hbonds>
donor molecule, donor type, donor heavy atom, donor atom, acceptor molecule, acceptor atom, score
      L1  H     1    25       P1 10171  0.97
      L1  H     4    30       P1 10175  0.69
      L1  H     6    42       P1  7948  0.93
      L1  H    16    38       P1  8028  0.18

> <Gold.Chemscore.Hbond.Weighted>
-10.4752

> <Gold.Chemscore.Metal.Weighted>
-0.0000

> <Gold.Chemscore.Lipo.Weighted>
-10.7343

> <Gold.Chemscore.Internal_Hbond.Weighted>
0.0000

> <Gold.Chemscore.DEClash.Weighted>
0.2547

> <Gold.Chemscore.DEInternal.Weighted>
0.8812

> <Gold.Chemscore.Rot.Weighted>
8.4158

> <Gold.Chemscore.Internal.Correction.Weighted>
   9.000000E+99

> <Gold.Protein.RotatedTorsions>
[ 6907 6896 6895 6894 ] final  -94.27 input  -60.11 | X-H torsion
[ 7974 7965 7964 7962 ] final  -28.21 input  175.53 | X-H torsion
[ 8008 7997 7996 7995 ] final -178.43 input   59.86 | X-H torsion
[ 10167 10162 10161 10158 ] final  133.36 input  -65.29 | X-H torsion
[ 10718 10713 10712 10709 ] final -136.45 input   66.30 | X-H torsion
[ 10763 10752 10751 10750 ] final  -98.45 input  -60.55 | X-H torsion
[ 11005 11000 10999 10996 ] final -120.79 input  -57.11 | X-H torsion

> <Gold.Protein.ActiveResidues>
 VAL166  LYS551  ARG553  GLY616  TRP617  ASP618  TYR619  PRO620  LYS621  CYS622 
 ASP623  PHE694  ASN695  SER759  ASP760  ASP761  ALA762  ILE779  LEU786  VAL792 
 PHE793  MET794  SER795  GLU796  ALA797  LYS798  CYS799  TRP800  GLU811  SER814 

> <Gold.Protein.RotatedAtoms>
  150.6938  134.1838  159.4258 H   0  0  0  0  0  0  0  0  0  0  0  0  # atno 6907 bound_to 6896
  151.9811  135.0025  160.0566 H   0  0  0  0  0  0  0  0  0  0  0  0  # atno 6908 bound_to 6896
  152.1754  133.4636  159.4967 H   0  0  0  0  0  0  0  0  0  0  0  0  # atno 6909 bound_to 6896
  146.1304  140.5253  142.8696 H   0  0  0  0  0  0  0  0  0  0  0  0  # atno 7974 bound_to 7965
  156.0187  140.1256  157.0380 H   0  0  0  0  0  0  0  0  0  0  0  0  # atno 8008 bound_to 7997
  154.4303  140.1073  156.6002 H   0  0  0  0  0  0  0  0  0  0  0  0  # atno 8009 bound_to 7997
  155.5976  140.3470  155.4586 H   0  0  0  0  0  0  0  0  0  0  0  0  # atno 8010 bound_to 7997
  139.5300  144.6619  151.4984 H   0  0  0  0  0  0  0  0  0  0  0  0  # atno 10167 bound_to 10162
  156.2772  130.7299  151.1285 H   0  0  0  0  0  0  0  0  0  0  0  0  # atno 10718 bound_to 10713
  154.7415  135.5009  153.9131 H   0  0  0  0  0  0  0  0  0  0  0  0  # atno 10763 bound_to 10752
  153.1048  135.6694  153.9614 H   0  0  0  0  0  0  0  0  0  0  0  0  # atno 10764 bound_to 10752
  153.9390  135.3070  155.3422 H   0  0  0  0  0  0  0  0  0  0  0  0  # atno 10765 bound_to 10752
  141.0117  134.0254  157.3404 H   0  0  0  0  0  0  0  0  0  0  0  0  # atno 11005 bound_to 11000
  144.7685  140.5584  143.6686 LP  0  0  0  0  0  0  0  0  0  0  0  0  # atno 17320 bound_to 7965
  145.5273  139.1475  143.3519 LP  0  0  0  0  0  0  0  0  0  0  0  0  # atno 17321 bound_to 7965
  140.6472  143.8770  150.6749 LP  0  0  0  0  0  0  0  0  0  0  0  0  # atno 17342 bound_to 10162
  140.2123  143.3873  152.1708 LP  0  0  0  0  0  0  0  0  0  0  0  0  # atno 17343 bound_to 10162
  157.7303  131.0617  150.5733 LP  0  0  0  0  0  0  0  0  0  0  0  0  # atno 17370 bound_to 10713
  156.5836  130.4310  149.5967 LP  0  0  0  0  0  0  0  0  0  0  0  0  # atno 17371 bound_to 10713
  139.9094  135.0187  156.7626 LP  0  0  0  0  0  0  0  0  0  0  0  0  # atno 17394 bound_to 11000
  140.6722  133.9550  155.7863 LP  0  0  0  0  0  0  0  0  0  0  0  0  # atno 17395 bound_to 11000

$$$$
