#       Name:                AV-unprocessed.smi:2302
#       Creating user name   scv26
#       Creation time:       Fri Mar 27 12:45:47 2020


#       File generated by GOLD software.
#

@<TRIPOS>MOLECULE
AV-unprocessed.smi:2302
    45    46     1
SMALL
NO_CHARGES


@<TRIPOS>ATOM
      1 ****        -3.1107   4.5016   0.8004 C.3            1 S1                 0.0000
      2 ****        -3.3547   3.0622   1.2022 C.ar           1 S1                 0.0000
      3 ****        -4.6555   2.5961   1.4757 C.ar           1 S1                 0.0000
      4 ****        -4.8133   1.2468   1.8392 C.ar           1 S1                 0.0000
      5 ****        -3.6723   0.4248   1.9141 C.ar           1 S1                 0.0000
      6 ****        -2.4019   0.9719   1.6258 C.ar           1 S1                 0.0000
      7 ****        -1.3171   0.0611   1.7269 N.am           1 S1                 0.0000
      8 ****        -0.0066   0.3092   1.5577 C.2            1 S1                 0.0000
      9 ****         0.4850   1.4118   1.3166 O.2            1 S1                 0.0000
     10 ****         0.7195  -0.8106   1.6864 N.am           1 S1                 0.0000
     11 ****         2.1716  -0.8930   1.5535 C.3            1 S1                 0.0000
     12 ****         2.6442  -1.0188   0.0899 C.3            1 S1                 0.0000
     13 ****         1.9571  -2.1594  -0.6930 C.3            1 S1                 0.0000
     14 ****         2.4500  -2.1955  -2.0887 N.4            1 S1                 1.0000
     15 ****         1.8596  -3.2998  -2.8748 C.3            1 S1                 0.0000
     16 ****         2.2802  -0.8774  -2.7409 C.3            1 S1                 0.0000
     17 ****         2.9537   0.2228  -1.9044 C.3            1 S1                 0.0000
     18 ****         2.4221   0.2155  -0.5854 O.3            1 S1                 0.0000
     19 ****        -2.2603   2.2742   1.2739 N.ar           1 S1                 0.0000
     20 ****        -4.0224   5.0944   0.8804 H              1 S1                 0.0000
     21 ****        -2.7610   4.5507  -0.2311 H              1 S1                 0.0000
     22 ****        -2.3544   4.9539   1.4426 H              1 S1                 0.0000
     23 ****        -5.5110   3.2522   1.4090 H              1 S1                 0.0000
     24 ****        -5.7931   0.8477   2.0568 H              1 S1                 0.0000
     25 ****        -3.7767  -0.6138   2.1922 H              1 S1                 0.0000
     26 ****        -1.5701  -0.8907   1.9466 H              1 S1                 0.0000
     27 ****         0.2327  -1.6703   1.8937 H              1 S1                 0.0000
     28 ****         2.6471  -0.0365   2.0342 H              1 S1                 0.0000
     29 ****         2.4970  -1.7712   2.1118 H              1 S1                 0.0000
     30 ****         3.7201  -1.2023   0.1110 H              1 S1                 0.0000
     31 ****         2.1575  -3.1160  -0.2090 H              1 S1                 0.0000
     32 ****         0.8743  -2.0241  -0.7035 H              1 S1                 0.0000
     33 ****         0.7808  -3.1751  -2.9773 H              1 S1                 0.0000
     34 ****         2.0490  -4.2596  -2.3932 H              1 S1                 0.0000
     35 ****         2.2966  -3.3359  -3.8732 H              1 S1                 0.0000
     36 ****         2.7147  -0.9014  -3.7411 H              1 S1                 0.0000
     37 ****         1.2174  -0.6587  -2.8569 H              1 S1                 0.0000
     38 ****         4.0353   0.0839  -1.8743 H              1 S1                 0.0000
     39 ****         2.7708   1.1997  -2.3525 H              1 S1                 0.0000
     40 ****         3.4438  -2.3709  -2.0415 H              1 S1                 0.0000
     41 ****        -0.1051   2.2147   1.2319 LP             1 S1                 0.0000
     42 ****         1.4745   1.5046   1.2055 LP             1 S1                 0.0000
     43 ****         2.8554   0.9491  -0.0618 LP             1 S1                 0.0000
     44 ****         1.4370   0.3795  -0.6365 LP             1 S1                 0.0000
     45 ****        -1.3550   2.6469   1.0697 LP             1 S1                 0.0000
@<TRIPOS>BOND
    1    1    2 1     
    2    1   20 1     
    3    1   21 1     
    4    1   22 1     
    5    2   19 ar    
    6    2    3 ar    
    7    3    4 ar    
    8    3   23 1     
    9    4    5 ar    
   10    4   24 1     
   11    5    6 ar    
   12    5   25 1     
   13    6    7 1     
   14    6   19 ar    
   15    7    8 am    
   16    7   26 1     
   17    8    9 2     
   18    8   10 am    
   19   10   11 1     
   20   10   27 1     
   21   11   12 1     
   22   11   28 1     
   23   11   29 1     
   24   12   18 1     
   25   12   13 1     
   26   12   30 1     
   27   13   14 1     
   28   13   31 1     
   29   13   32 1     
   30   14   15 1     
   31   14   16 1     
   32   14   40 1     
   33   15   33 1     
   34   15   34 1     
   35   15   35 1     
   36   16   17 1     
   37   16   36 1     
   38   16   37 1     
   39   17   18 1     
   40   17   38 1     
   41   17   39 1     
   42    9   41 1     
   43    9   42 1     
   44   18   43 1     
   45   18   44 1     
   46   19   45 1     
@<TRIPOS>SUBSTRUCTURE
      1 S1             1
@<TRIPOS>SET
LONE_PAIRS      STATIC     ATOMS    <user>   **** ""
5 41 42 43 44 45
DONOR_HYDROGENS      STATIC     ATOMS    <user>   **** ""
3 26 27 40
ATOM$BLUE        STATIC     ATOMS    COLORGROUP SYSTEM
5 41 42 43 44 45
ATOM$RED        STATIC     ATOMS    COLORGROUP SYSTEM
3 26 27 40
