AV-unprocessed.smi:835|AV-procd|sdf|3886|dock6
  -GOLD-   22720 1343D 1   1.00000     0.00000
 Structure written by MMmdl.
 41 43  0  0  0  0  0  0  0  0  2 V2000
  136.5469  139.4375  153.6899 C   0  0  0  0  0  0  0  0  0  0  0  0
  138.0412  139.5699  153.6796 C   0  0  0  0  0  0  0  0  0  0  0  0
  138.9970  138.6842  153.1020 C   0  0  0  0  0  0  0  0  0  0  0  0
  140.1864  139.2954  153.3911 C   0  0  0  0  0  0  0  0  0  0  0  0
  141.4475  138.9026  153.0693 N   0  0  0  0  0  0  0  0  0  0  0  0
  141.9526  137.6572  153.0366 C   0  0  0  0  0  0  0  0  0  0  0  0
  141.3364  136.6282  153.3143 O   0  0  0  0  0  0  0  0  0  0  0  0
  143.2418  137.6640  152.6687 N   0  0  0  0  0  0  0  0  0  0  0  0
  144.0777  136.4729  152.5629 C   0  0  2  0  0  0  0  0  0  0  0  0
  145.4882  136.7328  152.0426 C   0  0  0  0  0  0  0  0  0  0  0  0
  145.9209  135.3484  151.5481 C   0  0  0  0  0  0  0  0  0  0  0  0
  144.6832  134.6285  151.1565 N   0  3  1  0  0  0  0  0  0  0  0  0
  144.6056  133.2523  151.6928 C   0  0  0  0  0  0  0  0  0  0  0  0
  145.4688  132.2645  150.9449 C   0  0  0  0  0  0  0  0  0  0  0  0
  143.9693  132.2677  150.7407 C   0  0  0  0  0  0  0  0  0  0  0  0
  143.5339  135.4795  151.5371 C   0  0  0  0  0  0  0  0  0  0  0  0
  139.9332  140.4586  154.0830 N   0  0  0  0  0  0  0  0  0  0  0  0
  140.8624  141.4446  154.5994 C   0  0  0  0  0  0  0  0  0  0  0  0
  138.6045  140.6228  154.2614 N   0  0  0  0  0  0  0  0  0  0  0  0
  136.2302  138.5118  153.2089 H   0  0  0  0  0  0  0  0  0  0  0  0
  136.0759  140.2647  153.1588 H   0  0  0  0  0  0  0  0  0  0  0  0
  136.1599  139.4307  154.7091 H   0  0  0  0  0  0  0  0  0  0  0  0
  138.8179  137.7642  152.5665 H   0  0  0  0  0  0  0  0  0  0  0  0
  142.0875  139.6517  152.8504 H   0  0  0  0  0  0  0  0  0  0  0  0
  143.6734  138.5512  152.4546 H   0  0  0  0  0  0  0  0  0  0  0  0
  144.1354  135.9775  153.5346 H   0  0  0  0  0  0  0  0  0  0  0  0
  145.4623  137.4354  151.2079 H   0  0  0  0  0  0  0  0  0  0  0  0
  146.1563  137.1369  152.8041 H   0  0  0  0  0  0  0  0  0  0  0  0
  146.6184  135.4119  150.7126 H   0  0  0  0  0  0  0  0  0  0  0  0
  146.4256  134.8171  152.3568 H   0  0  0  0  0  0  0  0  0  0  0  0
  144.4585  133.1570  152.7674 H   0  0  0  0  0  0  0  0  0  0  0  0
  146.0880  132.6352  150.1299 H   0  0  0  0  0  0  0  0  0  0  0  0
  145.8925  131.4372  151.5107 H   0  0  0  0  0  0  0  0  0  0  0  0
  143.4065  131.4428  151.1731 H   0  0  0  0  0  0  0  0  0  0  0  0
  143.5910  132.6411  149.7905 H   0  0  0  0  0  0  0  0  0  0  0  0
  142.6889  134.9050  151.9204 H   0  0  0  0  0  0  0  0  0  0  0  0
  143.1957  136.0033  150.6415 H   0  0  0  0  0  0  0  0  0  0  0  0
  141.6089  140.9538  155.2244 H   0  0  0  0  0  0  0  0  0  0  0  0
  140.3375  142.1903  155.1983 H   0  0  0  0  0  0  0  0  0  0  0  0
  141.3634  141.9443  153.7700 H   0  0  0  0  0  0  0  0  0  0  0  0
  144.6744  134.5550  150.1492 H   0  0  0  0  0  0  0  0  0  0  0  0
  1  2  1  0  0  0  0
  1 20  1  0  0  0  0
  1 21  1  0  0  0  0
  1 22  1  0  0  0  0
  2 19  2  0  0  0  0
  2  3  1  0  0  0  0
  3  4  2  0  0  0  0
  3 23  1  0  0  0  0
  4  5  1  0  0  0  0
  4 17  1  0  0  0  0
  5  6  1  0  0  0  0
  5 24  1  0  0  0  0
  6  7  2  0  0  0  0
  6  8  1  0  0  0  0
  8  9  1  0  0  0  0
  8 25  1  0  0  0  0
  9 16  1  0  0  0  0
  9 10  1  0  0  0  0
  9 26  1  0  0  0  0
 10 11  1  0  0  0  0
 10 27  1  0  0  0  0
 10 28  1  0  0  0  0
 11 12  1  0  0  0  0
 11 29  1  0  0  0  0
 11 30  1  0  0  0  0
 12 13  1  0  0  0  0
 12 16  1  0  0  0  0
 12 41  1  0  0  0  0
 13 15  1  0  0  0  0
 13 14  1  0  0  0  0
 13 31  1  0  0  0  0
 14 15  1  0  0  0  0
 14 32  1  0  0  0  0
 14 33  1  0  0  0  0
 15 34  1  0  0  0  0
 15 35  1  0  0  0  0
 16 36  1  0  0  0  0
 16 37  1  0  0  0  0
 17 18  1  0  0  0  0
 17 19  1  0  0  0  0
 18 38  1  0  0  0  0
 18 39  1  0  0  0  0
 18 40  1  0  0  0  0
M  CHG  1  12   1
M  END
> <s_m_source_file>
AV-unprocessed.smi

> <i_m_source_file_index>
835

> <i_lp_mmshare_version>
43012

> <i_f3d_flags>
0

> <s_epik_input>
W0NIM11jMVtjSF1jKG4objEpW0NIM10pW05IXUMoPU8pW05IXVtDQEBIXTJbQ0gyXVtDSDJdTihbQ0gyXTIpW0NIXTNbQ0gyXVtDSDJdMw==

> <s_epik_cmdline>
J2VwaWtfcHl0aG9uJywgJy1waCcsICc3LjAnLCAnLXRuJywgJzgnLCAnLW1hJywgJzIwMCcsICctbWV0YWxfYmluZGluZycsICctaW1hZScsICc8aW5maWxlLm1hZT4nLCAnLW9tYWUnLCAnPG91dGZpbGUubWFlPic=

> <r_lp_tautomer_probability>
1

> <r_epik_Ionization_Penalty>
0.000700689

> <r_epik_Ionization_Penalty_Charging>
0.000627528

> <r_epik_Ionization_Penalty_Neutral>
7.31611e-05

> <r_epik_State_Penalty>
0.00039643

> <r_epik_Charging_Adjusted_Penalty>
0.00102396

> <i_epik_Tot_Q>
1

> <i_epik_Tot_abs_Q>
1

> <r_epik_Metal_State_Penalty>
-0

> <b_epik_Metal_Only>
0

> <s_lp_Force_Field>
OPLS_2005

> <r_lp_Energy>
38.9836

> <b_lp_Chiralities_Consistent>
1

> <s_lp_Variant>
AV-unprocessed.smi:835-1

> <Gold.Version>
5.8.1

> <Gold.Id.Protein>
6NUR|6NUR_protein|mol2

> <Gold.PLP.Fitness>
36.4699

> <Gold.PLP.PLP>
-31.0384

> <Gold.PLP.part.hbond>
-3.7724

> <Gold.PLP.part.metal>
0.0000

> <Gold.PLP.part.buried>
-3.4847

> <Gold.PLP.part.nonpolar>
-24.5365

> <Gold.PLP.part.repulsive>
0.2485

> <Gold.PLP.ligand.clash>
0.0000

> <Gold.PLP.ligand.torsion>
0.9177

> <Gold.PLP.Chemscore.Hbond>
2.0000

> <Gold.PLP.Chemscore.CHOScore>
0.0000

> <Gold.PLP.Chemscore.Metal>
0.0000

> <Gold.Chemscore.Hbonds>
donor molecule, donor type, donor heavy atom, donor atom, acceptor molecule, acceptor atom, score
      L1  H     5    24       P1 10175  1.00
      L1  H     8    25       P1 10175  1.00

> <Gold.PLP.Chemscore.Internal.Correction>
1.2668

> <Gold.Rescore>
     Score         DG    S(hbond)    S(metal)    S(lipo)     H(rot)  DE(clash)    DE(int)     intcor
     17.74     -18.95       2.40        0.00      73.36       1.22       0.16       1.05       ----

> <Gold.Chemscore.Fitness>
17.7394

> <Gold.Chemscore.DG>
-18.9532

> <Gold.Chemscore.ZeroCoef>
-5.4800

> <Gold.Chemscore.Hbond>
2.3990

> <Gold.Chemscore.Metal>
0.0000

> <Gold.Chemscore.Lipo>
73.3567

> <Gold.Chemscore.Internal_Hbond>
0.0000

> <Gold.Chemscore.DEClash>
0.1591

> <Gold.Chemscore.DEInternal>
1.0546

> <Gold.Chemscore.Rot>
1.2196

> <Gold.Chemscore.Internal.Correction>
   9.000000E+99

> <Gold.Chemscore.Hbonds>
donor molecule, donor type, donor heavy atom, donor atom, acceptor molecule, acceptor atom, score
      L1  H     5    24       P1 10175  0.60
      L1  H     8    25       P1 10175  0.94

> <Gold.Chemscore.Hbond.Weighted>
-8.0127

> <Gold.Chemscore.Metal.Weighted>
-0.0000

> <Gold.Chemscore.Lipo.Weighted>
-8.5827

> <Gold.Chemscore.Internal_Hbond.Weighted>
0.0000

> <Gold.Chemscore.DEClash.Weighted>
0.1591

> <Gold.Chemscore.DEInternal.Weighted>
1.0546

> <Gold.Chemscore.Rot.Weighted>
3.1223

> <Gold.Chemscore.Internal.Correction.Weighted>
   9.000000E+99

> <Gold.Protein.RotatedTorsions>
[ 6907 6896 6895 6894 ] final -113.84 input  -60.11 | X-H torsion
[ 7974 7965 7964 7962 ] final  -46.62 input  175.53 | X-H torsion
[ 8008 7997 7996 7995 ] final   98.67 input   59.86 | X-H torsion
[ 10167 10162 10161 10158 ] final  -47.95 input  -65.29 | X-H torsion
[ 10718 10713 10712 10709 ] final  -45.31 input   66.30 | X-H torsion
[ 10763 10752 10751 10750 ] final -167.53 input  -60.55 | X-H torsion
[ 11005 11000 10999 10996 ] final  -36.82 input  -57.11 | X-H torsion

> <Gold.Protein.ActiveResidues>
 VAL166  LYS551  ARG553  GLY616  TRP617  ASP618  TYR619  PRO620  LYS621  CYS622 
 ASP623  PHE694  ASN695  SER759  ASP760  ASP761  ALA762  ILE779  LEU786  VAL792 
 PHE793  MET794  SER795  GLU796  ALA797  LYS798  CYS799  TRP800  GLU811  SER814 

> <Gold.Protein.RotatedAtoms>
  150.7858  133.8886  159.3306 H   0  0  0  0  0  0  0  0  0  0  0  0  # atno 6907 bound_to 6896
  151.6737  135.0970  160.0212 H   0  0  0  0  0  0  0  0  0  0  0  0  # atno 6908 bound_to 6896
  152.3922  133.6656  159.6282 H   0  0  0  0  0  0  0  0  0  0  0  0  # atno 6909 bound_to 6896
  145.9700  140.7393  142.9415 H   0  0  0  0  0  0  0  0  0  0  0  0  # atno 7974 bound_to 7965
  156.1028  140.3240  155.7965 H   0  0  0  0  0  0  0  0  0  0  0  0  # atno 8008 bound_to 7997
  155.4807  140.0554  157.2984 H   0  0  0  0  0  0  0  0  0  0  0  0  # atno 8009 bound_to 7997
  154.4708  140.2010  156.0015 H   0  0  0  0  0  0  0  0  0  0  0  0  # atno 8010 bound_to 7997
  140.6753  143.2762  151.4000 H   0  0  0  0  0  0  0  0  0  0  0  0  # atno 10167 bound_to 10162
  156.2296  130.4171  149.8891 H   0  0  0  0  0  0  0  0  0  0  0  0  # atno 10718 bound_to 10713
  154.6722  135.2941  154.9726 H   0  0  0  0  0  0  0  0  0  0  0  0  # atno 10763 bound_to 10752
  154.0749  135.6613  153.4833 H   0  0  0  0  0  0  0  0  0  0  0  0  # atno 10764 bound_to 10752
  153.0494  135.5183  154.7724 H   0  0  0  0  0  0  0  0  0  0  0  0  # atno 10765 bound_to 10752
  140.9904  133.7008  156.1840 H   0  0  0  0  0  0  0  0  0  0  0  0  # atno 11005 bound_to 11000
  144.6834  140.2733  143.7303 LP  0  0  0  0  0  0  0  0  0  0  0  0  # atno 17320 bound_to 7965
  145.7920  139.1930  143.2098 LP  0  0  0  0  0  0  0  0  0  0  0  0  # atno 17321 bound_to 7965
  139.6042  144.1233  152.2231 LP  0  0  0  0  0  0  0  0  0  0  0  0  # atno 17342 bound_to 10162
  140.0626  144.5844  150.7251 LP  0  0  0  0  0  0  0  0  0  0  0  0  # atno 17343 bound_to 10162
  156.6509  130.8743  151.3531 LP  0  0  0  0  0  0  0  0  0  0  0  0  # atno 17370 bound_to 10713
  157.7127  130.9459  150.1145 LP  0  0  0  0  0  0  0  0  0  0  0  0  # atno 17371 bound_to 10713
  140.7048  134.4525  157.5584 LP  0  0  0  0  0  0  0  0  0  0  0  0  # atno 17394 bound_to 11000
  139.8990  134.8601  156.1979 LP  0  0  0  0  0  0  0  0  0  0  0  0  # atno 17395 bound_to 11000

$$$$
