AV-unprocessed.smi:3198|AV-procd|sdf|12230|dock5
  -GOLD-   2272018 63D 1   1.00000     0.00000
 Structure written by MMmdl.
 37 38  0  0  0  0  0  0  0  0  1 V2000
  153.4593  141.5720  160.8565 C   0  0  0  0  0  0  0  0  0  0  0  0
  152.5861  142.6794  160.3056 C   0  0  0  0  0  0  0  0  0  0  0  0
  152.3517  143.8558  161.0467 C   0  0  0  0  0  0  0  0  0  0  0  0
  151.5333  144.8499  160.4782 C   0  0  0  0  0  0  0  0  0  0  0  0
  150.9863  144.6309  159.1991 C   0  0  0  0  0  0  0  0  0  0  0  0
  151.2787  143.4230  158.5315 C   0  0  0  0  0  0  0  0  0  0  0  0
  150.7309  143.2115  157.2579 N   0  0  0  0  0  0  0  0  0  0  0  0
  151.1788  142.1129  156.4098 C   0  0  0  0  0  0  0  0  0  0  0  0
  150.0193  141.2174  155.9502 C   0  0  0  0  0  0  0  0  0  0  0  0
  150.4317  140.4716  154.8174 O   0  0  0  0  0  0  0  0  0  0  0  0
  149.4245  139.5927  154.3425 C   0  0  0  0  0  0  0  0  0  0  0  0
  148.1135  140.3646  154.1387 C   0  0  1  0  0  0  0  0  0  0  0  0
  147.1851  140.4187  155.3611 C   0  0  0  0  0  0  0  0  0  0  0  0
  146.7547  141.8768  155.4348 C   0  0  0  0  0  0  0  0  0  0  0  0
  147.2024  142.4568  154.0970 C   0  0  0  0  0  0  0  0  0  0  0  0
  148.3764  141.7198  153.8020 O   0  0  0  0  0  0  0  0  0  0  0  0
  152.0632  142.4638  159.0789 N   0  0  0  0  0  0  0  0  0  0  0  0
  153.7490  141.7725  161.8883 H   0  0  0  0  0  0  0  0  0  0  0  0
  154.3668  141.4748  160.2600 H   0  0  0  0  0  0  0  0  0  0  0  0
  152.9277  140.6202  160.8317 H   0  0  0  0  0  0  0  0  0  0  0  0
  152.7870  143.9958  162.0252 H   0  0  0  0  0  0  0  0  0  0  0  0
  151.3289  145.7653  161.0135 H   0  0  0  0  0  0  0  0  0  0  0  0
  150.3562  145.3795  158.7413 H   0  0  0  0  0  0  0  0  0  0  0  0
  150.1891  143.9491  156.8314 H   0  0  0  0  0  0  0  0  0  0  0  0
  151.7109  142.5120  155.5456 H   0  0  0  0  0  0  0  0  0  0  0  0
  151.9056  141.5199  156.9651 H   0  0  0  0  0  0  0  0  0  0  0  0
  149.6942  140.5546  156.7537 H   0  0  0  0  0  0  0  0  0  0  0  0
  149.1655  141.8398  155.6790 H   0  0  0  0  0  0  0  0  0  0  0  0
  149.7347  139.1375  153.4007 H   0  0  0  0  0  0  0  0  0  0  0  0
  149.2695  138.7862  155.0607 H   0  0  0  0  0  0  0  0  0  0  0  0
  147.5680  139.9251  153.3019 H   0  0  0  0  0  0  0  0  0  0  0  0
  146.3310  139.7551  155.2225 H   0  0  0  0  0  0  0  0  0  0  0  0
  147.6856  140.1222  156.2834 H   0  0  0  0  0  0  0  0  0  0  0  0
  145.6851  141.9978  155.6072 H   0  0  0  0  0  0  0  0  0  0  0  0
  147.2857  142.3750  156.2470 H   0  0  0  0  0  0  0  0  0  0  0  0
  146.4538  142.2784  153.3231 H   0  0  0  0  0  0  0  0  0  0  0  0
  147.4005  143.5275  154.1466 H   0  0  0  0  0  0  0  0  0  0  0  0
  1  2  1  0  0  0  0
  1 18  1  0  0  0  0
  1 19  1  0  0  0  0
  1 20  1  0  0  0  0
  2 17  1  0  0  0  0
  2  3  2  0  0  0  0
  3  4  1  0  0  0  0
  3 21  1  0  0  0  0
  4  5  2  0  0  0  0
  4 22  1  0  0  0  0
  5  6  1  0  0  0  0
  5 23  1  0  0  0  0
  6  7  1  0  0  0  0
  6 17  2  0  0  0  0
  7  8  1  0  0  0  0
  7 24  1  0  0  0  0
  8  9  1  0  0  0  0
  8 25  1  0  0  0  0
  8 26  1  0  0  0  0
  9 10  1  0  0  0  0
  9 27  1  0  0  0  0
  9 28  1  0  0  0  0
 10 11  1  0  0  0  0
 11 12  1  0  0  0  0
 11 29  1  0  0  0  0
 11 30  1  0  0  0  0
 12 16  1  0  0  0  0
 12 13  1  0  0  0  0
 12 31  1  0  0  0  0
 13 14  1  0  0  0  0
 13 32  1  0  0  0  0
 13 33  1  0  0  0  0
 14 15  1  0  0  0  0
 14 34  1  0  0  0  0
 14 35  1  0  0  0  0
 15 16  1  0  0  0  0
 15 36  1  0  0  0  0
 15 37  1  0  0  0  0
M  END
> <s_m_source_file>
AV-unprocessed.smi

> <i_m_source_file_index>
3198

> <i_lp_mmshare_version>
43012

> <i_f3d_flags>
0

> <s_epik_input>
W0NIM11jMVtjSF1bY0hdW2NIXWMobjEpW05IXVtDSDJdW0NIMl1PW0NIMl1bQ0BASF0yW0NIMl1bQ0gyXVtDSDJdTzI=

> <s_epik_cmdline>
J2VwaWtfcHl0aG9uJywgJy1waCcsICc3LjAnLCAnLXRuJywgJzgnLCAnLW1hJywgJzIwMCcsICctbWV0YWxfYmluZGluZycsICctaW1hZScsICc8aW5maWxlLm1hZT4nLCAnLW9tYWUnLCAnPG91dGZpbGUubWFlPic=

> <r_lp_tautomer_probability>
1

> <r_epik_Ionization_Penalty>
1.29225

> <r_epik_Ionization_Penalty_Charging>
0

> <r_epik_Ionization_Penalty_Neutral>
1.29225

> <r_epik_State_Penalty>
1.3654

> <r_epik_Charging_Adjusted_Penalty>
1.3654

> <i_epik_Tot_Q>
0

> <i_epik_Tot_abs_Q>
0

> <r_epik_Metal_State_Penalty>
0.00531989

> <b_epik_Metal_Only>
0

> <s_lp_Force_Field>
OPLS_2005

> <r_lp_Energy>
18.8909

> <b_lp_Chiralities_Consistent>
1

> <s_lp_Variant>
AV-unprocessed.smi:3198-4

> <Gold.Version>
5.8.1

> <Gold.Id.Protein>
6NUR|6NUR_protein|mol2

> <Gold.PLP.Fitness>
46.6976

> <Gold.PLP.PLP>
-39.7874

> <Gold.PLP.part.hbond>
-3.0000

> <Gold.PLP.part.metal>
0.0000

> <Gold.PLP.part.buried>
-7.3003

> <Gold.PLP.part.nonpolar>
-29.4288

> <Gold.PLP.part.repulsive>
0.2707

> <Gold.PLP.ligand.clash>
0.0000

> <Gold.PLP.ligand.torsion>
0.5217

> <Gold.PLP.Chemscore.Hbond>
2.6344

> <Gold.PLP.Chemscore.CHOScore>
0.0000

> <Gold.PLP.Chemscore.Metal>
0.0000

> <Gold.Chemscore.Hbonds>
donor molecule, donor type, donor heavy atom, donor atom, acceptor molecule, acceptor atom, score
      L1  H     7    24       P1  8028  1.00
      P1  H  7989  7998       L1    10  1.00
      P1  H  8011  8017       L1    16  0.39

> <Gold.PLP.Chemscore.Internal.Correction>
0.0504

> <Gold.Rescore>
     Score         DG    S(hbond)    S(metal)    S(lipo)     H(rot)  DE(clash)    DE(int)     intcor
     18.53     -20.80       2.32        0.00     100.44       1.63       0.34       1.93       ----

> <Gold.Chemscore.Fitness>
18.5301

> <Gold.Chemscore.DG>
-20.7978

> <Gold.Chemscore.ZeroCoef>
-5.4800

> <Gold.Chemscore.Hbond>
2.3180

> <Gold.Chemscore.Metal>
0.0000

> <Gold.Chemscore.Lipo>
100.4392

> <Gold.Chemscore.Internal_Hbond>
0.0000

> <Gold.Chemscore.DEClash>
0.3423

> <Gold.Chemscore.DEInternal>
1.9254

> <Gold.Chemscore.Rot>
1.6311

> <Gold.Chemscore.Internal.Correction>
   9.000000E+99

> <Gold.Chemscore.Hbonds>
donor molecule, donor type, donor heavy atom, donor atom, acceptor molecule, acceptor atom, score
      L1  H     7    24       P1  8028  0.98
      P1  H  7989  7998       L1    10  0.75
      P1  H  8011  8017       L1    16  0.39

> <Gold.Chemscore.Hbond.Weighted>
-7.7421

> <Gold.Chemscore.Metal.Weighted>
-0.0000

> <Gold.Chemscore.Lipo.Weighted>
-11.7514

> <Gold.Chemscore.Internal_Hbond.Weighted>
0.0000

> <Gold.Chemscore.DEClash.Weighted>
0.3423

> <Gold.Chemscore.DEInternal.Weighted>
1.9254

> <Gold.Chemscore.Rot.Weighted>
4.1757

> <Gold.Chemscore.Internal.Correction.Weighted>
   9.000000E+99

> <Gold.Protein.RotatedTorsions>
[ 6907 6896 6895 6894 ] final  -12.61 input  -60.11 | X-H torsion
[ 7974 7965 7964 7962 ] final   32.43 input  175.53 | X-H torsion
[ 8008 7997 7996 7995 ] final  -50.55 input   59.86 | X-H torsion
[ 10167 10162 10161 10158 ] final -154.79 input  -65.29 | X-H torsion
[ 10718 10713 10712 10709 ] final -165.21 input   66.30 | X-H torsion
[ 10763 10752 10751 10750 ] final  -68.84 input  -60.55 | X-H torsion
[ 11005 11000 10999 10996 ] final   45.74 input  -57.11 | X-H torsion

> <Gold.Protein.ActiveResidues>
 VAL166  LYS551  ARG553  GLY616  TRP617  ASP618  TYR619  PRO620  LYS621  CYS622 
 ASP623  PHE694  ASN695  SER759  ASP760  ASP761  ALA762  ILE779  LEU786  VAL792 
 PHE793  MET794  SER795  GLU796  ALA797  LYS798  CYS799  TRP800  GLU811  SER814 

> <Gold.Protein.RotatedAtoms>
  151.3678  135.0916  159.9455 H   0  0  0  0  0  0  0  0  0  0  0  0  # atno 6907 bound_to 6896
  152.5144  133.9195  159.7537 H   0  0  0  0  0  0  0  0  0  0  0  0  # atno 6908 bound_to 6896
  150.9602  133.6399  159.2785 H   0  0  0  0  0  0  0  0  0  0  0  0  # atno 6909 bound_to 6896
  146.1487  139.6527  142.9113 H   0  0  0  0  0  0  0  0  0  0  0  0  # atno 7974 bound_to 7965
  154.4064  140.1269  156.4684 H   0  0  0  0  0  0  0  0  0  0  0  0  # atno 8008 bound_to 7997
  155.7203  140.3493  155.4993 H   0  0  0  0  0  0  0  0  0  0  0  0  # atno 8009 bound_to 7997
  155.9220  140.1054  157.1189 H   0  0  0  0  0  0  0  0  0  0  0  0  # atno 8010 bound_to 7997
  139.6984  143.9303  152.2418 H   0  0  0  0  0  0  0  0  0  0  0  0  # atno 10167 bound_to 10162
  156.6502  130.9004  151.3012 H   0  0  0  0  0  0  0  0  0  0  0  0  # atno 10718 bound_to 10713
  154.3948  135.6044  153.5863 H   0  0  0  0  0  0  0  0  0  0  0  0  # atno 10763 bound_to 10752
  152.9787  135.5892  154.4254 H   0  0  0  0  0  0  0  0  0  0  0  0  # atno 10764 bound_to 10752
  154.4044  135.2843  155.2054 H   0  0  0  0  0  0  0  0  0  0  0  0  # atno 10765 bound_to 10752
  140.1432  134.4557  155.8435 H   0  0  0  0  0  0  0  0  0  0  0  0  # atno 11005 bound_to 11000
  145.4876  141.0438  143.2611 LP  0  0  0  0  0  0  0  0  0  0  0  0  # atno 17320 bound_to 7965
  144.7877  139.6392  143.7127 LP  0  0  0  0  0  0  0  0  0  0  0  0  # atno 17321 bound_to 7965
  139.9139  144.6840  150.8533 LP  0  0  0  0  0  0  0  0  0  0  0  0  # atno 17342 bound_to 10162
  140.7703  143.3423  151.2182 LP  0  0  0  0  0  0  0  0  0  0  0  0  # atno 17343 bound_to 10162
  157.7143  130.9478  150.1200 LP  0  0  0  0  0  0  0  0  0  0  0  0  # atno 17370 bound_to 10713
  156.2090  130.3665  149.8693 LP  0  0  0  0  0  0  0  0  0  0  0  0  # atno 17371 bound_to 10713
  141.2189  133.6841  156.7285 LP  0  0  0  0  0  0  0  0  0  0  0  0  # atno 17394 bound_to 11000
  140.2696  134.8402  157.3835 LP  0  0  0  0  0  0  0  0  0  0  0  0  # atno 17395 bound_to 11000

$$$$
