AV-unprocessed.smi:836|AV-procd|sdf|3891|dock8
  -GOLD-   22720 1343D 1   1.00000     0.00000
 Structure written by MMmdl.
 38 39  0  0  0  0  0  0  0  0  1 V2000
  151.6459  143.7886  158.1415 C   0  0  0  0  0  0  0  0  0  0  0  0
  150.8947  142.5372  157.6655 C   0  0  2  0  0  0  0  0  0  0  0  0
  151.0091  142.3576  156.1396 C   0  0  0  0  0  0  0  0  0  0  0  0
  150.2558  141.1052  155.6570 C   0  0  0  0  0  0  0  0  0  0  0  0
  148.7770  141.1086  156.0963 C   0  0  2  0  0  0  0  0  0  0  0  0
  148.0177  142.1354  155.3875 N   0  0  0  0  0  0  0  0  0  0  0  0
  146.8511  141.9523  154.7492 C   0  0  0  0  0  0  0  0  0  0  0  0
  146.2835  140.8631  154.6706 O   0  0  0  0  0  0  0  0  0  0  0  0
  146.2324  143.1866  154.0879 C   0  0  0  0  0  0  0  0  0  0  0  0
  145.0535  143.6429  154.8051 N   0  0  0  0  0  0  0  0  0  0  0  0
  144.5239  143.1568  155.9810 C   0  0  0  0  0  0  0  0  0  0  0  0
  143.4263  143.9137  156.2746 C   0  0  0  0  0  0  0  0  0  0  0  0
  143.3579  144.8552  155.2067 C   0  0  0  0  0  0  0  0  0  0  0  0
  142.3503  145.9536  154.9912 C   0  0  0  0  0  0  0  0  0  0  0  0
  141.4780  145.9858  155.9986 F   0  0  0  0  0  0  0  0  0  0  0  0
  142.9699  147.1319  154.9224 F   0  0  0  0  0  0  0  0  0  0  0  0
  141.6863  145.7441  153.8547 F   0  0  0  0  0  0  0  0  0  0  0  0
  144.3362  144.6832  154.3280 N   0  0  0  0  0  0  0  0  0  0  0  0
  148.6571  141.3189  157.6177 C   0  0  0  0  0  0  0  0  0  0  0  0
  149.4154  142.5708  158.0946 C   0  0  0  0  0  0  0  0  0  0  0  0
  151.2265  144.6940  157.7017 H   0  0  0  0  0  0  0  0  0  0  0  0
  152.7001  143.7420  157.8674 H   0  0  0  0  0  0  0  0  0  0  0  0
  151.5927  143.8895  159.2260 H   0  0  0  0  0  0  0  0  0  0  0  0
  151.3623  141.6736  158.1408 H   0  0  0  0  0  0  0  0  0  0  0  0
  150.6162  143.2403  155.6325 H   0  0  0  0  0  0  0  0  0  0  0  0
  152.0582  142.2824  155.8516 H   0  0  0  0  0  0  0  0  0  0  0  0
  150.3309  141.0186  154.5724 H   0  0  0  0  0  0  0  0  0  0  0  0
  150.7450  140.2192  156.0639 H   0  0  0  0  0  0  0  0  0  0  0  0
  148.3413  140.1361  155.8598 H   0  0  0  0  0  0  0  0  0  0  0  0
  148.4063  143.0678  155.3916 H   0  0  0  0  0  0  0  0  0  0  0  0
  146.9708  143.9888  154.0465 H   0  0  0  0  0  0  0  0  0  0  0  0
  145.9474  142.9578  153.0602 H   0  0  0  0  0  0  0  0  0  0  0  0
  144.9706  142.3255  156.5067 H   0  0  0  0  0  0  0  0  0  0  0  0
  142.7708  143.8122  157.1268 H   0  0  0  0  0  0  0  0  0  0  0  0
  147.6078  141.3851  157.9078 H   0  0  0  0  0  0  0  0  0  0  0  0
  149.0576  140.4439  158.1314 H   0  0  0  0  0  0  0  0  0  0  0  0
  149.3447  142.6460  159.1802 H   0  0  0  0  0  0  0  0  0  0  0  0
  148.9350  143.4651  157.6953 H   0  0  0  0  0  0  0  0  0  0  0  0
  1  2  1  0  0  0  0
  1 21  1  0  0  0  0
  1 22  1  0  0  0  0
  1 23  1  0  0  0  0
  2 20  1  0  0  0  0
  2  3  1  0  0  0  0
  2 24  1  0  0  0  0
  3  4  1  0  0  0  0
  3 25  1  0  0  0  0
  3 26  1  0  0  0  0
  4  5  1  0  0  0  0
  4 27  1  0  0  0  0
  4 28  1  0  0  0  0
  5  6  1  0  0  0  0
  5 19  1  0  0  0  0
  5 29  1  0  0  0  0
  6  7  1  0  0  0  0
  6 30  1  0  0  0  0
  7  8  2  0  0  0  0
  7  9  1  0  0  0  0
  9 10  1  0  0  0  0
  9 31  1  0  0  0  0
  9 32  1  0  0  0  0
 10 18  1  0  0  0  0
 10 11  1  0  0  0  0
 11 12  2  0  0  0  0
 11 33  1  0  0  0  0
 12 13  1  0  0  0  0
 12 34  1  0  0  0  0
 13 14  1  0  0  0  0
 13 18  2  0  0  0  0
 14 15  1  0  0  0  0
 14 16  1  0  0  0  0
 14 17  1  0  0  0  0
 19 20  1  0  0  0  0
 19 35  1  0  0  0  0
 19 36  1  0  0  0  0
 20 37  1  0  0  0  0
 20 38  1  0  0  0  0
M  END
> <s_m_source_file>
AV-unprocessed.smi

> <i_m_source_file_index>
836

> <i_lp_mmshare_version>
43012

> <i_f3d_flags>
0

> <s_epik_input>
W0NIM11bQ0BASF0xW0NIMl1bQ0gyXVtDQEhdKFtDSDJdW0NIMl0xKVtOSF1DKD1PKVtDSDJdbjJbY0hdW2NIXWMobjIpQyhGKShGKUY=

> <s_epik_cmdline>
J2VwaWtfcHl0aG9uJywgJy1waCcsICc3LjAnLCAnLXRuJywgJzgnLCAnLW1hJywgJzIwMCcsICctbWV0YWxfYmluZGluZycsICctaW1hZScsICc8aW5maWxlLm1hZT4nLCAnLW9tYWUnLCAnPG91dGZpbGUubWFlPic=

> <r_lp_tautomer_probability>
1

> <r_epik_Ionization_Penalty>
8.28749e-08

> <r_epik_Ionization_Penalty_Charging>
0

> <r_epik_Ionization_Penalty_Neutral>
8.28749e-08

> <r_epik_State_Penalty>
-0

> <r_epik_Charging_Adjusted_Penalty>
0

> <i_epik_Tot_Q>
0

> <i_epik_Tot_abs_Q>
0

> <r_epik_Metal_State_Penalty>
-0

> <b_epik_Metal_Only>
0

> <s_lp_Force_Field>
OPLS_2005

> <r_lp_Energy>
10.0253

> <b_lp_Chiralities_Consistent>
1

> <s_lp_Variant>
AV-unprocessed.smi:836-2

> <Gold.Version>
5.8.1

> <Gold.Id.Protein>
6NUR|6NUR_protein|mol2

> <Gold.PLP.Fitness>
36.2132

> <Gold.PLP.PLP>
-33.7349

> <Gold.PLP.part.hbond>
-1.0000

> <Gold.PLP.part.metal>
0.0000

> <Gold.PLP.part.buried>
-4.1642

> <Gold.PLP.part.nonpolar>
-27.9025

> <Gold.PLP.part.repulsive>
0.3271

> <Gold.PLP.ligand.clash>
0.0000

> <Gold.PLP.ligand.torsion>
0.2714

> <Gold.PLP.Chemscore.Hbond>
1.0000

> <Gold.PLP.Chemscore.CHOScore>
0.0000

> <Gold.PLP.Chemscore.Metal>
0.0000

> <Gold.Chemscore.Hbonds>
donor molecule, donor type, donor heavy atom, donor atom, acceptor molecule, acceptor atom, score
      L1  H     6    30       P1  8028  1.00

> <Gold.PLP.Chemscore.Internal.Correction>
0.0212

> <Gold.Rescore>
     Score         DG    S(hbond)    S(metal)    S(lipo)     H(rot)  DE(clash)    DE(int)     intcor
     12.55     -13.11       0.99        0.00      70.67       1.54       0.24       0.32       ----

> <Gold.Chemscore.Fitness>
12.5492

> <Gold.Chemscore.DG>
-13.1109

> <Gold.Chemscore.ZeroCoef>
-5.4800

> <Gold.Chemscore.Hbond>
0.9911

> <Gold.Chemscore.Metal>
0.0000

> <Gold.Chemscore.Lipo>
70.6723

> <Gold.Chemscore.Internal_Hbond>
0.0000

> <Gold.Chemscore.DEClash>
0.2402

> <Gold.Chemscore.DEInternal>
0.3215

> <Gold.Chemscore.Rot>
1.5422

> <Gold.Chemscore.Internal.Correction>
   9.000000E+99

> <Gold.Chemscore.Hbonds>
donor molecule, donor type, donor heavy atom, donor atom, acceptor molecule, acceptor atom, score
      L1  H     6    30       P1  8028  0.99

> <Gold.Chemscore.Hbond.Weighted>
-3.3102

> <Gold.Chemscore.Metal.Weighted>
-0.0000

> <Gold.Chemscore.Lipo.Weighted>
-8.2687

> <Gold.Chemscore.Internal_Hbond.Weighted>
0.0000

> <Gold.Chemscore.DEClash.Weighted>
0.2402

> <Gold.Chemscore.DEInternal.Weighted>
0.3215

> <Gold.Chemscore.Rot.Weighted>
3.9479

> <Gold.Chemscore.Internal.Correction.Weighted>
   9.000000E+99

> <Gold.Protein.RotatedTorsions>
[ 6907 6896 6895 6894 ] final  142.35 input  -60.11 | X-H torsion
[ 7974 7965 7964 7962 ] final -105.35 input  175.53 | X-H torsion
[ 8008 7997 7996 7995 ] final  -17.49 input   59.86 | X-H torsion
[ 10167 10162 10161 10158 ] final   -1.40 input  -65.29 | X-H torsion
[ 10718 10713 10712 10709 ] final  152.67 input   66.30 | X-H torsion
[ 10763 10752 10751 10750 ] final -165.62 input  -60.55 | X-H torsion
[ 11005 11000 10999 10996 ] final  103.01 input  -57.11 | X-H torsion

> <Gold.Protein.ActiveResidues>
 VAL166  LYS551  ARG553  GLY616  TRP617  ASP618  TYR619  PRO620  LYS621  CYS622 
 ASP623  PHE694  ASN695  SER759  ASP760  ASP761  ALA762  ILE779  LEU786  VAL792 
 PHE793  MET794  SER795  GLU796  ALA797  LYS798  CYS799  TRP800  GLU811  SER814 

> <Gold.Protein.RotatedAtoms>
  152.2198  133.4975  159.5155 H   0  0  0  0  0  0  0  0  0  0  0  0  # atno 6907 bound_to 6896
  150.7010  134.1357  159.4095 H   0  0  0  0  0  0  0  0  0  0  0  0  # atno 6908 bound_to 6896
  151.9278  135.0270  160.0577 H   0  0  0  0  0  0  0  0  0  0  0  0  # atno 6909 bound_to 6896
  145.2316  140.9172  143.3201 H   0  0  0  0  0  0  0  0  0  0  0  0  # atno 7974 bound_to 7965
  154.4975  140.2141  155.9417 H   0  0  0  0  0  0  0  0  0  0  0  0  # atno 8008 bound_to 7997
  156.1389  140.3183  155.8432 H   0  0  0  0  0  0  0  0  0  0  0  0  # atno 8009 bound_to 7997
  155.4157  140.0493  157.3019 H   0  0  0  0  0  0  0  0  0  0  0  0  # atno 8010 bound_to 7997
  140.6808  143.6780  150.8130 H   0  0  0  0  0  0  0  0  0  0  0  0  # atno 10167 bound_to 10162
  157.2547  131.0786  151.1706 H   0  0  0  0  0  0  0  0  0  0  0  0  # atno 10718 bound_to 10713
  154.6914  135.2971  154.9474 H   0  0  0  0  0  0  0  0  0  0  0  0  # atno 10763 bound_to 10752
  154.0436  135.6654  153.4796 H   0  0  0  0  0  0  0  0  0  0  0  0  # atno 10764 bound_to 10752
  153.0615  135.5113  154.8009 H   0  0  0  0  0  0  0  0  0  0  0  0  # atno 10765 bound_to 10752
  139.8781  134.9247  156.5145 H   0  0  0  0  0  0  0  0  0  0  0  0  # atno 11005 bound_to 11000
  144.9672  139.3918  143.6327 LP  0  0  0  0  0  0  0  0  0  0  0  0  # atno 17320 bound_to 7965
  146.3351  139.8752  142.8833 LP  0  0  0  0  0  0  0  0  0  0  0  0  # atno 17321 bound_to 7965
  140.0480  143.5279  152.2687 LP  0  0  0  0  0  0  0  0  0  0  0  0  # atno 17342 bound_to 10162
  139.6130  144.7613  151.2909 LP  0  0  0  0  0  0  0  0  0  0  0  0  # atno 17343 bound_to 10162
  157.3240  130.6951  149.6285 LP  0  0  0  0  0  0  0  0  0  0  0  0  # atno 17370 bound_to 10713
  155.9665  130.4327  150.4974 LP  0  0  0  0  0  0  0  0  0  0  0  0  # atno 17371 bound_to 10713
  140.8495  133.8142  155.9155 LP  0  0  0  0  0  0  0  0  0  0  0  0  # atno 17394 bound_to 11000
  140.9158  134.2204  157.4958 LP  0  0  0  0  0  0  0  0  0  0  0  0  # atno 17395 bound_to 11000

$$$$
