AV-unprocessed.smi:1367|AV-procd|sdf|5574|dock10
  -GOLD-   22720 5163D 1   1.00000     0.00000
 Structure written by MMmdl.
 29 29  0  0  0  0  0  0  0  0  2 V2000
  146.2921  138.0985  152.5089 C   0  0  0  0  0  0  0  0  0  0  0  0
  147.1106  139.1921  153.1614 C   0  0  0  0  0  0  0  0  0  0  0  0
  146.5779  140.3369  153.3632 N   0  0  0  0  0  0  0  0  0  0  0  0
  147.3345  141.3551  153.9678 C   0  0  0  0  0  0  0  0  0  0  0  0
  146.6248  142.6834  154.1630 C   0  0  0  0  0  0  0  0  0  0  0  0
  148.6276  141.1436  154.3459 C   0  0  0  0  0  0  0  0  0  0  0  0
  149.4955  142.2208  154.9983 C   0  0  0  0  0  0  0  0  0  0  0  0
  150.0872  141.8627  156.3634 C   0  0  0  0  0  0  0  0  0  0  0  0
  150.1840  140.6830  156.7004 O   0  0  0  0  0  0  0  0  0  0  0  0
  150.4823  142.8859  157.1361 N   0  0  0  0  0  0  0  0  0  0  0  0
  151.0240  142.7655  158.4846 C   0  0  0  0  0  0  0  0  0  0  0  0
  151.6981  144.0668  158.9526 C   0  0  0  0  0  0  0  0  0  0  0  0
  150.7577  144.9705  159.2263 F   0  0  0  0  0  0  0  0  0  0  0  0
  152.4116  143.8464  160.0571 F   0  0  0  0  0  0  0  0  0  0  0  0
  152.4966  144.5596  158.0058 F   0  0  0  0  0  0  0  0  0  0  0  0
  149.2049  139.8111  154.0927 C   0  0  0  0  0  0  0  0  0  0  0  0
  150.3729  139.5729  154.3978 O   0  0  0  0  0  0  0  0  0  0  0  0
  148.4060  138.8763  153.5046 N   0  5  0  0  0  0  0  0  0  0  0  0
  145.3393  138.4847  152.1441 H   0  0  0  0  0  0  0  0  0  0  0  0
  146.0884  137.3023  153.2253 H   0  0  0  0  0  0  0  0  0  0  0  0
  146.8323  137.6728  151.6628 H   0  0  0  0  0  0  0  0  0  0  0  0
  146.5431  142.9203  155.2236 H   0  0  0  0  0  0  0  0  0  0  0  0
  145.6170  142.6577  153.7471 H   0  0  0  0  0  0  0  0  0  0  0  0
  147.1695  143.4869  153.6669 H   0  0  0  0  0  0  0  0  0  0  0  0
  150.3171  142.4570  154.3216 H   0  0  0  0  0  0  0  0  0  0  0  0
  148.9451  143.1568  155.0971 H   0  0  0  0  0  0  0  0  0  0  0  0
  150.3664  143.8218  156.7734 H   0  0  0  0  0  0  0  0  0  0  0  0
  150.2433  142.4665  159.1859 H   0  0  0  0  0  0  0  0  0  0  0  0
  151.7552  141.9568  158.4770 H   0  0  0  0  0  0  0  0  0  0  0  0
  1  2  1  0  0  0  0
  1 19  1  0  0  0  0
  1 20  1  0  0  0  0
  1 21  1  0  0  0  0
  2 18  1  0  0  0  0
  2  3  2  0  0  0  0
  3  4  1  0  0  0  0
  4  5  1  0  0  0  0
  4  6  2  0  0  0  0
  5 22  1  0  0  0  0
  5 23  1  0  0  0  0
  5 24  1  0  0  0  0
  6  7  1  0  0  0  0
  6 16  1  0  0  0  0
  7  8  1  0  0  0  0
  7 25  1  0  0  0  0
  7 26  1  0  0  0  0
  8  9  2  0  0  0  0
  8 10  1  0  0  0  0
 10 11  1  0  0  0  0
 10 27  1  0  0  0  0
 11 12  1  0  0  0  0
 11 28  1  0  0  0  0
 11 29  1  0  0  0  0
 12 13  1  0  0  0  0
 12 14  1  0  0  0  0
 12 15  1  0  0  0  0
 16 17  2  0  0  0  0
 16 18  1  0  0  0  0
M  CHG  1  18  -1
M  END
> <s_m_source_file>
AV-unprocessed.smi

> <i_m_source_file_index>
1367

> <i_lp_mmshare_version>
43012

> <i_f3d_flags>
0

> <s_epik_input>
W0NIM11jMW5jKFtDSDNdKWMoYyg9TylbbkhdMSlbQ0gyXUMoPU8pW05IXVtDSDJdQyhGKShGKUY=

> <s_epik_cmdline>
J2VwaWtfcHl0aG9uJywgJy1waCcsICc3LjAnLCAnLXRuJywgJzgnLCAnLW1hJywgJzIwMCcsICctbWV0YWxfYmluZGluZycsICctaW1hZScsICc8aW5maWxlLm1hZT4nLCAnLW9tYWUnLCAnPG91dGZpbGUubWFlPic=

> <r_lp_tautomer_probability>
0.839158

> <r_epik_Ionization_Penalty>
6.39142

> <r_epik_Ionization_Penalty_Charging>
4.71143e-08

> <r_epik_Ionization_Penalty_Neutral>
6.39142

> <r_epik_State_Penalty>
4.29634

> <r_epik_Charging_Adjusted_Penalty>
4.29634

> <i_epik_Tot_Q>
-1

> <i_epik_Tot_abs_Q>
1

> <r_epik_Metal_State_Penalty>
0.740852

> <b_epik_Metal_Only>
1

> <s_lp_Force_Field>
OPLS_2005

> <r_lp_Energy>
6.28206

> <b_lp_Chiralities_Consistent>
1

> <s_lp_Variant>
AV-unprocessed.smi:1367-3

> <Gold.Version>
5.8.1

> <Gold.Id.Protein>
6NUR|6NUR_protein|mol2

> <Gold.PLP.Fitness>
40.3864

> <Gold.PLP.PLP>
-36.4203

> <Gold.PLP.part.hbond>
-2.0000

> <Gold.PLP.part.metal>
0.0000

> <Gold.PLP.part.buried>
-0.0528

> <Gold.PLP.part.nonpolar>
-37.3691

> <Gold.PLP.part.repulsive>
2.8254

> <Gold.PLP.ligand.clash>
0.0000

> <Gold.PLP.ligand.torsion>
0.5110

> <Gold.PLP.Chemscore.Hbond>
1.6596

> <Gold.PLP.Chemscore.CHOScore>
0.0000

> <Gold.PLP.Chemscore.Metal>
0.0000

> <Gold.Chemscore.Hbonds>
donor molecule, donor type, donor heavy atom, donor atom, acceptor molecule, acceptor atom, score
      L1  H    10    27       P1  8028  0.67
      P1  H  7989  7998       L1    17  1.00

> <Gold.PLP.Chemscore.Internal.Correction>
0.0093

> <Gold.Rescore>
     Score         DG    S(hbond)    S(metal)    S(lipo)     H(rot)  DE(clash)    DE(int)     intcor
      7.19     -12.99       1.81        0.00      53.30       1.86       2.45       3.36       ----

> <Gold.Chemscore.Fitness>
7.1854

> <Gold.Chemscore.DG>
-12.9937

> <Gold.Chemscore.ZeroCoef>
-5.4800

> <Gold.Chemscore.Hbond>
1.8093

> <Gold.Chemscore.Metal>
0.0000

> <Gold.Chemscore.Lipo>
53.3048

> <Gold.Chemscore.Internal_Hbond>
0.0000

> <Gold.Chemscore.DEClash>
2.4460

> <Gold.Chemscore.DEInternal>
3.3624

> <Gold.Chemscore.Rot>
1.8617

> <Gold.Chemscore.Internal.Correction>
   9.000000E+99

> <Gold.Chemscore.Hbonds>
donor molecule, donor type, donor heavy atom, donor atom, acceptor molecule, acceptor atom, score
      L1  H    10    27       P1  8028  0.62
      P1  H  7989  7998       L1    17  0.74

> <Gold.Chemscore.Hbond.Weighted>
-6.0431

> <Gold.Chemscore.Metal.Weighted>
-0.0000

> <Gold.Chemscore.Lipo.Weighted>
-6.2367

> <Gold.Chemscore.Internal_Hbond.Weighted>
0.0000

> <Gold.Chemscore.DEClash.Weighted>
2.4460

> <Gold.Chemscore.DEInternal.Weighted>
3.3624

> <Gold.Chemscore.Rot.Weighted>
4.7660

> <Gold.Chemscore.Internal.Correction.Weighted>
   9.000000E+99

> <Gold.Protein.RotatedTorsions>
[ 6907 6896 6895 6894 ] final  152.19 input  -60.11 | X-H torsion
[ 7974 7965 7964 7962 ] final  -74.74 input  175.53 | X-H torsion
[ 8008 7997 7996 7995 ] final  -64.45 input   59.86 | X-H torsion
[ 10167 10162 10161 10158 ] final  101.92 input  -65.29 | X-H torsion
[ 10718 10713 10712 10709 ] final -135.20 input   66.30 | X-H torsion
[ 10763 10752 10751 10750 ] final  139.76 input  -60.55 | X-H torsion
[ 11005 11000 10999 10996 ] final -159.94 input  -57.11 | X-H torsion

> <Gold.Protein.ActiveResidues>
 VAL166  LYS551  ARG553  GLY616  TRP617  ASP618  TYR619  PRO620  LYS621  CYS622 
 ASP623  PHE694  ASN695  SER759  ASP760  ASP761  ALA762  ILE779  LEU786  VAL792 
 PHE793  MET794  SER795  GLU796  ALA797  LYS798  CYS799  TRP800  GLU811  SER814 

> <Gold.Protein.RotatedAtoms>
  152.0902  133.4196  159.4539 H   0  0  0  0  0  0  0  0  0  0  0  0  # atno 6907 bound_to 6896
  150.6862  134.2881  159.4664 H   0  0  0  0  0  0  0  0  0  0  0  0  # atno 6908 bound_to 6896
  152.0731  134.9520  160.0625 H   0  0  0  0  0  0  0  0  0  0  0  0  # atno 6909 bound_to 6896
  145.6352  140.9327  143.1066 H   0  0  0  0  0  0  0  0  0  0  0  0  # atno 7974 bound_to 7965
  154.4612  140.0953  156.6898 H   0  0  0  0  0  0  0  0  0  0  0  0  # atno 8008 bound_to 7997
  155.4988  140.3473  155.4349 H   0  0  0  0  0  0  0  0  0  0  0  0  # atno 8009 bound_to 7997
  156.0874  140.1388  156.9625 H   0  0  0  0  0  0  0  0  0  0  0  0  # atno 8010 bound_to 7997
  139.7395  144.7015  151.0597 H   0  0  0  0  0  0  0  0  0  0  0  0  # atno 10167 bound_to 10162
  156.2636  130.7224  151.1167 H   0  0  0  0  0  0  0  0  0  0  0  0  # atno 10718 bound_to 10713
  153.9115  135.3010  155.3448 H   0  0  0  0  0  0  0  0  0  0  0  0  # atno 10763 bound_to 10752
  154.7621  135.4929  153.9487 H   0  0  0  0  0  0  0  0  0  0  0  0  # atno 10764 bound_to 10752
  153.1190  135.6777  153.9470 H   0  0  0  0  0  0  0  0  0  0  0  0  # atno 10765 bound_to 10752
  140.6370  134.4591  157.5232 H   0  0  0  0  0  0  0  0  0  0  0  0  # atno 11005 bound_to 11000
  144.7178  139.8134  143.7392 LP  0  0  0  0  0  0  0  0  0  0  0  0  # atno 17320 bound_to 7965
  146.1325  139.4364  143.0159 LP  0  0  0  0  0  0  0  0  0  0  0  0  # atno 17321 bound_to 7965
  140.7784  143.4942  150.9854 LP  0  0  0  0  0  0  0  0  0  0  0  0  # atno 17342 bound_to 10162
  139.8630  143.7290  152.3172 LP  0  0  0  0  0  0  0  0  0  0  0  0  # atno 17343 bound_to 10162
  157.7259  131.0650  150.5932 LP  0  0  0  0  0  0  0  0  0  0  0  0  # atno 17370 bound_to 10713
  156.6022  130.4357  149.5893 LP  0  0  0  0  0  0  0  0  0  0  0  0  # atno 17371 bound_to 10713
  139.9094  134.8377  156.1583 LP  0  0  0  0  0  0  0  0  0  0  0  0  # atno 17394 bound_to 11000
  141.0634  133.6831  156.1997 LP  0  0  0  0  0  0  0  0  0  0  0  0  # atno 17395 bound_to 11000

$$$$
