AV-unprocessed.smi:1033|AV-procd|sdf|4492|dock3
  -GOLD-   22720 2473D 1   1.00000     0.00000
 Structure written by MMmdl.
 56 58  0  0  0  0  0  0  0  0  2 V2000
  152.8722  143.7957  162.1735 C   0  0  0  0  0  0  0  0  0  0  0  0
  152.4413  143.2811  160.8114 C   0  0  0  0  0  0  0  0  0  0  0  0
  152.5251  141.8965  160.5419 C   0  0  0  0  0  0  0  0  0  0  0  0
  152.1404  141.3787  159.2859 C   0  0  0  0  0  0  0  0  0  0  0  0
  152.1455  140.0790  158.8093 N   0  0  0  0  0  0  0  0  0  0  0  0
  151.6861  140.2444  157.5727 C   0  0  0  0  0  0  0  0  0  0  0  0
  151.3861  141.5002  157.1892 N   0  0  0  0  0  0  0  0  0  0  0  0
  150.8896  141.9200  155.8904 C   0  0  0  0  0  0  0  0  0  0  0  0
  149.8138  140.9634  155.3410 C   0  0  2  0  0  0  0  0  0  0  0  0
  150.4417  139.8856  154.6731 O   0  0  0  0  0  0  0  0  0  0  0  0
  148.8655  141.6678  154.3506 C   0  0  0  0  0  0  0  0  0  0  0  0
  147.7011  142.2973  155.0240 N   0  3  0  0  0  0  0  0  0  0  0  0
  147.2160  141.5065  156.1842 C   0  0  0  0  0  0  0  0  0  0  0  0
  146.0659  142.2481  156.8972 C   0  0  0  0  0  0  0  0  0  0  0  0
  144.9442  142.5640  156.0128 N   0  0  0  0  0  0  0  0  0  0  0  0
  144.1577  141.3774  155.6462 C   0  0  0  0  0  0  0  0  0  0  0  0
  143.5298  140.5745  156.8079 C   0  0  1  0  0  0  0  0  0  0  0  0
  142.5594  141.3753  157.6904 C   0  0  0  0  0  0  0  0  0  0  0  0
  142.9075  139.4013  156.3254 O   0  0  0  0  0  0  0  0  0  0  0  0
  145.4539  143.3400  154.8796 C   0  0  0  0  0  0  0  0  0  0  0  0
  146.5773  142.6230  154.1059 C   0  0  0  0  0  0  0  0  0  0  0  0
  151.6658  142.2913  158.2989 C   0  0  0  0  0  0  0  0  0  0  0  0
  151.5730  143.6704  158.5568 C   0  0  0  0  0  0  0  0  0  0  0  0
  151.9621  144.1711  159.8168 C   0  0  0  0  0  0  0  0  0  0  0  0
  151.8624  145.6626  160.0842 C   0  0  0  0  0  0  0  0  0  0  0  0
  153.2155  142.9841  162.8159 H   0  0  0  0  0  0  0  0  0  0  0  0
  152.0411  144.2911  162.6757 H   0  0  0  0  0  0  0  0  0  0  0  0
  153.6905  144.5087  162.0705 H   0  0  0  0  0  0  0  0  0  0  0  0
  152.8905  141.2184  161.2991 H   0  0  0  0  0  0  0  0  0  0  0  0
  151.5662  139.4046  156.9040 H   0  0  0  0  0  0  0  0  0  0  0  0
  150.4808  142.9263  155.9919 H   0  0  0  0  0  0  0  0  0  0  0  0
  151.7315  141.9946  155.2003 H   0  0  0  0  0  0  0  0  0  0  0  0
  149.2521  140.5614  156.1835 H   0  0  0  0  0  0  0  0  0  0  0  0
  149.7851  139.4106  154.1853 H   0  0  0  0  0  0  0  0  0  0  0  0
  149.4022  142.4243  153.7761 H   0  0  0  0  0  0  0  0  0  0  0  0
  148.5118  140.9302  153.6281 H   0  0  0  0  0  0  0  0  0  0  0  0
  146.8987  140.5163  155.8546 H   0  0  0  0  0  0  0  0  0  0  0  0
  148.0341  141.3552  156.8893 H   0  0  0  0  0  0  0  0  0  0  0  0
  145.7155  141.6604  157.7466 H   0  0  0  0  0  0  0  0  0  0  0  0
  146.4545  143.1753  157.3205 H   0  0  0  0  0  0  0  0  0  0  0  0
  143.3888  141.6274  154.9155 H   0  0  0  0  0  0  0  0  0  0  0  0
  144.8275  140.6893  155.1283 H   0  0  0  0  0  0  0  0  0  0  0  0
  144.3464  140.2301  157.4435 H   0  0  0  0  0  0  0  0  0  0  0  0
  143.0374  142.2747  158.0790 H   0  0  0  0  0  0  0  0  0  0  0  0
  142.2287  140.7825  158.5439 H   0  0  0  0  0  0  0  0  0  0  0  0
  141.6694  141.6821  157.1405 H   0  0  0  0  0  0  0  0  0  0  0  0
  143.4131  138.6546  156.6077 H   0  0  0  0  0  0  0  0  0  0  0  0
  144.6446  143.6085  154.2026 H   0  0  0  0  0  0  0  0  0  0  0  0
  145.8403  144.2902  155.2508 H   0  0  0  0  0  0  0  0  0  0  0  0
  146.9194  143.2765  153.3046 H   0  0  0  0  0  0  0  0  0  0  0  0
  146.2047  141.7149  153.6306 H   0  0  0  0  0  0  0  0  0  0  0  0
  151.2098  144.3379  157.7892 H   0  0  0  0  0  0  0  0  0  0  0  0
  151.4804  146.1983  159.2146 H   0  0  0  0  0  0  0  0  0  0  0  0
  152.8424  146.0745  160.3263 H   0  0  0  0  0  0  0  0  0  0  0  0
  151.1887  145.8570  160.9190 H   0  0  0  0  0  0  0  0  0  0  0  0
  148.0345  143.1727  155.4028 H   0  0  0  0  0  0  0  0  0  0  0  0
  1  2  1  0  0  0  0
  1 26  1  0  0  0  0
  1 27  1  0  0  0  0
  1 28  1  0  0  0  0
  2 24  1  0  0  0  0
  2  3  2  0  0  0  0
  3  4  1  0  0  0  0
  3 29  1  0  0  0  0
  4 22  2  0  0  0  0
  4  5  1  0  0  0  0
  5  6  2  0  0  0  0
  6  7  1  0  0  0  0
  6 30  1  0  0  0  0
  7  8  1  0  0  0  0
  7 22  1  0  0  0  0
  8  9  1  0  0  0  0
  8 31  1  0  0  0  0
  8 32  1  0  0  0  0
  9 10  1  0  0  0  0
  9 11  1  0  0  0  0
  9 33  1  0  0  0  0
 10 34  1  0  0  0  0
 11 12  1  0  0  0  0
 11 35  1  0  0  0  0
 11 36  1  0  0  0  0
 12 21  1  0  0  0  0
 12 13  1  0  0  0  0
 12 56  1  0  0  0  0
 13 14  1  0  0  0  0
 13 37  1  0  0  0  0
 13 38  1  0  0  0  0
 14 15  1  0  0  0  0
 14 39  1  0  0  0  0
 14 40  1  0  0  0  0
 15 16  1  0  0  0  0
 15 20  1  0  0  0  0
 16 17  1  0  0  0  0
 16 41  1  0  0  0  0
 16 42  1  0  0  0  0
 17 18  1  0  0  0  0
 17 19  1  0  0  0  0
 17 43  1  0  0  0  0
 18 44  1  0  0  0  0
 18 45  1  0  0  0  0
 18 46  1  0  0  0  0
 19 47  1  0  0  0  0
 20 21  1  0  0  0  0
 20 48  1  0  0  0  0
 20 49  1  0  0  0  0
 21 50  1  0  0  0  0
 21 51  1  0  0  0  0
 22 23  1  0  0  0  0
 23 24  2  0  0  0  0
 23 52  1  0  0  0  0
 24 25  1  0  0  0  0
 25 53  1  0  0  0  0
 25 54  1  0  0  0  0
 25 55  1  0  0  0  0
M  CHG  1  12   1
M  END
> <s_m_source_file>
AV-unprocessed.smi

> <i_m_source_file_index>
1033

> <i_lp_mmshare_version>
43012

> <i_f3d_flags>
0

> <s_epik_input>
W0NIM11jKFtjSF0xKWMoW0NIM10pW2NIXWMoYzEyKW4oW2NIXW4yKVtDSDJdW0NASF0oW09IXSlbQ0gyXU4zW0NIMl1bQ0gyXU4oW0NIMl1bQ0gyXTMpW0NIMl1bQ0BIXShbQ0gzXSlbT0hd

> <s_epik_cmdline>
J2VwaWtfcHl0aG9uJywgJy1waCcsICc3LjAnLCAnLXRuJywgJzgnLCAnLW1hJywgJzIwMCcsICctbWV0YWxfYmluZGluZycsICctaW1hZScsICc8aW5maWxlLm1hZT4nLCAnLW9tYWUnLCAnPG91dGZpbGUubWFlPic=

> <r_epik_Ionization_Penalty>
0.131893

> <r_epik_Ionization_Penalty_Charging>
0.00208556

> <r_epik_Ionization_Penalty_Neutral>
0.129808

> <r_epik_State_Penalty>
0.452125

> <r_epik_Charging_Adjusted_Penalty>
0.454211

> <i_epik_Tot_Q>
1

> <i_epik_Tot_abs_Q>
1

> <r_epik_Metal_State_Penalty>
0.376389

> <b_epik_Metal_Only>
0

> <s_lp_Force_Field>
OPLS_2005

> <r_lp_Energy>
36.4064

> <b_lp_Chiralities_Consistent>
1

> <s_lp_Variant>
AV-unprocessed.smi:1033-3

> <Gold.Version>
5.8.1

> <Gold.Id.Protein>
6NUR|6NUR_protein|mol2

> <Gold.PLP.Fitness>
55.6610

> <Gold.PLP.PLP>
-48.5461

> <Gold.PLP.part.hbond>
-2.0000

> <Gold.PLP.part.metal>
0.0000

> <Gold.PLP.part.buried>
-6.4912

> <Gold.PLP.part.nonpolar>
-39.1734

> <Gold.PLP.part.repulsive>
0.2256

> <Gold.PLP.ligand.clash>
0.0000

> <Gold.PLP.ligand.torsion>
1.0969

> <Gold.PLP.Chemscore.Hbond>
3.0000

> <Gold.PLP.Chemscore.CHOScore>
0.0000

> <Gold.PLP.Chemscore.Metal>
0.0000

> <Gold.Chemscore.Hbonds>
donor molecule, donor type, donor heavy atom, donor atom, acceptor molecule, acceptor atom, score
      L1  H    12    56       P1  8028  2.00
      P1  H  7989  7998       L1    10  1.00

> <Gold.PLP.Chemscore.Internal.Correction>
0.3087

> <Gold.Rescore>
     Score         DG    S(hbond)    S(metal)    S(lipo)     H(rot)  DE(clash)    DE(int)     intcor
     14.60     -15.81       1.08        0.00     124.58       3.07       0.07       1.14       ----

> <Gold.Chemscore.Fitness>
14.6026

> <Gold.Chemscore.DG>
-15.8125

> <Gold.Chemscore.ZeroCoef>
-5.4800

> <Gold.Chemscore.Hbond>
1.0787

> <Gold.Chemscore.Metal>
0.0000

> <Gold.Chemscore.Lipo>
124.5811

> <Gold.Chemscore.Internal_Hbond>
0.0000

> <Gold.Chemscore.DEClash>
0.0687

> <Gold.Chemscore.DEInternal>
1.1412

> <Gold.Chemscore.Rot>
3.0650

> <Gold.Chemscore.Internal.Correction>
   9.000000E+99

> <Gold.Chemscore.Hbonds>
donor molecule, donor type, donor heavy atom, donor atom, acceptor molecule, acceptor atom, score
      L1  H    12    56       P1  8028  0.82
      P1  H  7989  7998       L1    10  0.20

> <Gold.Chemscore.Hbond.Weighted>
-3.6030

> <Gold.Chemscore.Metal.Weighted>
-0.0000

> <Gold.Chemscore.Lipo.Weighted>
-14.5760

> <Gold.Chemscore.Internal_Hbond.Weighted>
0.0000

> <Gold.Chemscore.DEClash.Weighted>
0.0687

> <Gold.Chemscore.DEInternal.Weighted>
1.1412

> <Gold.Chemscore.Rot.Weighted>
7.8465

> <Gold.Chemscore.Internal.Correction.Weighted>
   9.000000E+99

> <Gold.Protein.RotatedTorsions>
[ 6907 6896 6895 6894 ] final   58.47 input  -60.11 | X-H torsion
[ 7974 7965 7964 7962 ] final  119.44 input  175.53 | X-H torsion
[ 8008 7997 7996 7995 ] final   20.09 input   59.86 | X-H torsion
[ 10167 10162 10161 10158 ] final  -99.94 input  -65.29 | X-H torsion
[ 10718 10713 10712 10709 ] final  163.44 input   66.30 | X-H torsion
[ 10763 10752 10751 10750 ] final  -64.85 input  -60.55 | X-H torsion
[ 11005 11000 10999 10996 ] final -127.43 input  -57.11 | X-H torsion

> <Gold.Protein.ActiveResidues>
 VAL166  LYS551  ARG553  GLY616  TRP617  ASP618  TYR619  PRO620  LYS621  CYS622 
 ASP623  PHE694  ASN695  SER759  ASP760  ASP761  ALA762  ILE779  LEU786  VAL792 
 PHE793  MET794  SER795  GLU796  ALA797  LYS798  CYS799  TRP800  GLU811  SER814 

> <Gold.Protein.RotatedAtoms>
  152.3827  134.6566  160.0136 H   0  0  0  0  0  0  0  0  0  0  0  0  # atno 6907 bound_to 6896
  151.6824  133.3306  159.3231 H   0  0  0  0  0  0  0  0  0  0  0  0  # atno 6908 bound_to 6896
  150.7760  134.6705  159.6434 H   0  0  0  0  0  0  0  0  0  0  0  0  # atno 6909 bound_to 6896
  145.1431  139.3255  143.4605 H   0  0  0  0  0  0  0  0  0  0  0  0  # atno 7974 bound_to 7965
  154.9304  140.3039  155.5170 H   0  0  0  0  0  0  0  0  0  0  0  0  # atno 8008 bound_to 7997
  156.3004  140.2355  156.4300 H   0  0  0  0  0  0  0  0  0  0  0  0  # atno 8009 bound_to 7997
  154.8243  140.0421  157.1421 H   0  0  0  0  0  0  0  0  0  0  0  0  # atno 8010 bound_to 7997
  140.2572  143.3432  152.0660 H   0  0  0  0  0  0  0  0  0  0  0  0  # atno 10167 bound_to 10162
  157.1084  131.0461  151.2467 H   0  0  0  0  0  0  0  0  0  0  0  0  # atno 10718 bound_to 10713
  154.3363  135.6166  153.5575 H   0  0  0  0  0  0  0  0  0  0  0  0  # atno 10763 bound_to 10752
  152.9807  135.5759  154.4904 H   0  0  0  0  0  0  0  0  0  0  0  0  # atno 10764 bound_to 10752
  154.4600  135.2855  155.1697 H   0  0  0  0  0  0  0  0  0  0  0  0  # atno 10765 bound_to 10752
  140.9600  134.0950  157.3978 H   0  0  0  0  0  0  0  0  0  0  0  0  # atno 11005 bound_to 11000
  146.3503  140.1476  142.8593 LP  0  0  0  0  0  0  0  0  0  0  0  0  # atno 17320 bound_to 7965
  145.0510  140.9018  143.4995 LP  0  0  0  0  0  0  0  0  0  0  0  0  # atno 17321 bound_to 7965
  139.5028  144.6742  151.6169 LP  0  0  0  0  0  0  0  0  0  0  0  0  # atno 17342 bound_to 10162
  140.5994  143.9636  150.6376 LP  0  0  0  0  0  0  0  0  0  0  0  0  # atno 17343 bound_to 10162
  157.4580  130.7637  149.7210 LP  0  0  0  0  0  0  0  0  0  0  0  0  # atno 17370 bound_to 10713
  155.9856  130.3981  150.3252 LP  0  0  0  0  0  0  0  0  0  0  0  0  # atno 17371 bound_to 10713
  139.8875  135.0090  156.6562 LP  0  0  0  0  0  0  0  0  0  0  0  0  # atno 17394 bound_to 11000
  140.7481  133.8920  155.8327 LP  0  0  0  0  0  0  0  0  0  0  0  0  # atno 17395 bound_to 11000

$$$$
