AV-unprocessed.smi:2901|AV-procd|sdf|11149|dock10
  -GOLD-   2272016 23D 1   1.00000     0.00000
 Structure written by MMmdl.
 40 41  0  0  0  0  0  0  0  0  1 V2000
  144.7281  145.0092  153.2282 C   0  0  0  0  0  0  0  0  0  0  0  0
  145.3203  143.8696  153.9828 C   0  0  0  0  0  0  0  0  0  0  0  0
  146.0577  142.8737  153.4963 N   0  0  0  0  0  0  0  0  0  0  0  0
  146.3543  142.0817  154.5969 C   0  0  0  0  0  0  0  0  0  0  0  0
  147.1843  140.8398  154.4825 C   0  0  0  0  0  0  0  0  0  0  0  0
  148.6336  141.1489  154.0732 C   0  0  0  0  0  0  0  0  0  0  0  0
  149.2874  142.0312  155.0328 N   0  0  0  0  0  0  0  0  0  0  0  0
  150.1913  141.6398  155.9412 C   0  0  0  0  0  0  0  0  0  0  0  0
  150.5851  140.4803  156.0683 O   0  0  0  0  0  0  0  0  0  0  0  0
  150.6095  142.6621  156.6993 N   0  0  0  0  0  0  0  0  0  0  0  0
  151.5762  142.5543  157.7866 C   0  0  0  0  0  0  0  0  0  0  0  0
  151.2277  143.4798  158.9657 C   0  0  2  0  0  0  0  0  0  0  0  0
  151.4810  144.9663  158.7124 C   0  0  0  0  0  0  0  0  0  0  0  0
  151.7267  145.5306  160.1038 C   0  0  0  0  0  0  0  0  0  0  0  0
  151.9245  144.2924  160.9834 C   0  0  0  0  0  0  0  0  0  0  0  0
  152.0698  143.2109  160.0740 O   0  0  0  0  0  0  0  0  0  0  0  0
  145.7763  142.6527  155.7021 C   0  0  0  0  0  0  0  0  0  0  0  0
  145.7468  142.2768  157.1447 C   0  0  0  0  0  0  0  0  0  0  0  0
  145.1133  143.7896  155.3248 O   0  0  0  0  0  0  0  0  0  0  0  0
  145.1137  145.0304  152.2086 H   0  0  0  0  0  0  0  0  0  0  0  0
  144.9782  145.9507  153.7172 H   0  0  0  0  0  0  0  0  0  0  0  0
  143.6433  144.9077  153.1921 H   0  0  0  0  0  0  0  0  0  0  0  0
  147.1809  140.3021  155.4313 H   0  0  0  0  0  0  0  0  0  0  0  0
  146.7320  140.1642  153.7553 H   0  0  0  0  0  0  0  0  0  0  0  0
  149.2065  140.2262  153.9628 H   0  0  0  0  0  0  0  0  0  0  0  0
  148.6470  141.6404  153.0999 H   0  0  0  0  0  0  0  0  0  0  0  0
  149.0293  143.0068  155.0054 H   0  0  0  0  0  0  0  0  0  0  0  0
  150.2275  143.5787  156.5186 H   0  0  0  0  0  0  0  0  0  0  0  0
  151.6420  141.5193  158.1257 H   0  0  0  0  0  0  0  0  0  0  0  0
  152.5587  142.8113  157.3900 H   0  0  0  0  0  0  0  0  0  0  0  0
  150.1919  143.3280  159.2754 H   0  0  0  0  0  0  0  0  0  0  0  0
  152.3757  145.0989  158.1027 H   0  0  0  0  0  0  0  0  0  0  0  0
  150.6496  145.4500  158.1987 H   0  0  0  0  0  0  0  0  0  0  0  0
  152.6089  146.1716  160.1096 H   0  0  0  0  0  0  0  0  0  0  0  0
  150.8798  146.1218  160.4545 H   0  0  0  0  0  0  0  0  0  0  0  0
  152.7921  144.3768  161.6382 H   0  0  0  0  0  0  0  0  0  0  0  0
  151.0447  144.1201  161.6050 H   0  0  0  0  0  0  0  0  0  0  0  0
  146.7073  141.8674  157.4584 H   0  0  0  0  0  0  0  0  0  0  0  0
  144.9807  141.5239  157.3309 H   0  0  0  0  0  0  0  0  0  0  0  0
  145.5299  143.1430  157.7703 H   0  0  0  0  0  0  0  0  0  0  0  0
  1  2  1  0  0  0  0
  1 20  1  0  0  0  0
  1 21  1  0  0  0  0
  1 22  1  0  0  0  0
  2 19  1  0  0  0  0
  2  3  2  0  0  0  0
  3  4  1  0  0  0  0
  4  5  1  0  0  0  0
  4 17  2  0  0  0  0
  5  6  1  0  0  0  0
  5 23  1  0  0  0  0
  5 24  1  0  0  0  0
  6  7  1  0  0  0  0
  6 25  1  0  0  0  0
  6 26  1  0  0  0  0
  7  8  1  0  0  0  0
  7 27  1  0  0  0  0
  8  9  2  0  0  0  0
  8 10  1  0  0  0  0
 10 11  1  0  0  0  0
 10 28  1  0  0  0  0
 11 12  1  0  0  0  0
 11 29  1  0  0  0  0
 11 30  1  0  0  0  0
 12 16  1  0  0  0  0
 12 13  1  0  0  0  0
 12 31  1  0  0  0  0
 13 14  1  0  0  0  0
 13 32  1  0  0  0  0
 13 33  1  0  0  0  0
 14 15  1  0  0  0  0
 14 34  1  0  0  0  0
 14 35  1  0  0  0  0
 15 16  1  0  0  0  0
 15 36  1  0  0  0  0
 15 37  1  0  0  0  0
 17 18  1  0  0  0  0
 17 19  1  0  0  0  0
 18 38  1  0  0  0  0
 18 39  1  0  0  0  0
 18 40  1  0  0  0  0
M  END
> <s_m_source_file>
AV-unprocessed.smi

> <i_m_source_file_index>
2901

> <i_lp_mmshare_version>
43012

> <i_f3d_flags>
0

> <s_epik_input>
W0NIM11jMW5jKGMobzEpW0NIM10pW0NIMl1bQ0gyXVtOSF1DKD1PKVtOSF1bQ0gyXVtDQEBIXTJbQ0gyXVtDSDJdW0NIMl1PMg==

> <s_epik_cmdline>
J2VwaWtfcHl0aG9uJywgJy1waCcsICc3LjAnLCAnLXRuJywgJzgnLCAnLW1hJywgJzIwMCcsICctbWV0YWxfYmluZGluZycsICctaW1hZScsICc8aW5maWxlLm1hZT4nLCAnLW9tYWUnLCAnPG91dGZpbGUubWFlPic=

> <r_lp_tautomer_probability>
1

> <r_epik_Ionization_Penalty>
9.58254e-05

> <r_epik_Ionization_Penalty_Charging>
0

> <r_epik_Ionization_Penalty_Neutral>
9.58254e-05

> <r_epik_State_Penalty>
-0

> <r_epik_Charging_Adjusted_Penalty>
0

> <i_epik_Tot_Q>
0

> <i_epik_Tot_abs_Q>
0

> <r_epik_Metal_State_Penalty>
-0

> <b_epik_Metal_Only>
0

> <s_lp_Force_Field>
OPLS_2005

> <r_lp_Energy>
8.98545

> <b_lp_Chiralities_Consistent>
1

> <s_lp_Variant>
AV-unprocessed.smi:2901-1

> <Gold.Version>
5.8.1

> <Gold.Id.Protein>
6NUR|6NUR_protein|mol2

> <Gold.PLP.Fitness>
46.9045

> <Gold.PLP.PLP>
-41.6162

> <Gold.PLP.part.hbond>
-2.0000

> <Gold.PLP.part.metal>
0.0000

> <Gold.PLP.part.buried>
-8.0087

> <Gold.PLP.part.nonpolar>
-32.2259

> <Gold.PLP.part.repulsive>
0.6878

> <Gold.PLP.ligand.clash>
0.0000

> <Gold.PLP.ligand.torsion>
0.3626

> <Gold.PLP.Chemscore.Hbond>
2.0000

> <Gold.PLP.Chemscore.CHOScore>
0.0000

> <Gold.PLP.Chemscore.Metal>
0.0000

> <Gold.Chemscore.Hbonds>
donor molecule, donor type, donor heavy atom, donor atom, acceptor molecule, acceptor atom, score
      L1  H     7    27       P1  8028  1.00
      L1  H    10    28       P1  8028  1.00

> <Gold.PLP.Chemscore.Internal.Correction>
0.0135

> <Gold.Rescore>
     Score         DG    S(hbond)    S(metal)    S(lipo)     H(rot)  DE(clash)    DE(int)     intcor
     17.00     -17.55       1.95        0.00      89.42       1.92       0.00       0.55       ----

> <Gold.Chemscore.Fitness>
16.9967

> <Gold.Chemscore.DG>
-17.5477

> <Gold.Chemscore.ZeroCoef>
-5.4800

> <Gold.Chemscore.Hbond>
1.9498

> <Gold.Chemscore.Metal>
0.0000

> <Gold.Chemscore.Lipo>
89.4204

> <Gold.Chemscore.Internal_Hbond>
0.0000

> <Gold.Chemscore.DEClash>
0.0030

> <Gold.Chemscore.DEInternal>
0.5480

> <Gold.Chemscore.Rot>
1.9167

> <Gold.Chemscore.Internal.Correction>
   9.000000E+99

> <Gold.Chemscore.Hbonds>
donor molecule, donor type, donor heavy atom, donor atom, acceptor molecule, acceptor atom, score
      L1  H     7    27       P1  8028  0.99
      L1  H    10    28       P1  8028  0.94

> <Gold.Chemscore.Hbond.Weighted>
-6.5124

> <Gold.Chemscore.Metal.Weighted>
-0.0000

> <Gold.Chemscore.Lipo.Weighted>
-10.4622

> <Gold.Chemscore.Internal_Hbond.Weighted>
0.0000

> <Gold.Chemscore.DEClash.Weighted>
0.0030

> <Gold.Chemscore.DEInternal.Weighted>
0.5480

> <Gold.Chemscore.Rot.Weighted>
4.9069

> <Gold.Chemscore.Internal.Correction.Weighted>
   9.000000E+99

> <Gold.Protein.RotatedTorsions>
[ 6907 6896 6895 6894 ] final -100.54 input  -60.11 | X-H torsion
[ 7974 7965 7964 7962 ] final  137.11 input  175.53 | X-H torsion
[ 8008 7997 7996 7995 ] final  123.17 input   59.86 | X-H torsion
[ 10167 10162 10161 10158 ] final  -20.80 input  -65.29 | X-H torsion
[ 10718 10713 10712 10709 ] final -179.17 input   66.30 | X-H torsion
[ 10763 10752 10751 10750 ] final  111.66 input  -60.55 | X-H torsion
[ 11005 11000 10999 10996 ] final -157.22 input  -57.11 | X-H torsion

> <Gold.Protein.ActiveResidues>
 VAL166  LYS551  ARG553  GLY616  TRP617  ASP618  TYR619  PRO620  LYS621  CYS622 
 ASP623  PHE694  ASN695  SER759  ASP760  ASP761  ALA762  ILE779  LEU786  VAL792 
 PHE793  MET794  SER795  GLU796  ALA797  LYS798  CYS799  TRP800  GLU811  SER814 

> <Gold.Protein.RotatedAtoms>
  150.7120  134.0871  159.3918 H   0  0  0  0  0  0  0  0  0  0  0  0  # atno 6907 bound_to 6896
  151.8856  135.0434  160.0502 H   0  0  0  0  0  0  0  0  0  0  0  0  # atno 6908 bound_to 6896
  152.2533  133.5198  159.5375 H   0  0  0  0  0  0  0  0  0  0  0  0  # atno 6909 bound_to 6896
  144.9499  139.4831  143.5531 H   0  0  0  0  0  0  0  0  0  0  0  0  # atno 7974 bound_to 7965
  156.2756  140.2769  156.1584 H   0  0  0  0  0  0  0  0  0  0  0  0  # atno 8008 bound_to 7997
  155.0779  140.0387  157.2647 H   0  0  0  0  0  0  0  0  0  0  0  0  # atno 8009 bound_to 7997
  154.6987  140.2644  155.6746 H   0  0  0  0  0  0  0  0  0  0  0  0  # atno 8010 bound_to 7997
  140.7278  143.4688  151.0276 H   0  0  0  0  0  0  0  0  0  0  0  0  # atno 10167 bound_to 10162
  156.8552  130.9732  151.3088 H   0  0  0  0  0  0  0  0  0  0  0  0  # atno 10718 bound_to 10713
  153.4666  135.3710  155.2368 H   0  0  0  0  0  0  0  0  0  0  0  0  # atno 10763 bound_to 10752
  154.8757  135.3921  154.3862 H   0  0  0  0  0  0  0  0  0  0  0  0  # atno 10764 bound_to 10752
  153.4443  135.7084  153.6213 H   0  0  0  0  0  0  0  0  0  0  0  0  # atno 10765 bound_to 10752
  140.6670  134.4288  157.5233 H   0  0  0  0  0  0  0  0  0  0  0  0  # atno 11005 bound_to 11000
  146.3317  139.8577  142.8862 LP  0  0  0  0  0  0  0  0  0  0  0  0  # atno 17320 bound_to 7965
  145.2860  141.0153  143.3690 LP  0  0  0  0  0  0  0  0  0  0  0  0  # atno 17321 bound_to 7965
  139.8378  143.7604  152.3180 LP  0  0  0  0  0  0  0  0  0  0  0  0  # atno 17342 bound_to 10162
  139.7742  144.7466  151.0180 LP  0  0  0  0  0  0  0  0  0  0  0  0  # atno 17343 bound_to 10162
  157.6281  130.8707  149.9225 LP  0  0  0  0  0  0  0  0  0  0  0  0  # atno 17370 bound_to 10713
  156.0806  130.3673  150.0587 LP  0  0  0  0  0  0  0  0  0  0  0  0  # atno 17371 bound_to 10713
  139.8994  134.8592  156.1962 LP  0  0  0  0  0  0  0  0  0  0  0  0  # atno 17394 bound_to 11000
  141.0421  133.6932  156.1617 LP  0  0  0  0  0  0  0  0  0  0  0  0  # atno 17395 bound_to 11000

$$$$
