AV-unprocessed.smi:99|AV-procd|sdf|874|dock8
  -GOLD-   2262017343D 1   1.00000     0.00000
 Structure written by MMmdl.
 53 56  0  0  0  0  0  0  0  0  1 V2000
  152.2331  136.1295  156.6652 O   0  0  0  0  0  0  0  0  0  0  0  0
  151.1945  136.1251  156.0009 C   0  0  0  0  0  0  0  0  0  0  0  0
  150.6198  137.2401  155.5088 O   0  0  0  0  0  0  0  0  0  0  0  0
  151.2887  138.4860  155.6131 C   0  0  0  0  0  0  0  0  0  0  0  0
  150.3907  139.5928  155.0517 C   0  0  1  0  0  0  0  0  0  0  0  0
  149.6734  139.1115  153.9254 O   0  0  0  0  0  0  0  0  0  0  0  0
  148.4877  139.8290  153.7841 C   0  0  1  0  0  0  0  0  0  0  0  0
  147.3976  138.8437  153.4178 N   0  0  0  0  0  0  0  0  0  0  0  0
  147.1561  137.7325  154.2145 C   0  0  0  0  0  0  0  0  0  0  0  0
  146.2054  136.8116  153.9303 C   0  0  0  0  0  0  0  0  0  0  0  0
  145.3718  136.9523  152.7406 C   0  0  0  0  0  0  0  0  0  0  0  0
  144.4874  136.1705  152.3985 O   0  0  0  0  0  0  0  0  0  0  0  0
  145.6470  138.0859  151.9700 N   0  0  0  0  0  0  0  0  0  0  0  0
  146.6224  139.0437  152.2539 C   0  0  0  0  0  0  0  0  0  0  0  0
  146.7673  140.0110  151.5077 O   0  0  0  0  0  0  0  0  0  0  0  0
  148.2121  140.5737  155.1098 C   0  0  1  0  0  0  0  0  0  0  0  0
  146.9267  140.3490  155.6603 O   0  0  0  0  0  0  0  0  0  0  0  0
  149.2973  140.0262  156.0276 C   0  0  2  0  0  0  0  0  0  0  0  0
  149.8009  141.0488  156.8781 O   0  0  0  0  0  0  0  0  0  0  0  0
  150.7799  140.7846  157.7697 C   0  0  0  0  0  0  0  0  0  0  0  0
  151.0945  139.6463  158.1230 O   0  0  0  0  0  0  0  0  0  0  0  0
  151.4430  142.0171  158.2844 C   0  0  0  0  0  0  0  0  0  0  0  0
  151.3123  143.2264  157.5624 C   0  0  0  0  0  0  0  0  0  0  0  0
  151.9304  144.4061  158.0204 C   0  0  0  0  0  0  0  0  0  0  0  0
  152.6878  144.3906  159.2060 C   0  0  0  0  0  0  0  0  0  0  0  0
  152.8255  143.1941  159.9335 C   0  0  0  0  0  0  0  0  0  0  0  0
  152.2072  142.0132  159.4775 C   0  0  0  0  0  0  0  0  0  0  0  0
  150.4430  134.8836  155.6569 C   0  0  0  0  0  0  0  0  0  0  0  0
  150.8134  133.6597  156.2618 C   0  0  0  0  0  0  0  0  0  0  0  0
  150.1233  132.4706  155.9563 C   0  0  0  0  0  0  0  0  0  0  0  0
  149.0536  132.4908  155.0425 C   0  0  0  0  0  0  0  0  0  0  0  0
  148.6739  133.7020  154.4356 C   0  0  0  0  0  0  0  0  0  0  0  0
  149.3633  134.8922  154.7394 C   0  0  0  0  0  0  0  0  0  0  0  0
  145.0915  138.2250  151.1384 H   0  0  0  0  0  0  0  0  0  0  0  0
  151.5516  138.6993  156.6503 H   0  0  0  0  0  0  0  0  0  0  0  0
  152.2163  138.4361  155.0414 H   0  0  0  0  0  0  0  0  0  0  0  0
  150.9805  140.4587  154.7447 H   0  0  0  0  0  0  0  0  0  0  0  0
  148.6136  140.5129  152.9436 H   0  0  0  0  0  0  0  0  0  0  0  0
  147.7467  137.5899  155.1082 H   0  0  0  0  0  0  0  0  0  0  0  0
  146.0600  135.9659  154.5869 H   0  0  0  0  0  0  0  0  0  0  0  0
  148.3565  141.6404  154.9313 H   0  0  0  0  0  0  0  0  0  0  0  0
  146.9102  140.7031  156.5364 H   0  0  0  0  0  0  0  0  0  0  0  0
  148.9382  139.1519  156.5736 H   0  0  0  0  0  0  0  0  0  0  0  0
  150.7369  143.2631  156.6485 H   0  0  0  0  0  0  0  0  0  0  0  0
  151.8239  145.3235  157.4603 H   0  0  0  0  0  0  0  0  0  0  0  0
  153.1625  145.2953  159.5566 H   0  0  0  0  0  0  0  0  0  0  0  0
  153.4078  143.1813  160.8431 H   0  0  0  0  0  0  0  0  0  0  0  0
  152.3348  141.1118  160.0588 H   0  0  0  0  0  0  0  0  0  0  0  0
  151.6317  133.6189  156.9665 H   0  0  0  0  0  0  0  0  0  0  0  0
  150.4156  131.5421  156.4242 H   0  0  0  0  0  0  0  0  0  0  0  0
  148.5251  131.5787  154.8080 H   0  0  0  0  0  0  0  0  0  0  0  0
  147.8520  133.7185  153.7350 H   0  0  0  0  0  0  0  0  0  0  0  0
  149.0455  135.8044  154.2559 H   0  0  0  0  0  0  0  0  0  0  0  0
  1  2  2  0  0  0  0
  2  3  1  0  0  0  0
  2 28  1  0  0  0  0
  3  4  1  0  0  0  0
  4  5  1  0  0  0  0
  4 35  1  0  0  0  0
  4 36  1  0  0  0  0
  5 18  1  0  0  0  0
  5  6  1  0  0  0  0
  5 37  1  0  0  0  0
  6  7  1  0  0  0  0
  7  8  1  0  0  0  0
  7 16  1  0  0  0  0
  7 38  1  0  0  0  0
  8 14  1  0  0  0  0
  8  9  1  0  0  0  0
  9 10  2  0  0  0  0
  9 39  1  0  0  0  0
 10 11  1  0  0  0  0
 10 40  1  0  0  0  0
 11 12  2  0  0  0  0
 11 13  1  0  0  0  0
 13 34  1  0  0  0  0
 13 14  1  0  0  0  0
 14 15  2  0  0  0  0
 16 17  1  0  0  0  0
 16 18  1  0  0  0  0
 16 41  1  0  0  0  0
 17 42  1  0  0  0  0
 18 19  1  0  0  0  0
 18 43  1  0  0  0  0
 19 20  1  0  0  0  0
 20 21  2  0  0  0  0
 20 22  1  0  0  0  0
 22 27  1  0  0  0  0
 22 23  2  0  0  0  0
 23 24  1  0  0  0  0
 23 44  1  0  0  0  0
 24 25  2  0  0  0  0
 24 45  1  0  0  0  0
 25 26  1  0  0  0  0
 25 46  1  0  0  0  0
 26 27  2  0  0  0  0
 26 47  1  0  0  0  0
 27 48  1  0  0  0  0
 28 33  1  0  0  0  0
 28 29  2  0  0  0  0
 29 30  1  0  0  0  0
 29 49  1  0  0  0  0
 30 31  2  0  0  0  0
 30 50  1  0  0  0  0
 31 32  1  0  0  0  0
 31 51  1  0  0  0  0
 32 33  2  0  0  0  0
 32 52  1  0  0  0  0
 33 53  1  0  0  0  0
M  END
> <s_m_source_file>
AV-unprocessed.smi

> <i_m_source_file_index>
99

> <i_lp_mmshare_version>
43012

> <i_f3d_flags>
0

> <s_epik_input>
W2NIXTFbY0hdW2NIXVtjSF1bY0hdYzFDKD1PKU9bQ0gyXVtDQEBIXTJPW0NAQEhdKG4zW2NIXVtjSF1jKD1PKVtuSF1jMz1PKVtDQEBIXShbT0hdKVtDQEhdMk9DKD1PKWM0W2NIXVtjSF1bY0hdW2NIXVtjSF00

> <s_epik_cmdline>
J2VwaWtfcHl0aG9uJywgJy1waCcsICc3LjAnLCAnLXRuJywgJzgnLCAnLW1hJywgJzIwMCcsICctbWV0YWxfYmluZGluZycsICctaW1hZScsICc8aW5maWxlLm1hZT4nLCAnLW9tYWUnLCAnPG91dGZpbGUubWFlPic=

> <r_lp_tautomer_probability>
1

> <r_epik_Ionization_Penalty>
0.00454555

> <r_epik_Ionization_Penalty_Charging>
0.0045191

> <r_epik_Ionization_Penalty_Neutral>
2.64449e-05

> <r_epik_State_Penalty>
-0

> <r_epik_Charging_Adjusted_Penalty>
0.0045191

> <i_epik_Tot_Q>
0

> <i_epik_Tot_abs_Q>
0

> <r_epik_Metal_State_Penalty>
1.27877

> <b_epik_Metal_Only>
0

> <s_epik_Chemistry_Notes>
This compound has an ester and may undergo hydrolysis at high or low pH. This compound contains an acetal/aminal-like group ( X-CH(R)-Y where X, Y are N, S, or O) that may be acid/base labile, releasing an aldehyde.

> <s_lp_Force_Field>
OPLS_2005

> <r_lp_Energy>
37.9182

> <b_lp_Chiralities_Consistent>
1

> <s_lp_Variant>
AV-unprocessed.smi:99-10

> <Gold.Version>
5.8.1

> <Gold.Id.Protein>
6NUR|6NUR_protein|mol2

> <Gold.PLP.Fitness>
53.7989

> <Gold.PLP.PLP>
-48.8028

> <Gold.PLP.part.hbond>
-2.5166

> <Gold.PLP.part.metal>
0.0000

> <Gold.PLP.part.buried>
-4.8972

> <Gold.PLP.part.nonpolar>
-45.9880

> <Gold.PLP.part.repulsive>
4.1347

> <Gold.PLP.ligand.clash>
0.0580

> <Gold.PLP.ligand.torsion>
0.7249

> <Gold.PLP.Chemscore.Hbond>
2.0000

> <Gold.PLP.Chemscore.CHOScore>
0.0000

> <Gold.PLP.Chemscore.Metal>
0.0000

> <Gold.Chemscore.Hbonds>
donor molecule, donor type, donor heavy atom, donor atom, acceptor molecule, acceptor atom, score
      L1  H    13    34       P1 10171  1.00
      P1  H 10752 10764       L1     1  1.00

> <Gold.PLP.Chemscore.Internal.Correction>
0.5037

> <Gold.Rescore>
     Score         DG    S(hbond)    S(metal)    S(lipo)     H(rot)  DE(clash)    DE(int)     intcor
     11.80     -17.34       1.77        0.00     120.60       3.19       2.22       3.32       ----

> <Gold.Chemscore.Fitness>
11.7983

> <Gold.Chemscore.DG>
-17.3399

> <Gold.Chemscore.ZeroCoef>
-5.4800

> <Gold.Chemscore.Hbond>
1.7714

> <Gold.Chemscore.Metal>
0.0000

> <Gold.Chemscore.Lipo>
120.6023

> <Gold.Chemscore.Internal_Hbond>
0.0000

> <Gold.Chemscore.DEClash>
2.2187

> <Gold.Chemscore.DEInternal>
3.3229

> <Gold.Chemscore.Rot>
3.1903

> <Gold.Chemscore.Internal.Correction>
   9.000000E+99

> <Gold.Chemscore.Hbonds>
donor molecule, donor type, donor heavy atom, donor atom, acceptor molecule, acceptor atom, score
      L1  H    13    34       P1 10171  1.00
      P1  H 10752 10764       L1     1  0.28

> <Gold.Chemscore.Hbond.Weighted>
-5.9165

> <Gold.Chemscore.Metal.Weighted>
-0.0000

> <Gold.Chemscore.Lipo.Weighted>
-14.1105

> <Gold.Chemscore.Internal_Hbond.Weighted>
0.0000

> <Gold.Chemscore.DEClash.Weighted>
2.2187

> <Gold.Chemscore.DEInternal.Weighted>
3.3229

> <Gold.Chemscore.Rot.Weighted>
8.1671

> <Gold.Chemscore.Internal.Correction.Weighted>
   9.000000E+99

> <Gold.Protein.RotatedTorsions>
[ 6907 6896 6895 6894 ] final   34.36 input  -60.11 | X-H torsion
[ 7974 7965 7964 7962 ] final -154.90 input  175.53 | X-H torsion
[ 8008 7997 7996 7995 ] final   21.53 input   59.86 | X-H torsion
[ 10167 10162 10161 10158 ] final  -83.04 input  -65.29 | X-H torsion
[ 10718 10713 10712 10709 ] final -169.43 input   66.30 | X-H torsion
[ 10763 10752 10751 10750 ] final   -0.17 input  -60.55 | X-H torsion
[ 11005 11000 10999 10996 ] final   78.94 input  -57.11 | X-H torsion

> <Gold.Protein.ActiveResidues>
 VAL166  LYS551  ARG553  GLY616  TRP617  ASP618  TYR619  PRO620  LYS621  CYS622 
 ASP623  PHE694  ASN695  SER759  ASP760  ASP761  ALA762  ILE779  LEU786  VAL792 
 PHE793  MET794  SER795  GLU796  ALA797  LYS798  CYS799  TRP800  GLU811  SER814 

> <Gold.Protein.RotatedAtoms>
  152.1013  134.9340  160.0569 H   0  0  0  0  0  0  0  0  0  0  0  0  # atno 6907 bound_to 6896
  152.0553  133.4032  159.4403 H   0  0  0  0  0  0  0  0  0  0  0  0  # atno 6908 bound_to 6896
  150.6839  134.3182  159.4819 H   0  0  0  0  0  0  0  0  0  0  0  0  # atno 6909 bound_to 6896
  144.7666  140.4324  143.5937 H   0  0  0  0  0  0  0  0  0  0  0  0  # atno 7974 bound_to 7965
  154.9519  140.3067  155.5071 H   0  0  0  0  0  0  0  0  0  0  0  0  # atno 8008 bound_to 7997
  156.2986  140.2317  156.4536 H   0  0  0  0  0  0  0  0  0  0  0  0  # atno 8009 bound_to 7997
  154.8046  140.0432  157.1286 H   0  0  0  0  0  0  0  0  0  0  0  0  # atno 8010 bound_to 7997
  140.4263  143.2565  151.8820 H   0  0  0  0  0  0  0  0  0  0  0  0  # atno 10167 bound_to 10162
  156.7114  130.9235  151.3089 H   0  0  0  0  0  0  0  0  0  0  0  0  # atno 10718 bound_to 10713
  153.3285  135.6973  153.6968 H   0  0  0  0  0  0  0  0  0  0  0  0  # atno 10763 bound_to 10752
  153.5780  135.3503  155.2864 H   0  0  0  0  0  0  0  0  0  0  0  0  # atno 10764 bound_to 10752
  154.8613  135.4288  154.2468 H   0  0  0  0  0  0  0  0  0  0  0  0  # atno 10765 bound_to 10752
  139.9192  134.7803  156.1714 H   0  0  0  0  0  0  0  0  0  0  0  0  # atno 11005 bound_to 11000
  145.6450  139.1556  143.2894 LP  0  0  0  0  0  0  0  0  0  0  0  0  # atno 17320 bound_to 7965
  146.1779  140.6544  142.9203 LP  0  0  0  0  0  0  0  0  0  0  0  0  # atno 17321 bound_to 7965
  139.4783  144.5383  151.8566 LP  0  0  0  0  0  0  0  0  0  0  0  0  # atno 17342 bound_to 10162
  140.4477  144.1899  150.5895 LP  0  0  0  0  0  0  0  0  0  0  0  0  # atno 17343 bound_to 10162
  157.6934  130.9257  150.0578 LP  0  0  0  0  0  0  0  0  0  0  0  0  # atno 17370 bound_to 10713
  156.1658  130.3645  149.9234 LP  0  0  0  0  0  0  0  0  0  0  0  0  # atno 17371 bound_to 10713
  141.0698  133.6802  156.2117 LP  0  0  0  0  0  0  0  0  0  0  0  0  # atno 17394 bound_to 11000
  140.6526  134.5052  157.5578 LP  0  0  0  0  0  0  0  0  0  0  0  0  # atno 17395 bound_to 11000

$$$$
