AV-unprocessed.smi:1966|AV-procd|sdf|7953|dock7
  -GOLD-   2272010123D 1   1.00000     0.00000
 Structure written by MMmdl.
 53 54  0  0  0  0  0  0  0  0  1 V2000
  149.0886  133.1018  153.9769 C   0  0  0  0  0  0  0  0  0  0  0  0
  147.5846  132.8862  153.8510 C   0  0  0  0  0  0  0  0  0  0  0  0
  146.8418  133.1311  154.8012 O   0  0  0  0  0  0  0  0  0  0  0  0
  147.1498  132.4250  152.6679 N   0  0  0  0  0  0  0  0  0  0  0  0
  145.7520  132.1603  152.3186 C   0  0  1  0  0  0  0  0  0  0  0  0
  144.9063  133.4024  152.6636 C   0  0  0  0  0  0  0  0  0  0  0  0
  145.4405  134.5103  152.7277 O   0  0  0  0  0  0  0  0  0  0  0  0
  143.5973  133.1699  152.8751 N   0  0  0  0  0  0  0  0  0  0  0  0
  142.5621  134.0915  153.1907 C   0  0  0  0  0  0  0  0  0  0  0  0
  142.7096  135.4982  153.1916 C   0  0  0  0  0  0  0  0  0  0  0  0
  141.5953  136.3005  153.5038 C   0  0  0  0  0  0  0  0  0  0  0  0
  140.3577  135.6832  153.7997 C   0  0  0  0  0  0  0  0  0  0  0  0
  139.2302  136.4728  154.1101 N   0  0  0  0  0  0  0  0  0  0  0  0
  139.3740  137.9251  154.0697 C   0  0  0  0  0  0  0  0  0  0  0  0
  138.1789  138.5998  154.7659 C   0  0  1  0  0  0  0  0  0  0  0  0
  138.2273  140.1256  154.6339 C   0  0  0  0  0  0  0  0  0  0  0  0
  136.9625  138.1422  154.1763 O   0  0  0  0  0  0  0  0  0  0  0  0
  136.7712  136.7260  154.2209 C   0  0  2  0  0  0  0  0  0  0  0  0
  136.4667  136.2246  155.6438 C   0  0  0  0  0  0  0  0  0  0  0  0
  137.9619  136.0040  153.5593 C   0  0  0  0  0  0  0  0  0  0  0  0
  140.2158  134.3354  153.7823 N   0  0  0  0  0  0  0  0  0  0  0  0
  141.2868  133.5704  153.4857 C   0  0  0  0  0  0  0  0  0  0  0  0
  145.6656  131.8583  150.7931 C   0  0  0  0  0  0  0  0  0  0  0  0
  146.3739  132.9164  149.9214 C   0  0  0  0  0  0  0  0  0  0  0  0
  144.2049  131.7151  150.3213 C   0  0  0  0  0  0  0  0  0  0  0  0
  149.4411  133.7899  153.2081 H   0  0  0  0  0  0  0  0  0  0  0  0
  149.6182  132.1555  153.8641 H   0  0  0  0  0  0  0  0  0  0  0  0
  149.3406  133.5208  154.9518 H   0  0  0  0  0  0  0  0  0  0  0  0
  147.8347  132.2586  151.9452 H   0  0  0  0  0  0  0  0  0  0  0  0
  145.3918  131.2952  152.8798 H   0  0  0  0  0  0  0  0  0  0  0  0
  143.3173  132.2000  152.8543 H   0  0  0  0  0  0  0  0  0  0  0  0
  143.6414  135.9811  152.9443 H   0  0  0  0  0  0  0  0  0  0  0  0
  141.6964  137.3757  153.4929 H   0  0  0  0  0  0  0  0  0  0  0  0
  140.2976  138.2261  154.5661 H   0  0  0  0  0  0  0  0  0  0  0  0
  139.4402  138.2506  153.0305 H   0  0  0  0  0  0  0  0  0  0  0  0
  138.1873  138.3537  155.8278 H   0  0  0  0  0  0  0  0  0  0  0  0
  139.1364  140.5294  155.0803 H   0  0  0  0  0  0  0  0  0  0  0  0
  137.3773  140.5873  155.1367 H   0  0  0  0  0  0  0  0  0  0  0  0
  138.2025  140.4326  153.5878 H   0  0  0  0  0  0  0  0  0  0  0  0
  135.8851  136.5222  153.6193 H   0  0  0  0  0  0  0  0  0  0  0  0
  136.1816  135.1725  155.6288 H   0  0  0  0  0  0  0  0  0  0  0  0
  135.6409  136.7833  156.0848 H   0  0  0  0  0  0  0  0  0  0  0  0
  137.3264  136.3160  156.3073 H   0  0  0  0  0  0  0  0  0  0  0  0
  137.9619  136.2088  152.4878 H   0  0  0  0  0  0  0  0  0  0  0  0
  137.8408  134.9269  153.6696 H   0  0  0  0  0  0  0  0  0  0  0  0
  141.1174  132.5033  153.4853 H   0  0  0  0  0  0  0  0  0  0  0  0
  146.1579  130.9027  150.6024 H   0  0  0  0  0  0  0  0  0  0  0  0
  145.9702  133.9128  150.1035 H   0  0  0  0  0  0  0  0  0  0  0  0
  146.2473  132.6980  148.8608 H   0  0  0  0  0  0  0  0  0  0  0  0
  147.4475  132.9515  150.1067 H   0  0  0  0  0  0  0  0  0  0  0  0
  143.6389  132.6276  150.5104 H   0  0  0  0  0  0  0  0  0  0  0  0
  143.6909  130.8952  150.8232 H   0  0  0  0  0  0  0  0  0  0  0  0
  144.1557  131.5110  149.2513 H   0  0  0  0  0  0  0  0  0  0  0  0
  1  2  1  0  0  0  0
  1 26  1  0  0  0  0
  1 27  1  0  0  0  0
  1 28  1  0  0  0  0
  2  3  2  0  0  0  0
  2  4  1  0  0  0  0
  4  5  1  0  0  0  0
  4 29  1  0  0  0  0
  5  6  1  0  0  0  0
  5 23  1  0  0  0  0
  5 30  1  0  0  0  0
  6  7  2  0  0  0  0
  6  8  1  0  0  0  0
  8  9  1  0  0  0  0
  8 31  1  0  0  0  0
  9 22  1  0  0  0  0
  9 10  2  0  0  0  0
 10 11  1  0  0  0  0
 10 32  1  0  0  0  0
 11 12  2  0  0  0  0
 11 33  1  0  0  0  0
 12 13  1  0  0  0  0
 12 21  1  0  0  0  0
 13 20  1  0  0  0  0
 13 14  1  0  0  0  0
 14 15  1  0  0  0  0
 14 34  1  0  0  0  0
 14 35  1  0  0  0  0
 15 16  1  0  0  0  0
 15 17  1  0  0  0  0
 15 36  1  0  0  0  0
 16 37  1  0  0  0  0
 16 38  1  0  0  0  0
 16 39  1  0  0  0  0
 17 18  1  0  0  0  0
 18 19  1  0  0  0  0
 18 20  1  0  0  0  0
 18 40  1  0  0  0  0
 19 41  1  0  0  0  0
 19 42  1  0  0  0  0
 19 43  1  0  0  0  0
 20 44  1  0  0  0  0
 20 45  1  0  0  0  0
 21 22  2  0  0  0  0
 22 46  1  0  0  0  0
 23 24  1  0  0  0  0
 23 25  1  0  0  0  0
 23 47  1  0  0  0  0
 24 48  1  0  0  0  0
 24 49  1  0  0  0  0
 24 50  1  0  0  0  0
 25 51  1  0  0  0  0
 25 52  1  0  0  0  0
 25 53  1  0  0  0  0
M  END
> <s_m_source_file>
AV-unprocessed.smi

> <i_m_source_file_index>
1966

> <i_lp_mmshare_version>
43012

> <i_f3d_flags>
0

> <s_epik_input>
W0NIM11DKD1PKVtOSF1bQ0BASF0oW0NIXShbQ0gzXSlbQ0gzXSlDKD1PKVtOSF1jMVtjSF1bY0hdYyhuW2NIXTEpTjJbQ0gyXVtDQEBIXShbQ0gzXSlPW0NAQEhdKFtDSDNdKVtDSDJdMg==

> <s_epik_cmdline>
J2VwaWtfcHl0aG9uJywgJy1waCcsICc3LjAnLCAnLXRuJywgJzgnLCAnLW1hJywgJzIwMCcsICctbWV0YWxfYmluZGluZycsICctaW1hZScsICc8aW5maWxlLm1hZT4nLCAnLW9tYWUnLCAnPG91dGZpbGUubWFlPic=

> <r_lp_tautomer_probability>
1

> <r_epik_Ionization_Penalty>
0.000679699

> <r_epik_Ionization_Penalty_Charging>
0

> <r_epik_Ionization_Penalty_Neutral>
0.000679699

> <r_epik_State_Penalty>
0.000430485

> <r_epik_Charging_Adjusted_Penalty>
0.000430485

> <i_epik_Tot_Q>
0

> <i_epik_Tot_abs_Q>
0

> <r_epik_Metal_State_Penalty>
-0

> <b_epik_Metal_Only>
0

> <s_lp_Force_Field>
OPLS_2005

> <r_lp_Energy>
28.3815

> <b_lp_Chiralities_Consistent>
1

> <s_lp_Variant>
AV-unprocessed.smi:1966-6

> <Gold.Version>
5.8.1

> <Gold.Id.Protein>
6NUR|6NUR_protein|mol2

> <Gold.PLP.Fitness>
44.8774

> <Gold.PLP.PLP>
-39.7291

> <Gold.PLP.part.hbond>
-2.7994

> <Gold.PLP.part.metal>
0.0000

> <Gold.PLP.part.buried>
-4.6218

> <Gold.PLP.part.nonpolar>
-33.5802

> <Gold.PLP.part.repulsive>
0.4679

> <Gold.PLP.ligand.clash>
0.0000

> <Gold.PLP.ligand.torsion>
1.1305

> <Gold.PLP.Chemscore.Hbond>
1.5275

> <Gold.PLP.Chemscore.CHOScore>
0.8177

> <Gold.PLP.Chemscore.Metal>
0.0000

> <Gold.Chemscore.Hbonds>
donor molecule, donor type, donor heavy atom, donor atom, acceptor molecule, acceptor atom, score
      L1  H     8    31       P1 10957  0.03
      P1  H 10995 11001       L1    21  0.09
      P1  H 11000 11005       L1    21  0.45
      L1  C    22    46       P1 10957  0.37

> <Gold.PLP.Chemscore.Internal.Correction>
0.3738

> <Gold.Rescore>
     Score         DG    S(hbond)    S(metal)    S(lipo)     H(rot)  DE(clash)    DE(int)     intcor
     12.82     -16.57       0.96        0.00     103.92       1.68       0.68       3.07       ----

> <Gold.Chemscore.Fitness>
12.8203

> <Gold.Chemscore.DG>
-16.5704

> <Gold.Chemscore.ZeroCoef>
-5.4800

> <Gold.Chemscore.Hbond>
0.9647

> <Gold.Chemscore.Metal>
0.0000

> <Gold.Chemscore.Lipo>
103.9187

> <Gold.Chemscore.Internal_Hbond>
0.0000

> <Gold.Chemscore.DEClash>
0.6774

> <Gold.Chemscore.DEInternal>
3.0727

> <Gold.Chemscore.Rot>
1.6759

> <Gold.Chemscore.Internal.Correction>
   9.000000E+99

> <Gold.Chemscore.Hbonds>
donor molecule, donor type, donor heavy atom, donor atom, acceptor molecule, acceptor atom, score
      L1  H     4    29       P1 10747  0.04
      P1  H 10995 11001       L1    21  0.01
      P1  H 11000 11005       L1    21  0.01

> <Gold.Chemscore.Hbond.Weighted>
-3.2221

> <Gold.Chemscore.Metal.Weighted>
-0.0000

> <Gold.Chemscore.Lipo.Weighted>
-12.1585

> <Gold.Chemscore.Internal_Hbond.Weighted>
0.0000

> <Gold.Chemscore.DEClash.Weighted>
0.6774

> <Gold.Chemscore.DEInternal.Weighted>
3.0727

> <Gold.Chemscore.Rot.Weighted>
4.2902

> <Gold.Chemscore.Internal.Correction.Weighted>
   9.000000E+99

> <Gold.Protein.RotatedTorsions>
[ 6907 6896 6895 6894 ] final   39.60 input  -60.11 | X-H torsion
[ 7974 7965 7964 7962 ] final  -29.07 input  175.53 | X-H torsion
[ 8008 7997 7996 7995 ] final  -38.50 input   59.86 | X-H torsion
[ 10167 10162 10161 10158 ] final  -78.63 input  -65.29 | X-H torsion
[ 10718 10713 10712 10709 ] final   30.13 input   66.30 | X-H torsion
[ 10763 10752 10751 10750 ] final  -84.53 input  -60.55 | X-H torsion
[ 11005 11000 10999 10996 ] final   36.78 input  -57.11 | X-H torsion

> <Gold.Protein.ActiveResidues>
 VAL166  LYS551  ARG553  GLY616  TRP617  ASP618  TYR619  PRO620  LYS621  CYS622 
 ASP623  PHE694  ASN695  SER759  ASP760  ASP761  ALA762  ILE779  LEU786  VAL792 
 PHE793  MET794  SER795  GLU796  ALA797  LYS798  CYS799  TRP800  GLU811  SER814 

> <Gold.Protein.RotatedAtoms>
  152.1716  134.8829  160.0533 H   0  0  0  0  0  0  0  0  0  0  0  0  # atno 6907 bound_to 6896
  151.9787  133.3745  159.4107 H   0  0  0  0  0  0  0  0  0  0  0  0  # atno 6908 bound_to 6896
  150.6903  134.3985  159.5152 H   0  0  0  0  0  0  0  0  0  0  0  0  # atno 6909 bound_to 6896
  146.1243  140.5365  142.8721 H   0  0  0  0  0  0  0  0  0  0  0  0  # atno 7974 bound_to 7965
  154.4036  140.1576  156.2710 H   0  0  0  0  0  0  0  0  0  0  0  0  # atno 8008 bound_to 7997
  155.8953  140.3436  155.5964 H   0  0  0  0  0  0  0  0  0  0  0  0  # atno 8009 bound_to 7997
  155.7511  140.0805  157.2191 H   0  0  0  0  0  0  0  0  0  0  0  0  # atno 8010 bound_to 7997
  140.4665  143.2438  151.8270 H   0  0  0  0  0  0  0  0  0  0  0  0  # atno 10167 bound_to 10162
  157.2556  130.7136  149.6428 H   0  0  0  0  0  0  0  0  0  0  0  0  # atno 10718 bound_to 10713
  154.6006  135.5517  153.7370 H   0  0  0  0  0  0  0  0  0  0  0  0  # atno 10763 bound_to 10752
  153.0153  135.6365  154.1720 H   0  0  0  0  0  0  0  0  0  0  0  0  # atno 10764 bound_to 10752
  154.1660  135.2894  155.3075 H   0  0  0  0  0  0  0  0  0  0  0  0  # atno 10765 bound_to 10752
  140.2291  134.3548  155.7971 H   0  0  0  0  0  0  0  0  0  0  0  0  # atno 11005 bound_to 11000
  144.7627  140.5459  143.6724 LP  0  0  0  0  0  0  0  0  0  0  0  0  # atno 17320 bound_to 7965
  145.5399  139.1475  143.3452 LP  0  0  0  0  0  0  0  0  0  0  0  0  # atno 17321 bound_to 7965
  139.4813  144.4944  151.9143 LP  0  0  0  0  0  0  0  0  0  0  0  0  # atno 17342 bound_to 10162
  140.4029  144.2469  150.5892 LP  0  0  0  0  0  0  0  0  0  0  0  0  # atno 17343 bound_to 10162
  155.9665  130.4413  150.5337 LP  0  0  0  0  0  0  0  0  0  0  0  0  # atno 17370 bound_to 10713
  157.3230  131.0685  151.1917 LP  0  0  0  0  0  0  0  0  0  0  0  0  # atno 17371 bound_to 10713
  141.2219  133.7236  156.8702 LP  0  0  0  0  0  0  0  0  0  0  0  0  # atno 17394 bound_to 11000
  140.1769  134.9061  157.2901 LP  0  0  0  0  0  0  0  0  0  0  0  0  # atno 17395 bound_to 11000

$$$$
