AV-unprocessed.smi:36|AV-procd|sdf|292|dock1
  -GOLD-   2262016 83D 1   1.00000     0.00000
 Structure written by MMmdl.
 64 67  0  0  0  0  0  0  0  0  1 V2000
  144.7569  131.7409  151.7218 C   0  0  0  0  0  0  0  0  0  0  0  0
  145.1201  133.0399  150.9837 C   0  0  0  0  0  0  0  0  0  0  0  0
  146.6168  133.0385  150.6319 C   0  0  0  0  0  0  0  0  0  0  0  0
  144.2854  133.1613  149.6980 C   0  0  0  0  0  0  0  0  0  0  0  0
  144.7457  134.5376  152.1091 Si  0  0  0  0  0  0  0  0  0  0  0  0
  145.3919  136.1486  151.3341 C   0  0  0  0  0  0  0  0  0  0  0  0
  142.8843  134.6930  152.4561 C   0  0  0  0  0  0  0  0  0  0  0  0
  145.5358  134.2933  153.5849 O   0  0  0  0  0  0  0  0  0  0  0  0
  145.6618  135.2926  154.5747 C   0  0  0  0  0  0  0  0  0  0  0  0
  145.3362  134.6870  155.9458 C   0  0  1  0  0  0  0  0  0  0  0  0
  146.5324  134.3820  156.6711 O   0  0  0  0  0  0  0  0  0  0  0  0
  146.4503  134.8452  157.9887 C   0  0  1  0  0  0  0  0  0  0  0  0
  147.2813  136.0895  158.1070 N   0  0  0  0  0  0  0  0  0  0  0  0
  147.4986  136.8429  159.2035 C   0  0  0  0  0  0  0  0  0  0  0  0
  148.2656  137.9140  159.0208 N   0  0  0  0  0  0  0  0  0  0  0  0
  148.5527  137.8526  157.6622 C   0  0  0  0  0  0  0  0  0  0  0  0
  149.3519  138.7612  156.8124 C   0  0  0  0  0  0  0  0  0  0  0  0
  149.9065  139.7867  157.3840 N   0  0  0  0  0  0  0  0  0  0  0  0
  150.6643  140.6778  156.6355 C   0  0  0  0  0  0  0  0  0  0  0  0
  150.9521  140.6315  155.4363 O   0  0  0  0  0  0  0  0  0  0  0  0
  151.2141  141.8071  157.4446 C   0  0  0  0  0  0  0  0  0  0  0  0
  151.7350  141.5671  158.7339 C   0  0  0  0  0  0  0  0  0  0  0  0
  152.2615  142.6311  159.4922 C   0  0  0  0  0  0  0  0  0  0  0  0
  152.2701  143.9365  158.9637 C   0  0  0  0  0  0  0  0  0  0  0  0
  151.7532  144.1784  157.6760 C   0  0  0  0  0  0  0  0  0  0  0  0
  151.2266  143.1154  156.9164 C   0  0  0  0  0  0  0  0  0  0  0  0
  149.3425  138.3049  155.4879 N   0  0  0  0  0  0  0  0  0  0  0  0
  148.6792  137.1614  155.0163 C   0  0  0  0  0  0  0  0  0  0  0  0
  147.9697  136.3510  155.7557 N   0  0  0  0  0  0  0  0  0  0  0  0
  147.9507  136.7561  157.0834 C   0  0  0  0  0  0  0  0  0  0  0  0
  144.9747  135.1641  158.2305 C   0  0  0  0  0  0  0  0  0  0  0  0
  144.5404  135.6276  156.8566 C   0  0  2  0  0  0  0  0  0  0  0  0
  143.1448  135.4856  156.6931 O   0  0  0  0  0  0  0  0  0  0  0  0
  144.9621  130.8650  151.1049 H   0  0  0  0  0  0  0  0  0  0  0  0
  143.6994  131.7156  151.9851 H   0  0  0  0  0  0  0  0  0  0  0  0
  145.3292  131.6340  152.6436 H   0  0  0  0  0  0  0  0  0  0  0  0
  147.2350  132.9483  151.5252 H   0  0  0  0  0  0  0  0  0  0  0  0
  146.9051  133.9592  150.1238 H   0  0  0  0  0  0  0  0  0  0  0  0
  146.8688  132.2064  149.9738 H   0  0  0  0  0  0  0  0  0  0  0  0
  144.4860  132.3349  149.0151 H   0  0  0  0  0  0  0  0  0  0  0  0
  144.5073  134.0883  149.1684 H   0  0  0  0  0  0  0  0  0  0  0  0
  143.2171  133.1554  149.9156 H   0  0  0  0  0  0  0  0  0  0  0  0
  144.9687  136.3151  150.3439 H   0  0  0  0  0  0  0  0  0  0  0  0
  146.4763  136.1347  151.2266 H   0  0  0  0  0  0  0  0  0  0  0  0
  145.1365  137.0164  151.9414 H   0  0  0  0  0  0  0  0  0  0  0  0
  142.3168  134.8485  151.5391 H   0  0  0  0  0  0  0  0  0  0  0  0
  142.6713  135.5336  153.1160 H   0  0  0  0  0  0  0  0  0  0  0  0
  142.4894  133.7978  152.9363 H   0  0  0  0  0  0  0  0  0  0  0  0
  146.6589  135.7311  154.5637 H   0  0  0  0  0  0  0  0  0  0  0  0
  144.9594  136.0933  154.3420 H   0  0  0  0  0  0  0  0  0  0  0  0
  144.7893  133.7507  155.8199 H   0  0  0  0  0  0  0  0  0  0  0  0
  146.8903  134.1512  158.7057 H   0  0  0  0  0  0  0  0  0  0  0  0
  147.0771  136.6090  160.1682 H   0  0  0  0  0  0  0  0  0  0  0  0
  151.7344  140.5679  159.1451 H   0  0  0  0  0  0  0  0  0  0  0  0
  152.6601  142.4454  160.4786 H   0  0  0  0  0  0  0  0  0  0  0  0
  152.6751  144.7517  159.5450 H   0  0  0  0  0  0  0  0  0  0  0  0
  151.7618  145.1794  157.2703 H   0  0  0  0  0  0  0  0  0  0  0  0
  150.8333  143.3083  155.9286 H   0  0  0  0  0  0  0  0  0  0  0  0
  148.8008  136.9881  153.9462 H   0  0  0  0  0  0  0  0  0  0  0  0
  144.4680  134.2404  158.5144 H   0  0  0  0  0  0  0  0  0  0  0  0
  144.8232  135.9046  159.0156 H   0  0  0  0  0  0  0  0  0  0  0  0
  144.8331  136.6671  156.7003 H   0  0  0  0  0  0  0  0  0  0  0  0
  142.8256  134.8855  157.3497 H   0  0  0  0  0  0  0  0  0  0  0  0
  149.8575  138.8505  154.8119 H   0  0  0  0  0  0  0  0  0  0  0  0
  1  2  1  0  0  0  0
  1 34  1  0  0  0  0
  1 35  1  0  0  0  0
  1 36  1  0  0  0  0
  2  3  1  0  0  0  0
  2  4  1  0  0  0  0
  2  5  1  0  0  0  0
  3 37  1  0  0  0  0
  3 38  1  0  0  0  0
  3 39  1  0  0  0  0
  4 40  1  0  0  0  0
  4 41  1  0  0  0  0
  4 42  1  0  0  0  0
  5  6  1  0  0  0  0
  5  7  1  0  0  0  0
  5  8  1  0  0  0  0
  6 43  1  0  0  0  0
  6 44  1  0  0  0  0
  6 45  1  0  0  0  0
  7 46  1  0  0  0  0
  7 47  1  0  0  0  0
  7 48  1  0  0  0  0
  8  9  1  0  0  0  0
  9 10  1  0  0  0  0
  9 49  1  0  0  0  0
  9 50  1  0  0  0  0
 10 32  1  0  0  0  0
 10 11  1  0  0  0  0
 10 51  1  0  0  0  0
 11 12  1  0  0  0  0
 12 13  1  0  0  0  0
 12 31  1  0  0  0  0
 12 52  1  0  0  0  0
 13 30  1  0  0  0  0
 13 14  1  0  0  0  0
 14 15  2  0  0  0  0
 14 53  1  0  0  0  0
 15 16  1  0  0  0  0
 16 30  2  0  0  0  0
 16 17  1  0  0  0  0
 17 18  2  0  0  0  0
 17 27  1  0  0  0  0
 18 19  1  0  0  0  0
 19 20  2  0  0  0  0
 19 21  1  0  0  0  0
 21 26  1  0  0  0  0
 21 22  2  0  0  0  0
 22 23  1  0  0  0  0
 22 54  1  0  0  0  0
 23 24  2  0  0  0  0
 23 55  1  0  0  0  0
 24 25  1  0  0  0  0
 24 56  1  0  0  0  0
 25 26  2  0  0  0  0
 25 57  1  0  0  0  0
 26 58  1  0  0  0  0
 27 28  1  0  0  0  0
 27 64  1  0  0  0  0
 28 29  2  0  0  0  0
 28 59  1  0  0  0  0
 29 30  1  0  0  0  0
 31 32  1  0  0  0  0
 31 60  1  0  0  0  0
 31 61  1  0  0  0  0
 32 33  1  0  0  0  0
 32 62  1  0  0  0  0
 33 63  1  0  0  0  0
M  END
> <s_m_source_file>
AV-unprocessed.smi

> <i_m_source_file_index>
36

> <i_lp_mmshare_version>
43012

> <i_f3d_flags>
0

> <s_epik_input>
W0NIM11DKFtDSDNdKShbQ0gzXSlbU2ldKFtDSDNdKShbQ0gzXSlPW0NIMl1bQ0BASF0xT1tDQEhdKFtDSDJdW0NASF0xW09IXSluKFtjSF1uMiljKGMyMyluW2NIXW5jM1tOSF1DKD1PKWM0W2NIXVtjSF1bY0hdW2NIXVtjSF00

> <s_epik_cmdline>
J2VwaWtfcHl0aG9uJywgJy1waCcsICc3LjAnLCAnLXRuJywgJzgnLCAnLW1hJywgJzIwMCcsICctbWV0YWxfYmluZGluZycsICctaW1hZScsICc8aW5maWxlLm1hZT4nLCAnLW9tYWUnLCAnPG91dGZpbGUubWFlPic=

> <r_epik_Ionization_Penalty>
0.0850405

> <r_epik_Ionization_Penalty_Charging>
0.0850403

> <r_epik_Ionization_Penalty_Neutral>
1.47497e-07

> <r_epik_State_Penalty>
2.6133

> <r_epik_Charging_Adjusted_Penalty>
2.69834

> <i_epik_Tot_Q>
0

> <i_epik_Tot_abs_Q>
0

> <r_epik_Metal_State_Penalty>
2.92945

> <b_epik_Metal_Only>
0

> <s_epik_Chemistry_Notes>
This compound contains an acetal/aminal-like group ( X-CH(R)-Y where X, Y are N, S, or O) that may be acid/base labile, releasing an aldehyde.

> <s_lp_Force_Field>
OPLS_2005

> <r_lp_Energy>
45.4031

> <b_lp_Chiralities_Consistent>
1

> <s_lp_Variant>
AV-unprocessed.smi:36-14

> <Gold.Version>
5.8.1

> <Gold.Id.Protein>
6NUR|6NUR_protein|mol2

> <Gold.PLP.Fitness>
45.1425

> <Gold.PLP.PLP>
-42.5018

> <Gold.PLP.part.hbond>
-2.4362

> <Gold.PLP.part.metal>
0.0000

> <Gold.PLP.part.buried>
-6.5464

> <Gold.PLP.part.nonpolar>
-33.9942

> <Gold.PLP.part.repulsive>
0.1797

> <Gold.PLP.ligand.clash>
0.0000

> <Gold.PLP.ligand.torsion>
1.7833

> <Gold.PLP.Chemscore.Hbond>
0.9199

> <Gold.PLP.Chemscore.CHOScore>
1.0000

> <Gold.PLP.Chemscore.Metal>
0.0000

> <Gold.Chemscore.Hbonds>
donor molecule, donor type, donor heavy atom, donor atom, acceptor molecule, acceptor atom, score
      P1  H  7989  7998       L1    20  0.82
      L1  C    28    59       P1  7948  1.00

> <Gold.PLP.Chemscore.Internal.Correction>
0.4476

> <Gold.Rescore>
     Score         DG    S(hbond)    S(metal)    S(lipo)     H(rot)  DE(clash)    DE(int)     intcor
      9.70     -14.57       0.93        0.00     110.33       2.70       0.29       4.58       ----

> <Gold.Chemscore.Fitness>
9.6951

> <Gold.Chemscore.DG>
-14.5654

> <Gold.Chemscore.ZeroCoef>
-5.4800

> <Gold.Chemscore.Hbond>
0.9279

> <Gold.Chemscore.Metal>
0.0000

> <Gold.Chemscore.Lipo>
110.3308

> <Gold.Chemscore.Internal_Hbond>
0.0000

> <Gold.Chemscore.DEClash>
0.2917

> <Gold.Chemscore.DEInternal>
4.5786

> <Gold.Chemscore.Rot>
2.7041

> <Gold.Chemscore.Internal.Correction>
   9.000000E+99

> <Gold.Chemscore.Hbonds>
donor molecule, donor type, donor heavy atom, donor atom, acceptor molecule, acceptor atom, score
      P1  H  7989  7998       L1    20  0.77

> <Gold.Chemscore.Hbond.Weighted>
-3.0991

> <Gold.Chemscore.Metal.Weighted>
-0.0000

> <Gold.Chemscore.Lipo.Weighted>
-12.9087

> <Gold.Chemscore.Internal_Hbond.Weighted>
0.0000

> <Gold.Chemscore.DEClash.Weighted>
0.2917

> <Gold.Chemscore.DEInternal.Weighted>
4.5786

> <Gold.Chemscore.Rot.Weighted>
6.9225

> <Gold.Chemscore.Internal.Correction.Weighted>
   9.000000E+99

> <Gold.Protein.RotatedTorsions>
[ 6907 6896 6895 6894 ] final  126.34 input  -60.11 | X-H torsion
[ 7974 7965 7964 7962 ] final -126.94 input  175.53 | X-H torsion
[ 8008 7997 7996 7995 ] final  114.22 input   59.86 | X-H torsion
[ 10167 10162 10161 10158 ] final   47.16 input  -65.29 | X-H torsion
[ 10718 10713 10712 10709 ] final    5.33 input   66.30 | X-H torsion
[ 10763 10752 10751 10750 ] final  -97.68 input  -60.55 | X-H torsion
[ 11005 11000 10999 10996 ] final   23.24 input  -57.11 | X-H torsion

> <Gold.Protein.ActiveResidues>
 VAL166  LYS551  ARG553  GLY616  TRP617  ASP618  TYR619  PRO620  LYS621  CYS622 
 ASP623  PHE694  ASN695  SER759  ASP760  ASP761  ALA762  ILE779  LEU786  VAL792 
 PHE793  MET794  SER795  GLU796  ALA797  LYS798  CYS799  TRP800  GLU811  SER814 

> <Gold.Protein.RotatedAtoms>
  152.3912  133.6681  159.6238 H   0  0  0  0  0  0  0  0  0  0  0  0  # atno 6907 bound_to 6896
  150.7820  133.8951  159.3333 H   0  0  0  0  0  0  0  0  0  0  0  0  # atno 6908 bound_to 6896
  151.6738  135.0973  160.0254 H   0  0  0  0  0  0  0  0  0  0  0  0  # atno 6909 bound_to 6896
  144.9822  140.7651  143.4605 H   0  0  0  0  0  0  0  0  0  0  0  0  # atno 7974 bound_to 7965
  156.2307  140.2963  156.0181 H   0  0  0  0  0  0  0  0  0  0  0  0  # atno 8008 bound_to 7997
  155.2232  140.0416  157.2968 H   0  0  0  0  0  0  0  0  0  0  0  0  # atno 8009 bound_to 7997
  154.5991  140.2422  155.7824 H   0  0  0  0  0  0  0  0  0  0  0  0  # atno 8010 bound_to 7997
  140.3065  144.2871  150.6208 H   0  0  0  0  0  0  0  0  0  0  0  0  # atno 10167 bound_to 10162
  156.9058  130.5738  149.5647 H   0  0  0  0  0  0  0  0  0  0  0  0  # atno 10718 bound_to 10713
  154.7349  135.5037  153.9025 H   0  0  0  0  0  0  0  0  0  0  0  0  # atno 10763 bound_to 10752
  153.0985  135.6679  153.9725 H   0  0  0  0  0  0  0  0  0  0  0  0  # atno 10764 bound_to 10752
  153.9517  135.3057  155.3417 H   0  0  0  0  0  0  0  0  0  0  0  0  # atno 10765 bound_to 10752
  140.3718  134.2014  155.7666 H   0  0  0  0  0  0  0  0  0  0  0  0  # atno 11005 bound_to 11000
  145.2405  139.2074  143.4995 LP  0  0  0  0  0  0  0  0  0  0  0  0  # atno 17320 bound_to 7965
  146.3411  140.2300  142.8593 LP  0  0  0  0  0  0  0  0  0  0  0  0  # atno 17321 bound_to 7965
  140.5605  143.2193  151.7773 LP  0  0  0  0  0  0  0  0  0  0  0  0  # atno 17342 bound_to 10162
  139.4903  144.4354  151.9825 LP  0  0  0  0  0  0  0  0  0  0  0  0  # atno 17343 bound_to 10162
  156.0560  130.5621  150.9091 LP  0  0  0  0  0  0  0  0  0  0  0  0  # atno 17370 bound_to 10713
  157.5998  131.0941  150.8980 LP  0  0  0  0  0  0  0  0  0  0  0  0  # atno 17371 bound_to 10713
  141.1952  133.8111  157.0725 LP  0  0  0  0  0  0  0  0  0  0  0  0  # atno 17394 bound_to 11000
  140.0546  134.9787  157.1197 LP  0  0  0  0  0  0  0  0  0  0  0  0  # atno 17395 bound_to 11000

$$$$
