#       Name:                AV-unprocessed.smi:2017
#       Creating user name   scv26
#       Creation time:       Fri Mar 27 10:41:22 2020


#       File generated by GOLD software.
#

@<TRIPOS>MOLECULE
AV-unprocessed.smi:2017
    53    54     1
SMALL
NO_CHARGES


@<TRIPOS>ATOM
      1 ****        -1.0542   2.0641  -1.9734 O.2            1 S1                 0.0000
      2 ****        -1.0350   2.5508  -0.8417 C.2            1 S1                 0.0000
      3 ****        -1.3466   4.0371  -0.6119 C.3            1 S1                 0.0000
      4 ****        -1.8002   4.7334  -1.8252 N.am           1 S1                 0.0000
      5 ****        -0.8955   5.4433  -2.6020 C.2            1 S1                 0.0000
      6 ****        -1.2389   6.0975  -3.7368 C.2            1 S1                 0.0000
      7 ****        -2.6195   6.0834  -4.2082 C.2            1 S1                 0.0000
      8 ****        -3.0285   6.6452  -5.2218 O.2            1 S1                 0.0000
      9 ****        -3.4990   5.3567  -3.4013 N.am           1 S1                 0.0000
     10 ****        -3.1513   4.6788  -2.2318 C.2            1 S1                 0.0000
     11 ****        -4.0063   4.0622  -1.5972 O.2            1 S1                 0.0000
     12 ****        -0.7334   1.8401   0.2556 N.am           1 S1                 0.0000
     13 ****        -0.3977   0.4213   0.2704 C.3            1 S1                 0.0000
     14 ****         1.0602   0.1761  -0.1562 C.3            1 S1                 0.0000
     15 ****         1.4413  -1.3085  -0.1258 C.3            1 S1                 0.0000
     16 ****         1.4356  -1.7624   1.2201 O.3            1 S1                 0.0000
     17 ****         1.6959  -3.1511   1.3724 C.3            1 S1                 0.0000
     18 ****         0.4052  -3.9700   1.1609 C.3            1 S1                 0.0000
     19 ****         0.6348  -5.4620   1.4524 C.3            1 S1                 0.0000
     20 ****         1.1966  -5.6754   2.8671 C.3            1 S1                 0.0000
     21 ****         2.4800  -4.8583   3.0844 C.3            1 S1                 0.0000
     22 ****         2.2449  -3.3672   2.7937 C.3            1 S1                 0.0000
     23 ****        -4.4657   5.3162  -3.6899 H              1 S1                 0.0000
     24 ****        -2.0914   4.1296   0.1811 H              1 S1                 0.0000
     25 ****        -0.4493   4.5182  -0.2195 H              1 S1                 0.0000
     26 ****         0.1396   5.4771  -2.2931 H              1 S1                 0.0000
     27 ****        -0.4879   6.6332  -4.2994 H              1 S1                 0.0000
     28 ****        -0.7387   2.3165   1.1459 H              1 S1                 0.0000
     29 ****        -0.5571   0.0503   1.2831 H              1 S1                 0.0000
     30 ****        -1.0837  -0.1318  -0.3733 H              1 S1                 0.0000
     31 ****         1.2113   0.5547  -1.1677 H              1 S1                 0.0000
     32 ****         1.7377   0.7394   0.4866 H              1 S1                 0.0000
     33 ****         0.7480  -1.8814  -0.7418 H              1 S1                 0.0000
     34 ****         2.4380  -1.4411  -0.5487 H              1 S1                 0.0000
     35 ****         2.4585  -3.4700   0.6593 H              1 S1                 0.0000
     36 ****        -0.3801  -3.5890   1.8152 H              1 S1                 0.0000
     37 ****         0.0377  -3.8557   0.1415 H              1 S1                 0.0000
     38 ****        -0.3003  -6.0108   1.3376 H              1 S1                 0.0000
     39 ****         1.3276  -5.8743   0.7179 H              1 S1                 0.0000
     40 ****         0.4484  -5.3827   3.6047 H              1 S1                 0.0000
     41 ****         1.3967  -6.7343   3.0325 H              1 S1                 0.0000
     42 ****         2.8334  -4.9864   4.1079 H              1 S1                 0.0000
     43 ****         3.2696  -5.2374   2.4343 H              1 S1                 0.0000
     44 ****         3.1769  -2.8151   2.9194 H              1 S1                 0.0000
     45 ****         1.5444  -2.9607   3.5244 H              1 S1                 0.0000
     46 ****        -1.2754   2.6390  -2.7613 LP             1 S1                 0.0000
     47 ****        -0.8487   1.0942  -2.1042 LP             1 S1                 0.0000
     48 ****        -2.3951   7.1637  -5.7962 LP             1 S1                 0.0000
     49 ****        -3.9947   6.5838  -5.4722 LP             1 S1                 0.0000
     50 ****        -3.7542   3.5759  -0.7606 LP             1 S1                 0.0000
     51 ****        -4.9533   4.0474  -1.9181 LP             1 S1                 0.0000
     52 ****         0.5363  -1.5679   1.6119 LP             1 S1                 0.0000
     53 ****         2.1353  -1.2559   1.7239 LP             1 S1                 0.0000
@<TRIPOS>BOND
    1    1    2 2     
    2    2    3 1     
    3    2   12 am    
    4    3    4 1     
    5    3   24 1     
    6    3   25 1     
    7    4   10 1     
    8    4    5 1     
    9    5    6 2     
   10    5   26 1     
   11    6    7 1     
   12    6   27 1     
   13    7    8 2     
   14    7    9 1     
   15    9   23 1     
   16    9   10 1     
   17   10   11 2     
   18   12   13 1     
   19   12   28 1     
   20   13   14 1     
   21   13   29 1     
   22   13   30 1     
   23   14   15 1     
   24   14   31 1     
   25   14   32 1     
   26   15   16 1     
   27   15   33 1     
   28   15   34 1     
   29   16   17 1     
   30   17   22 1     
   31   17   18 1     
   32   17   35 1     
   33   18   19 1     
   34   18   36 1     
   35   18   37 1     
   36   19   20 1     
   37   19   38 1     
   38   19   39 1     
   39   20   21 1     
   40   20   40 1     
   41   20   41 1     
   42   21   22 1     
   43   21   42 1     
   44   21   43 1     
   45   22   44 1     
   46   22   45 1     
   47    1   46 1     
   48    1   47 1     
   49    8   48 1     
   50    8   49 1     
   51   11   50 1     
   52   11   51 1     
   53   16   52 1     
   54   16   53 1     
@<TRIPOS>SUBSTRUCTURE
      1 S1             1
@<TRIPOS>SET
LONE_PAIRS      STATIC     ATOMS    <user>   **** ""
8 46 47 48 49 50 51 52 53
DONOR_HYDROGENS      STATIC     ATOMS    <user>   **** ""
2 23 28
ATOM$BLUE        STATIC     ATOMS    COLORGROUP SYSTEM
8 46 47 48 49 50 51 52 53
ATOM$RED        STATIC     ATOMS    COLORGROUP SYSTEM
2 23 28
