AV-unprocessed.smi:706|AV-procd|sdf|3452|dock4
  -GOLD-   22720 0433D 1   1.00000     0.00000
 Structure written by MMmdl.
 27 27  0  0  0  0  0  0  0  0  1 V2000
  151.3671  144.8878  159.2715 C   0  0  0  0  0  0  0  0  0  0  0  0
  151.6011  143.6301  158.4318 C   0  0  0  0  0  0  0  0  0  0  0  0
  150.3459  143.1418  157.9817 O   0  0  0  0  0  0  0  0  0  0  0  0
  150.3845  141.8111  157.4866 C   0  0  0  0  0  0  0  0  0  0  0  0
  150.9941  141.7511  156.0737 C   0  0  0  0  0  0  0  0  0  0  0  0
  151.1711  140.3924  155.6063 N   0  0  0  0  0  0  0  0  0  0  0  0
  150.6720  139.9177  154.3905 C   0  0  0  0  0  0  0  0  0  0  0  0
  149.9690  140.7766  153.5644 N   0  0  0  0  0  0  0  0  0  0  0  0
  150.8726  138.6356  153.9923 C   0  0  0  0  0  0  0  0  0  0  0  0
  151.6253  137.6925  154.8122 C   0  0  0  0  0  0  0  0  0  0  0  0
  151.8406  136.5174  154.5240 O   0  0  0  0  0  0  0  0  0  0  0  0
  152.1180  138.2255  156.0033 N   0  0  0  0  0  0  0  0  0  0  0  0
  151.9372  139.5371  156.4371 C   0  0  0  0  0  0  0  0  0  0  0  0
  152.4413  139.8979  157.5014 O   0  0  0  0  0  0  0  0  0  0  0  0
  152.6564  137.6117  156.5972 H   0  0  0  0  0  0  0  0  0  0  0  0
  152.3105  145.2944  159.6364 H   0  0  0  0  0  0  0  0  0  0  0  0
  150.7403  144.6695  160.1363 H   0  0  0  0  0  0  0  0  0  0  0  0
  150.8730  145.6633  158.6855 H   0  0  0  0  0  0  0  0  0  0  0  0
  152.2395  143.8686  157.5799 H   0  0  0  0  0  0  0  0  0  0  0  0
  152.1173  142.8811  159.0320 H   0  0  0  0  0  0  0  0  0  0  0  0
  151.0081  141.2307  158.1674 H   0  0  0  0  0  0  0  0  0  0  0  0
  149.3924  141.3575  157.5162 H   0  0  0  0  0  0  0  0  0  0  0  0
  150.3987  142.2818  155.3296 H   0  0  0  0  0  0  0  0  0  0  0  0
  151.9733  142.2275  156.0470 H   0  0  0  0  0  0  0  0  0  0  0  0
  149.8043  141.7415  153.8140 H   0  0  0  0  0  0  0  0  0  0  0  0
  149.5707  140.4672  152.6891 H   0  0  0  0  0  0  0  0  0  0  0  0
  150.4741  138.2933  153.0472 H   0  0  0  0  0  0  0  0  0  0  0  0
  1  2  1  0  0  0  0
  1 16  1  0  0  0  0
  1 17  1  0  0  0  0
  1 18  1  0  0  0  0
  2  3  1  0  0  0  0
  2 19  1  0  0  0  0
  2 20  1  0  0  0  0
  3  4  1  0  0  0  0
  4  5  1  0  0  0  0
  4 21  1  0  0  0  0
  4 22  1  0  0  0  0
  5  6  1  0  0  0  0
  5 23  1  0  0  0  0
  5 24  1  0  0  0  0
  6 13  1  0  0  0  0
  6  7  1  0  0  0  0
  7  8  1  0  0  0  0
  7  9  2  0  0  0  0
  8 25  1  0  0  0  0
  8 26  1  0  0  0  0
  9 10  1  0  0  0  0
  9 27  1  0  0  0  0
 10 11  2  0  0  0  0
 10 12  1  0  0  0  0
 12 15  1  0  0  0  0
 12 13  1  0  0  0  0
 13 14  2  0  0  0  0
M  END
> <s_m_source_file>
AV-unprocessed.smi

> <i_m_source_file_index>
706

> <i_lp_mmshare_version>
43012

> <i_f3d_flags>
0

> <s_epik_input>
W0NIM11bQ0gyXU9bQ0gyXVtDSDJdbjFjKFtOSDJdKVtjSF1jKD1PKVtuSF1jMT1P

> <s_epik_cmdline>
J2VwaWtfcHl0aG9uJywgJy1waCcsICc3LjAnLCAnLXRuJywgJzgnLCAnLW1hJywgJzIwMCcsICctbWV0YWxfYmluZGluZycsICctaW1hZScsICc8aW5maWxlLm1hZT4nLCAnLW9tYWUnLCAnPG91dGZpbGUubWFlPic=

> <r_lp_tautomer_probability>
1

> <r_epik_Ionization_Penalty>
6.92057e-06

> <r_epik_Ionization_Penalty_Charging>
2.18399e-06

> <r_epik_Ionization_Penalty_Neutral>
4.73657e-06

> <r_epik_State_Penalty>
-0

> <r_epik_Charging_Adjusted_Penalty>
2.18399e-06

> <i_epik_Tot_Q>
0

> <i_epik_Tot_abs_Q>
0

> <r_epik_Metal_State_Penalty>
-0

> <b_epik_Metal_Only>
0

> <s_epik_Chemistry_Notes>
This compound has an imine and may undergo hydrolysis.

> <s_lp_Force_Field>
OPLS_2005

> <r_lp_Energy>
11.2939

> <b_lp_Chiralities_Consistent>
1

> <s_lp_Variant>
AV-unprocessed.smi:706-1

> <Gold.Version>
5.8.1

> <Gold.Id.Protein>
6NUR|6NUR_protein|mol2

> <Gold.PLP.Fitness>
36.6055

> <Gold.PLP.PLP>
-29.6673

> <Gold.PLP.part.hbond>
-3.0000

> <Gold.PLP.part.metal>
0.0000

> <Gold.PLP.part.buried>
-3.1251

> <Gold.PLP.part.nonpolar>
-24.2154

> <Gold.PLP.part.repulsive>
1.7549

> <Gold.PLP.ligand.clash>
0.0000

> <Gold.PLP.ligand.torsion>
0.1648

> <Gold.PLP.Chemscore.Hbond>
2.4212

> <Gold.PLP.Chemscore.CHOScore>
0.0000

> <Gold.PLP.Chemscore.Metal>
0.0000

> <Gold.Chemscore.Hbonds>
donor molecule, donor type, donor heavy atom, donor atom, acceptor molecule, acceptor atom, score
      L1  H     8    26       P1  7957  1.00
      P1  H  7997  8009       L1    14  0.69
      P1  H 10752 10764       L1    11  0.68

> <Gold.PLP.Chemscore.Internal.Correction>
0.0042

> <Gold.Rescore>
     Score         DG    S(hbond)    S(metal)    S(lipo)     H(rot)  DE(clash)    DE(int)     intcor
     10.91     -12.59       2.14        0.00      46.08       2.12       0.13       1.54       ----

> <Gold.Chemscore.Fitness>
10.9123

> <Gold.Chemscore.DG>
-12.5898

> <Gold.Chemscore.ZeroCoef>
-5.4800

> <Gold.Chemscore.Hbond>
2.1433

> <Gold.Chemscore.Metal>
0.0000

> <Gold.Chemscore.Lipo>
46.0775

> <Gold.Chemscore.Internal_Hbond>
0.0000

> <Gold.Chemscore.DEClash>
0.1332

> <Gold.Chemscore.DEInternal>
1.5442

> <Gold.Chemscore.Rot>
2.1250

> <Gold.Chemscore.Internal.Correction>
   9.000000E+99

> <Gold.Chemscore.Hbonds>
donor molecule, donor type, donor heavy atom, donor atom, acceptor molecule, acceptor atom, score
      L1  H     8    26       P1  7957  0.96
      P1  H  7997  8009       L1    14  0.14
      P1  H 10752 10764       L1    11  0.67

> <Gold.Chemscore.Hbond.Weighted>
-7.1586

> <Gold.Chemscore.Metal.Weighted>
-0.0000

> <Gold.Chemscore.Lipo.Weighted>
-5.3911

> <Gold.Chemscore.Internal_Hbond.Weighted>
0.0000

> <Gold.Chemscore.DEClash.Weighted>
0.1332

> <Gold.Chemscore.DEInternal.Weighted>
1.5442

> <Gold.Chemscore.Rot.Weighted>
5.4399

> <Gold.Chemscore.Internal.Correction.Weighted>
   9.000000E+99

> <Gold.Protein.RotatedTorsions>
[ 6907 6896 6895 6894 ] final  114.34 input  -60.11 | X-H torsion
[ 7974 7965 7964 7962 ] final  137.96 input  175.53 | X-H torsion
[ 8008 7997 7996 7995 ] final  168.16 input   59.86 | X-H torsion
[ 10167 10162 10161 10158 ] final -119.66 input  -65.29 | X-H torsion
[ 10718 10713 10712 10709 ] final  -27.83 input   66.30 | X-H torsion
[ 10763 10752 10751 10750 ] final  -71.42 input  -60.55 | X-H torsion
[ 11005 11000 10999 10996 ] final  145.39 input  -57.11 | X-H torsion

> <Gold.Protein.ActiveResidues>
 VAL166  LYS551  ARG553  GLY616  TRP617  ASP618  TYR619  PRO620  LYS621  CYS622 
 ASP623  PHE694  ASN695  SER759  ASP760  ASP761  ALA762  ILE779  LEU786  VAL792 
 PHE793  MET794  SER795  GLU796  ALA797  LYS798  CYS799  TRP800  GLU811  SER814 

> <Gold.Protein.RotatedAtoms>
  152.4808  133.8250  159.7072 H   0  0  0  0  0  0  0  0  0  0  0  0  # atno 6907 bound_to 6896
  150.8857  133.7302  159.2926 H   0  0  0  0  0  0  0  0  0  0  0  0  # atno 6908 bound_to 6896
  151.4792  135.1054  159.9825 H   0  0  0  0  0  0  0  0  0  0  0  0  # atno 6909 bound_to 6896
  144.9418  139.4922  143.5568 H   0  0  0  0  0  0  0  0  0  0  0  0  # atno 7974 bound_to 7965
  156.1571  140.1598  156.8674 H   0  0  0  0  0  0  0  0  0  0  0  0  # atno 8008 bound_to 7997
  154.5125  140.0797  156.8054 H   0  0  0  0  0  0  0  0  0  0  0  0  # atno 8009 bound_to 7997
  155.3781  140.3404  155.4248 H   0  0  0  0  0  0  0  0  0  0  0  0  # atno 8010 bound_to 7997
  140.0442  143.5123  152.2115 H   0  0  0  0  0  0  0  0  0  0  0  0  # atno 10167 bound_to 10162
  156.4330  130.4449  149.7104 H   0  0  0  0  0  0  0  0  0  0  0  0  # atno 10718 bound_to 10713
  154.4315  135.5962  153.6072 H   0  0  0  0  0  0  0  0  0  0  0  0  # atno 10763 bound_to 10752
  152.9799  135.5976  154.3833 H   0  0  0  0  0  0  0  0  0  0  0  0  # atno 10764 bound_to 10752
  154.3671  135.2841  155.2266 H   0  0  0  0  0  0  0  0  0  0  0  0  # atno 10765 bound_to 10752
  140.0708  134.9152  157.1342 H   0  0  0  0  0  0  0  0  0  0  0  0  # atno 11005 bound_to 11000
  146.3288  139.8441  142.8885 LP  0  0  0  0  0  0  0  0  0  0  0  0  # atno 17320 bound_to 7965
  145.2980  141.0186  143.3625 LP  0  0  0  0  0  0  0  0  0  0  0  0  # atno 17321 bound_to 7965
  139.5994  144.7578  151.3207 LP  0  0  0  0  0  0  0  0  0  0  0  0  # atno 17342 bound_to 10162
  140.7246  143.7039  150.7823 LP  0  0  0  0  0  0  0  0  0  0  0  0  # atno 17343 bound_to 10162
  156.3999  130.7669  151.2676 LP  0  0  0  0  0  0  0  0  0  0  0  0  # atno 17370 bound_to 10713
  157.7508  131.0243  150.3870 LP  0  0  0  0  0  0  0  0  0  0  0  0  # atno 17371 bound_to 10713
  140.3629  134.2474  155.7185 LP  0  0  0  0  0  0  0  0  0  0  0  0  # atno 17394 bound_to 11000
  141.2011  133.7971  157.0457 LP  0  0  0  0  0  0  0  0  0  0  0  0  # atno 17395 bound_to 11000

$$$$
