AV-unprocessed.smi:2061|AV-procd|sdf|8375|dock7
  -GOLD-   2272011 53D 1   1.00000     0.00000
 Structure written by MMmdl.
 44 45  0  0  0  0  0  0  0  0  2 V2000
  145.8631  133.8163  162.4364 C   0  0  0  0  0  0  0  0  0  0  0  0
  146.6975  134.6812  161.5549 C   0  0  0  0  0  0  0  0  0  0  0  0
  147.2202  135.9335  161.7106 C   0  0  0  0  0  0  0  0  0  0  0  0
  147.9143  136.1497  160.4888 C   0  0  0  0  0  0  0  0  0  0  0  0
  148.5902  137.2586  160.1507 N   0  5  0  0  0  0  0  0  0  0  0  0
  149.5041  137.2227  159.1535 C   0  0  0  0  0  0  0  0  0  0  0  0
  149.8845  136.2181  158.5482 O   0  0  0  0  0  0  0  0  0  0  0  0
  150.0125  138.4260  158.8487 N   0  0  0  0  0  0  0  0  0  0  0  0
  151.0172  138.7154  157.8266 C   0  0  0  0  0  0  0  0  0  0  0  0
  150.9899  140.1959  157.3501 C   0  0  1  0  0  0  0  0  0  0  0  0
  149.6371  140.4780  156.6475 C   0  0  0  0  0  0  0  0  0  0  0  0
  151.2849  141.1652  158.4329 N   0  0  0  0  0  0  0  0  0  0  0  0
  151.5578  142.5133  157.9225 C   0  0  0  0  0  0  0  0  0  0  0  0
  151.8847  143.5244  159.0380 C   0  0  2  0  0  0  0  0  0  0  0  0
  152.2422  144.9064  158.4807 C   0  0  0  0  0  0  0  0  0  0  0  0
  152.9939  143.0477  159.7891 O   0  0  0  0  0  0  0  0  0  0  0  0
  152.7511  141.7751  160.3748 C   0  0  2  0  0  0  0  0  0  0  0  0
  153.9920  141.3724  161.1788 C   0  0  0  0  0  0  0  0  0  0  0  0
  152.4236  140.7590  159.2638 C   0  0  0  0  0  0  0  0  0  0  0  0
  147.8074  135.1260  159.6582 N   0  0  0  0  0  0  0  0  0  0  0  0
  147.0334  134.1773  160.3369 O   0  0  0  0  0  0  0  0  0  0  0  0
  144.8497  134.2103  162.5142 H   0  0  0  0  0  0  0  0  0  0  0  0
  146.2854  133.7676  163.4401 H   0  0  0  0  0  0  0  0  0  0  0  0
  145.8022  132.8000  162.0465 H   0  0  0  0  0  0  0  0  0  0  0  0
  147.1259  136.5897  162.5628 H   0  0  0  0  0  0  0  0  0  0  0  0
  149.6679  139.2142  159.3766 H   0  0  0  0  0  0  0  0  0  0  0  0
  152.0214  138.4464  158.1574 H   0  0  0  0  0  0  0  0  0  0  0  0
  150.7721  138.0353  157.0134 H   0  0  0  0  0  0  0  0  0  0  0  0
  151.7667  140.2969  156.5902 H   0  0  0  0  0  0  0  0  0  0  0  0
  149.4140  139.7496  155.8693 H   0  0  0  0  0  0  0  0  0  0  0  0
  149.6238  141.4402  156.1383 H   0  0  0  0  0  0  0  0  0  0  0  0
  148.8119  140.4593  157.3600 H   0  0  0  0  0  0  0  0  0  0  0  0
  152.3830  142.4767  157.2093 H   0  0  0  0  0  0  0  0  0  0  0  0
  150.6935  142.9010  157.3867 H   0  0  0  0  0  0  0  0  0  0  0  0
  151.0241  143.6277  159.7011 H   0  0  0  0  0  0  0  0  0  0  0  0
  151.4165  145.3222  157.9028 H   0  0  0  0  0  0  0  0  0  0  0  0
  153.1152  144.8551  157.8292 H   0  0  0  0  0  0  0  0  0  0  0  0
  152.4685  145.6050  159.2866 H   0  0  0  0  0  0  0  0  0  0  0  0
  151.9034  141.8547  161.0577 H   0  0  0  0  0  0  0  0  0  0  0  0
  153.8494  140.4056  161.6623 H   0  0  0  0  0  0  0  0  0  0  0  0
  154.2070  142.1050  161.9570 H   0  0  0  0  0  0  0  0  0  0  0  0
  154.8708  141.2995  160.5374 H   0  0  0  0  0  0  0  0  0  0  0  0
  152.2184  139.8112  159.7573 H   0  0  0  0  0  0  0  0  0  0  0  0
  153.3023  140.6071  158.6346 H   0  0  0  0  0  0  0  0  0  0  0  0
  1  2  1  0  0  0  0
  1 22  1  0  0  0  0
  1 23  1  0  0  0  0
  1 24  1  0  0  0  0
  2 21  1  0  0  0  0
  2  3  2  0  0  0  0
  3  4  1  0  0  0  0
  3 25  1  0  0  0  0
  4  5  1  0  0  0  0
  4 20  2  0  0  0  0
  5  6  1  0  0  0  0
  6  7  2  0  0  0  0
  6  8  1  0  0  0  0
  8  9  1  0  0  0  0
  8 26  1  0  0  0  0
  9 10  1  0  0  0  0
  9 27  1  0  0  0  0
  9 28  1  0  0  0  0
 10 11  1  0  0  0  0
 10 12  1  0  0  0  0
 10 29  1  0  0  0  0
 11 30  1  0  0  0  0
 11 31  1  0  0  0  0
 11 32  1  0  0  0  0
 12 19  1  0  0  0  0
 12 13  1  0  0  0  0
 13 14  1  0  0  0  0
 13 33  1  0  0  0  0
 13 34  1  0  0  0  0
 14 15  1  0  0  0  0
 14 16  1  0  0  0  0
 14 35  1  0  0  0  0
 15 36  1  0  0  0  0
 15 37  1  0  0  0  0
 15 38  1  0  0  0  0
 16 17  1  0  0  0  0
 17 18  1  0  0  0  0
 17 19  1  0  0  0  0
 17 39  1  0  0  0  0
 18 40  1  0  0  0  0
 18 41  1  0  0  0  0
 18 42  1  0  0  0  0
 19 43  1  0  0  0  0
 19 44  1  0  0  0  0
 20 21  1  0  0  0  0
M  CHG  1   5  -1
M  END
> <s_m_source_file>
AV-unprocessed.smi

> <i_m_source_file_index>
2061

> <i_lp_mmshare_version>
43012

> <i_f3d_flags>
0

> <s_epik_input>
W0NIM11jMVtjSF1jKG5vMSlbTkhdQyg9TylbTkhdW0NIMl1bQ0BIXShbQ0gzXSlOMltDSDJdW0NAQEhdKFtDSDNdKU9bQ0BASF0oW0NIM10pW0NIMl0y

> <s_epik_cmdline>
J2VwaWtfcHl0aG9uJywgJy1waCcsICc3LjAnLCAnLXRuJywgJzgnLCAnLW1hJywgJzIwMCcsICctbWV0YWxfYmluZGluZycsICctaW1hZScsICc8aW5maWxlLm1hZT4nLCAnLW9tYWUnLCAnPG91dGZpbGUubWFlPic=

> <r_epik_Ionization_Penalty>
6.88367

> <r_epik_Ionization_Penalty_Charging>
6.57198

> <r_epik_Ionization_Penalty_Neutral>
0.311681

> <r_epik_State_Penalty>
6.77619

> <r_epik_Charging_Adjusted_Penalty>
13.3482

> <i_epik_Tot_Q>
-1

> <i_epik_Tot_abs_Q>
1

> <r_epik_Metal_State_Penalty>
2.70524

> <b_epik_Metal_Only>
1

> <s_lp_Force_Field>
OPLS_2005

> <r_lp_Energy>
21.0449

> <b_lp_Chiralities_Consistent>
1

> <s_lp_Variant>
AV-unprocessed.smi:2061-16

> <Gold.Version>
5.8.1

> <Gold.Id.Protein>
6NUR|6NUR_protein|mol2

> <Gold.PLP.Fitness>
46.7041

> <Gold.PLP.PLP>
-40.5478

> <Gold.PLP.part.hbond>
-2.8826

> <Gold.PLP.part.metal>
0.0000

> <Gold.PLP.part.buried>
-6.5852

> <Gold.PLP.part.nonpolar>
-32.0986

> <Gold.PLP.part.repulsive>
0.2177

> <Gold.PLP.ligand.clash>
0.0000

> <Gold.PLP.ligand.torsion>
0.4027

> <Gold.PLP.Chemscore.Hbond>
2.2932

> <Gold.PLP.Chemscore.CHOScore>
0.0000

> <Gold.PLP.Chemscore.Metal>
0.0000

> <Gold.Chemscore.Hbonds>
donor molecule, donor type, donor heavy atom, donor atom, acceptor molecule, acceptor atom, score
      P1  H  6896  6909       L1     7  0.98
      P1  H  6931  6943       L1     5  1.07
      P1  H  6934  6947       L1     5  0.14

> <Gold.PLP.Chemscore.Internal.Correction>
0.0822

> <Gold.Rescore>
     Score         DG    S(hbond)    S(metal)    S(lipo)     H(rot)  DE(clash)    DE(int)     intcor
     16.13     -18.11       1.50        0.00      98.38       1.52       0.00       1.97       ----

> <Gold.Chemscore.Fitness>
16.1315

> <Gold.Chemscore.DG>
-18.1075

> <Gold.Chemscore.ZeroCoef>
-5.4800

> <Gold.Chemscore.Hbond>
1.4986

> <Gold.Chemscore.Metal>
0.0000

> <Gold.Chemscore.Lipo>
98.3831

> <Gold.Chemscore.Internal_Hbond>
0.0000

> <Gold.Chemscore.DEClash>
0.0029

> <Gold.Chemscore.DEInternal>
1.9731

> <Gold.Chemscore.Rot>
1.5190

> <Gold.Chemscore.Internal.Correction>
   9.000000E+99

> <Gold.Chemscore.Hbonds>
donor molecule, donor type, donor heavy atom, donor atom, acceptor molecule, acceptor atom, score
      P1  H  6896  6909       L1     7  0.88
      P1  H  6931  6943       L1     5  0.32
      P1  H  6934  6947       L1     5  0.04

> <Gold.Chemscore.Hbond.Weighted>
-5.0053

> <Gold.Chemscore.Metal.Weighted>
-0.0000

> <Gold.Chemscore.Lipo.Weighted>
-11.5108

> <Gold.Chemscore.Internal_Hbond.Weighted>
0.0000

> <Gold.Chemscore.DEClash.Weighted>
0.0029

> <Gold.Chemscore.DEInternal.Weighted>
1.9731

> <Gold.Chemscore.Rot.Weighted>
3.8886

> <Gold.Chemscore.Internal.Correction.Weighted>
   9.000000E+99

> <Gold.Protein.RotatedTorsions>
[ 6907 6896 6895 6894 ] final   54.97 input  -60.11 | X-H torsion
[ 7974 7965 7964 7962 ] final  -53.81 input  175.53 | X-H torsion
[ 8008 7997 7996 7995 ] final   90.52 input   59.86 | X-H torsion
[ 10167 10162 10161 10158 ] final   11.42 input  -65.29 | X-H torsion
[ 10718 10713 10712 10709 ] final   34.04 input   66.30 | X-H torsion
[ 10763 10752 10751 10750 ] final -141.99 input  -60.55 | X-H torsion
[ 11005 11000 10999 10996 ] final  136.33 input  -57.11 | X-H torsion

> <Gold.Protein.ActiveResidues>
 VAL166  LYS551  ARG553  GLY616  TRP617  ASP618  TYR619  PRO620  LYS621  CYS622 
 ASP623  PHE694  ASN695  SER759  ASP760  ASP761  ALA762  ILE779  LEU786  VAL792 
 PHE793  MET794  SER795  GLU796  ALA797  LYS798  CYS799  TRP800  GLU811  SER814 

> <Gold.Protein.RotatedAtoms>
  152.3492  134.7029  160.0241 H   0  0  0  0  0  0  0  0  0  0  0  0  # atno 6907 bound_to 6896
  151.7388  133.3315  159.3368 H   0  0  0  0  0  0  0  0  0  0  0  0  # atno 6908 bound_to 6896
  150.7529  134.6230  159.6190 H   0  0  0  0  0  0  0  0  0  0  0  0  # atno 6909 bound_to 6896
  145.8926  140.8058  142.9783 H   0  0  0  0  0  0  0  0  0  0  0  0  # atno 7974 bound_to 7965
  156.0130  140.3348  155.6960 H   0  0  0  0  0  0  0  0  0  0  0  0  # atno 8008 bound_to 7997
  155.6131  140.0667  157.2718 H   0  0  0  0  0  0  0  0  0  0  0  0  # atno 8009 bound_to 7997
  154.4288  140.1790  156.1280 H   0  0  0  0  0  0  0  0  0  0  0  0  # atno 8010 bound_to 7997
  140.6133  143.8362  150.7089 H   0  0  0  0  0  0  0  0  0  0  0  0  # atno 10167 bound_to 10162
  157.3054  130.7372  149.6692 H   0  0  0  0  0  0  0  0  0  0  0  0  # atno 10718 bound_to 10713
  154.8525  135.3508  154.5956 H   0  0  0  0  0  0  0  0  0  0  0  0  # atno 10763 bound_to 10752
  153.6566  135.6991  153.5196 H   0  0  0  0  0  0  0  0  0  0  0  0  # atno 10764 bound_to 10752
  153.2851  135.4251  155.1073 H   0  0  0  0  0  0  0  0  0  0  0  0  # atno 10765 bound_to 10752
  140.0039  134.9467  157.0132 H   0  0  0  0  0  0  0  0  0  0  0  0  # atno 11005 bound_to 11000
  144.6731  140.1554  143.7427 LP  0  0  0  0  0  0  0  0  0  0  0  0  # atno 17320 bound_to 7965
  145.8889  139.2364  143.1561 LP  0  0  0  0  0  0  0  0  0  0  0  0  # atno 17321 bound_to 7965
  140.1935  143.4017  152.1845 LP  0  0  0  0  0  0  0  0  0  0  0  0  # atno 17342 bound_to 10162
  139.5378  144.7227  151.4834 LP  0  0  0  0  0  0  0  0  0  0  0  0  # atno 17343 bound_to 10162
  155.9674  130.4267  150.4712 LP  0  0  0  0  0  0  0  0  0  0  0  0  # atno 17370 bound_to 10713
  157.2700  131.0585  151.2266 LP  0  0  0  0  0  0  0  0  0  0  0  0  # atno 17371 bound_to 10713
  140.4677  134.1418  155.7199 LP  0  0  0  0  0  0  0  0  0  0  0  0  # atno 17394 bound_to 11000
  141.1662  133.8698  157.1707 LP  0  0  0  0  0  0  0  0  0  0  0  0  # atno 17395 bound_to 11000

$$$$
