AV-unprocessed.smi:2840|AV-procd|sdf|10934|dock1
  -GOLD-   2272015383D 1   1.00000     0.00000
 Structure written by MMmdl.
 36 37  0  0  0  0  0  0  0  0  1 V2000
  147.8360  132.9218  152.5817 C   0  0  0  0  0  0  0  0  0  0  0  0
  146.8430  133.3107  151.4720 C   0  0  1  0  0  0  0  0  0  0  0  0
  146.0952  132.0628  150.9597 C   0  0  0  0  0  0  0  0  0  0  0  0
  145.0997  132.4082  149.8424 C   0  0  0  0  0  0  0  0  0  0  0  0
  144.0988  133.4736  150.3085 C   0  0  0  0  0  0  0  0  0  0  0  0
  144.8273  134.7308  150.8043 C   0  0  0  0  0  0  0  0  0  0  0  0
  145.8382  134.4036  151.9213 C   0  0  2  0  0  0  0  0  0  0  0  0
  146.5363  135.6333  152.2947 N   0  0  0  0  0  0  0  0  0  0  0  0
  145.9997  136.6807  152.9389 C   0  0  0  0  0  0  0  0  0  0  0  0
  144.8268  136.7261  153.3108 O   0  0  0  0  0  0  0  0  0  0  0  0
  146.9099  137.6541  153.1174 N   0  0  0  0  0  0  0  0  0  0  0  0
  146.7424  138.9063  153.7666 C   0  0  0  0  0  0  0  0  0  0  0  0
  147.3863  139.9962  153.1383 C   0  0  0  0  0  0  0  0  0  0  0  0
  147.2849  141.2813  153.7053 C   0  0  0  0  0  0  0  0  0  0  0  0
  146.5409  141.4440  154.8874 C   0  0  0  0  0  0  0  0  0  0  0  0
  145.9317  140.3068  155.4492 C   0  0  0  0  0  0  0  0  0  0  0  0
  146.0280  139.0742  154.9076 N   0  0  0  0  0  0  0  0  0  0  0  0
  147.3142  132.5561  153.4668 H   0  0  0  0  0  0  0  0  0  0  0  0
  148.4542  133.7664  152.8852 H   0  0  0  0  0  0  0  0  0  0  0  0
  148.5111  132.1345  152.2454 H   0  0  0  0  0  0  0  0  0  0  0  0
  147.4248  133.7090  150.6390 H   0  0  0  0  0  0  0  0  0  0  0  0
  146.8094  131.3250  150.5923 H   0  0  0  0  0  0  0  0  0  0  0  0
  145.5619  131.5890  151.7852 H   0  0  0  0  0  0  0  0  0  0  0  0
  145.6411  132.7702  148.9675 H   0  0  0  0  0  0  0  0  0  0  0  0
  144.5671  131.5103  149.5278 H   0  0  0  0  0  0  0  0  0  0  0  0
  143.4236  133.7323  149.4925 H   0  0  0  0  0  0  0  0  0  0  0  0
  143.4780  133.0694  151.1090 H   0  0  0  0  0  0  0  0  0  0  0  0
  145.3415  135.2019  149.9652 H   0  0  0  0  0  0  0  0  0  0  0  0
  144.0969  135.4569  151.1637 H   0  0  0  0  0  0  0  0  0  0  0  0
  145.2739  134.0197  152.7736 H   0  0  0  0  0  0  0  0  0  0  0  0
  147.5100  135.6908  152.0352 H   0  0  0  0  0  0  0  0  0  0  0  0
  147.8323  137.4773  152.7484 H   0  0  0  0  0  0  0  0  0  0  0  0
  147.9538  139.8533  152.2299 H   0  0  0  0  0  0  0  0  0  0  0  0
  147.7705  142.1265  153.2406 H   0  0  0  0  0  0  0  0  0  0  0  0
  146.4404  142.4139  155.3519 H   0  0  0  0  0  0  0  0  0  0  0  0
  145.3529  140.3881  156.3573 H   0  0  0  0  0  0  0  0  0  0  0  0
  1  2  1  0  0  0  0
  1 18  1  0  0  0  0
  1 19  1  0  0  0  0
  1 20  1  0  0  0  0
  2  7  1  0  0  0  0
  2  3  1  0  0  0  0
  2 21  1  0  0  0  0
  3  4  1  0  0  0  0
  3 22  1  0  0  0  0
  3 23  1  0  0  0  0
  4  5  1  0  0  0  0
  4 24  1  0  0  0  0
  4 25  1  0  0  0  0
  5  6  1  0  0  0  0
  5 26  1  0  0  0  0
  5 27  1  0  0  0  0
  6  7  1  0  0  0  0
  6 28  1  0  0  0  0
  6 29  1  0  0  0  0
  7  8  1  0  0  0  0
  7 30  1  0  0  0  0
  8  9  1  0  0  0  0
  8 31  1  0  0  0  0
  9 10  2  0  0  0  0
  9 11  1  0  0  0  0
 11 12  1  0  0  0  0
 11 32  1  0  0  0  0
 12 17  1  0  0  0  0
 12 13  2  0  0  0  0
 13 14  1  0  0  0  0
 13 33  1  0  0  0  0
 14 15  2  0  0  0  0
 14 34  1  0  0  0  0
 15 16  1  0  0  0  0
 15 35  1  0  0  0  0
 16 17  2  0  0  0  0
 16 36  1  0  0  0  0
M  END
> <s_m_source_file>
AV-unprocessed.smi

> <i_m_source_file_index>
2840

> <i_lp_mmshare_version>
43012

> <i_f3d_flags>
0

> <s_epik_input>
W0NIM11bQ0BASF0xW0NIMl1bQ0gyXVtDSDJdW0NIMl1bQ0BIXTFbTkhdQyg9TylbTkhdYzJbY0hdW2NIXVtjSF1bY0hdbjI=

> <s_epik_cmdline>
J2VwaWtfcHl0aG9uJywgJy1waCcsICc3LjAnLCAnLXRuJywgJzgnLCAnLW1hJywgJzIwMCcsICctbWV0YWxfYmluZGluZycsICctaW1hZScsICc8aW5maWxlLm1hZT4nLCAnLW9tYWUnLCAnPG91dGZpbGUubWFlPic=

> <r_lp_tautomer_probability>
1

> <r_epik_Ionization_Penalty>
5.29956e-05

> <r_epik_Ionization_Penalty_Charging>
0

> <r_epik_Ionization_Penalty_Neutral>
5.29956e-05

> <r_epik_State_Penalty>
-0

> <r_epik_Charging_Adjusted_Penalty>
0

> <i_epik_Tot_Q>
0

> <i_epik_Tot_abs_Q>
0

> <r_epik_Metal_State_Penalty>
-0

> <b_epik_Metal_Only>
0

> <s_lp_Force_Field>
OPLS_2005

> <r_lp_Energy>
13.2298

> <b_lp_Chiralities_Consistent>
1

> <s_lp_Variant>
AV-unprocessed.smi:2840-4

> <Gold.Version>
5.8.1

> <Gold.Id.Protein>
6NUR|6NUR_protein|mol2

> <Gold.PLP.Fitness>
34.4393

> <Gold.PLP.PLP>
-29.4882

> <Gold.PLP.part.hbond>
-2.0000

> <Gold.PLP.part.metal>
0.0000

> <Gold.PLP.part.buried>
-3.0127

> <Gold.PLP.part.nonpolar>
-24.9449

> <Gold.PLP.part.repulsive>
0.2771

> <Gold.PLP.ligand.clash>
0.0000

> <Gold.PLP.ligand.torsion>
0.4185

> <Gold.PLP.Chemscore.Hbond>
1.9280

> <Gold.PLP.Chemscore.CHOScore>
0.0000

> <Gold.PLP.Chemscore.Metal>
0.0000

> <Gold.Chemscore.Hbonds>
donor molecule, donor type, donor heavy atom, donor atom, acceptor molecule, acceptor atom, score
      L1  H     8    31       P1  7948  0.98
      L1  H    11    32       P1  7948  0.93

> <Gold.PLP.Chemscore.Internal.Correction>
0.0041

> <Gold.Rescore>
     Score         DG    S(hbond)    S(metal)    S(lipo)     H(rot)  DE(clash)    DE(int)     intcor
     16.54     -17.95       1.94        0.00      72.95       1.00       0.07       1.33       ----

> <Gold.Chemscore.Fitness>
16.5436

> <Gold.Chemscore.DG>
-17.9461

> <Gold.Chemscore.ZeroCoef>
-5.4800

> <Gold.Chemscore.Hbond>
1.9432

> <Gold.Chemscore.Metal>
0.0000

> <Gold.Chemscore.Lipo>
72.9546

> <Gold.Chemscore.Internal_Hbond>
0.0000

> <Gold.Chemscore.DEClash>
0.0723

> <Gold.Chemscore.DEInternal>
1.3302

> <Gold.Chemscore.Rot>
1.0000

> <Gold.Chemscore.Internal.Correction>
   9.000000E+99

> <Gold.Chemscore.Hbonds>
donor molecule, donor type, donor heavy atom, donor atom, acceptor molecule, acceptor atom, score
      L1  H     8    31       P1  7948  0.92
      L1  H    11    32       P1  7948  0.89

> <Gold.Chemscore.Hbond.Weighted>
-6.4904

> <Gold.Chemscore.Metal.Weighted>
-0.0000

> <Gold.Chemscore.Lipo.Weighted>
-8.5357

> <Gold.Chemscore.Internal_Hbond.Weighted>
0.0000

> <Gold.Chemscore.DEClash.Weighted>
0.0723

> <Gold.Chemscore.DEInternal.Weighted>
1.3302

> <Gold.Chemscore.Rot.Weighted>
2.5600

> <Gold.Chemscore.Internal.Correction.Weighted>
   9.000000E+99

> <Gold.Protein.RotatedTorsions>
[ 6907 6896 6895 6894 ] final  -60.35 input  -60.11 | X-H torsion
[ 7974 7965 7964 7962 ] final    0.54 input  175.53 | X-H torsion
[ 8008 7997 7996 7995 ] final  166.10 input   59.86 | X-H torsion
[ 10167 10162 10161 10158 ] final  112.71 input  -65.29 | X-H torsion
[ 10718 10713 10712 10709 ] final  178.40 input   66.30 | X-H torsion
[ 10763 10752 10751 10750 ] final  -81.88 input  -60.55 | X-H torsion
[ 11005 11000 10999 10996 ] final  -18.97 input  -57.11 | X-H torsion

> <Gold.Protein.ActiveResidues>
 VAL166  LYS551  ARG553  GLY616  TRP617  ASP618  TYR619  PRO620  LYS621  CYS622 
 ASP623  PHE694  ASN695  SER759  ASP760  ASP761  ALA762  ILE779  LEU786  VAL792 
 PHE793  MET794  SER795  GLU796  ALA797  LYS798  CYS799  TRP800  GLU811  SER814 

> <Gold.Protein.RotatedAtoms>
  150.7863  134.6849  159.6464 H   0  0  0  0  0  0  0  0  0  0  0  0  # atno 6907 bound_to 6896
  152.3959  134.6362  160.0098 H   0  0  0  0  0  0  0  0  0  0  0  0  # atno 6908 bound_to 6896
  151.6648  133.3279  159.3219 H   0  0  0  0  0  0  0  0  0  0  0  0  # atno 6909 bound_to 6896
  146.2435  140.1122  142.8343 H   0  0  0  0  0  0  0  0  0  0  0  0  # atno 7974 bound_to 7965
  156.1746  140.1652  156.8386 H   0  0  0  0  0  0  0  0  0  0  0  0  # atno 8008 bound_to 7997
  154.5293  140.0760  156.8349 H   0  0  0  0  0  0  0  0  0  0  0  0  # atno 8009 bound_to 7997
  155.3441  140.3386  155.4241 H   0  0  0  0  0  0  0  0  0  0  0  0  # atno 8010 bound_to 7997
  139.6515  144.7128  151.2039 H   0  0  0  0  0  0  0  0  0  0  0  0  # atno 10167 bound_to 10162
  156.8911  130.9848  151.3049 H   0  0  0  0  0  0  0  0  0  0  0  0  # atno 10718 bound_to 10713
  154.5689  135.5611  153.7076 H   0  0  0  0  0  0  0  0  0  0  0  0  # atno 10763 bound_to 10752
  153.0042  135.6292  154.2141 H   0  0  0  0  0  0  0  0  0  0  0  0  # atno 10764 bound_to 10752
  154.2081  135.2875  155.2948 H   0  0  0  0  0  0  0  0  0  0  0  0  # atno 10765 bound_to 10752
  140.8321  133.7989  155.9770 H   0  0  0  0  0  0  0  0  0  0  0  0  # atno 11005 bound_to 11000
  145.0477  140.8994  143.5014 LP  0  0  0  0  0  0  0  0  0  0  0  0  # atno 17320 bound_to 7965
  145.1214  139.2691  143.5586 LP  0  0  0  0  0  0  0  0  0  0  0  0  # atno 17321 bound_to 7965
  140.7540  143.6142  150.8575 LP  0  0  0  0  0  0  0  0  0  0  0  0  # atno 17342 bound_to 10162
  139.9791  143.5971  152.2949 LP  0  0  0  0  0  0  0  0  0  0  0  0  # atno 17343 bound_to 10162
  157.6083  130.8563  149.8910 LP  0  0  0  0  0  0  0  0  0  0  0  0  # atno 17370 bound_to 10713
  156.0628  130.3697  150.0944 LP  0  0  0  0  0  0  0  0  0  0  0  0  # atno 17371 bound_to 10713
  140.8987  134.2406  157.5054 LP  0  0  0  0  0  0  0  0  0  0  0  0  # atno 17394 bound_to 11000
  139.8704  134.9696  156.4672 LP  0  0  0  0  0  0  0  0  0  0  0  0  # atno 17395 bound_to 11000

$$$$
