AV-unprocessed.smi:2861|AV-procd|sdf|11007|dock6
  -GOLD-   2272015463D 1   1.00000     0.00000
 Structure written by MMmdl.
 33 35  0  0  0  0  0  0  0  0  1 V2000
  146.4937  142.6170  159.8011 O   0  0  0  0  0  0  0  0  0  0  0  0
  147.2175  143.1551  158.9620 C   0  0  0  0  0  0  0  0  0  0  0  0
  147.4346  142.5069  157.5899 C   0  0  0  0  0  0  0  0  0  0  0  0
  148.8637  142.0789  157.4104 C   0  0  0  0  0  0  0  0  0  0  0  0
  149.4568  141.6448  156.2496 C   0  0  0  0  0  0  0  0  0  0  0  0
  151.1353  141.2404  156.4849 S   0  0  0  0  0  0  0  0  0  0  0  0
  150.9726  141.6936  158.1804 C   0  0  0  0  0  0  0  0  0  0  0  0
  152.0441  141.6193  159.1200 N   0  0  0  0  0  0  0  0  0  0  0  0
  152.1619  142.5805  160.2098 C   0  0  0  0  0  0  0  0  0  0  0  0
  153.5284  142.3221  160.8538 C   0  0  0  0  0  0  0  0  0  0  0  0
  153.9744  140.9601  160.3257 C   0  0  0  0  0  0  0  0  0  0  0  0
  153.0282  140.7013  159.1651 C   0  0  0  0  0  0  0  0  0  0  0  0
  153.1914  139.7503  158.4013 O   0  0  0  0  0  0  0  0  0  0  0  0
  149.7407  142.1080  158.4995 N   0  0  0  0  0  0  0  0  0  0  0  0
  147.8612  144.3123  159.1777 N   0  0  0  0  0  0  0  0  0  0  0  0
  147.8040  145.0819  160.3785 C   0  0  0  0  0  0  0  0  0  0  0  0
  146.4827  145.1371  161.1147 C   0  0  0  0  0  0  0  0  0  0  0  0
  146.9711  146.3456  160.3649 C   0  0  0  0  0  0  0  0  0  0  0  0
  146.7703  141.6491  157.4748 H   0  0  0  0  0  0  0  0  0  0  0  0
  147.1449  143.2250  156.8217 H   0  0  0  0  0  0  0  0  0  0  0  0
  149.0065  141.5320  155.2747 H   0  0  0  0  0  0  0  0  0  0  0  0
  152.0848  143.6072  159.8491 H   0  0  0  0  0  0  0  0  0  0  0  0
  151.3575  142.4099  160.9268 H   0  0  0  0  0  0  0  0  0  0  0  0
  154.2398  143.0892  160.5449 H   0  0  0  0  0  0  0  0  0  0  0  0
  153.4741  142.3432  161.9428 H   0  0  0  0  0  0  0  0  0  0  0  0
  155.0149  140.9650  159.9994 H   0  0  0  0  0  0  0  0  0  0  0  0
  153.8460  140.1805  161.0773 H   0  0  0  0  0  0  0  0  0  0  0  0
  148.4390  144.6763  158.4338 H   0  0  0  0  0  0  0  0  0  0  0  0
  148.6970  145.1045  161.0019 H   0  0  0  0  0  0  0  0  0  0  0  0
  145.6402  144.5922  160.6928 H   0  0  0  0  0  0  0  0  0  0  0  0
  146.5161  145.1731  162.2018 H   0  0  0  0  0  0  0  0  0  0  0  0
  147.3310  147.1890  160.9506 H   0  0  0  0  0  0  0  0  0  0  0  0
  146.4553  146.6062  159.4426 H   0  0  0  0  0  0  0  0  0  0  0  0
  1  2  2  0  0  0  0
  2  3  1  0  0  0  0
  2 15  1  0  0  0  0
  3  4  1  0  0  0  0
  3 19  1  0  0  0  0
  3 20  1  0  0  0  0
  4 14  1  0  0  0  0
  4  5  2  0  0  0  0
  5  6  1  0  0  0  0
  5 21  1  0  0  0  0
  6  7  1  0  0  0  0
  7  8  1  0  0  0  0
  7 14  2  0  0  0  0
  8 12  1  0  0  0  0
  8  9  1  0  0  0  0
  9 10  1  0  0  0  0
  9 22  1  0  0  0  0
  9 23  1  0  0  0  0
 10 11  1  0  0  0  0
 10 24  1  0  0  0  0
 10 25  1  0  0  0  0
 11 12  1  0  0  0  0
 11 26  1  0  0  0  0
 11 27  1  0  0  0  0
 12 13  2  0  0  0  0
 15 16  1  0  0  0  0
 15 28  1  0  0  0  0
 16 18  1  0  0  0  0
 16 17  1  0  0  0  0
 16 29  1  0  0  0  0
 17 18  1  0  0  0  0
 17 30  1  0  0  0  0
 17 31  1  0  0  0  0
 18 32  1  0  0  0  0
 18 33  1  0  0  0  0
M  END
> <s_m_source_file>
AV-unprocessed.smi

> <i_m_source_file_index>
2861

> <i_lp_mmshare_version>
43012

> <i_f3d_flags>
0

> <s_epik_input>
W0NIMl0xW0NIMl1bQ0hdMVtOSF1DKD1PKVtDSDJdYzJbY0hdc2MobjIpTjNbQ0gyXVtDSDJdW0NIMl1DMz1P

> <s_epik_cmdline>
J2VwaWtfcHl0aG9uJywgJy1waCcsICc3LjAnLCAnLXRuJywgJzgnLCAnLW1hJywgJzIwMCcsICctbWV0YWxfYmluZGluZycsICctaW1hZScsICc8aW5maWxlLm1hZT4nLCAnLW9tYWUnLCAnPG91dGZpbGUubWFlPic=

> <r_lp_tautomer_probability>
1

> <r_epik_Ionization_Penalty>
2.96745e-05

> <r_epik_Ionization_Penalty_Charging>
0

> <r_epik_Ionization_Penalty_Neutral>
2.96745e-05

> <r_epik_State_Penalty>
-0

> <r_epik_Charging_Adjusted_Penalty>
0

> <i_epik_Tot_Q>
0

> <i_epik_Tot_abs_Q>
0

> <r_epik_Metal_State_Penalty>
-0

> <b_epik_Metal_Only>
0

> <s_lp_Force_Field>
OPLS_2005

> <r_lp_Energy>
30.3521

> <b_lp_Chiralities_Consistent>
1

> <s_lp_Variant>
AV-unprocessed.smi:2861-1

> <Gold.Version>
5.8.1

> <Gold.Id.Protein>
6NUR|6NUR_protein|mol2

> <Gold.PLP.Fitness>
42.2301

> <Gold.PLP.PLP>
-36.0871

> <Gold.PLP.part.hbond>
-3.5401

> <Gold.PLP.part.metal>
0.0000

> <Gold.PLP.part.buried>
-5.2037

> <Gold.PLP.part.nonpolar>
-26.8695

> <Gold.PLP.part.repulsive>
0.2005

> <Gold.PLP.ligand.clash>
0.0000

> <Gold.PLP.ligand.torsion>
0.8614

> <Gold.PLP.Chemscore.Hbond>
2.6080

> <Gold.PLP.Chemscore.CHOScore>
0.0000

> <Gold.PLP.Chemscore.Metal>
0.0000

> <Gold.Chemscore.Hbonds>
donor molecule, donor type, donor heavy atom, donor atom, acceptor molecule, acceptor atom, score
      L1  H    15    28       P1  8029  0.48
      P1  H  6934  6946       L1     1  1.00
      P1  H  7997  8009       L1    13  1.00

> <Gold.PLP.Chemscore.Internal.Correction>
0.0417

> <Gold.Rescore>
     Score         DG    S(hbond)    S(metal)    S(lipo)     H(rot)  DE(clash)    DE(int)     intcor
     17.66     -18.35       2.69        0.00      65.84       1.49       0.00       0.69       ----

> <Gold.Chemscore.Fitness>
17.6565

> <Gold.Chemscore.DG>
-18.3454

> <Gold.Chemscore.ZeroCoef>
-5.4800

> <Gold.Chemscore.Hbond>
2.6890

> <Gold.Chemscore.Metal>
0.0000

> <Gold.Chemscore.Lipo>
65.8424

> <Gold.Chemscore.Internal_Hbond>
0.0000

> <Gold.Chemscore.DEClash>
0.0004

> <Gold.Chemscore.DEInternal>
0.6885

> <Gold.Chemscore.Rot>
1.4920

> <Gold.Chemscore.Internal.Correction>
   9.000000E+99

> <Gold.Chemscore.Hbonds>
donor molecule, donor type, donor heavy atom, donor atom, acceptor molecule, acceptor atom, score
      L1  H    15    28       P1  8029  0.41
      P1  H  6934  6946       L1     1  0.93
      P1  H  7997  8009       L1    13  0.87

> <Gold.Chemscore.Hbond.Weighted>
-8.9813

> <Gold.Chemscore.Metal.Weighted>
-0.0000

> <Gold.Chemscore.Lipo.Weighted>
-7.7036

> <Gold.Chemscore.Internal_Hbond.Weighted>
0.0000

> <Gold.Chemscore.DEClash.Weighted>
0.0004

> <Gold.Chemscore.DEInternal.Weighted>
0.6885

> <Gold.Chemscore.Rot.Weighted>
3.8194

> <Gold.Chemscore.Internal.Correction.Weighted>
   9.000000E+99

> <Gold.Protein.RotatedTorsions>
[ 6907 6896 6895 6894 ] final   53.28 input  -60.11 | X-H torsion
[ 7974 7965 7964 7962 ] final  -33.37 input  175.53 | X-H torsion
[ 8008 7997 7996 7995 ] final  161.67 input   59.86 | X-H torsion
[ 10167 10162 10161 10158 ] final  143.37 input  -65.29 | X-H torsion
[ 10718 10713 10712 10709 ] final -124.92 input   66.30 | X-H torsion
[ 10763 10752 10751 10750 ] final  125.75 input  -60.55 | X-H torsion
[ 11005 11000 10999 10996 ] final -127.73 input  -57.11 | X-H torsion

> <Gold.Protein.ActiveResidues>
 VAL166  LYS551  ARG553  GLY616  TRP617  ASP618  TYR619  PRO620  LYS621  CYS622 
 ASP623  PHE694  ASN695  SER759  ASP760  ASP761  ALA762  ILE779  LEU786  VAL792 
 PHE793  MET794  SER795  GLU796  ALA797  LYS798  CYS799  TRP800  GLU811  SER814 

> <Gold.Protein.RotatedAtoms>
  152.3321  134.7246  160.0286 H   0  0  0  0  0  0  0  0  0  0  0  0  # atno 6907 bound_to 6896
  151.7659  133.3332  159.3439 H   0  0  0  0  0  0  0  0  0  0  0  0  # atno 6908 bound_to 6896
  150.7429  134.5995  159.6074 H   0  0  0  0  0  0  0  0  0  0  0  0  # atno 6909 bound_to 6896
  146.0916  140.5908  142.8862 H   0  0  0  0  0  0  0  0  0  0  0  0  # atno 7974 bound_to 7965
  156.2086  140.1771  156.7744 H   0  0  0  0  0  0  0  0  0  0  0  0  # atno 8008 bound_to 7997
  154.5690  140.0686  156.8966 H   0  0  0  0  0  0  0  0  0  0  0  0  # atno 8009 bound_to 7997
  155.2707  140.3342  155.4268 H   0  0  0  0  0  0  0  0  0  0  0  0  # atno 8010 bound_to 7997
  139.4971  144.6045  151.6409 H   0  0  0  0  0  0  0  0  0  0  0  0  # atno 10167 bound_to 10162
  156.1630  130.6615  151.0076 H   0  0  0  0  0  0  0  0  0  0  0  0  # atno 10718 bound_to 10713
  153.6822  135.3312  155.3181 H   0  0  0  0  0  0  0  0  0  0  0  0  # atno 10763 bound_to 10752
  154.8463  135.4412  154.1594 H   0  0  0  0  0  0  0  0  0  0  0  0  # atno 10764 bound_to 10752
  153.2614  135.6991  153.7652 H   0  0  0  0  0  0  0  0  0  0  0  0  # atno 10765 bound_to 10752
  140.9575  134.0981  157.4001 H   0  0  0  0  0  0  0  0  0  0  0  0  # atno 11005 bound_to 11000
  144.7364  140.4821  143.6900 LP  0  0  0  0  0  0  0  0  0  0  0  0  # atno 17320 bound_to 7965
  145.6028  139.1505  143.3119 LP  0  0  0  0  0  0  0  0  0  0  0  0  # atno 17321 bound_to 7965
  140.5703  144.0120  150.6213 LP  0  0  0  0  0  0  0  0  0  0  0  0  # atno 17342 bound_to 10162
  140.3235  143.3122  152.0760 LP  0  0  0  0  0  0  0  0  0  0  0  0  # atno 17343 bound_to 10162
  157.6747  131.0853  150.7525 LP  0  0  0  0  0  0  0  0  0  0  0  0  # atno 17370 bound_to 10713
  156.7587  130.4791  149.5441 LP  0  0  0  0  0  0  0  0  0  0  0  0  # atno 17371 bound_to 10713
  139.8867  135.0084  156.6515 LP  0  0  0  0  0  0  0  0  0  0  0  0  # atno 17394 bound_to 11000
  140.7514  133.8894  155.8350 LP  0  0  0  0  0  0  0  0  0  0  0  0  # atno 17395 bound_to 11000

$$$$
