AV-unprocessed.smi:473|AV-procd|sdf|2664|dock6
  -GOLD-   2262023 73D 1   1.00000     0.00000
 Structure written by MMmdl.
 43 45  0  0  0  0  0  0  0  0  2 V2000
  152.1461  144.7764  160.7826 C   0  0  0  0  0  0  0  0  0  0  0  0
  151.9700  143.5636  159.8847 C   0  0  0  0  0  0  0  0  0  0  0  0
  151.1784  143.6947  158.7211 C   0  0  0  0  0  0  0  0  0  0  0  0
  151.0389  142.5686  157.9184 C   0  0  0  0  0  0  0  0  0  0  0  0
  150.3411  142.3763  156.7237 N   0  3  0  0  0  0  0  0  0  0  0  0
  150.5006  141.0897  156.3058 C   0  0  0  0  0  0  0  0  0  0  0  0
  151.2900  140.4581  157.2161 N   0  0  0  0  0  0  0  0  0  0  0  0
  151.7622  139.0669  157.2508 C   0  0  0  0  0  0  0  0  0  0  0  0
  150.6337  138.0528  157.5342 C   0  0  1  0  0  0  0  0  0  0  0  0
  150.6591  136.9610  156.6361 O   0  0  0  0  0  0  0  0  0  0  0  0
  150.6455  137.5126  158.9735 C   0  0  0  0  0  0  0  0  0  0  0  0
  149.6619  136.5000  159.1072 O   0  0  0  0  0  0  0  0  0  0  0  0
  148.3669  137.0090  159.3799 C   0  0  0  0  0  0  0  0  0  0  0  0
  147.8402  136.2936  160.5841 C   0  0  0  0  0  0  0  0  0  0  0  0
  147.6190  134.9716  160.8567 C   0  0  0  0  0  0  0  0  0  0  0  0
  147.1124  134.9118  162.1845 C   0  0  0  0  0  0  0  0  0  0  0  0
  147.0623  136.2027  162.6270 C   0  0  0  0  0  0  0  0  0  0  0  0
  147.5028  137.0576  161.6648 O   0  0  0  0  0  0  0  0  0  0  0  0
  151.6514  141.3420  158.2396 C   0  0  0  0  0  0  0  0  0  0  0  0
  152.4360  141.1964  159.3817 C   0  0  0  0  0  0  0  0  0  0  0  0
  152.5917  142.3303  160.2099 C   0  0  0  0  0  0  0  0  0  0  0  0
  153.4444  142.2007  161.4608 C   0  0  0  0  0  0  0  0  0  0  0  0
  151.5699  145.6284  160.4205 H   0  0  0  0  0  0  0  0  0  0  0  0
  153.1944  145.0733  160.8206 H   0  0  0  0  0  0  0  0  0  0  0  0
  151.8107  144.5560  161.7964 H   0  0  0  0  0  0  0  0  0  0  0  0
  150.7040  144.6309  158.4661 H   0  0  0  0  0  0  0  0  0  0  0  0
  150.0758  140.6497  155.4149 H   0  0  0  0  0  0  0  0  0  0  0  0
  152.2737  138.8488  156.3133 H   0  0  0  0  0  0  0  0  0  0  0  0
  152.5222  139.0008  158.0302 H   0  0  0  0  0  0  0  0  0  0  0  0
  149.6769  138.5503  157.3702 H   0  0  0  0  0  0  0  0  0  0  0  0
  151.5296  136.8899  156.2759 H   0  0  0  0  0  0  0  0  0  0  0  0
  151.6256  137.0859  159.1923 H   0  0  0  0  0  0  0  0  0  0  0  0
  150.4755  138.3175  159.6907 H   0  0  0  0  0  0  0  0  0  0  0  0
  148.4117  138.0821  159.5702 H   0  0  0  0  0  0  0  0  0  0  0  0
  147.7052  136.8445  158.5285 H   0  0  0  0  0  0  0  0  0  0  0  0
  147.8005  134.1479  160.1821 H   0  0  0  0  0  0  0  0  0  0  0  0
  146.8223  134.0356  162.7454 H   0  0  0  0  0  0  0  0  0  0  0  0
  146.7568  136.6679  163.5527 H   0  0  0  0  0  0  0  0  0  0  0  0
  152.9146  140.2595  159.6273 H   0  0  0  0  0  0  0  0  0  0  0  0
  153.8678  141.1999  161.5532 H   0  0  0  0  0  0  0  0  0  0  0  0
  152.8478  142.3930  162.3528 H   0  0  0  0  0  0  0  0  0  0  0  0
  154.2718  142.9102  161.4366 H   0  0  0  0  0  0  0  0  0  0  0  0
  149.7948  143.0697  156.2286 H   0  0  0  0  0  0  0  0  0  0  0  0
  1  2  1  0  0  0  0
  1 23  1  0  0  0  0
  1 24  1  0  0  0  0
  1 25  1  0  0  0  0
  2 21  1  0  0  0  0
  2  3  2  0  0  0  0
  3  4  1  0  0  0  0
  3 26  1  0  0  0  0
  4 19  2  0  0  0  0
  4  5  1  0  0  0  0
  5  6  2  0  0  0  0
  5 43  1  0  0  0  0
  6  7  1  0  0  0  0
  6 27  1  0  0  0  0
  7  8  1  0  0  0  0
  7 19  1  0  0  0  0
  8  9  1  0  0  0  0
  8 28  1  0  0  0  0
  8 29  1  0  0  0  0
  9 10  1  0  0  0  0
  9 11  1  0  0  0  0
  9 30  1  0  0  0  0
 10 31  1  0  0  0  0
 11 12  1  0  0  0  0
 11 32  1  0  0  0  0
 11 33  1  0  0  0  0
 12 13  1  0  0  0  0
 13 14  1  0  0  0  0
 13 34  1  0  0  0  0
 13 35  1  0  0  0  0
 14 18  1  0  0  0  0
 14 15  2  0  0  0  0
 15 16  1  0  0  0  0
 15 36  1  0  0  0  0
 16 17  2  0  0  0  0
 16 37  1  0  0  0  0
 17 18  1  0  0  0  0
 17 38  1  0  0  0  0
 19 20  1  0  0  0  0
 20 21  2  0  0  0  0
 20 39  1  0  0  0  0
 21 22  1  0  0  0  0
 22 40  1  0  0  0  0
 22 41  1  0  0  0  0
 22 42  1  0  0  0  0
M  CHG  1   5   1
M  END
> <s_m_source_file>
AV-unprocessed.smi

> <i_m_source_file_index>
473

> <i_lp_mmshare_version>
43012

> <i_f3d_flags>
0

> <s_epik_input>
W0NIM11jKFtjSF0xKWMoW0NIM10pW2NIXWMoYzEyKW4oW2NIXW4yKVtDSDJdW0NASF0oW09IXSlbQ0gyXU9bQ0gyXWMzW2NIXVtjSF1bY0hdbzM=

> <s_epik_cmdline>
J2VwaWtfcHl0aG9uJywgJy1waCcsICc3LjAnLCAnLXRuJywgJzgnLCAnLW1hJywgJzIwMCcsICctbWV0YWxfYmluZGluZycsICctaW1hZScsICc8aW5maWxlLm1hZT4nLCAnLW9tYWUnLCAnPG91dGZpbGUubWFlPic=

> <r_epik_Ionization_Penalty>
1.03981

> <r_epik_Ionization_Penalty_Charging>
1.03981

> <r_epik_Ionization_Penalty_Neutral>
9.34185e-07

> <r_epik_State_Penalty>
1.09172

> <r_epik_Charging_Adjusted_Penalty>
2.13153

> <i_epik_Tot_Q>
1

> <i_epik_Tot_abs_Q>
1

> <r_epik_Metal_State_Penalty>
5.0824

> <b_epik_Metal_Only>
0

> <s_lp_Force_Field>
OPLS_2005

> <r_lp_Energy>
14.3304

> <b_lp_Chiralities_Consistent>
1

> <s_lp_Variant>
AV-unprocessed.smi:473-4

> <Gold.Version>
5.8.1

> <Gold.Id.Protein>
6NUR|6NUR_protein|mol2

> <Gold.PLP.Fitness>
63.2966

> <Gold.PLP.PLP>
-51.4764

> <Gold.PLP.part.hbond>
-4.0000

> <Gold.PLP.part.metal>
0.0000

> <Gold.PLP.part.buried>
-7.1526

> <Gold.PLP.part.nonpolar>
-40.6958

> <Gold.PLP.part.repulsive>
0.0756

> <Gold.PLP.ligand.clash>
0.0000

> <Gold.PLP.ligand.torsion>
1.2682

> <Gold.PLP.Chemscore.Hbond>
4.7680

> <Gold.PLP.Chemscore.CHOScore>
0.0000

> <Gold.PLP.Chemscore.Metal>
0.0000

> <Gold.Chemscore.Hbonds>
donor molecule, donor type, donor heavy atom, donor atom, acceptor molecule, acceptor atom, score
      L1  H     5    43       P1  8028  2.00
      P1  H  6896  6909       L1    12  0.80
      P1  H  6931  6943       L1    18  1.00
      P1  H  6934  6947       L1    18  0.64

> <Gold.PLP.Chemscore.Internal.Correction>
0.0525

> <Gold.Rescore>
     Score         DG    S(hbond)    S(metal)    S(lipo)     H(rot)  DE(clash)    DE(int)     intcor
     24.14     -25.29       3.26        0.00     130.69       2.49       0.02       1.13       ----

> <Gold.Chemscore.Fitness>
24.1410

> <Gold.Chemscore.DG>
-25.2941

> <Gold.Chemscore.ZeroCoef>
-5.4800

> <Gold.Chemscore.Hbond>
3.2640

> <Gold.Chemscore.Metal>
0.0000

> <Gold.Chemscore.Lipo>
130.6858

> <Gold.Chemscore.Internal_Hbond>
0.0000

> <Gold.Chemscore.DEClash>
0.0223

> <Gold.Chemscore.DEInternal>
1.1308

> <Gold.Chemscore.Rot>
2.4913

> <Gold.Chemscore.Internal.Correction>
   9.000000E+99

> <Gold.Chemscore.Hbonds>
donor molecule, donor type, donor heavy atom, donor atom, acceptor molecule, acceptor atom, score
      L1  H     5    43       P1  8028  0.98
      P1  H  6896  6909       L1    12  0.31
      P1  H  6931  6943       L1    18  0.47
      P1  H  6934  6947       L1    18  0.39

> <Gold.Chemscore.Hbond.Weighted>
-10.9017

> <Gold.Chemscore.Metal.Weighted>
-0.0000

> <Gold.Chemscore.Lipo.Weighted>
-15.2902

> <Gold.Chemscore.Internal_Hbond.Weighted>
0.0000

> <Gold.Chemscore.DEClash.Weighted>
0.0223

> <Gold.Chemscore.DEInternal.Weighted>
1.1308

> <Gold.Chemscore.Rot.Weighted>
6.3778

> <Gold.Chemscore.Internal.Correction.Weighted>
   9.000000E+99

> <Gold.Protein.RotatedTorsions>
[ 6907 6896 6895 6894 ] final   64.70 input  -60.11 | X-H torsion
[ 7974 7965 7964 7962 ] final -142.24 input  175.53 | X-H torsion
[ 8008 7997 7996 7995 ] final  -52.33 input   59.86 | X-H torsion
[ 10167 10162 10161 10158 ] final  -56.70 input  -65.29 | X-H torsion
[ 10718 10713 10712 10709 ] final   51.23 input   66.30 | X-H torsion
[ 10763 10752 10751 10750 ] final -154.53 input  -60.55 | X-H torsion
[ 11005 11000 10999 10996 ] final   41.62 input  -57.11 | X-H torsion

> <Gold.Protein.ActiveResidues>
 VAL166  LYS551  ARG553  GLY616  TRP617  ASP618  TYR619  PRO620  LYS621  CYS622 
 ASP623  PHE694  ASN695  SER759  ASP760  ASP761  ALA762  ILE779  LEU786  VAL792 
 PHE793  MET794  SER795  GLU796  ALA797  LYS798  CYS799  TRP800  GLU811  SER814 

> <Gold.Protein.RotatedAtoms>
  152.4351  134.5702  159.9918 H   0  0  0  0  0  0  0  0  0  0  0  0  # atno 6907 bound_to 6896
  151.5814  133.3371  159.3017 H   0  0  0  0  0  0  0  0  0  0  0  0  # atno 6908 bound_to 6896
  150.8249  134.7509  159.6868 H   0  0  0  0  0  0  0  0  0  0  0  0  # atno 6909 bound_to 6896
  144.8458  140.5982  143.5422 H   0  0  0  0  0  0  0  0  0  0  0  0  # atno 7974 bound_to 7965
  154.4104  140.1226  156.4974 H   0  0  0  0  0  0  0  0  0  0  0  0  # atno 8008 bound_to 7997
  155.6929  140.3495  155.4881 H   0  0  0  0  0  0  0  0  0  0  0  0  # atno 8009 bound_to 7997
  155.9453  140.1094  157.1012 H   0  0  0  0  0  0  0  0  0  0  0  0  # atno 8010 bound_to 7997
  140.6302  143.2456  151.5261 H   0  0  0  0  0  0  0  0  0  0  0  0  # atno 10167 bound_to 10162
  157.4961  130.8407  149.8260 H   0  0  0  0  0  0  0  0  0  0  0  0  # atno 10718 bound_to 10713
  154.7852  135.3188  154.7902 H   0  0  0  0  0  0  0  0  0  0  0  0  # atno 10763 bound_to 10752
  153.8604  135.6854  153.4787 H   0  0  0  0  0  0  0  0  0  0  0  0  # atno 10764 bound_to 10752
  153.1501  135.4703  154.9563 H   0  0  0  0  0  0  0  0  0  0  0  0  # atno 10765 bound_to 10752
  140.1817  134.4096  155.8196 H   0  0  0  0  0  0  0  0  0  0  0  0  # atno 11005 bound_to 11000
  145.4600  139.1514  143.3871 LP  0  0  0  0  0  0  0  0  0  0  0  0  # atno 17320 bound_to 7965
  146.2743  140.4729  142.8802 LP  0  0  0  0  0  0  0  0  0  0  0  0  # atno 17321 bound_to 7965
  139.5517  144.2379  152.1541 LP  0  0  0  0  0  0  0  0  0  0  0  0  # atno 17342 bound_to 10162
  140.1621  144.5016  150.6627 LP  0  0  0  0  0  0  0  0  0  0  0  0  # atno 17343 bound_to 10162
  156.0201  130.3798  150.1988 LP  0  0  0  0  0  0  0  0  0  0  0  0  # atno 17370 bound_to 10713
  157.0177  130.9970  151.3348 LP  0  0  0  0  0  0  0  0  0  0  0  0  # atno 17371 bound_to 10713
  141.2223  133.7003  156.7941 LP  0  0  0  0  0  0  0  0  0  0  0  0  # atno 17394 bound_to 11000
  140.2260  134.8721  157.3427 LP  0  0  0  0  0  0  0  0  0  0  0  0  # atno 17395 bound_to 11000

$$$$
