#       Name:                AV-unprocessed.smi:2339
#       Creating user name   scv26
#       Creation time:       Fri Mar 27 12:55:50 2020


#       File generated by GOLD software.
#

@<TRIPOS>MOLECULE
AV-unprocessed.smi:2339
    55    58     1
SMALL
NO_CHARGES


@<TRIPOS>ATOM
      1 ****        -5.0476   2.5952  -2.2544 C.3            1 S1                 0.0000
      2 ****        -4.6085   1.3117  -2.9677 C.3            1 S1                 0.0000
      3 ****        -3.1674   1.1192  -2.8940 N.pl3          1 S1                 0.0000
      4 ****        -2.3249   1.5719  -3.9038 C.2            1 S1                 0.0000
      5 ****        -0.9930   1.3725  -3.9210 C.2            1 S1                 0.0000
      6 ****        -0.3587   0.6259  -2.8161 C.2            1 S1                 0.0000
      7 ****         0.8560   0.4287  -2.7997 O.2            1 S1                 0.0000
      8 ****        -1.2602   0.1337  -1.7408 C.2            1 S1                 0.0000
      9 ****        -0.6474  -0.5626  -0.6865 N.am           1 S1                 0.0000
     10 ****        -1.2087  -1.2323   0.3409 C.2            1 S1                 0.0000
     11 ****        -2.4147  -1.4025   0.5056 O.2            1 S1                 0.0000
     12 ****        -0.3170  -1.7213   1.2208 N.am           1 S1                 0.0000
     13 ****        -0.5904  -2.4898   2.4366 C.3            1 S1                 0.0000
     14 ****         0.6961  -2.8473   3.1947 C.3            1 S1                 0.0000
     15 ****         0.9670  -2.2281   4.5387 C.3            1 S1                 0.0000
     16 ****         0.4122  -3.2720   5.5129 C.3            1 S1                 0.0000
     17 ****        -0.5079  -4.0368   4.7368 O.3            1 S1                 0.0000
     18 ****         0.0632  -4.2059   3.4412 C.3            1 S1                 0.0000
     19 ****        -0.8804  -4.0047   2.2336 C.3            1 S1                 0.0000
     20 ****        -0.4306  -4.6991   0.9288 C.3            1 S1                 0.0000
     21 ****        -1.4720  -5.7610   0.5838 C.3            1 S1                 0.0000
     22 ****        -2.7667  -5.1915   1.1428 C.3            1 S1                 0.0000
     23 ****        -2.3290  -4.4796   2.4209 C.3            1 S1                 0.0000
     24 ****        -2.5853   0.4097  -1.8453 C.2            1 S1                 0.0000
     25 ****        -6.1275   2.7258  -2.3228 H              1 S1                 0.0000
     26 ****        -4.5770   3.4730  -2.6980 H              1 S1                 0.0000
     27 ****        -4.7816   2.5685  -1.1973 H              1 S1                 0.0000
     28 ****        -5.1130   0.4512  -2.5267 H              1 S1                 0.0000
     29 ****        -4.9184   1.3450  -4.0128 H              1 S1                 0.0000
     30 ****        -2.8259   2.1150  -4.6921 H              1 S1                 0.0000
     31 ****        -0.3768   1.7456  -4.7259 H              1 S1                 0.0000
     32 ****         0.3621  -0.5467  -0.7066 H              1 S1                 0.0000
     33 ****         0.6556  -1.5241   1.0346 H              1 S1                 0.0000
     34 ****        -1.3197  -2.0149   3.0973 H              1 S1                 0.0000
     35 ****         1.5658  -2.9229   2.5395 H              1 S1                 0.0000
     36 ****         2.0278  -2.0444   4.7101 H              1 S1                 0.0000
     37 ****         0.4406  -1.2788   4.6439 H              1 S1                 0.0000
     38 ****         1.2091  -3.9280   5.8658 H              1 S1                 0.0000
     39 ****        -0.0709  -2.8236   6.3810 H              1 S1                 0.0000
     40 ****         0.7606  -5.0425   3.3799 H              1 S1                 0.0000
     41 ****        -0.3788  -4.0009   0.0951 H              1 S1                 0.0000
     42 ****         0.5615  -5.1434   1.0135 H              1 S1                 0.0000
     43 ****        -1.5273  -5.9683  -0.4854 H              1 S1                 0.0000
     44 ****        -1.2307  -6.6939   1.0949 H              1 S1                 0.0000
     45 ****        -3.1819  -4.4663   0.4415 H              1 S1                 0.0000
     46 ****        -3.5237  -5.9553   1.3222 H              1 S1                 0.0000
     47 ****        -2.3867  -5.1846   3.2510 H              1 S1                 0.0000
     48 ****        -3.0060  -3.6618   2.6654 H              1 S1                 0.0000
     49 ****        -3.3082   0.1134  -1.1023 H              1 S1                 0.0000
     50 ****         1.4290   0.7760  -3.5420 LP             1 S1                 0.0000
     51 ****         1.2700  -0.0789  -2.0441 LP             1 S1                 0.0000
     52 ****        -3.0670  -1.0295  -0.1542 LP             1 S1                 0.0000
     53 ****        -2.7436  -1.9141   1.2994 LP             1 S1                 0.0000
     54 ****        -1.3798  -3.5524   4.6653 LP             1 S1                 0.0000
     55 ****        -0.6561  -4.9288   5.1639 LP             1 S1                 0.0000
@<TRIPOS>BOND
    1    1    2 1     
    2    1   25 1     
    3    1   26 1     
    4    1   27 1     
    5    2    3 1     
    6    2   28 1     
    7    2   29 1     
    8    3   24 1     
    9    3    4 1     
   10    4    5 2     
   11    4   30 1     
   12    5    6 1     
   13    5   31 1     
   14    6    7 2     
   15    6    8 1     
   16    8    9 1     
   17    8   24 2     
   18    9   10 am    
   19    9   32 1     
   20   10   11 2     
   21   10   12 am    
   22   12   13 1     
   23   12   33 1     
   24   13   19 1     
   25   13   14 1     
   26   13   34 1     
   27   14   18 1     
   28   14   15 1     
   29   14   35 1     
   30   15   16 1     
   31   15   36 1     
   32   15   37 1     
   33   16   17 1     
   34   16   38 1     
   35   16   39 1     
   36   17   18 1     
   37   18   19 1     
   38   18   40 1     
   39   19   23 1     
   40   19   20 1     
   41   20   21 1     
   42   20   41 1     
   43   20   42 1     
   44   21   22 1     
   45   21   43 1     
   46   21   44 1     
   47   22   23 1     
   48   22   45 1     
   49   22   46 1     
   50   23   47 1     
   51   23   48 1     
   52   24   49 1     
   53    7   50 1     
   54    7   51 1     
   55   11   52 1     
   56   11   53 1     
   57   17   54 1     
   58   17   55 1     
@<TRIPOS>SUBSTRUCTURE
      1 S1             1
@<TRIPOS>SET
LONE_PAIRS      STATIC     ATOMS    <user>   **** ""
6 50 51 52 53 54 55
DONOR_HYDROGENS      STATIC     ATOMS    <user>   **** ""
2 32 33
ATOM$BLUE        STATIC     ATOMS    COLORGROUP SYSTEM
6 50 51 52 53 54 55
ATOM$RED        STATIC     ATOMS    COLORGROUP SYSTEM
2 32 33
