#       Name:                AV-unprocessed.smi:3085
#       Creating user name   scv26
#       Creation time:       Fri Mar 27 17:14:36 2020


#       File generated by GOLD software.
#

@<TRIPOS>MOLECULE
AV-unprocessed.smi:3085
    32    33     1
SMALL
NO_CHARGES


@<TRIPOS>ATOM
      1 ****        -3.9201   0.9725   1.5443 C.3            1 S1                 0.0000
      2 ****        -3.4296  -0.4662   1.3456 C.3            1 S1                 0.0000
      3 ****        -1.9397  -0.5599   1.3381 C.2            1 S1                 0.0000
      4 ****        -1.1955  -0.4008   0.2024 N.2            1 S1                 0.0000
      5 ****         0.0304  -0.5255   0.7033 C.2            1 S1                 0.0000
      6 ****         1.3045  -0.4297  -0.0756 C.3            1 S1                 0.0000
      7 ****         1.6749   1.0274  -0.4145 C.3            1 S1                 0.0000
      8 ****         2.8758   1.0637  -1.2475 N.3            1 S1                 0.0000
      9 ****         2.7083   0.2461  -2.4482 C.3            1 S1                 0.0000
     10 ****         2.3063  -1.1901  -2.0664 C.3            1 S1                 0.0000
     11 ****         1.1169  -1.1617  -1.2841 O.3            1 S1                 0.0000
     12 ****         0.0212  -0.7249   2.0234 N.pl3          1 S1                 0.0000
     13 ****        -1.2539  -0.7443   2.4653 N.2            1 S1                 0.0000
     14 ****         0.8185  -0.8401   2.6325 H              1 S1                 0.0000
     15 ****        -5.0093   1.0148   1.5440 H              1 S1                 0.0000
     16 ****        -3.5610   1.6236   0.7467 H              1 S1                 0.0000
     17 ****        -3.5712   1.3801   2.4935 H              1 S1                 0.0000
     18 ****        -3.8257  -1.1044   2.1364 H              1 S1                 0.0000
     19 ****        -3.8157  -0.8623   0.4058 H              1 S1                 0.0000
     20 ****         2.1022  -0.8939   0.5079 H              1 S1                 0.0000
     21 ****         0.8474   1.5057  -0.9403 H              1 S1                 0.0000
     22 ****         1.8362   1.5971   0.5008 H              1 S1                 0.0000
     23 ****         3.0755   2.0225  -1.5146 H              1 S1                 0.0000
     24 ****         1.9409   0.6810  -3.0896 H              1 S1                 0.0000
     25 ****         3.6322   0.2367  -3.0266 H              1 S1                 0.0000
     26 ****         2.1232  -1.7790  -2.9650 H              1 S1                 0.0000
     27 ****         3.1080  -1.6883  -1.5186 H              1 S1                 0.0000
     28 ****        -1.4898  -0.2369  -0.7391 LP             1 S1                 0.0000
     29 ****         3.6378   0.6921  -0.7172 LP             1 S1                 0.0000
     30 ****         0.3883  -0.7299  -1.8158 LP             1 S1                 0.0000
     31 ****         0.8538  -2.0997  -1.0584 LP             1 S1                 0.0000
     32 ****        -1.5954  -0.8656   3.3973 LP             1 S1                 0.0000
@<TRIPOS>BOND
    1    1    2 1     
    2    1   15 1     
    3    1   16 1     
    4    1   17 1     
    5    2   18 1     
    6    2   19 1     
    7    2    3 1     
    8    3    4 1     
    9    3   13 2     
   10    4    5 2     
   11    5    6 1     
   12    5   12 1     
   13    6   11 1     
   14    6    7 1     
   15    6   20 1     
   16    7    8 1     
   17    7   21 1     
   18    7   22 1     
   19    8    9 1     
   20    8   23 1     
   21    9   10 1     
   22    9   24 1     
   23    9   25 1     
   24   10   11 1     
   25   10   26 1     
   26   10   27 1     
   27   12   13 1     
   28   12   14 1     
   29    4   28 1     
   30    8   29 1     
   31   11   30 1     
   32   11   31 1     
   33   13   32 1     
@<TRIPOS>SUBSTRUCTURE
      1 S1             1
@<TRIPOS>SET
LONE_PAIRS      STATIC     ATOMS    <user>   **** ""
5 28 29 30 31 32
DONOR_HYDROGENS      STATIC     ATOMS    <user>   **** ""
2 23 14
ATOM$BLUE        STATIC     ATOMS    COLORGROUP SYSTEM
5 28 29 30 31 32
ATOM$RED        STATIC     ATOMS    COLORGROUP SYSTEM
2 23 14
