AV-unprocessed.smi:837|AV-procd|sdf|3902|dock7
  -GOLD-   22720 1363D 1   1.00000     0.00000
 Structure written by MMmdl.
 48 50  0  0  0  0  0  0  0  0  2 V2000
  150.8098  142.0570  157.3102 C   0  0  0  0  0  0  0  0  0  0  0  0
  150.0242  141.7123  156.0252 C   0  0  2  0  0  0  0  0  0  0  0  0
  148.5142  141.9472  156.2542 C   0  0  0  0  0  0  0  0  0  0  0  0
  147.6929  141.6901  154.9828 C   0  0  0  0  0  0  0  0  0  0  0  0
  147.9304  140.2737  154.4448 C   0  0  0  0  0  0  0  0  0  0  0  0
  149.4277  140.0233  154.1953 C   0  0  0  0  0  0  0  0  0  0  0  0
  150.3155  140.2887  155.4411 C   0  0  1  0  0  0  0  0  0  0  0  0
  151.7089  140.1820  155.0440 N   0  5  0  0  0  0  0  0  0  0  0  0
  152.2903  139.1714  155.7307 C   0  0  0  0  0  0  0  0  0  0  0  0
  153.4640  138.8093  155.6532 O   0  0  0  0  0  0  0  0  0  0  0  0
  151.4075  138.5758  156.5542 N   0  0  0  0  0  0  0  0  0  0  0  0
  151.7226  137.4652  157.4632 C   0  0  0  0  0  0  0  0  0  0  0  0
  150.7612  136.2755  157.3278 C   0  0  0  0  0  0  0  0  0  0  0  0
  150.0008  135.9631  158.2459 O   0  0  0  0  0  0  0  0  0  0  0  0
  150.7982  135.6256  156.1547 N   0  0  0  0  0  0  0  0  0  0  0  0
  149.9730  134.4750  155.8075 C   0  0  0  0  0  0  0  0  0  0  0  0
  149.9814  134.2072  154.2937 C   0  0  0  0  0  0  0  0  0  0  0  0
  149.1592  132.9872  153.9267 C   0  0  0  0  0  0  0  0  0  0  0  0
  149.4400  131.7287  154.4975 C   0  0  0  0  0  0  0  0  0  0  0  0
  148.6459  130.6252  154.1297 C   0  0  0  0  0  0  0  0  0  0  0  0
  147.6020  130.8286  153.2049 C   0  0  0  0  0  0  0  0  0  0  0  0
  147.3242  132.0293  152.6524 N   0  0  0  0  0  0  0  0  0  0  0  0
  148.0907  133.0821  153.0098 C   0  0  0  0  0  0  0  0  0  0  0  0
  150.2076  139.1601  156.4651 C   0  0  0  0  0  0  0  0  0  0  0  0
  149.1897  138.8661  157.0933 O   0  0  0  0  0  0  0  0  0  0  0  0
  150.5254  141.4161  158.1452 H   0  0  0  0  0  0  0  0  0  0  0  0
  150.6231  143.0871  157.6138 H   0  0  0  0  0  0  0  0  0  0  0  0
  151.8855  141.9559  157.1646 H   0  0  0  0  0  0  0  0  0  0  0  0
  150.3402  142.4357  155.2713 H   0  0  0  0  0  0  0  0  0  0  0  0
  148.1497  141.3101  157.0601 H   0  0  0  0  0  0  0  0  0  0  0  0
  148.3473  142.9730  156.5841 H   0  0  0  0  0  0  0  0  0  0  0  0
  146.6323  141.8358  155.1893 H   0  0  0  0  0  0  0  0  0  0  0  0
  147.9631  142.4212  154.2196 H   0  0  0  0  0  0  0  0  0  0  0  0
  147.5340  139.5401  155.1465 H   0  0  0  0  0  0  0  0  0  0  0  0
  147.3758  140.1349  153.5166 H   0  0  0  0  0  0  0  0  0  0  0  0
  149.5643  139.0004  153.8399 H   0  0  0  0  0  0  0  0  0  0  0  0
  149.7527  140.6661  153.3755 H   0  0  0  0  0  0  0  0  0  0  0  0
  152.7383  137.1087  157.2850 H   0  0  0  0  0  0  0  0  0  0  0  0
  151.7124  137.8217  158.4947 H   0  0  0  0  0  0  0  0  0  0  0  0
  151.4482  135.9509  155.4537 H   0  0  0  0  0  0  0  0  0  0  0  0
  150.3118  133.5938  156.3548 H   0  0  0  0  0  0  0  0  0  0  0  0
  148.9556  134.6772  156.1432 H   0  0  0  0  0  0  0  0  0  0  0  0
  149.5916  135.0734  153.7573 H   0  0  0  0  0  0  0  0  0  0  0  0
  151.0031  134.0618  153.9401 H   0  0  0  0  0  0  0  0  0  0  0  0
  150.2478  131.6100  155.2051 H   0  0  0  0  0  0  0  0  0  0  0  0
  148.8320  129.6463  154.5467 H   0  0  0  0  0  0  0  0  0  0  0  0
  146.9735  130.0048  152.9009 H   0  0  0  0  0  0  0  0  0  0  0  0
  147.8413  134.0285  152.5527 H   0  0  0  0  0  0  0  0  0  0  0  0
  1  2  1  0  0  0  0
  1 26  1  0  0  0  0
  1 27  1  0  0  0  0
  1 28  1  0  0  0  0
  2  7  1  0  0  0  0
  2  3  1  0  0  0  0
  2 29  1  0  0  0  0
  3  4  1  0  0  0  0
  3 30  1  0  0  0  0
  3 31  1  0  0  0  0
  4  5  1  0  0  0  0
  4 32  1  0  0  0  0
  4 33  1  0  0  0  0
  5  6  1  0  0  0  0
  5 34  1  0  0  0  0
  5 35  1  0  0  0  0
  6  7  1  0  0  0  0
  6 36  1  0  0  0  0
  6 37  1  0  0  0  0
  7 24  1  0  0  0  0
  7  8  1  0  0  0  0
  8  9  1  0  0  0  0
  9 10  2  0  0  0  0
  9 11  1  0  0  0  0
 11 12  1  0  0  0  0
 11 24  1  0  0  0  0
 12 13  1  0  0  0  0
 12 38  1  0  0  0  0
 12 39  1  0  0  0  0
 13 14  2  0  0  0  0
 13 15  1  0  0  0  0
 15 16  1  0  0  0  0
 15 40  1  0  0  0  0
 16 17  1  0  0  0  0
 16 41  1  0  0  0  0
 16 42  1  0  0  0  0
 17 18  1  0  0  0  0
 17 43  1  0  0  0  0
 17 44  1  0  0  0  0
 18 23  1  0  0  0  0
 18 19  2  0  0  0  0
 19 20  1  0  0  0  0
 19 45  1  0  0  0  0
 20 21  2  0  0  0  0
 20 46  1  0  0  0  0
 21 22  1  0  0  0  0
 21 47  1  0  0  0  0
 22 23  2  0  0  0  0
 23 48  1  0  0  0  0
 24 25  2  0  0  0  0
M  CHG  1   8  -1
M  END
> <s_m_source_file>
AV-unprocessed.smi

> <i_m_source_file_index>
837

> <i_lp_mmshare_version>
43012

> <i_f3d_flags>
0

> <s_epik_input>
W0NIMl0xW0NIMl1bQ0gyXVtDSDJdW0NAQEhdKFtDSDNdKVtDQEBdMTJbTkhdQyg9TylOKEMyPU8pW0NIMl1DKD1PKVtOSF1bQ0gyXVtDSDJdYzNbY0hdW2NIXVtjSF1uW2NIXTM=

> <s_epik_cmdline>
J2VwaWtfcHl0aG9uJywgJy1waCcsICc3LjAnLCAnLXRuJywgJzgnLCAnLW1hJywgJzIwMCcsICctbWV0YWxfYmluZGluZycsICctaW1hZScsICc8aW5maWxlLm1hZT4nLCAnLW9tYWUnLCAnPG91dGZpbGUubWFlPic=

> <r_lp_tautomer_probability>
1

> <r_epik_Ionization_Penalty>
6.03002

> <r_epik_Ionization_Penalty_Charging>
6.01728

> <r_epik_Ionization_Penalty_Neutral>
0.0127382

> <r_epik_State_Penalty>
6.02713

> <r_epik_Charging_Adjusted_Penalty>
12.0444

> <i_epik_Tot_Q>
-1

> <i_epik_Tot_abs_Q>
1

> <r_epik_Metal_State_Penalty>
1.99078

> <b_epik_Metal_Only>
1

> <s_lp_Force_Field>
OPLS_2005

> <r_lp_Energy>
14.9732

> <b_lp_Chiralities_Consistent>
1

> <s_lp_Variant>
AV-unprocessed.smi:837-11

> <Gold.Version>
5.8.1

> <Gold.Id.Protein>
6NUR|6NUR_protein|mol2

> <Gold.PLP.Fitness>
46.7077

> <Gold.PLP.PLP>
-35.5057

> <Gold.PLP.part.hbond>
-3.0000

> <Gold.PLP.part.metal>
0.0000

> <Gold.PLP.part.buried>
-0.8650

> <Gold.PLP.part.nonpolar>
-31.7699

> <Gold.PLP.part.repulsive>
0.3543

> <Gold.PLP.ligand.clash>
0.0000

> <Gold.PLP.ligand.torsion>
0.2031

> <Gold.PLP.Chemscore.Hbond>
2.8640

> <Gold.PLP.Chemscore.CHOScore>
1.0000

> <Gold.PLP.Chemscore.Metal>
0.0000

> <Gold.Chemscore.Hbonds>
donor molecule, donor type, donor heavy atom, donor atom, acceptor molecule, acceptor atom, score
      P1  H  6896  6909       L1    14  0.99
      P1  H  7989  7998       L1     8  0.94
      P1  H  7997  8010       L1    10  0.93
      L1  C    23    48       P1  7948  1.00

> <Gold.PLP.Chemscore.Internal.Correction>
0.0162

> <Gold.Rescore>
     Score         DG    S(hbond)    S(metal)    S(lipo)     H(rot)  DE(clash)    DE(int)     intcor
     18.11     -19.17       2.83        0.00      75.82       1.81       0.03       1.03       ----

> <Gold.Chemscore.Fitness>
18.1066

> <Gold.Chemscore.DG>
-19.1677

> <Gold.Chemscore.ZeroCoef>
-5.4800

> <Gold.Chemscore.Hbond>
2.8287

> <Gold.Chemscore.Metal>
0.0000

> <Gold.Chemscore.Lipo>
75.8193

> <Gold.Chemscore.Internal_Hbond>
0.0000

> <Gold.Chemscore.DEClash>
0.0329

> <Gold.Chemscore.DEInternal>
1.0282

> <Gold.Chemscore.Rot>
1.8090

> <Gold.Chemscore.Internal.Correction>
   9.000000E+99

> <Gold.Chemscore.Hbonds>
donor molecule, donor type, donor heavy atom, donor atom, acceptor molecule, acceptor atom, score
      P1  H  6896  6909       L1    14  0.83
      P1  H  7989  7998       L1     8  0.27
      P1  H  7997  8010       L1    10  0.45

> <Gold.Chemscore.Hbond.Weighted>
-9.4478

> <Gold.Chemscore.Metal.Weighted>
-0.0000

> <Gold.Chemscore.Lipo.Weighted>
-8.8709

> <Gold.Chemscore.Internal_Hbond.Weighted>
0.0000

> <Gold.Chemscore.DEClash.Weighted>
0.0329

> <Gold.Chemscore.DEInternal.Weighted>
1.0282

> <Gold.Chemscore.Rot.Weighted>
4.6310

> <Gold.Chemscore.Internal.Correction.Weighted>
   9.000000E+99

> <Gold.Protein.RotatedTorsions>
[ 6907 6896 6895 6894 ] final   60.88 input  -60.11 | X-H torsion
[ 7974 7965 7964 7962 ] final  -64.23 input  175.53 | X-H torsion
[ 8008 7997 7996 7995 ] final   82.89 input   59.86 | X-H torsion
[ 10167 10162 10161 10158 ] final  -57.90 input  -65.29 | X-H torsion
[ 10718 10713 10712 10709 ] final  -38.27 input   66.30 | X-H torsion
[ 10763 10752 10751 10750 ] final  -22.56 input  -60.55 | X-H torsion
[ 11005 11000 10999 10996 ] final -114.83 input  -57.11 | X-H torsion

> <Gold.Protein.ActiveResidues>
 VAL166  LYS551  ARG553  GLY616  TRP617  ASP618  TYR619  PRO620  LYS621  CYS622 
 ASP623  PHE694  ASN695  SER759  ASP760  ASP761  ALA762  ILE779  LEU786  VAL792 
 PHE793  MET794  SER795  GLU796  ALA797  LYS798  CYS799  TRP800  GLU811  SER814 

> <Gold.Protein.RotatedAtoms>
  152.4041  134.6237  160.0057 H   0  0  0  0  0  0  0  0  0  0  0  0  # atno 6907 bound_to 6896
  151.6433  133.3319  159.3143 H   0  0  0  0  0  0  0  0  0  0  0  0  # atno 6908 bound_to 6896
  150.7938  134.7024  159.6602 H   0  0  0  0  0  0  0  0  0  0  0  0  # atno 6909 bound_to 6896
  145.7693  140.8821  143.0388 H   0  0  0  0  0  0  0  0  0  0  0  0  # atno 7974 bound_to 7965
  155.9167  140.3424  155.6140 H   0  0  0  0  0  0  0  0  0  0  0  0  # atno 8008 bound_to 7997
  155.7323  140.0797  157.2302 H   0  0  0  0  0  0  0  0  0  0  0  0  # atno 8009 bound_to 7997
  154.4063  140.1586  156.2510 H   0  0  0  0  0  0  0  0  0  0  0  0  # atno 8010 bound_to 7997
  140.6230  143.2427  151.5433 H   0  0  0  0  0  0  0  0  0  0  0  0  # atno 10167 bound_to 10162
  156.3057  130.4246  149.8099 H   0  0  0  0  0  0  0  0  0  0  0  0  # atno 10718 bound_to 10713
  153.6538  135.6979  153.5200 H   0  0  0  0  0  0  0  0  0  0  0  0  # atno 10763 bound_to 10752
  153.2685  135.4222  155.0964 H   0  0  0  0  0  0  0  0  0  0  0  0  # atno 10764 bound_to 10752
  154.8469  135.3572  154.6083 H   0  0  0  0  0  0  0  0  0  0  0  0  # atno 10765 bound_to 10752
  141.0527  133.9662  157.2808 H   0  0  0  0  0  0  0  0  0  0  0  0  # atno 11005 bound_to 11000
  144.6815  139.9833  143.7483 LP  0  0  0  0  0  0  0  0  0  0  0  0  # atno 17320 bound_to 7965
  146.0186  139.3231  143.0827 LP  0  0  0  0  0  0  0  0  0  0  0  0  # atno 17321 bound_to 7965
  139.5455  144.2532  152.1434 LP  0  0  0  0  0  0  0  0  0  0  0  0  # atno 17342 bound_to 10162
  140.1757  144.4893  150.6555 LP  0  0  0  0  0  0  0  0  0  0  0  0  # atno 17343 bound_to 10162
  156.5461  130.8321  151.3284 LP  0  0  0  0  0  0  0  0  0  0  0  0  # atno 17370 bound_to 10713
  157.7379  130.9804  150.2220 LP  0  0  0  0  0  0  0  0  0  0  0  0  # atno 17371 bound_to 10713
  139.9364  135.0196  156.8568 LP  0  0  0  0  0  0  0  0  0  0  0  0  # atno 17394 bound_to 11000
  140.6024  134.0159  155.7543 LP  0  0  0  0  0  0  0  0  0  0  0  0  # atno 17395 bound_to 11000

$$$$
