AV-unprocessed.smi:62|AV-procd|sdf|605|dock2
  -GOLD-   2262016503D 1   1.00000     0.00000
 Structure written by MMmdl.
 30 31  0  0  0  0  0  0  0  0  2 V2000
  151.2081  144.7756  158.6913 C   0  0  0  0  0  0  0  0  0  0  0  0
  151.4998  143.4360  158.2288 N   0  0  0  0  0  0  0  0  0  0  0  0
  151.1997  142.8591  157.0162 C   0  0  0  0  0  0  0  0  0  0  0  0
  151.6659  141.5738  157.0326 C   0  0  0  0  0  0  0  0  0  0  0  0
  151.5395  140.5727  155.9088 C   0  0  0  0  0  0  0  0  0  0  0  0
  150.1508  140.3174  155.5386 N   0  0  0  0  0  0  0  0  0  0  0  0
  149.5053  141.4235  154.8507 C   0  0  0  0  0  0  0  0  0  0  0  0
  148.2992  140.8320  154.1071 C   0  0  0  0  0  0  0  0  0  0  0  0
  148.5621  139.3171  154.1146 C   0  0  1  0  0  0  0  0  0  0  0  0
  148.4063  138.7261  152.8414 O   0  0  0  0  0  0  0  0  0  0  0  0
  149.9985  139.2047  154.6262 C   0  0  0  0  0  0  0  0  0  0  0  0
  152.2562  141.4593  158.3377 C   0  0  0  0  0  0  0  0  0  0  0  0
  152.9180  140.1956  158.8219 C   0  0  0  0  0  0  0  0  0  0  0  0
  153.2089  140.0599  160.0306 O   0  0  0  0  0  0  0  0  0  0  0  0
  153.1537  139.3014  157.9790 O   0  5  0  0  0  0  0  0  0  0  0  0
  152.1467  142.5796  159.0406 N   0  0  0  0  0  0  0  0  0  0  0  0
  150.7825  145.3672  157.8803 H   0  0  0  0  0  0  0  0  0  0  0  0
  152.1241  145.2556  159.0372 H   0  0  0  0  0  0  0  0  0  0  0  0
  150.4931  144.7327  159.5133 H   0  0  0  0  0  0  0  0  0  0  0  0
  150.6769  143.4038  156.2441 H   0  0  0  0  0  0  0  0  0  0  0  0
  152.0896  140.9144  155.0310 H   0  0  0  0  0  0  0  0  0  0  0  0
  152.0149  139.6320  156.1869 H   0  0  0  0  0  0  0  0  0  0  0  0
  149.2155  142.2112  155.5468 H   0  0  0  0  0  0  0  0  0  0  0  0
  150.1909  141.8611  154.1232 H   0  0  0  0  0  0  0  0  0  0  0  0
  147.3650  141.0611  154.6208 H   0  0  0  0  0  0  0  0  0  0  0  0
  148.2346  141.2414  153.0980 H   0  0  0  0  0  0  0  0  0  0  0  0
  147.8854  138.8326  154.8199 H   0  0  0  0  0  0  0  0  0  0  0  0
  148.6281  139.3692  152.1854 H   0  0  0  0  0  0  0  0  0  0  0  0
  150.7010  139.3065  153.7970 H   0  0  0  0  0  0  0  0  0  0  0  0
  150.1936  138.2510  155.1179 H   0  0  0  0  0  0  0  0  0  0  0  0
  1  2  1  0  0  0  0
  1 17  1  0  0  0  0
  1 18  1  0  0  0  0
  1 19  1  0  0  0  0
  2 16  1  0  0  0  0
  2  3  1  0  0  0  0
  3  4  2  0  0  0  0
  3 20  1  0  0  0  0
  4  5  1  0  0  0  0
  4 12  1  0  0  0  0
  5  6  1  0  0  0  0
  5 21  1  0  0  0  0
  5 22  1  0  0  0  0
  6 11  1  0  0  0  0
  6  7  1  0  0  0  0
  7  8  1  0  0  0  0
  7 23  1  0  0  0  0
  7 24  1  0  0  0  0
  8  9  1  0  0  0  0
  8 25  1  0  0  0  0
  8 26  1  0  0  0  0
  9 10  1  0  0  0  0
  9 11  1  0  0  0  0
  9 27  1  0  0  0  0
 10 28  1  0  0  0  0
 11 29  1  0  0  0  0
 11 30  1  0  0  0  0
 12 13  1  0  0  0  0
 12 16  2  0  0  0  0
 13 14  2  0  0  0  0
 13 15  1  0  0  0  0
M  CHG  1  15  -1
M  END
> <s_m_source_file>
AV-unprocessed.smi

> <i_m_source_file_index>
62

> <i_lp_mmshare_version>
43012

> <i_f3d_flags>
0

> <s_epik_input>
W0NIM11uMVtjSF1jKGMobjEpQyg9TylbT0hdKVtDSDJdTjJbQ0gyXVtDSDJdW0NAQEhdKFtPSF0pW0NIMl0y

> <s_epik_cmdline>
J2VwaWtfcHl0aG9uJywgJy1waCcsICc3LjAnLCAnLXRuJywgJzgnLCAnLW1hJywgJzIwMCcsICctbWV0YWxfYmluZGluZycsICctaW1hZScsICc8aW5maWxlLm1hZT4nLCAnLW9tYWUnLCAnPG91dGZpbGUubWFlPic=

> <r_epik_Ionization_Penalty>
1.46526

> <r_epik_Ionization_Penalty_Charging>
0.000523675

> <r_epik_Ionization_Penalty_Neutral>
1.46474

> <r_epik_State_Penalty>
1.55202

> <r_epik_Charging_Adjusted_Penalty>
1.55254

> <i_epik_Tot_Q>
-1

> <i_epik_Tot_abs_Q>
1

> <r_epik_Metal_State_Penalty>
1.552

> <b_epik_Metal_Only>
0

> <s_lp_Force_Field>
OPLS_2005

> <r_lp_Energy>
37.4644

> <b_lp_Chiralities_Consistent>
1

> <s_lp_Variant>
AV-unprocessed.smi:62-5

> <Gold.Version>
5.8.1

> <Gold.Id.Protein>
6NUR|6NUR_protein|mol2

> <Gold.PLP.Fitness>
42.0883

> <Gold.PLP.PLP>
-30.3270

> <Gold.PLP.part.hbond>
-2.6980

> <Gold.PLP.part.metal>
0.0000

> <Gold.PLP.part.buried>
-3.7625

> <Gold.PLP.part.nonpolar>
-22.4931

> <Gold.PLP.part.repulsive>
0.0485

> <Gold.PLP.ligand.clash>
0.0000

> <Gold.PLP.ligand.torsion>
0.1228

> <Gold.PLP.Chemscore.Hbond>
3.0000

> <Gold.PLP.Chemscore.CHOScore>
1.0000

> <Gold.PLP.Chemscore.Metal>
0.0000

> <Gold.Chemscore.Hbonds>
donor molecule, donor type, donor heavy atom, donor atom, acceptor molecule, acceptor atom, score
      L1  H    10    28       P1  7957  1.00
      P1  H  7997  8008       L1    15  2.00
      L1  C     3    20       P1  8028  1.00

> <Gold.PLP.Chemscore.Internal.Correction>
0.0068

> <Gold.Rescore>
     Score         DG    S(hbond)    S(metal)    S(lipo)     H(rot)  DE(clash)    DE(int)     intcor
     14.30     -15.94       1.99        0.00      71.36       1.77       0.24       1.41       ----

> <Gold.Chemscore.Fitness>
14.2994

> <Gold.Chemscore.DG>
-15.9450

> <Gold.Chemscore.ZeroCoef>
-5.4800

> <Gold.Chemscore.Hbond>
1.9881

> <Gold.Chemscore.Metal>
0.0000

> <Gold.Chemscore.Lipo>
71.3603

> <Gold.Chemscore.Internal_Hbond>
0.0000

> <Gold.Chemscore.DEClash>
0.2386

> <Gold.Chemscore.DEInternal>
1.4069

> <Gold.Chemscore.Rot>
1.7674

> <Gold.Chemscore.Internal.Correction>
   9.000000E+99

> <Gold.Chemscore.Hbonds>
donor molecule, donor type, donor heavy atom, donor atom, acceptor molecule, acceptor atom, score
      L1  H    10    28       P1  7957  0.92
      P1  H  7997  8008       L1    15  0.24

> <Gold.Chemscore.Hbond.Weighted>
-6.6403

> <Gold.Chemscore.Metal.Weighted>
-0.0000

> <Gold.Chemscore.Lipo.Weighted>
-8.3492

> <Gold.Chemscore.Internal_Hbond.Weighted>
0.0000

> <Gold.Chemscore.DEClash.Weighted>
0.2386

> <Gold.Chemscore.DEInternal.Weighted>
1.4069

> <Gold.Chemscore.Rot.Weighted>
4.5245

> <Gold.Chemscore.Internal.Correction.Weighted>
   9.000000E+99

> <Gold.Protein.RotatedTorsions>
[ 6907 6896 6895 6894 ] final -144.29 input  -60.11 | X-H torsion
[ 7974 7965 7964 7962 ] final   85.58 input  175.53 | X-H torsion
[ 8008 7997 7996 7995 ] final -101.30 input   59.86 | X-H torsion
[ 10167 10162 10161 10158 ] final   23.25 input  -65.29 | X-H torsion
[ 10718 10713 10712 10709 ] final  125.20 input   66.30 | X-H torsion
[ 10763 10752 10751 10750 ] final  -11.59 input  -60.55 | X-H torsion
[ 11005 11000 10999 10996 ] final    4.42 input  -57.11 | X-H torsion

> <Gold.Protein.ActiveResidues>
 VAL166  LYS551  ARG553  GLY616  TRP617  ASP618  TYR619  PRO620  LYS621  CYS622 
 ASP623  PHE694  ASN695  SER759  ASP760  ASP761  ALA762  ILE779  LEU786  VAL792 
 PHE793  MET794  SER795  GLU796  ALA797  LYS798  CYS799  TRP800  GLU811  SER814 

> <Gold.Protein.RotatedAtoms>
  151.1121  133.5165  159.2605 H   0  0  0  0  0  0  0  0  0  0  0  0  # atno 6907 bound_to 6896
  151.1956  135.0420  159.8860 H   0  0  0  0  0  0  0  0  0  0  0  0  # atno 6908 bound_to 6896
  152.5451  134.0956  159.8349 H   0  0  0  0  0  0  0  0  0  0  0  0  # atno 6909 bound_to 6896
  145.5836  139.2328  143.2339 H   0  0  0  0  0  0  0  0  0  0  0  0  # atno 7974 bound_to 7965
  154.8406  140.0435  157.1538 H   0  0  0  0  0  0  0  0  0  0  0  0  # atno 8008 bound_to 7997
  154.9051  140.3005  155.5276 H   0  0  0  0  0  0  0  0  0  0  0  0  # atno 8009 bound_to 7997
  156.2992  140.2368  156.4084 H   0  0  0  0  0  0  0  0  0  0  0  0  # atno 8010 bound_to 7997
  140.5284  143.9883  150.6452 H   0  0  0  0  0  0  0  0  0  0  0  0  # atno 10167 bound_to 10162
  157.5523  131.1093  150.8681 H   0  0  0  0  0  0  0  0  0  0  0  0  # atno 10718 bound_to 10713
  153.4860  135.7017  153.5911 H   0  0  0  0  0  0  0  0  0  0  0  0  # atno 10763 bound_to 10752
  153.4104  135.3850  155.2046 H   0  0  0  0  0  0  0  0  0  0  0  0  # atno 10764 bound_to 10752
  154.8719  135.3903  154.4315 H   0  0  0  0  0  0  0  0  0  0  0  0  # atno 10765 bound_to 10752
  140.5821  134.0003  155.8052 H   0  0  0  0  0  0  0  0  0  0  0  0  # atno 11005 bound_to 11000
  146.1698  140.6663  142.9238 LP  0  0  0  0  0  0  0  0  0  0  0  0  # atno 17320 bound_to 7965
  144.7382  140.4870  143.6888 LP  0  0  0  0  0  0  0  0  0  0  0  0  # atno 17321 bound_to 7965
  140.3251  143.3112  152.0744 LP  0  0  0  0  0  0  0  0  0  0  0  0  # atno 17342 bound_to 10162
  139.4946  144.6547  151.6598 LP  0  0  0  0  0  0  0  0  0  0  0  0  # atno 17343 bound_to 10162
  156.9203  130.5312  149.5279 LP  0  0  0  0  0  0  0  0  0  0  0  0  # atno 17370 bound_to 10713
  156.0587  130.5644  150.9147 LP  0  0  0  0  0  0  0  0  0  0  0  0  # atno 17371 bound_to 10713
  141.0990  133.9799  157.3112 LP  0  0  0  0  0  0  0  0  0  0  0  0  # atno 17394 bound_to 11000
  139.9313  135.0200  156.8408 LP  0  0  0  0  0  0  0  0  0  0  0  0  # atno 17395 bound_to 11000

$$$$
