AV-unprocessed.smi:2753|AV-procd|sdf|10609|dock1
  -GOLD-   2272015 63D 1   1.00000     0.00000
 Structure written by MMmdl.
 28 29  0  0  0  0  0  0  0  0  2 V2000
  151.1455  138.0708  156.0508 F   0  0  0  0  0  0  0  0  0  0  0  0
  151.2892  138.9862  155.0935 C   0  0  0  0  0  0  0  0  0  0  0  0
  152.5573  138.9446  154.6830 F   0  0  0  0  0  0  0  0  0  0  0  0
  150.5213  138.6223  154.0673 F   0  0  0  0  0  0  0  0  0  0  0  0
  150.9077  140.3493  155.5927 C   0  0  0  0  0  0  0  0  0  0  0  0
  149.8866  141.1635  155.1562 C   0  0  0  0  0  0  0  0  0  0  0  0
  149.9598  142.3026  155.9381 N   0  0  0  0  0  0  0  0  0  0  0  0
  150.9808  142.1515  156.7905 C   0  0  0  0  0  0  0  0  0  0  0  0
  151.3567  143.2000  157.7916 C   0  0  2  0  0  0  0  0  0  0  0  0
  152.4585  142.7123  158.7521 C   0  0  0  0  0  0  0  0  0  0  0  0
  152.8058  143.8053  159.7745 C   0  0  0  0  0  0  0  0  0  0  0  0
  151.5465  144.2865  160.5145 C   0  0  0  0  0  0  0  0  0  0  0  0
  150.5217  144.7511  159.5544 N   0  3  0  0  0  0  0  0  0  0  0  0
  150.1312  143.7114  158.5767 C   0  0  0  0  0  0  0  0  0  0  0  0
  151.5966  140.9832  156.6313 N   0  0  0  0  0  0  0  0  0  0  0  0
  149.3502  143.1057  155.8741 H   0  0  0  0  0  0  0  0  0  0  0  0
  149.1444  141.0299  154.3832 H   0  0  0  0  0  0  0  0  0  0  0  0
  151.7630  144.0456  157.2332 H   0  0  0  0  0  0  0  0  0  0  0  0
  152.1239  141.8172  159.2790 H   0  0  0  0  0  0  0  0  0  0  0  0
  153.3506  142.4291  158.1924 H   0  0  0  0  0  0  0  0  0  0  0  0
  153.5376  143.4282  160.4896 H   0  0  0  0  0  0  0  0  0  0  0  0
  153.2766  144.6470  159.2649 H   0  0  0  0  0  0  0  0  0  0  0  0
  151.1312  143.4813  161.1222 H   0  0  0  0  0  0  0  0  0  0  0  0
  151.7946  145.1027  161.1932 H   0  0  0  0  0  0  0  0  0  0  0  0
  149.7014  145.0437  160.0663 H   0  0  0  0  0  0  0  0  0  0  0  0
  149.3915  144.1315  157.8944 H   0  0  0  0  0  0  0  0  0  0  0  0
  149.6451  142.8914  159.1074 H   0  0  0  0  0  0  0  0  0  0  0  0
  150.8905  145.5445  159.0500 H   0  0  0  0  0  0  0  0  0  0  0  0
  1  2  1  0  0  0  0
  2  3  1  0  0  0  0
  2  4  1  0  0  0  0
  2  5  1  0  0  0  0
  5 15  1  0  0  0  0
  5  6  2  0  0  0  0
  6  7  1  0  0  0  0
  6 17  1  0  0  0  0
  7 16  1  0  0  0  0
  7  8  1  0  0  0  0
  8  9  1  0  0  0  0
  8 15  2  0  0  0  0
  9 14  1  0  0  0  0
  9 10  1  0  0  0  0
  9 18  1  0  0  0  0
 10 11  1  0  0  0  0
 10 19  1  0  0  0  0
 10 20  1  0  0  0  0
 11 12  1  0  0  0  0
 11 21  1  0  0  0  0
 11 22  1  0  0  0  0
 12 13  1  0  0  0  0
 12 23  1  0  0  0  0
 12 24  1  0  0  0  0
 13 14  1  0  0  0  0
 13 25  1  0  0  0  0
 13 28  1  0  0  0  0
 14 26  1  0  0  0  0
 14 27  1  0  0  0  0
M  CHG  1  13   1
M  END
> <s_m_source_file>
AV-unprocessed.smi

> <i_m_source_file_index>
2753

> <i_lp_mmshare_version>
43012

> <i_f3d_flags>
0

> <s_epik_input>
RkMoRikoRiljMVtjSF1bbkhdYyhuMSlbQ0BASF0yW0NIMl1bQ0gyXVtDSDJdW05IXVtDSDJdMg==

> <s_epik_cmdline>
J2VwaWtfcHl0aG9uJywgJy1waCcsICc3LjAnLCAnLXRuJywgJzgnLCAnLW1hJywgJzIwMCcsICctbWV0YWxfYmluZGluZycsICctaW1hZScsICc8aW5maWxlLm1hZT4nLCAnLW9tYWUnLCAnPG91dGZpbGUubWFlPic=

> <r_lp_tautomer_probability>
0.5

> <r_epik_Ionization_Penalty>
0.00052307

> <r_epik_Ionization_Penalty_Charging>
0.000431517

> <r_epik_Ionization_Penalty_Neutral>
9.15529e-05

> <r_epik_State_Penalty>
0.103148

> <r_epik_Charging_Adjusted_Penalty>
0.103579

> <i_epik_Tot_Q>
1

> <i_epik_Tot_abs_Q>
1

> <r_epik_Metal_State_Penalty>
0.166025

> <b_epik_Metal_Only>
0

> <s_lp_Force_Field>
OPLS_2005

> <r_lp_Energy>
16.8068

> <b_lp_Chiralities_Consistent>
1

> <s_lp_Variant>
AV-unprocessed.smi:2753-1

> <Gold.Version>
5.8.1

> <Gold.Id.Protein>
6NUR|6NUR_protein|mol2

> <Gold.PLP.Fitness>
36.7469

> <Gold.PLP.PLP>
-34.1017

> <Gold.PLP.part.hbond>
-1.0000

> <Gold.PLP.part.metal>
0.0000

> <Gold.PLP.part.buried>
-2.9925

> <Gold.PLP.part.nonpolar>
-29.3046

> <Gold.PLP.part.repulsive>
0.3198

> <Gold.PLP.ligand.clash>
0.0000

> <Gold.PLP.ligand.torsion>
0.1912

> <Gold.PLP.Chemscore.Hbond>
1.0000

> <Gold.PLP.Chemscore.CHOScore>
0.0000

> <Gold.PLP.Chemscore.Metal>
0.0000

> <Gold.Chemscore.Hbonds>
donor molecule, donor type, donor heavy atom, donor atom, acceptor molecule, acceptor atom, score
      L1  H     7    16       P1  8028  1.00

> <Gold.PLP.Chemscore.Internal.Correction>
0.0276

> <Gold.Rescore>
     Score         DG    S(hbond)    S(metal)    S(lipo)     H(rot)  DE(clash)    DE(int)     intcor
     15.17     -15.25       1.00        0.00      76.82       1.00       0.03       0.05       ----

> <Gold.Chemscore.Fitness>
15.1653

> <Gold.Chemscore.DG>
-15.2452

> <Gold.Chemscore.ZeroCoef>
-5.4800

> <Gold.Chemscore.Hbond>
0.9992

> <Gold.Chemscore.Metal>
0.0000

> <Gold.Chemscore.Lipo>
76.8189

> <Gold.Chemscore.Internal_Hbond>
0.0000

> <Gold.Chemscore.DEClash>
0.0332

> <Gold.Chemscore.DEInternal>
0.0468

> <Gold.Chemscore.Rot>
1.0000

> <Gold.Chemscore.Internal.Correction>
   9.000000E+99

> <Gold.Chemscore.Hbonds>
donor molecule, donor type, donor heavy atom, donor atom, acceptor molecule, acceptor atom, score
      L1  H     7    16       P1  8028  0.99

> <Gold.Chemscore.Hbond.Weighted>
-3.3374

> <Gold.Chemscore.Metal.Weighted>
-0.0000

> <Gold.Chemscore.Lipo.Weighted>
-8.9878

> <Gold.Chemscore.Internal_Hbond.Weighted>
0.0000

> <Gold.Chemscore.DEClash.Weighted>
0.0332

> <Gold.Chemscore.DEInternal.Weighted>
0.0468

> <Gold.Chemscore.Rot.Weighted>
2.5600

> <Gold.Chemscore.Internal.Correction.Weighted>
   9.000000E+99

> <Gold.Protein.RotatedTorsions>
[ 6907 6896 6895 6894 ] final  169.34 input  -60.11 | X-H torsion
[ 7974 7965 7964 7962 ] final  -13.63 input  175.53 | X-H torsion
[ 8008 7997 7996 7995 ] final   84.02 input   59.86 | X-H torsion
[ 10167 10162 10161 10158 ] final  153.57 input  -65.29 | X-H torsion
[ 10718 10713 10712 10709 ] final   48.64 input   66.30 | X-H torsion
[ 10763 10752 10751 10750 ] final   19.32 input  -60.55 | X-H torsion
[ 11005 11000 10999 10996 ] final -133.71 input  -57.11 | X-H torsion

> <Gold.Protein.ActiveResidues>
 VAL166  LYS551  ARG553  GLY616  TRP617  ASP618  TYR619  PRO620  LYS621  CYS622 
 ASP623  PHE694  ASN695  SER759  ASP760  ASP761  ALA762  ILE779  LEU786  VAL792 
 PHE793  MET794  SER795  GLU796  ALA797  LYS798  CYS799  TRP800  GLU811  SER814 

> <Gold.Protein.RotatedAtoms>
  151.8335  133.3412  159.3620 H   0  0  0  0  0  0  0  0  0  0  0  0  # atno 6907 bound_to 6896
  150.7257  134.5460  159.5780 H   0  0  0  0  0  0  0  0  0  0  0  0  # atno 6908 bound_to 6896
  152.2918  134.7713  160.0427 H   0  0  0  0  0  0  0  0  0  0  0  0  # atno 6909 bound_to 6896
  146.2106  140.3232  142.8392 H   0  0  0  0  0  0  0  0  0  0  0  0  # atno 7974 bound_to 7965
  155.9316  140.3414  155.6254 H   0  0  0  0  0  0  0  0  0  0  0  0  # atno 8008 bound_to 7997
  155.7150  140.0776  157.2373 H   0  0  0  0  0  0  0  0  0  0  0  0  # atno 8009 bound_to 7997
  154.4086  140.1616  156.2326 H   0  0  0  0  0  0  0  0  0  0  0  0  # atno 8010 bound_to 7997
  139.4826  144.5261  151.7798 H   0  0  0  0  0  0  0  0  0  0  0  0  # atno 10167 bound_to 10162
  157.4707  130.8254  149.7985 H   0  0  0  0  0  0  0  0  0  0  0  0  # atno 10718 bound_to 10713
  153.1173  135.6711  153.9397 H   0  0  0  0  0  0  0  0  0  0  0  0  # atno 10763 bound_to 10752
  153.8922  135.3045  155.3449 H   0  0  0  0  0  0  0  0  0  0  0  0  # atno 10764 bound_to 10752
  154.7588  135.4998  153.9503 H   0  0  0  0  0  0  0  0  0  0  0  0  # atno 10765 bound_to 10752
  140.9056  134.1634  157.4428 H   0  0  0  0  0  0  0  0  0  0  0  0  # atno 11005 bound_to 11000
  144.8905  140.7518  143.5929 LP  0  0  0  0  0  0  0  0  0  0  0  0  # atno 17320 bound_to 7965
  145.3154  139.1805  143.4616 LP  0  0  0  0  0  0  0  0  0  0  0  0  # atno 17321 bound_to 7965
  140.4782  144.1489  150.5928 LP  0  0  0  0  0  0  0  0  0  0  0  0  # atno 17342 bound_to 10162
  140.4308  143.2569  151.9598 LP  0  0  0  0  0  0  0  0  0  0  0  0  # atno 17343 bound_to 10162
  156.0072  130.3850  150.2389 LP  0  0  0  0  0  0  0  0  0  0  0  0  # atno 17370 bound_to 10713
  157.0571  131.0079  151.3234 LP  0  0  0  0  0  0  0  0  0  0  0  0  # atno 17371 bound_to 10713
  139.8749  134.9915  156.5555 LP  0  0  0  0  0  0  0  0  0  0  0  0  # atno 17394 bound_to 11000
  140.8175  133.8380  155.8865 LP  0  0  0  0  0  0  0  0  0  0  0  0  # atno 17395 bound_to 11000

$$$$
