AV-unprocessed.smi:2095|AV-procd|sdf|8554|dock10
  -GOLD-   2272011273D 1   1.00000     0.00000
 Structure written by MMmdl.
 42 43  0  0  0  0  0  0  0  0  2 V2000
  152.9452  142.4178  161.8397 C   0  0  0  0  0  0  0  0  0  0  0  0
  152.6944  143.2344  160.5638 C   0  0  2  0  0  0  0  0  0  0  0  0
  151.9808  144.5570  160.8800 C   0  0  0  0  0  0  0  0  0  0  0  0
  151.7221  145.3331  159.5862 C   0  0  0  0  0  0  0  0  0  0  0  0
  150.9343  144.4740  158.5871 C   0  0  0  0  0  0  0  0  0  0  0  0
  151.6468  143.2024  158.2729 N   0  3  2  0  0  0  0  0  0  0  0  0
  150.9912  142.4559  157.1475 C   0  0  2  0  0  0  0  0  0  0  0  0
  149.5777  141.9176  157.4847 C   0  0  0  0  0  0  0  0  0  0  0  0
  151.9179  141.3071  156.6710 C   0  0  0  0  0  0  0  0  0  0  0  0
  151.2025  140.3095  155.8806 N   0  0  0  0  0  0  0  0  0  0  0  0
  151.7541  139.2369  155.2902 C   0  0  0  0  0  0  0  0  0  0  0  0
  152.9628  139.0075  155.2868 O   0  0  0  0  0  0  0  0  0  0  0  0
  150.7878  138.2555  154.6268 C   0  0  0  0  0  0  0  0  0  0  0  0
  150.9277  136.9320  155.2060 N   0  0  0  0  0  0  0  0  0  0  0  0
  150.2262  135.8129  155.0149 C   0  0  0  0  0  0  0  0  0  0  0  0
  150.6662  134.8236  155.7769 N   0  0  0  0  0  0  0  0  0  0  0  0
  151.7150  135.4037  156.4710 N   0  0  0  0  0  0  0  0  0  0  0  0
  151.8746  136.6548  156.1369 N   0  0  0  0  0  0  0  0  0  0  0  0
  151.9004  142.4205  159.5199 C   0  0  0  0  0  0  0  0  0  0  0  0
  152.0084  142.1460  162.3272 H   0  0  0  0  0  0  0  0  0  0  0  0
  153.5415  142.9827  162.5569 H   0  0  0  0  0  0  0  0  0  0  0  0
  153.4842  141.4962  161.6182 H   0  0  0  0  0  0  0  0  0  0  0  0
  153.6678  143.4732  160.1322 H   0  0  0  0  0  0  0  0  0  0  0  0
  151.0352  144.3610  161.3879 H   0  0  0  0  0  0  0  0  0  0  0  0
  152.5826  145.1604  161.5608 H   0  0  0  0  0  0  0  0  0  0  0  0
  151.1707  146.2479  159.8066 H   0  0  0  0  0  0  0  0  0  0  0  0
  152.6697  145.6411  159.1421 H   0  0  0  0  0  0  0  0  0  0  0  0
  149.9476  144.2449  158.9933 H   0  0  0  0  0  0  0  0  0  0  0  0
  150.7676  145.0632  157.6872 H   0  0  0  0  0  0  0  0  0  0  0  0
  150.8594  143.1565  156.3208 H   0  0  0  0  0  0  0  0  0  0  0  0
  149.1292  141.3983  156.6382 H   0  0  0  0  0  0  0  0  0  0  0  0
  148.8806  142.7183  157.7310 H   0  0  0  0  0  0  0  0  0  0  0  0
  149.6052  141.2153  158.3187 H   0  0  0  0  0  0  0  0  0  0  0  0
  152.7186  141.6812  156.0356 H   0  0  0  0  0  0  0  0  0  0  0  0
  152.4105  140.8509  157.5313 H   0  0  0  0  0  0  0  0  0  0  0  0
  150.2002  140.4159  155.8185 H   0  0  0  0  0  0  0  0  0  0  0  0
  149.7593  138.5948  154.7580 H   0  0  0  0  0  0  0  0  0  0  0  0
  150.9779  138.2008  153.5537 H   0  0  0  0  0  0  0  0  0  0  0  0
  149.3925  135.7278  154.3336 H   0  0  0  0  0  0  0  0  0  0  0  0
  152.4910  141.5320  159.2989 H   0  0  0  0  0  0  0  0  0  0  0  0
  150.9505  142.0845  159.9392 H   0  0  0  0  0  0  0  0  0  0  0  0
  152.5623  143.4591  157.9316 H   0  0  0  0  0  0  0  0  0  0  0  0
  1  2  1  0  0  0  0
  1 20  1  0  0  0  0
  1 21  1  0  0  0  0
  1 22  1  0  0  0  0
  2 19  1  0  0  0  0
  2  3  1  0  0  0  0
  2 23  1  0  0  0  0
  3  4  1  0  0  0  0
  3 24  1  0  0  0  0
  3 25  1  0  0  0  0
  4  5  1  0  0  0  0
  4 26  1  0  0  0  0
  4 27  1  0  0  0  0
  5  6  1  0  0  0  0
  5 28  1  0  0  0  0
  5 29  1  0  0  0  0
  6  7  1  0  0  0  0
  6 19  1  0  0  0  0
  6 42  1  0  0  0  0
  7  8  1  0  0  0  0
  7  9  1  0  0  0  0
  7 30  1  0  0  0  0
  8 31  1  0  0  0  0
  8 32  1  0  0  0  0
  8 33  1  0  0  0  0
  9 10  1  0  0  0  0
  9 34  1  0  0  0  0
  9 35  1  0  0  0  0
 10 11  1  0  0  0  0
 10 36  1  0  0  0  0
 11 12  2  0  0  0  0
 11 13  1  0  0  0  0
 13 14  1  0  0  0  0
 13 37  1  0  0  0  0
 13 38  1  0  0  0  0
 14 18  1  0  0  0  0
 14 15  1  0  0  0  0
 15 16  2  0  0  0  0
 15 39  1  0  0  0  0
 16 17  1  0  0  0  0
 17 18  2  0  0  0  0
 19 40  1  0  0  0  0
 19 41  1  0  0  0  0
M  CHG  1   6   1
M  END
> <s_m_source_file>
AV-unprocessed.smi

> <i_m_source_file_index>
2095

> <i_lp_mmshare_version>
43012

> <i_f3d_flags>
0

> <s_epik_input>
W0NIM11bQ0BASF0xW0NIMl1bQ0gyXVtDSDJdTihbQ0gyXTEpW0NASF0oW0NIM10pW0NIMl1bTkhdQyg9TylbQ0gyXW4yW2NIXW5ubjI=

> <s_epik_cmdline>
J2VwaWtfcHl0aG9uJywgJy1waCcsICc3LjAnLCAnLXRuJywgJzgnLCAnLW1hJywgJzIwMCcsICctbWV0YWxfYmluZGluZycsICctaW1hZScsICc8aW5maWxlLm1hZT4nLCAnLW9tYWUnLCAnPG91dGZpbGUubWFlPic=

> <r_lp_tautomer_probability>
1

> <r_epik_Ionization_Penalty>
0.00268321

> <r_epik_Ionization_Penalty_Charging>
0.00267875

> <r_epik_Ionization_Penalty_Neutral>
4.46125e-06

> <r_epik_State_Penalty>
0.00186642

> <r_epik_Charging_Adjusted_Penalty>
0.00454517

> <i_epik_Tot_Q>
1

> <i_epik_Tot_abs_Q>
1

> <r_epik_Metal_State_Penalty>
-0

> <b_epik_Metal_Only>
0

> <s_lp_Force_Field>
OPLS_2005

> <r_lp_Energy>
25.312

> <b_lp_Chiralities_Consistent>
1

> <s_lp_Variant>
AV-unprocessed.smi:2095-1

> <Gold.Version>
5.8.1

> <Gold.Id.Protein>
6NUR|6NUR_protein|mol2

> <Gold.PLP.Fitness>
45.5325

> <Gold.PLP.PLP>
-40.0410

> <Gold.PLP.part.hbond>
-3.1440

> <Gold.PLP.part.metal>
0.0000

> <Gold.PLP.part.buried>
-7.8236

> <Gold.PLP.part.nonpolar>
-30.4983

> <Gold.PLP.part.repulsive>
0.2360

> <Gold.PLP.ligand.clash>
0.0000

> <Gold.PLP.ligand.torsion>
0.2893

> <Gold.PLP.Chemscore.Hbond>
1.0000

> <Gold.PLP.Chemscore.CHOScore>
1.0000

> <Gold.PLP.Chemscore.Metal>
0.0000

> <Gold.Chemscore.Hbonds>
donor molecule, donor type, donor heavy atom, donor atom, acceptor molecule, acceptor atom, score
      P1  H  7997  8010       L1    12  0.98
      L1  C    15    39       P1  7948  1.00

> <Gold.PLP.Chemscore.Internal.Correction>
0.0700

> <Gold.Rescore>
     Score         DG    S(hbond)    S(metal)    S(lipo)     H(rot)  DE(clash)    DE(int)     intcor
     10.45     -13.76       1.00        0.00     100.18       2.64       1.62       1.69       ----

> <Gold.Chemscore.Fitness>
10.4504

> <Gold.Chemscore.DG>
-13.7569

> <Gold.Chemscore.ZeroCoef>
-5.4800

> <Gold.Chemscore.Hbond>
0.9954

> <Gold.Chemscore.Metal>
0.0000

> <Gold.Chemscore.Lipo>
100.1767

> <Gold.Chemscore.Internal_Hbond>
0.0000

> <Gold.Chemscore.DEClash>
1.6181

> <Gold.Chemscore.DEInternal>
1.6884

> <Gold.Chemscore.Rot>
2.6439

> <Gold.Chemscore.Internal.Correction>
   9.000000E+99

> <Gold.Chemscore.Hbonds>
donor molecule, donor type, donor heavy atom, donor atom, acceptor molecule, acceptor atom, score
      P1  H  7997  8010       L1    12  0.88

> <Gold.Chemscore.Hbond.Weighted>
-3.3246

> <Gold.Chemscore.Metal.Weighted>
-0.0000

> <Gold.Chemscore.Lipo.Weighted>
-11.7207

> <Gold.Chemscore.Internal_Hbond.Weighted>
0.0000

> <Gold.Chemscore.DEClash.Weighted>
1.6181

> <Gold.Chemscore.DEInternal.Weighted>
1.6884

> <Gold.Chemscore.Rot.Weighted>
6.7685

> <Gold.Chemscore.Internal.Correction.Weighted>
   9.000000E+99

> <Gold.Protein.RotatedTorsions>
[ 6907 6896 6895 6894 ] final -138.67 input  -60.11 | X-H torsion
[ 7974 7965 7964 7962 ] final  154.23 input  175.53 | X-H torsion
[ 8008 7997 7996 7995 ] final  114.22 input   59.86 | X-H torsion
[ 10167 10162 10161 10158 ] final   72.48 input  -65.29 | X-H torsion
[ 10718 10713 10712 10709 ] final   50.16 input   66.30 | X-H torsion
[ 10763 10752 10751 10750 ] final -151.03 input  -60.55 | X-H torsion
[ 11005 11000 10999 10996 ] final   70.90 input  -57.11 | X-H torsion

> <Gold.Protein.ActiveResidues>
 VAL166  LYS551  ARG553  GLY616  TRP617  ASP618  TYR619  PRO620  LYS621  CYS622 
 ASP623  PHE694  ASN695  SER759  ASP760  ASP761  ALA762  ILE779  LEU786  VAL792 
 PHE793  MET794  SER795  GLU796  ALA797  LYS798  CYS799  TRP800  GLU811  SER814 

> <Gold.Protein.RotatedAtoms>
  151.0379  133.5732  159.2653 H   0  0  0  0  0  0  0  0  0  0  0  0  # atno 6907 bound_to 6896
  151.2789  135.0707  159.9172 H   0  0  0  0  0  0  0  0  0  0  0  0  # atno 6908 bound_to 6896
  152.5358  134.0097  159.7987 H   0  0  0  0  0  0  0  0  0  0  0  0  # atno 6909 bound_to 6896
  144.8102  139.6906  143.6145 H   0  0  0  0  0  0  0  0  0  0  0  0  # atno 7974 bound_to 7965
  156.2308  140.2963  156.0183 H   0  0  0  0  0  0  0  0  0  0  0  0  # atno 8008 bound_to 7997
  155.2231  140.0416  157.2968 H   0  0  0  0  0  0  0  0  0  0  0  0  # atno 8009 bound_to 7997
  154.5992  140.2422  155.7823 H   0  0  0  0  0  0  0  0  0  0  0  0  # atno 8010 bound_to 7997
  140.0348  144.5437  150.7479 H   0  0  0  0  0  0  0  0  0  0  0  0  # atno 10167 bound_to 10162
  157.4857  130.8343  149.8144 H   0  0  0  0  0  0  0  0  0  0  0  0  # atno 10718 bound_to 10713
  154.8083  135.3270  154.7374 H   0  0  0  0  0  0  0  0  0  0  0  0  # atno 10763 bound_to 10752
  153.8028  135.6902  153.4857 H   0  0  0  0  0  0  0  0  0  0  0  0  # atno 10764 bound_to 10752
  153.1843  135.4575  155.0014 H   0  0  0  0  0  0  0  0  0  0  0  0  # atno 10765 bound_to 10752
  139.9572  134.7123  156.0726 H   0  0  0  0  0  0  0  0  0  0  0  0  # atno 11005 bound_to 11000
  146.2399  139.5981  142.9498 LP  0  0  0  0  0  0  0  0  0  0  0  0  # atno 17320 bound_to 7965
  145.5342  141.0425  143.2366 LP  0  0  0  0  0  0  0  0  0  0  0  0  # atno 17321 bound_to 7965
  140.7286  143.2664  151.4032 LP  0  0  0  0  0  0  0  0  0  0  0  0  # atno 17342 bound_to 10162
  139.6052  144.1212  152.2241 LP  0  0  0  0  0  0  0  0  0  0  0  0  # atno 17343 bound_to 10162
  156.0145  130.3819  150.2154 LP  0  0  0  0  0  0  0  0  0  0  0  0  # atno 17370 bound_to 10713
  157.0341  131.0016  151.3303 LP  0  0  0  0  0  0  0  0  0  0  0  0  # atno 17371 bound_to 10713
  141.1245  133.6603  156.3301 LP  0  0  0  0  0  0  0  0  0  0  0  0  # atno 17394 bound_to 11000
  140.5581  134.5961  157.5426 LP  0  0  0  0  0  0  0  0  0  0  0  0  # atno 17395 bound_to 11000

$$$$
