AV-unprocessed.smi:79|AV-procd|sdf|779|dock8
  -GOLD-   2262017133D 1   1.00000     0.00000
 Structure written by MMmdl.
 56 59  0  0  0  0  0  0  0  0  2 V2000
  143.6548  132.9684  151.2353 C   0  0  0  0  0  0  0  0  0  0  0  0
  144.8224  133.7449  150.6123 C   0  0  2  0  0  0  0  0  0  0  0  0
  144.5506  133.9025  149.2339 O   0  0  0  0  0  0  0  0  0  0  0  0
  146.1617  133.0012  150.7903 C   0  0  0  0  0  0  0  0  0  0  0  0
  146.8518  133.3462  152.0597 N   0  3  1  0  0  0  0  0  0  0  0  0
  145.9282  133.8037  153.1288 C   0  0  0  0  0  0  0  0  0  0  0  0
  146.7087  134.2259  154.3819 C   0  0  0  0  0  0  0  0  0  0  0  0
  147.6036  133.1632  154.8291 N   0  0  0  0  0  0  0  0  0  0  0  0
  148.1665  133.4667  156.0200 C   0  0  0  0  0  0  0  0  0  0  0  0
  149.4415  133.9250  156.0015 N   0  0  0  0  0  0  0  0  0  0  0  0
  150.0518  134.2444  157.1472 C   0  0  0  0  0  0  0  0  0  0  0  0
  149.5770  134.1767  158.3931 N   0  0  0  0  0  0  0  0  0  0  0  0
  148.2952  133.7110  158.4130 C   0  0  0  0  0  0  0  0  0  0  0  0
  147.5197  133.3344  157.2811 C   0  0  0  0  0  0  0  0  0  0  0  0
  146.2626  132.9046  157.6881 N   0  0  0  0  0  0  0  0  0  0  0  0
  146.2937  133.0201  158.9880 C   0  0  0  0  0  0  0  0  0  0  0  0
  147.4732  133.5052  159.5076 N   0  0  0  0  0  0  0  0  0  0  0  0
  147.7820  133.7292  160.9117 C   0  0  0  0  0  0  0  0  0  0  0  0
  147.1064  134.9810  161.5064 C   0  0  0  0  0  0  0  0  0  0  0  0
  145.6263  134.7013  161.8215 C   0  0  0  0  0  0  0  0  0  0  0  0
  145.4848  133.6809  162.7887 O   0  0  0  0  0  0  0  0  0  0  0  0
  147.8726  135.6797  162.6389 C   0  0  0  0  0  0  0  0  0  0  0  0
  147.7971  136.9607  161.9795 O   0  0  0  0  0  0  0  0  0  0  0  0
  147.3720  136.3002  160.7685 C   0  0  0  0  0  0  0  0  0  0  0  0
  148.5208  132.6590  153.8004 C   0  0  1  0  0  0  0  0  0  0  0  0
  149.3784  131.4756  154.2931 C   0  0  0  0  0  0  0  0  0  0  0  0
  147.7300  132.2497  152.5396 C   0  0  0  0  0  0  0  0  0  0  0  0
  143.8007  132.8368  152.3077 H   0  0  0  0  0  0  0  0  0  0  0  0
  143.5510  131.9779  150.7908 H   0  0  0  0  0  0  0  0  0  0  0  0
  142.7112  133.4969  151.0947 H   0  0  0  0  0  0  0  0  0  0  0  0
  144.8576  134.7321  151.0714 H   0  0  0  0  0  0  0  0  0  0  0  0
  145.2667  133.5410  148.7349 H   0  0  0  0  0  0  0  0  0  0  0  0
  146.0072  131.9218  150.7516 H   0  0  0  0  0  0  0  0  0  0  0  0
  146.8047  133.2437  149.9425 H   0  0  0  0  0  0  0  0  0  0  0  0
  145.3273  134.6449  152.7858 H   0  0  0  0  0  0  0  0  0  0  0  0
  145.2341  132.9996  153.3784 H   0  0  0  0  0  0  0  0  0  0  0  0
  147.2883  135.1245  154.1651 H   0  0  0  0  0  0  0  0  0  0  0  0
  146.0097  134.4831  155.1796 H   0  0  0  0  0  0  0  0  0  0  0  0
  151.0653  134.6058  157.0522 H   0  0  0  0  0  0  0  0  0  0  0  0
  145.4503  132.7506  159.6069 H   0  0  0  0  0  0  0  0  0  0  0  0
  147.4783  132.8368  161.4605 H   0  0  0  0  0  0  0  0  0  0  0  0
  148.8651  133.7822  161.0255 H   0  0  0  0  0  0  0  0  0  0  0  0
  145.1103  135.5967  162.1681 H   0  0  0  0  0  0  0  0  0  0  0  0
  145.0991  134.3795  160.9226 H   0  0  0  0  0  0  0  0  0  0  0  0
  144.9359  134.0031  163.4877 H   0  0  0  0  0  0  0  0  0  0  0  0
  147.3555  135.6695  163.5992 H   0  0  0  0  0  0  0  0  0  0  0  0
  148.9061  135.3488  162.7504 H   0  0  0  0  0  0  0  0  0  0  0  0
  148.1772  136.2437  160.0343 H   0  0  0  0  0  0  0  0  0  0  0  0
  146.4813  136.7552  160.3338 H   0  0  0  0  0  0  0  0  0  0  0  0
  149.1929  133.4708  153.5199 H   0  0  0  0  0  0  0  0  0  0  0  0
  150.0133  131.0940  153.4929 H   0  0  0  0  0  0  0  0  0  0  0  0
  148.7537  130.6519  154.6405 H   0  0  0  0  0  0  0  0  0  0  0  0
  150.0389  131.7620  155.1120 H   0  0  0  0  0  0  0  0  0  0  0  0
  147.1192  131.3693  152.7482 H   0  0  0  0  0  0  0  0  0  0  0  0
  148.4293  131.9708  151.7502 H   0  0  0  0  0  0  0  0  0  0  0  0
  147.4659  134.1194  151.8488 H   0  0  0  0  0  0  0  0  0  0  0  0
  1  2  1  0  0  0  0
  1 28  1  0  0  0  0
  1 29  1  0  0  0  0
  1 30  1  0  0  0  0
  2  3  1  0  0  0  0
  2  4  1  0  0  0  0
  2 31  1  0  0  0  0
  3 32  1  0  0  0  0
  4  5  1  0  0  0  0
  4 33  1  0  0  0  0
  4 34  1  0  0  0  0
  5 27  1  0  0  0  0
  5  6  1  0  0  0  0
  5 56  1  0  0  0  0
  6  7  1  0  0  0  0
  6 35  1  0  0  0  0
  6 36  1  0  0  0  0
  7  8  1  0  0  0  0
  7 37  1  0  0  0  0
  7 38  1  0  0  0  0
  8  9  1  0  0  0  0
  8 25  1  0  0  0  0
  9 14  1  0  0  0  0
  9 10  2  0  0  0  0
 10 11  1  0  0  0  0
 11 12  2  0  0  0  0
 11 39  1  0  0  0  0
 12 13  1  0  0  0  0
 13 17  1  0  0  0  0
 13 14  2  0  0  0  0
 14 15  1  0  0  0  0
 15 16  2  0  0  0  0
 16 17  1  0  0  0  0
 16 40  1  0  0  0  0
 17 18  1  0  0  0  0
 18 19  1  0  0  0  0
 18 41  1  0  0  0  0
 18 42  1  0  0  0  0
 19 24  1  0  0  0  0
 19 20  1  0  0  0  0
 19 22  1  0  0  0  0
 20 21  1  0  0  0  0
 20 43  1  0  0  0  0
 20 44  1  0  0  0  0
 21 45  1  0  0  0  0
 22 23  1  0  0  0  0
 22 46  1  0  0  0  0
 22 47  1  0  0  0  0
 23 24  1  0  0  0  0
 24 48  1  0  0  0  0
 24 49  1  0  0  0  0
 25 26  1  0  0  0  0
 25 27  1  0  0  0  0
 25 50  1  0  0  0  0
 26 51  1  0  0  0  0
 26 52  1  0  0  0  0
 26 53  1  0  0  0  0
 27 54  1  0  0  0  0
 27 55  1  0  0  0  0
M  CHG  1   5   1
M  END
> <s_m_source_file>
AV-unprocessed.smi

> <i_m_source_file_index>
79

> <i_lp_mmshare_version>
43012

> <i_f3d_flags>
0

> <s_epik_input>
W0NIM11bQ0BIXShbT0hdKVtDSDJdTjFbQ0gyXVtDSDJdTihbQ0BASF0oW0NIM10pW0NIMl0xKWMobltjSF1uMiljKGMyMyluW2NIXW4zW0NIMl1DNChbQ0gyXVtPSF0pW0NIMl1PW0NIMl00

> <s_epik_cmdline>
J2VwaWtfcHl0aG9uJywgJy1waCcsICc3LjAnLCAnLXRuJywgJzgnLCAnLW1hJywgJzIwMCcsICctbWV0YWxfYmluZGluZycsICctaW1hZScsICc8aW5maWxlLm1hZT4nLCAnLW9tYWUnLCAnPG91dGZpbGUubWFlPic=

> <r_lp_tautomer_probability>
1

> <r_epik_Ionization_Penalty>
0.00515943

> <r_epik_Ionization_Penalty_Charging>
0.00509693

> <r_epik_Ionization_Penalty_Neutral>
6.25007e-05

> <r_epik_State_Penalty>
-0

> <r_epik_Charging_Adjusted_Penalty>
0.00509693

> <i_epik_Tot_Q>
1

> <i_epik_Tot_abs_Q>
1

> <r_epik_Metal_State_Penalty>
-0

> <b_epik_Metal_Only>
0

> <s_lp_Force_Field>
OPLS_2005

> <r_lp_Energy>
50.7064

> <b_lp_Chiralities_Consistent>
1

> <s_lp_Variant>
AV-unprocessed.smi:79-3

> <Gold.Version>
5.8.1

> <Gold.Id.Protein>
6NUR|6NUR_protein|mol2

> <Gold.PLP.Fitness>
50.7864

> <Gold.PLP.PLP>
-39.4802

> <Gold.PLP.part.hbond>
-5.4935

> <Gold.PLP.part.metal>
0.0000

> <Gold.PLP.part.buried>
-5.1955

> <Gold.PLP.part.nonpolar>
-28.2157

> <Gold.PLP.part.repulsive>
0.1122

> <Gold.PLP.ligand.clash>
0.0212

> <Gold.PLP.ligand.torsion>
1.9057

> <Gold.PLP.Chemscore.Hbond>
4.8712

> <Gold.PLP.Chemscore.CHOScore>
0.0000

> <Gold.PLP.Chemscore.Metal>
0.0000

> <Gold.Chemscore.Hbonds>
donor molecule, donor type, donor heavy atom, donor atom, acceptor molecule, acceptor atom, score
      L1  H     3    32       P1  7921  0.29
      P1  H  6896  6907       L1    12  0.78
      P1  H  6931  6943       L1    23  1.00
      P1  H  6934  6947       L1    23  0.03

> <Gold.PLP.Chemscore.Internal.Correction>
0.5252

> <Gold.Rescore>
     Score         DG    S(hbond)    S(metal)    S(lipo)     H(rot)  DE(clash)    DE(int)     intcor
     14.25     -17.50       3.70        0.00      78.59       3.72       0.04       3.21       ----

> <Gold.Chemscore.Fitness>
14.2502

> <Gold.Chemscore.DG>
-17.5008

> <Gold.Chemscore.ZeroCoef>
-5.4800

> <Gold.Chemscore.Hbond>
3.6992

> <Gold.Chemscore.Metal>
0.0000

> <Gold.Chemscore.Lipo>
78.5912

> <Gold.Chemscore.Internal_Hbond>
0.0000

> <Gold.Chemscore.DEClash>
0.0405

> <Gold.Chemscore.DEInternal>
3.2101

> <Gold.Chemscore.Rot>
3.7226

> <Gold.Chemscore.Internal.Correction>
   9.000000E+99

> <Gold.Chemscore.Hbonds>
donor molecule, donor type, donor heavy atom, donor atom, acceptor molecule, acceptor atom, score
      L1  H     3    32       P1  7921  0.15
      P1  H  6896  6907       L1    12  0.62
      P1  H  6931  6943       L1    23  0.97

> <Gold.Chemscore.Hbond.Weighted>
-12.3554

> <Gold.Chemscore.Metal.Weighted>
-0.0000

> <Gold.Chemscore.Lipo.Weighted>
-9.1952

> <Gold.Chemscore.Internal_Hbond.Weighted>
0.0000

> <Gold.Chemscore.DEClash.Weighted>
0.0405

> <Gold.Chemscore.DEInternal.Weighted>
3.2101

> <Gold.Chemscore.Rot.Weighted>
9.5298

> <Gold.Chemscore.Internal.Correction.Weighted>
   9.000000E+99

> <Gold.Protein.RotatedTorsions>
[ 6907 6896 6895 6894 ] final  -98.68 input  -60.11 | X-H torsion
[ 7974 7965 7964 7962 ] final  -92.22 input  175.53 | X-H torsion
[ 8008 7997 7996 7995 ] final  -36.52 input   59.86 | X-H torsion
[ 10167 10162 10161 10158 ] final -133.56 input  -65.29 | X-H torsion
[ 10718 10713 10712 10709 ] final  -38.35 input   66.30 | X-H torsion
[ 10763 10752 10751 10750 ] final -139.32 input  -60.55 | X-H torsion
[ 11005 11000 10999 10996 ] final   55.92 input  -57.11 | X-H torsion

> <Gold.Protein.ActiveResidues>
 VAL166  LYS551  ARG553  GLY616  TRP617  ASP618  TYR619  PRO620  LYS621  CYS622 
 ASP623  PHE694  ASN695  SER759  ASP760  ASP761  ALA762  ILE779  LEU786  VAL792 
 PHE793  MET794  SER795  GLU796  ALA797  LYS798  CYS799  TRP800  GLU811  SER814 

> <Gold.Protein.RotatedAtoms>
  150.7054  134.1157  159.4016 H   0  0  0  0  0  0  0  0  0  0  0  0  # atno 6907 bound_to 6896
  151.9144  135.0323  160.0526 H   0  0  0  0  0  0  0  0  0  0  0  0  # atno 6908 bound_to 6896
  152.2309  133.5022  159.5252 H   0  0  0  0  0  0  0  0  0  0  0  0  # atno 6909 bound_to 6896
  145.4027  140.9538  143.2278 H   0  0  0  0  0  0  0  0  0  0  0  0  # atno 7974 bound_to 7965
  154.4071  140.1628  156.2388 H   0  0  0  0  0  0  0  0  0  0  0  0  # atno 8008 bound_to 7997
  155.9219  140.3420  155.6157 H   0  0  0  0  0  0  0  0  0  0  0  0  # atno 8009 bound_to 7997
  155.7212  140.0768  157.2320 H   0  0  0  0  0  0  0  0  0  0  0  0  # atno 8010 bound_to 7997
  139.8970  143.6654  152.2602 H   0  0  0  0  0  0  0  0  0  0  0  0  # atno 10167 bound_to 10162
  156.3047  130.4244  149.8108 H   0  0  0  0  0  0  0  0  0  0  0  0  # atno 10718 bound_to 10713
  154.8612  135.3586  154.5527 H   0  0  0  0  0  0  0  0  0  0  0  0  # atno 10763 bound_to 10752
  153.6145  135.7008  153.5339 H   0  0  0  0  0  0  0  0  0  0  0  0  # atno 10764 bound_to 10752
  153.3181  135.4159  155.1354 H   0  0  0  0  0  0  0  0  0  0  0  0  # atno 10765 bound_to 10752
  140.0569  134.5657  155.9197 H   0  0  0  0  0  0  0  0  0  0  0  0  # atno 11005 bound_to 11000
  144.8363  139.5545  143.6921 LP  0  0  0  0  0  0  0  0  0  0  0  0  # atno 17320 bound_to 7965
  146.2744  139.6715  142.9273 LP  0  0  0  0  0  0  0  0  0  0  0  0  # atno 17321 bound_to 7965
  139.7059  144.7628  151.1194 LP  0  0  0  0  0  0  0  0  0  0  0  0  # atno 17342 bound_to 10162
  140.7715  143.5395  150.9329 LP  0  0  0  0  0  0  0  0  0  0  0  0  # atno 17343 bound_to 10162
  156.5473  130.8326  151.3288 LP  0  0  0  0  0  0  0  0  0  0  0  0  # atno 17370 bound_to 10713
  157.7377  130.9800  150.2207 LP  0  0  0  0  0  0  0  0  0  0  0  0  # atno 17371 bound_to 10713
  141.1956  133.6588  156.5651 LP  0  0  0  0  0  0  0  0  0  0  0  0  # atno 17394 bound_to 11000
  140.3830  134.7507  157.4673 LP  0  0  0  0  0  0  0  0  0  0  0  0  # atno 17395 bound_to 11000

$$$$
