#       Name:                AV-unprocessed.smi:2826
#       Creating user name   scv26
#       Creation time:       Fri Mar 27 15:34:12 2020


#       File generated by GOLD software.
#

@<TRIPOS>MOLECULE
AV-unprocessed.smi:2826
    57    58     1
SMALL
NO_CHARGES


@<TRIPOS>ATOM
      1 ****        -7.8083   3.4202   0.2752 C.3            1 S1                 0.0000
      2 ****        -6.5495   4.0213  -0.0075 O.3            1 S1                 0.0000
      3 ****        -5.4759   3.1971  -0.2754 C.ar           1 S1                 0.0000
      4 ****        -4.2271   3.7851  -0.5532 C.ar           1 S1                 0.0000
      5 ****        -3.1281   2.9497  -0.8260 C.ar           1 S1                 0.0000
      6 ****        -3.3068   1.5457  -0.8037 C.ar           1 S1                 0.0000
      7 ****        -2.2599   0.6246  -1.0881 N.am           1 S1                 0.0000
      8 ****        -0.9371   0.7917  -0.9196 C.2            1 S1                 0.0000
      9 ****        -0.4013   1.7988  -0.4571 O.2            1 S1                 0.0000
     10 ****        -0.2572  -0.2995  -1.2997 N.am           1 S1                 0.0000
     11 ****         1.1930  -0.4519  -1.2259 C.3            1 S1                 0.0000
     12 ****         1.6604  -1.5207  -2.2237 C.3            1 S1                 0.0000
     13 ****         3.1631  -1.7940  -2.0563 C.3            1 S1                 0.0000
     14 ****         3.4403  -2.1742  -0.7128 O.3            1 S1                 0.0000
     15 ****         3.1423  -1.1529   0.2364 C.3            1 S1                 0.0000
     16 ****         3.5878  -1.6320   1.6306 C.3            1 S1                 0.0000
     17 ****         5.1041  -1.8871   1.7750 C.3            1 S1                 0.0000
     18 ****         5.4072  -2.6015   3.1010 C.3            1 S1                 0.0000
     19 ****         5.9339  -0.5966   1.6633 C.3            1 S1                 0.0000
     20 ****         1.6313  -0.8546   0.1926 C.3            1 S1                 0.0000
     21 ****        -4.6055   1.0527  -0.5295 C.ar           1 S1                 0.0000
     22 ****        -4.8985  -0.4372  -0.5043 C.3            1 S1                 0.0000
     23 ****        -5.6613   1.8544  -0.2676 N.ar           1 S1                 0.0000
     24 ****        -8.5450   4.1999   0.4682 H              1 S1                 0.0000
     25 ****        -7.7580   2.7866   1.1618 H              1 S1                 0.0000
     26 ****        -8.1663   2.8285  -0.5684 H              1 S1                 0.0000
     27 ****        -4.1148   4.8592  -0.5623 H              1 S1                 0.0000
     28 ****        -2.1766   3.4008  -1.0611 H              1 S1                 0.0000
     29 ****        -2.5582  -0.2923  -1.3871 H              1 S1                 0.0000
     30 ****        -0.7788  -1.0836  -1.6630 H              1 S1                 0.0000
     31 ****         1.6688   0.4944  -1.4912 H              1 S1                 0.0000
     32 ****         1.1085  -2.4479  -2.0618 H              1 S1                 0.0000
     33 ****         1.4496  -1.2045  -3.2459 H              1 S1                 0.0000
     34 ****         3.4732  -2.6004  -2.7210 H              1 S1                 0.0000
     35 ****         3.7518  -0.9159  -2.3263 H              1 S1                 0.0000
     36 ****         3.6852  -0.2446  -0.0270 H              1 S1                 0.0000
     37 ****         3.2764  -0.9033   2.3803 H              1 S1                 0.0000
     38 ****         3.0477  -2.5502   1.8656 H              1 S1                 0.0000
     39 ****         5.4175  -2.5568   0.9734 H              1 S1                 0.0000
     40 ****         5.1207  -1.9886   3.9561 H              1 S1                 0.0000
     41 ****         6.4703  -2.8260   3.1933 H              1 S1                 0.0000
     42 ****         4.8671  -3.5460   3.1723 H              1 S1                 0.0000
     43 ****         5.6293   0.1360   2.4112 H              1 S1                 0.0000
     44 ****         5.8335  -0.1348   0.6817 H              1 S1                 0.0000
     45 ****         6.9947  -0.8001   1.8123 H              1 S1                 0.0000
     46 ****         1.3883  -0.0613   0.9007 H              1 S1                 0.0000
     47 ****         1.0768  -1.7383   0.5124 H              1 S1                 0.0000
     48 ****        -4.2581  -0.9382   0.2222 H              1 S1                 0.0000
     49 ****        -4.7166  -0.8755  -1.4857 H              1 S1                 0.0000
     50 ****        -5.9359  -0.6375  -0.2320 H              1 S1                 0.0000
     51 ****        -6.3035   4.5796   0.7848 LP             1 S1                 0.0000
     52 ****        -6.6757   4.6115  -0.8049 LP             1 S1                 0.0000
     53 ****        -0.9611   2.5769  -0.1722 LP             1 S1                 0.0000
     54 ****         0.5938   1.8389  -0.3663 LP             1 S1                 0.0000
     55 ****         4.4118  -2.4002  -0.6412 LP             1 S1                 0.0000
     56 ****         2.8931  -2.9816  -0.4923 LP             1 S1                 0.0000
     57 ****        -6.5613   1.4649  -0.0720 LP             1 S1                 0.0000
@<TRIPOS>BOND
    1    1    2 1     
    2    1   24 1     
    3    1   25 1     
    4    1   26 1     
    5    2    3 1     
    6    3   23 ar    
    7    3    4 ar    
    8    4    5 ar    
    9    4   27 1     
   10    5    6 ar    
   11    5   28 1     
   12    6    7 1     
   13    6   21 ar    
   14    7    8 am    
   15    7   29 1     
   16    8    9 2     
   17    8   10 am    
   18   10   11 1     
   19   10   30 1     
   20   11   20 1     
   21   11   12 1     
   22   11   31 1     
   23   12   13 1     
   24   12   32 1     
   25   12   33 1     
   26   13   14 1     
   27   13   34 1     
   28   13   35 1     
   29   14   15 1     
   30   15   16 1     
   31   15   20 1     
   32   15   36 1     
   33   16   17 1     
   34   16   37 1     
   35   16   38 1     
   36   17   18 1     
   37   17   19 1     
   38   17   39 1     
   39   18   40 1     
   40   18   41 1     
   41   18   42 1     
   42   19   43 1     
   43   19   44 1     
   44   19   45 1     
   45   20   46 1     
   46   20   47 1     
   47   21   22 1     
   48   21   23 ar    
   49   22   48 1     
   50   22   49 1     
   51   22   50 1     
   52    2   51 1     
   53    2   52 1     
   54    9   53 1     
   55    9   54 1     
   56   14   55 1     
   57   14   56 1     
   58   23   57 1     
@<TRIPOS>SUBSTRUCTURE
      1 S1             1
@<TRIPOS>SET
LONE_PAIRS      STATIC     ATOMS    <user>   **** ""
7 51 52 53 54 55 56 57
DONOR_HYDROGENS      STATIC     ATOMS    <user>   **** ""
2 29 30
ATOM$BLUE        STATIC     ATOMS    COLORGROUP SYSTEM
7 51 52 53 54 55 56 57
ATOM$RED        STATIC     ATOMS    COLORGROUP SYSTEM
2 29 30
