#       Name:                AV-unprocessed.smi:123
#       Creating user name   scv26
#       Creation time:       Thu Mar 26 18:27:32 2020


#       File generated by GOLD software.
#

@<TRIPOS>MOLECULE
AV-unprocessed.smi:123
    53    55     1
SMALL
NO_CHARGES


@<TRIPOS>ATOM
      1 ****        -4.1181   0.0314   2.7982 C.3            1 S1                 0.0000
      2 ****        -3.5026  -1.3330   2.4370 C.3            1 S1                 0.0000
      3 ****        -2.0402  -1.2687   2.4318 N.am           1 S1                 0.0000
      4 ****        -1.2672  -0.5918   1.5657 C.2            1 S1                 0.0000
      5 ****        -1.7170   0.0684   0.6279 O.2            1 S1                 0.0000
      6 ****         0.2470  -0.6927   1.8046 C.3            1 S1                 0.0000
      7 ****         1.0272   0.3166   1.0551 N.am           1 S1                 0.0000
      8 ****         1.2162   1.5938   1.6404 C.2            1 S1                 0.0000
      9 ****         0.7533   1.8622   2.7502 O.2            1 S1                 0.0000
     10 ****         1.9807   2.5460   0.8429 C.2            1 S1                 0.0000
     11 ****         2.2217   3.7770   1.3251 F              1 S1                 0.0000
     12 ****         2.4524   2.2091  -0.3746 C.2            1 S1                 0.0000
     13 ****         2.2451   0.9658  -0.9407 N.am           1 S1                 0.0000
     14 ****         2.7934   0.6513  -2.3123 C.3            1 S1                 0.0000
     15 ****         4.2868   0.3088  -2.2290 C.3            1 S1                 0.0000
     16 ****         4.9400   1.5686  -2.7597 C.3            1 S1                 0.0000
     17 ****         3.8947   2.0687  -3.7485 C.3            1 S1                 0.0000
     18 ****         2.6526   1.7860  -3.1165 O.3            1 S1                 0.0000
     19 ****         1.5262  -0.0182  -0.2270 C.2            1 S1                 0.0000
     20 ****         1.3407  -1.1391  -0.7053 O.2            1 S1                 0.0000
     21 ****        -4.0573  -1.9331   1.1778 C.2            1 S1                 0.0000
     22 ****        -5.0085  -1.5388   0.2758 C.2            1 S1                 0.0000
     23 ****        -5.0777  -2.5600  -0.7113 C.2            1 S1                 0.0000
     24 ****        -4.1689  -3.5075  -0.3362 C.2            1 S1                 0.0000
     25 ****        -3.5410  -3.1425   0.8142 O.3            1 S1                 0.0000
     26 ****        -5.1959  -0.0521   2.9398 H              1 S1                 0.0000
     27 ****        -3.9459   0.7736   2.0181 H              1 S1                 0.0000
     28 ****        -3.6955   0.4194   3.7256 H              1 S1                 0.0000
     29 ****        -3.7527  -2.0135   3.2515 H              1 S1                 0.0000
     30 ****        -1.5718  -1.7848   3.1622 H              1 S1                 0.0000
     31 ****         0.4418  -0.6091   2.8752 H              1 S1                 0.0000
     32 ****         0.5637  -1.7071   1.5582 H              1 S1                 0.0000
     33 ****         3.0140   2.9491  -0.9248 H              1 S1                 0.0000
     34 ****         2.1895  -0.1546  -2.7306 H              1 S1                 0.0000
     35 ****         4.5965   0.0431  -1.2172 H              1 S1                 0.0000
     36 ****         4.4859  -0.5341  -2.8917 H              1 S1                 0.0000
     37 ****         5.0767   2.2923  -1.9554 H              1 S1                 0.0000
     38 ****         5.9101   1.3851  -3.2219 H              1 S1                 0.0000
     39 ****         3.9982   3.1304  -3.9733 H              1 S1                 0.0000
     40 ****         3.9551   1.5117  -4.6846 H              1 S1                 0.0000
     41 ****        -5.5812  -0.6243   0.3178 H              1 S1                 0.0000
     42 ****        -5.7119  -2.5973  -1.5846 H              1 S1                 0.0000
     43 ****        -3.8581  -4.4548  -0.7513 H              1 S1                 0.0000
     44 ****        -2.7048   0.1198   0.4811 LP             1 S1                 0.0000
     45 ****        -1.0942   0.5528   0.0135 LP             1 S1                 0.0000
     46 ****         0.2334   1.1731   3.2551 LP             1 S1                 0.0000
     47 ****         0.8976   2.7691   3.1461 LP             1 S1                 0.0000
     48 ****         2.3801   2.5647  -2.5513 LP             1 S1                 0.0000
     49 ****         1.9540   1.6183  -3.8121 LP             1 S1                 0.0000
     50 ****         0.8319  -1.8262  -0.1865 LP             1 S1                 0.0000
     51 ****         1.6991  -1.3614  -1.6120 LP             1 S1                 0.0000
     52 ****        -3.7126  -3.8195   1.5300 LP             1 S1                 0.0000
     53 ****        -2.5562  -3.0640   0.6591 LP             1 S1                 0.0000
@<TRIPOS>BOND
    1    1    2 1     
    2    1   26 1     
    3    1   27 1     
    4    1   28 1     
    5    2    3 1     
    6    2   21 1     
    7    2   29 1     
    8    3    4 am    
    9    3   30 1     
   10    4    5 2     
   11    4    6 1     
   12    6    7 1     
   13    6   31 1     
   14    6   32 1     
   15    7   19 am    
   16    7    8 am    
   17    8    9 2     
   18    8   10 1     
   19   10   11 1     
   20   10   12 2     
   21   12   13 1     
   22   12   33 1     
   23   13   14 1     
   24   13   19 am    
   25   14   18 1     
   26   14   15 1     
   27   14   34 1     
   28   15   16 1     
   29   15   35 1     
   30   15   36 1     
   31   16   17 1     
   32   16   37 1     
   33   16   38 1     
   34   17   18 1     
   35   17   39 1     
   36   17   40 1     
   37   19   20 2     
   38   21   25 1     
   39   21   22 2     
   40   22   23 1     
   41   22   41 1     
   42   23   24 2     
   43   23   42 1     
   44   24   25 1     
   45   24   43 1     
   46    5   44 1     
   47    5   45 1     
   48    9   46 1     
   49    9   47 1     
   50   18   48 1     
   51   18   49 1     
   52   20   50 1     
   53   20   51 1     
   54   25   52 1     
   55   25   53 1     
@<TRIPOS>SUBSTRUCTURE
      1 S1             1
@<TRIPOS>SET
LONE_PAIRS      STATIC     ATOMS    <user>   **** ""
10 44 45 46 47 48 49 50 51 52 53
DONOR_HYDROGENS      STATIC     ATOMS    <user>   **** ""
1 30
ATOM$BLUE        STATIC     ATOMS    COLORGROUP SYSTEM
10 44 45 46 47 48 49 50 51 52 53
ATOM$RED        STATIC     ATOMS    COLORGROUP SYSTEM
1 30
