AV-unprocessed.smi:278|AV-procd|sdf|2093|dock10
  -GOLD-   2262021373D 1   1.00000     0.00000
 Structure written by MMmdl.
 50 54  0  0  0  0  0  0  0  0  1 V2000
  153.6110  139.0641  154.9557 O   0  0  0  0  0  0  0  0  0  0  0  0
  152.3475  138.5637  155.5176 S   0  0  0  0  0  0  0  0  0  0  0  0
  151.8398  137.2311  155.1556 O   0  0  0  0  0  0  0  0  0  0  0  0
  152.4128  138.7022  157.3460 C   0  0  0  0  0  0  0  0  0  0  0  0
  151.5872  139.9422  157.7130 C   0  0  0  0  0  0  0  0  0  0  0  0
  150.4875  140.1480  156.6553 C   0  0  2  0  0  0  0  0  0  0  0  0
  149.3120  139.1730  156.7815 C   0  0  0  0  0  0  0  0  0  0  0  0
  148.8059  139.0107  155.4260 N   0  0  0  0  0  0  0  0  0  0  0  0
  147.8241  138.1158  155.1407 C   0  0  0  0  0  0  0  0  0  0  0  0
  147.4278  137.2516  156.1129 N   0  0  0  0  0  0  0  0  0  0  0  0
  146.4626  136.3587  155.8775 C   0  0  0  0  0  0  0  0  0  0  0  0
  145.7628  136.1628  154.7596 N   0  0  0  0  0  0  0  0  0  0  0  0
  146.1439  137.0318  153.7808 C   0  0  0  0  0  0  0  0  0  0  0  0
  147.1553  138.0308  153.8828 C   0  0  0  0  0  0  0  0  0  0  0  0
  147.2461  138.7247  152.6802 N   0  0  0  0  0  0  0  0  0  0  0  0
  146.3504  138.1655  151.9140 C   0  0  0  0  0  0  0  0  0  0  0  0
  145.6393  137.1433  152.4972 N   0  0  0  0  0  0  0  0  0  0  0  0
  144.5817  136.3616  151.8801 C   0  0  0  0  0  0  0  0  0  0  0  0
  145.1215  135.3571  150.8428 C   0  0  2  0  0  0  0  0  0  0  0  0
  145.0486  135.9296  149.5505 O   0  0  0  0  0  0  0  0  0  0  0  0
  144.3562  134.0182  150.8812 C   0  0  1  0  0  0  0  0  0  0  0  0
  144.5497  133.0643  149.6976 C   0  0  0  0  0  0  0  0  0  0  0  0
  144.1913  131.7382  150.3297 C   0  0  0  0  0  0  0  0  0  0  0  0
  144.7853  131.8883  151.7283 C   0  0  0  0  0  0  0  0  0  0  0  0
  144.6864  133.2734  152.0503 O   0  0  0  0  0  0  0  0  0  0  0  0
  149.8428  139.3276  154.4532 C   0  0  0  0  0  0  0  0  0  0  0  0
  151.0424  139.8407  155.2630 C   0  0  2  0  0  0  0  0  0  0  0  0
  150.1042  141.1690  156.6858 H   0  0  0  0  0  0  0  0  0  0  0  0
  151.5092  140.7135  154.8056 H   0  0  0  0  0  0  0  0  0  0  0  0
  151.9665  137.8011  157.7668 H   0  0  0  0  0  0  0  0  0  0  0  0
  153.4479  138.7652  157.6821 H   0  0  0  0  0  0  0  0  0  0  0  0
  151.1767  139.8704  158.7207 H   0  0  0  0  0  0  0  0  0  0  0  0
  152.2440  140.8128  157.7018 H   0  0  0  0  0  0  0  0  0  0  0  0
  149.6402  138.2044  157.1612 H   0  0  0  0  0  0  0  0  0  0  0  0
  148.5443  139.5600  157.4525 H   0  0  0  0  0  0  0  0  0  0  0  0
  146.2142  135.7094  156.7042 H   0  0  0  0  0  0  0  0  0  0  0  0
  146.1774  138.4901  150.8982 H   0  0  0  0  0  0  0  0  0  0  0  0
  144.0449  135.8358  152.6707 H   0  0  0  0  0  0  0  0  0  0  0  0
  143.8653  137.0420  151.4178 H   0  0  0  0  0  0  0  0  0  0  0  0
  146.1719  135.1633  151.0637 H   0  0  0  0  0  0  0  0  0  0  0  0
  145.3550  135.2913  148.9243 H   0  0  0  0  0  0  0  0  0  0  0  0
  143.2897  134.2315  150.9709 H   0  0  0  0  0  0  0  0  0  0  0  0
  143.9210  133.3147  148.8427 H   0  0  0  0  0  0  0  0  0  0  0  0
  145.5866  133.0381  149.3616 H   0  0  0  0  0  0  0  0  0  0  0  0
  143.1073  131.6325  150.3901 H   0  0  0  0  0  0  0  0  0  0  0  0
  144.5898  130.8810  149.7863 H   0  0  0  0  0  0  0  0  0  0  0  0
  144.2756  131.2695  152.4671 H   0  0  0  0  0  0  0  0  0  0  0  0
  145.8398  131.6099  151.7236 H   0  0  0  0  0  0  0  0  0  0  0  0
  150.1050  138.4718  153.8312 H   0  0  0  0  0  0  0  0  0  0  0  0
  149.4704  140.1144  153.7968 H   0  0  0  0  0  0  0  0  0  0  0  0
  1  2  2  0  0  0  0
  2 27  1  0  0  0  0
  2  3  2  0  0  0  0
  2  4  1  0  0  0  0
  4  5  1  0  0  0  0
  4 30  1  0  0  0  0
  4 31  1  0  0  0  0
  5  6  1  0  0  0  0
  5 32  1  0  0  0  0
  5 33  1  0  0  0  0
  6 28  1  0  0  0  0
  6 27  1  0  0  0  0
  6  7  1  0  0  0  0
  7  8  1  0  0  0  0
  7 34  1  0  0  0  0
  7 35  1  0  0  0  0
  8  9  1  0  0  0  0
  8 26  1  0  0  0  0
  9 14  1  0  0  0  0
  9 10  2  0  0  0  0
 10 11  1  0  0  0  0
 11 12  2  0  0  0  0
 11 36  1  0  0  0  0
 12 13  1  0  0  0  0
 13 17  1  0  0  0  0
 13 14  2  0  0  0  0
 14 15  1  0  0  0  0
 15 16  2  0  0  0  0
 16 17  1  0  0  0  0
 16 37  1  0  0  0  0
 17 18  1  0  0  0  0
 18 19  1  0  0  0  0
 18 38  1  0  0  0  0
 18 39  1  0  0  0  0
 19 20  1  0  0  0  0
 19 21  1  0  0  0  0
 19 40  1  0  0  0  0
 20 41  1  0  0  0  0
 21 25  1  0  0  0  0
 21 22  1  0  0  0  0
 21 42  1  0  0  0  0
 22 23  1  0  0  0  0
 22 43  1  0  0  0  0
 22 44  1  0  0  0  0
 23 24  1  0  0  0  0
 23 45  1  0  0  0  0
 23 46  1  0  0  0  0
 24 25  1  0  0  0  0
 24 47  1  0  0  0  0
 24 48  1  0  0  0  0
 26 27  1  0  0  0  0
 26 49  1  0  0  0  0
 26 50  1  0  0  0  0
 27 29  1  0  0  0  0
M  END
> <s_m_source_file>
AV-unprocessed.smi

> <i_m_source_file_index>
278

> <i_lp_mmshare_version>
43012

> <i_f3d_flags>
0

> <s_epik_input>
W0NIMl0xW0NIMl1TKD1PKSg9TylbQ0BASF0oW0NAQEhdMTIpW0NIMl1OKFtDSDJdMiljKG5bY0hdbjMpYyhjMzQpbltjSF1uNFtDSDJdW0NASF0oW09IXSlbQ0BASF01W0NIMl1bQ0gyXVtDSDJdTzU=

> <s_epik_cmdline>
J2VwaWtfcHl0aG9uJywgJy1waCcsICc3LjAnLCAnLXRuJywgJzgnLCAnLW1hJywgJzIwMCcsICctbWV0YWxfYmluZGluZycsICctaW1hZScsICc8aW5maWxlLm1hZT4nLCAnLW9tYWUnLCAnPG91dGZpbGUubWFlPic=

> <r_lp_tautomer_probability>
1

> <r_epik_Ionization_Penalty>
0.000636766

> <r_epik_Ionization_Penalty_Charging>
0

> <r_epik_Ionization_Penalty_Neutral>
0.000636766

> <r_epik_State_Penalty>
0.000329976

> <r_epik_Charging_Adjusted_Penalty>
0.000329976

> <i_epik_Tot_Q>
0

> <i_epik_Tot_abs_Q>
0

> <r_epik_Metal_State_Penalty>
-0

> <b_epik_Metal_Only>
0

> <s_lp_Force_Field>
OPLS_2005

> <r_lp_Energy>
51.4583

> <b_lp_Chiralities_Consistent>
1

> <s_lp_Variant>
AV-unprocessed.smi:278-7

> <Gold.Version>
5.8.1

> <Gold.Id.Protein>
6NUR|6NUR_protein|mol2

> <Gold.PLP.Fitness>
49.7345

> <Gold.PLP.PLP>
-40.0122

> <Gold.PLP.part.hbond>
-4.0000

> <Gold.PLP.part.metal>
0.0000

> <Gold.PLP.part.buried>
-4.7093

> <Gold.PLP.part.nonpolar>
-32.4418

> <Gold.PLP.part.repulsive>
0.5515

> <Gold.PLP.ligand.clash>
0.0000

> <Gold.PLP.ligand.torsion>
1.2016

> <Gold.PLP.Chemscore.Hbond>
2.9600

> <Gold.PLP.Chemscore.CHOScore>
1.0000

> <Gold.PLP.Chemscore.Metal>
0.0000

> <Gold.Chemscore.Hbonds>
donor molecule, donor type, donor heavy atom, donor atom, acceptor molecule, acceptor atom, score
      L1  H    20    41       P1  7921  1.00
      P1  H  7997  8010       L1     1  1.00
      P1  H 10752 10763       L1     3  0.94
      L1  C    16    37       P1 10171  0.88

> <Gold.PLP.Chemscore.Internal.Correction>
0.2455

> <Gold.Rescore>
     Score         DG    S(hbond)    S(metal)    S(lipo)     H(rot)  DE(clash)    DE(int)     intcor
     17.34     -18.85       2.86        0.00      79.44       2.13       0.17       1.34       ----

> <Gold.Chemscore.Fitness>
17.3411

> <Gold.Chemscore.DG>
-18.8537

> <Gold.Chemscore.ZeroCoef>
-5.4800

> <Gold.Chemscore.Hbond>
2.8574

> <Gold.Chemscore.Metal>
0.0000

> <Gold.Chemscore.Lipo>
79.4420

> <Gold.Chemscore.Internal_Hbond>
0.0000

> <Gold.Chemscore.DEClash>
0.1686

> <Gold.Chemscore.DEInternal>
1.3440

> <Gold.Chemscore.Rot>
2.1346

> <Gold.Chemscore.Internal.Correction>
   9.000000E+99

> <Gold.Chemscore.Hbonds>
donor molecule, donor type, donor heavy atom, donor atom, acceptor molecule, acceptor atom, score
      L1  H    20    41       P1  7921  0.95
      P1  H  7997  8010       L1     1  0.96
      P1  H 10752 10763       L1     3  0.84

> <Gold.Chemscore.Hbond.Weighted>
-9.5436

> <Gold.Chemscore.Metal.Weighted>
-0.0000

> <Gold.Chemscore.Lipo.Weighted>
-9.2947

> <Gold.Chemscore.Internal_Hbond.Weighted>
0.0000

> <Gold.Chemscore.DEClash.Weighted>
0.1686

> <Gold.Chemscore.DEInternal.Weighted>
1.3440

> <Gold.Chemscore.Rot.Weighted>
5.4646

> <Gold.Chemscore.Internal.Correction.Weighted>
   9.000000E+99

> <Gold.Protein.RotatedTorsions>
[ 6907 6896 6895 6894 ] final  -31.77 input  -60.11 | X-H torsion
[ 7974 7965 7964 7962 ] final  -76.25 input  175.53 | X-H torsion
[ 8008 7997 7996 7995 ] final  111.70 input   59.86 | X-H torsion
[ 10167 10162 10161 10158 ] final -179.55 input  -65.29 | X-H torsion
[ 10718 10713 10712 10709 ] final  -38.65 input   66.30 | X-H torsion
[ 10763 10752 10751 10750 ] final   55.94 input  -60.55 | X-H torsion
[ 11005 11000 10999 10996 ] final  -22.67 input  -57.11 | X-H torsion

> <Gold.Protein.ActiveResidues>
 VAL166  LYS551  ARG553  GLY616  TRP617  ASP618  TYR619  PRO620  LYS621  CYS622 
 ASP623  PHE694  ASN695  SER759  ASP760  ASP761  ALA762  ILE779  LEU786  VAL792 
 PHE793  MET794  SER795  GLU796  ALA797  LYS798  CYS799  TRP800  GLU811  SER814 

> <Gold.Protein.RotatedAtoms>
  151.0876  134.9896  159.8386 H   0  0  0  0  0  0  0  0  0  0  0  0  # atno 6907 bound_to 6896
  152.5426  134.2105  159.8758 H   0  0  0  0  0  0  0  0  0  0  0  0  # atno 6908 bound_to 6896
  151.2139  133.4496  159.2632 H   0  0  0  0  0  0  0  0  0  0  0  0  # atno 6909 bound_to 6896
  145.6154  140.9376  143.1167 H   0  0  0  0  0  0  0  0  0  0  0  0  # atno 7974 bound_to 7965
  156.2142  140.3014  155.9801 H   0  0  0  0  0  0  0  0  0  0  0  0  # atno 8008 bound_to 7997
  155.2647  140.0431  157.3018 H   0  0  0  0  0  0  0  0  0  0  0  0  # atno 8009 bound_to 7997
  154.5743  140.2357  155.8153 H   0  0  0  0  0  0  0  0  0  0  0  0  # atno 8010 bound_to 7997
  139.5381  144.2439  152.0838 H   0  0  0  0  0  0  0  0  0  0  0  0  # atno 10167 bound_to 10162
  156.3014  130.4240  149.8140 H   0  0  0  0  0  0  0  0  0  0  0  0  # atno 10718 bound_to 10713
  152.9824  135.5693  154.5148 H   0  0  0  0  0  0  0  0  0  0  0  0  # atno 10763 bound_to 10752
  154.4646  135.2782  155.1690 H   0  0  0  0  0  0  0  0  0  0  0  0  # atno 10764 bound_to 10752
  154.3263  135.6258  153.5584 H   0  0  0  0  0  0  0  0  0  0  0  0  # atno 10765 bound_to 10752
  140.8679  133.7741  156.0151 H   0  0  0  0  0  0  0  0  0  0  0  0  # atno 11005 bound_to 11000
  144.7253  139.7897  143.7367 LP  0  0  0  0  0  0  0  0  0  0  0  0  # atno 17320 bound_to 7965
  146.1472  139.4545  143.0071 LP  0  0  0  0  0  0  0  0  0  0  0  0  # atno 17321 bound_to 7965
  140.1913  144.4749  150.6477 LP  0  0  0  0  0  0  0  0  0  0  0  0  # atno 17342 bound_to 10162
  140.6598  143.2248  151.5883 LP  0  0  0  0  0  0  0  0  0  0  0  0  # atno 17343 bound_to 10162
  156.5517  130.8344  151.3301 LP  0  0  0  0  0  0  0  0  0  0  0  0  # atno 17370 bound_to 10713
  157.7369  130.9786  150.2161 LP  0  0  0  0  0  0  0  0  0  0  0  0  # atno 17371 bound_to 10713
  140.8608  134.2843  157.5235 LP  0  0  0  0  0  0  0  0  0  0  0  0  # atno 17394 bound_to 11000
  139.8710  134.9517  156.4092 LP  0  0  0  0  0  0  0  0  0  0  0  0  # atno 17395 bound_to 11000

$$$$
