AV-unprocessed.smi:2469|AV-procd|sdf|9734|dock1
  -GOLD-   2272013373D 1   1.00000     0.00000
 Structure written by MMmdl.
 32 33  0  0  0  0  0  0  0  0  1 V2000
  147.4303  138.4511  151.6849 O   0  0  0  0  0  0  0  0  0  0  0  0
  147.0253  139.6311  152.3456 C   0  0  0  0  0  0  0  0  0  0  0  0
  147.5829  139.6598  153.7740 C   0  0  0  0  0  0  0  0  0  0  0  0
  149.0065  139.6854  153.7160 O   0  0  0  0  0  0  0  0  0  0  0  0
  149.7012  140.2104  154.7865 C   0  0  0  0  0  0  0  0  0  0  0  0
  148.9907  140.9456  155.7560 C   0  0  0  0  0  0  0  0  0  0  0  0
  149.6919  141.4809  156.8531 C   0  0  0  0  0  0  0  0  0  0  0  0
  151.0860  141.2631  156.9502 C   0  0  0  0  0  0  0  0  0  0  0  0
  151.8776  141.7519  158.0006 N   0  0  0  0  0  0  0  0  0  0  0  0
  151.5192  142.9578  158.7364 C   0  0  1  0  0  0  0  0  0  0  0  0
  152.3401  143.1728  159.9932 C   0  0  0  0  0  0  0  0  0  0  0  0
  152.1410  144.6656  160.2396 C   0  0  0  0  0  0  0  0  0  0  0  0
  151.9571  145.2539  158.9540 O   0  0  0  0  0  0  0  0  0  0  0  0
  151.8382  144.2361  157.9646 C   0  0  0  0  0  0  0  0  0  0  0  0
  151.7028  140.5158  155.9245 C   0  0  0  0  0  0  0  0  0  0  0  0
  151.0380  139.9995  154.8694 N   0  0  0  0  0  0  0  0  0  0  0  0
  148.0102  137.9708  152.2560 H   0  0  0  0  0  0  0  0  0  0  0  0
  147.3340  140.5112  151.7806 H   0  0  0  0  0  0  0  0  0  0  0  0
  145.9353  139.6330  152.3761 H   0  0  0  0  0  0  0  0  0  0  0  0
  147.2352  140.5700  154.2655 H   0  0  0  0  0  0  0  0  0  0  0  0
  147.2159  138.8098  154.3525 H   0  0  0  0  0  0  0  0  0  0  0  0
  147.9257  141.0968  155.6598 H   0  0  0  0  0  0  0  0  0  0  0  0
  149.1511  142.0461  157.5968 H   0  0  0  0  0  0  0  0  0  0  0  0
  152.6226  141.1744  158.3640 H   0  0  0  0  0  0  0  0  0  0  0  0
  150.4557  142.9541  158.9788 H   0  0  0  0  0  0  0  0  0  0  0  0
  152.0197  142.5589  160.8352 H   0  0  0  0  0  0  0  0  0  0  0  0
  153.3946  142.9663  159.8023 H   0  0  0  0  0  0  0  0  0  0  0  0
  151.2408  144.8377  160.8309 H   0  0  0  0  0  0  0  0  0  0  0  0
  152.9833  145.1147  160.7665 H   0  0  0  0  0  0  0  0  0  0  0  0
  152.7962  144.1512  157.4486 H   0  0  0  0  0  0  0  0  0  0  0  0
  151.0760  144.4817  157.2249 H   0  0  0  0  0  0  0  0  0  0  0  0
  152.7655  140.3228  155.9503 H   0  0  0  0  0  0  0  0  0  0  0  0
  1  2  1  0  0  0  0
  1 17  1  0  0  0  0
  2  3  1  0  0  0  0
  2 18  1  0  0  0  0
  2 19  1  0  0  0  0
  3  4  1  0  0  0  0
  3 20  1  0  0  0  0
  3 21  1  0  0  0  0
  4  5  1  0  0  0  0
  5 16  1  0  0  0  0
  5  6  2  0  0  0  0
  6  7  1  0  0  0  0
  6 22  1  0  0  0  0
  7  8  2  0  0  0  0
  7 23  1  0  0  0  0
  8  9  1  0  0  0  0
  8 15  1  0  0  0  0
  9 10  1  0  0  0  0
  9 24  1  0  0  0  0
 10 14  1  0  0  0  0
 10 11  1  0  0  0  0
 10 25  1  0  0  0  0
 11 12  1  0  0  0  0
 11 26  1  0  0  0  0
 11 27  1  0  0  0  0
 12 13  1  0  0  0  0
 12 28  1  0  0  0  0
 12 29  1  0  0  0  0
 13 14  1  0  0  0  0
 14 30  1  0  0  0  0
 14 31  1  0  0  0  0
 15 16  2  0  0  0  0
 15 32  1  0  0  0  0
M  END
> <s_m_source_file>
AV-unprocessed.smi

> <i_m_source_file_index>
2469

> <i_lp_mmshare_version>
43012

> <i_f3d_flags>
0

> <s_epik_input>
W09IXVtDSDJdW0NIMl1PYzFbY0hdW2NIXWMoW2NIXW4xKVtOSF1bQ0BASF0yW0NIMl1bQ0gyXU9bQ0gyXTI=

> <s_epik_cmdline>
J2VwaWtfcHl0aG9uJywgJy1waCcsICc3LjAnLCAnLXRuJywgJzgnLCAnLW1hJywgJzIwMCcsICctbWV0YWxfYmluZGluZycsICctaW1hZScsICc8aW5maWxlLm1hZT4nLCAnLW9tYWUnLCAnPG91dGZpbGUubWFlPic=

> <r_lp_tautomer_probability>
1

> <r_epik_Ionization_Penalty>
0.000432265

> <r_epik_Ionization_Penalty_Charging>
0

> <r_epik_Ionization_Penalty_Neutral>
0.000432265

> <r_epik_State_Penalty>
-0

> <r_epik_Charging_Adjusted_Penalty>
0

> <i_epik_Tot_Q>
0

> <i_epik_Tot_abs_Q>
0

> <r_epik_Metal_State_Penalty>
-0

> <b_epik_Metal_Only>
0

> <s_lp_Force_Field>
OPLS_2005

> <r_lp_Energy>
23.2185

> <b_lp_Chiralities_Consistent>
1

> <s_lp_Variant>
AV-unprocessed.smi:2469-2

> <Gold.Version>
5.8.1

> <Gold.Id.Protein>
6NUR|6NUR_protein|mol2

> <Gold.PLP.Fitness>
39.3312

> <Gold.PLP.PLP>
-32.8844

> <Gold.PLP.part.hbond>
-4.0000

> <Gold.PLP.part.metal>
0.0000

> <Gold.PLP.part.buried>
-4.1356

> <Gold.PLP.part.nonpolar>
-27.3469

> <Gold.PLP.part.repulsive>
3.3677

> <Gold.PLP.ligand.clash>
0.0000

> <Gold.PLP.ligand.torsion>
0.6203

> <Gold.PLP.Chemscore.Hbond>
2.5280

> <Gold.PLP.Chemscore.CHOScore>
0.0000

> <Gold.PLP.Chemscore.Metal>
0.0000

> <Gold.Chemscore.Hbonds>
donor molecule, donor type, donor heavy atom, donor atom, acceptor molecule, acceptor atom, score
      L1  H     1    17       P1  7948  0.53
      P1  H  7954  7966       L1     1  0.95
      P1  H  7989  7998       L1    16  1.00

> <Gold.PLP.Chemscore.Internal.Correction>
0.1033

> <Gold.Rescore>
     Score         DG    S(hbond)    S(metal)    S(lipo)     H(rot)  DE(clash)    DE(int)     intcor
     10.67     -13.90       1.31        0.00      85.39       2.32       2.83       0.40       ----

> <Gold.Chemscore.Fitness>
10.6651

> <Gold.Chemscore.DG>
-13.8954

> <Gold.Chemscore.ZeroCoef>
-5.4800

> <Gold.Chemscore.Hbond>
1.3084

> <Gold.Chemscore.Metal>
0.0000

> <Gold.Chemscore.Lipo>
85.3938

> <Gold.Chemscore.Internal_Hbond>
0.0000

> <Gold.Chemscore.DEClash>
2.8261

> <Gold.Chemscore.DEInternal>
0.4042

> <Gold.Chemscore.Rot>
2.3225

> <Gold.Chemscore.Internal.Correction>
   9.000000E+99

> <Gold.Chemscore.Hbonds>
donor molecule, donor type, donor heavy atom, donor atom, acceptor molecule, acceptor atom, score
      L1  H     1    17       P1  7948  0.52
      P1  H  7954  7966       L1     1  0.20
      P1  H  7989  7998       L1    16  0.20

> <Gold.Chemscore.Hbond.Weighted>
-4.3700

> <Gold.Chemscore.Metal.Weighted>
-0.0000

> <Gold.Chemscore.Lipo.Weighted>
-9.9911

> <Gold.Chemscore.Internal_Hbond.Weighted>
0.0000

> <Gold.Chemscore.DEClash.Weighted>
2.8261

> <Gold.Chemscore.DEInternal.Weighted>
0.4042

> <Gold.Chemscore.Rot.Weighted>
5.9456

> <Gold.Chemscore.Internal.Correction.Weighted>
   9.000000E+99

> <Gold.Protein.RotatedTorsions>
[ 6907 6896 6895 6894 ] final   44.87 input  -60.11 | X-H torsion
[ 7974 7965 7964 7962 ] final  105.41 input  175.53 | X-H torsion
[ 8008 7997 7996 7995 ] final  154.58 input   59.86 | X-H torsion
[ 10167 10162 10161 10158 ] final  -55.64 input  -65.29 | X-H torsion
[ 10718 10713 10712 10709 ] final -149.16 input   66.30 | X-H torsion
[ 10763 10752 10751 10750 ] final  139.18 input  -60.55 | X-H torsion
[ 11005 11000 10999 10996 ] final -145.42 input  -57.11 | X-H torsion

> <Gold.Protein.ActiveResidues>
 VAL166  LYS551  ARG553  GLY616  TRP617  ASP618  TYR619  PRO620  LYS621  CYS622 
 ASP623  PHE694  ASN695  SER759  ASP760  ASP761  ALA762  ILE779  LEU786  VAL792 
 PHE793  MET794  SER795  GLU796  ALA797  LYS798  CYS799  TRP800  GLU811  SER814 

> <Gold.Protein.RotatedAtoms>
  152.2377  134.8259  160.0464 H   0  0  0  0  0  0  0  0  0  0  0  0  # atno 6907 bound_to 6896
  151.8985  133.3527  159.3831 H   0  0  0  0  0  0  0  0  0  0  0  0  # atno 6908 bound_to 6896
  150.7044  134.4778  159.5500 H   0  0  0  0  0  0  0  0  0  0  0  0  # atno 6909 bound_to 6896
  145.3200  139.2515  143.3717 H   0  0  0  0  0  0  0  0  0  0  0  0  # atno 7974 bound_to 7965
  156.2523  140.1962  156.6669 H   0  0  0  0  0  0  0  0  0  0  0  0  # atno 8008 bound_to 7997
  154.6422  140.0582  156.9885 H   0  0  0  0  0  0  0  0  0  0  0  0  # atno 8009 bound_to 7997
  155.1545  140.3254  155.4427 H   0  0  0  0  0  0  0  0  0  0  0  0  # atno 8010 bound_to 7997
  140.6363  143.2484  151.5109 H   0  0  0  0  0  0  0  0  0  0  0  0  # atno 10167 bound_to 10162
  156.4295  130.8069  151.2295 H   0  0  0  0  0  0  0  0  0  0  0  0  # atno 10718 bound_to 10713
  153.9019  135.3021  155.3448 H   0  0  0  0  0  0  0  0  0  0  0  0  # atno 10763 bound_to 10752
  154.7666  135.4907  153.9569 H   0  0  0  0  0  0  0  0  0  0  0  0  # atno 10764 bound_to 10752
  153.1240  135.6789  153.9388 H   0  0  0  0  0  0  0  0  0  0  0  0  # atno 10765 bound_to 10752
  140.7924  134.2952  157.5008 H   0  0  0  0  0  0  0  0  0  0  0  0  # atno 11005 bound_to 11000
  146.3086  140.3755  142.8678 LP  0  0  0  0  0  0  0  0  0  0  0  0  # atno 17320 bound_to 7965
  144.8947  140.7568  143.5904 LP  0  0  0  0  0  0  0  0  0  0  0  0  # atno 17321 bound_to 7965
  139.5573  144.2243  152.1634 LP  0  0  0  0  0  0  0  0  0  0  0  0  # atno 17342 bound_to 10162
  140.1501  144.5123  150.6693 LP  0  0  0  0  0  0  0  0  0  0  0  0  # atno 17343 bound_to 10162
  157.7508  131.0202  150.3701 LP  0  0  0  0  0  0  0  0  0  0  0  0  # atno 17370 bound_to 10713
  156.4035  130.3920  149.6942 LP  0  0  0  0  0  0  0  0  0  0  0  0  # atno 17371 bound_to 10713
  139.8730  134.9382  156.3709 LP  0  0  0  0  0  0  0  0  0  0  0  0  # atno 17394 bound_to 11000
  140.9376  133.7536  156.0104 LP  0  0  0  0  0  0  0  0  0  0  0  0  # atno 17395 bound_to 11000

$$$$
