AV-unprocessed.smi:2663|AV-procd|sdf|10324|dock2
  -GOLD-   2272014343D 1   1.00000     0.00000
 Structure written by MMmdl.
 38 39  0  0  0  0  0  0  0  0  2 V2000
  151.9783  137.0460  157.9115 C   0  0  0  0  0  0  0  0  0  0  0  0
  150.8839  138.1348  157.7638 C   0  0  1  0  0  0  0  0  0  0  0  0
  150.2034  137.9697  156.3732 C   0  0  0  0  0  0  0  0  0  0  0  0
  151.1169  138.1365  155.3068 O   0  0  0  0  0  0  0  0  0  0  0  0
  149.8711  137.9769  158.8198 N   0  0  0  0  0  0  0  0  0  0  0  0
  149.2286  136.8747  159.2410 C   0  0  0  0  0  0  0  0  0  0  0  0
  149.4513  135.7793  158.7216 O   0  0  0  0  0  0  0  0  0  0  0  0
  148.3620  137.1151  160.2510 N   0  5  0  0  0  0  0  0  0  0  0  0
  147.7820  136.0903  160.8974 C   0  0  0  0  0  0  0  0  0  0  0  0
  147.4884  134.9296  160.2896 N   0  0  0  0  0  0  0  0  0  0  0  0
  146.8911  134.0059  161.1369 N   0  0  0  0  0  0  0  0  0  0  0  0
  146.7410  134.4998  162.3657 C   0  0  0  0  0  0  0  0  0  0  0  0
  147.3108  136.1388  162.5983 S   0  0  0  0  0  0  0  0  0  0  0  0
  151.5164  139.5625  157.9343 C   0  0  0  0  0  0  0  0  0  0  0  0
  152.3647  139.7135  159.2273 C   0  0  0  0  0  0  0  0  0  0  0  0
  153.0142  141.1019  159.3424 C   0  0  0  0  0  0  0  0  0  0  0  0
  151.9624  142.2160  159.2779 C   0  0  0  0  0  0  0  0  0  0  0  0
  151.1307  142.0989  157.9952 C   0  0  0  0  0  0  0  0  0  0  0  0
  150.4754  140.7133  157.8783 C   0  0  0  0  0  0  0  0  0  0  0  0
  152.8426  137.2657  157.2842 H   0  0  0  0  0  0  0  0  0  0  0  0
  151.6177  136.0608  157.6159 H   0  0  0  0  0  0  0  0  0  0  0  0
  152.3299  136.9538  158.9388 H   0  0  0  0  0  0  0  0  0  0  0  0
  149.7578  136.9809  156.2675 H   0  0  0  0  0  0  0  0  0  0  0  0
  149.3849  138.6781  156.2458 H   0  0  0  0  0  0  0  0  0  0  0  0
  150.8345  138.8735  154.7872 H   0  0  0  0  0  0  0  0  0  0  0  0
  149.6247  138.8285  159.3023 H   0  0  0  0  0  0  0  0  0  0  0  0
  146.2892  133.8968  163.1390 H   0  0  0  0  0  0  0  0  0  0  0  0
  152.2017  139.7182  157.0999 H   0  0  0  0  0  0  0  0  0  0  0  0
  151.7461  139.5390  160.1086 H   0  0  0  0  0  0  0  0  0  0  0  0
  153.1595  138.9699  159.2583 H   0  0  0  0  0  0  0  0  0  0  0  0
  153.5722  141.1736  160.2764 H   0  0  0  0  0  0  0  0  0  0  0  0
  153.7389  141.2350  158.5382 H   0  0  0  0  0  0  0  0  0  0  0  0
  151.3075  142.1552  160.1481 H   0  0  0  0  0  0  0  0  0  0  0  0
  152.4480  143.1913  159.3213 H   0  0  0  0  0  0  0  0  0  0  0  0
  150.3637  142.8737  157.9784 H   0  0  0  0  0  0  0  0  0  0  0  0
  151.7679  142.2760  157.1278 H   0  0  0  0  0  0  0  0  0  0  0  0
  149.9198  140.6873  156.9421 H   0  0  0  0  0  0  0  0  0  0  0  0
  149.7406  140.5964  158.6757 H   0  0  0  0  0  0  0  0  0  0  0  0
  1  2  1  0  0  0  0
  1 20  1  0  0  0  0
  1 21  1  0  0  0  0
  1 22  1  0  0  0  0
  2  3  1  0  0  0  0
  2  5  1  0  0  0  0
  2 14  1  0  0  0  0
  3  4  1  0  0  0  0
  3 23  1  0  0  0  0
  3 24  1  0  0  0  0
  4 25  1  0  0  0  0
  5  6  1  0  0  0  0
  5 26  1  0  0  0  0
  6  7  2  0  0  0  0
  6  8  1  0  0  0  0
  8  9  1  0  0  0  0
  9 13  1  0  0  0  0
  9 10  2  0  0  0  0
 10 11  1  0  0  0  0
 11 12  2  0  0  0  0
 12 13  1  0  0  0  0
 12 27  1  0  0  0  0
 14 19  1  0  0  0  0
 14 15  1  0  0  0  0
 14 28  1  0  0  0  0
 15 16  1  0  0  0  0
 15 29  1  0  0  0  0
 15 30  1  0  0  0  0
 16 17  1  0  0  0  0
 16 31  1  0  0  0  0
 16 32  1  0  0  0  0
 17 18  1  0  0  0  0
 17 33  1  0  0  0  0
 17 34  1  0  0  0  0
 18 19  1  0  0  0  0
 18 35  1  0  0  0  0
 18 36  1  0  0  0  0
 19 37  1  0  0  0  0
 19 38  1  0  0  0  0
M  CHG  1   8  -1
M  END
> <s_m_source_file>
AV-unprocessed.smi

> <i_m_source_file_index>
2663

> <i_lp_mmshare_version>
43012

> <i_f3d_flags>
0

> <s_epik_input>
W0NIMl0xW0NIMl1bQ0gyXVtDSDJdW0NIMl1bQ0hdMVtDQF0oW0NIM10pKFtDSDJdW09IXSlbTkhdQyg9TylbTkhdYzJubltjSF1zMg==

> <s_epik_cmdline>
J2VwaWtfcHl0aG9uJywgJy1waCcsICc3LjAnLCAnLXRuJywgJzgnLCAnLW1hJywgJzIwMCcsICctbWV0YWxfYmluZGluZycsICctaW1hZScsICc8aW5maWxlLm1hZT4nLCAnLW9tYWUnLCAnPG91dGZpbGUubWFlPic=

> <r_lp_tautomer_probability>
1

> <r_epik_Ionization_Penalty>
4.39194

> <r_epik_Ionization_Penalty_Charging>
4.34423

> <r_epik_Ionization_Penalty_Neutral>
0.047714

> <r_epik_State_Penalty>
4.34384

> <r_epik_Charging_Adjusted_Penalty>
8.68806

> <i_epik_Tot_Q>
-1

> <i_epik_Tot_abs_Q>
1

> <r_epik_Metal_State_Penalty>
0.746645

> <b_epik_Metal_Only>
1

> <s_lp_Force_Field>
OPLS_2005

> <r_lp_Energy>
17.2717

> <b_lp_Chiralities_Consistent>
1

> <s_lp_Variant>
AV-unprocessed.smi:2663-3

> <Gold.Version>
5.8.1

> <Gold.Id.Protein>
6NUR|6NUR_protein|mol2

> <Gold.PLP.Fitness>
39.5899

> <Gold.PLP.PLP>
-32.0450

> <Gold.PLP.part.hbond>
-3.0000

> <Gold.PLP.part.metal>
0.0000

> <Gold.PLP.part.buried>
-5.4594

> <Gold.PLP.part.nonpolar>
-24.1876

> <Gold.PLP.part.repulsive>
0.2170

> <Gold.PLP.ligand.clash>
0.0000

> <Gold.PLP.ligand.torsion>
0.4788

> <Gold.PLP.Chemscore.Hbond>
2.8180

> <Gold.PLP.Chemscore.CHOScore>
0.0000

> <Gold.PLP.Chemscore.Metal>
0.0000

> <Gold.Chemscore.Hbonds>
donor molecule, donor type, donor heavy atom, donor atom, acceptor molecule, acceptor atom, score
      P1  H  6896  6909       L1     7  1.00
      P1  H  6931  6943       L1     8  1.12
      P1  H  6934  6947       L1     8  0.30

> <Gold.PLP.Chemscore.Internal.Correction>
0.0486

> <Gold.Rescore>
     Score         DG    S(hbond)    S(metal)    S(lipo)     H(rot)  DE(clash)    DE(int)     intcor
     10.57     -13.66       1.67        0.00      69.81       2.18       0.01       3.08       ----

> <Gold.Chemscore.Fitness>
10.5695

> <Gold.Chemscore.DG>
-13.6597

> <Gold.Chemscore.ZeroCoef>
-5.4800

> <Gold.Chemscore.Hbond>
1.6733

> <Gold.Chemscore.Metal>
0.0000

> <Gold.Chemscore.Lipo>
69.8058

> <Gold.Chemscore.Internal_Hbond>
0.0000

> <Gold.Chemscore.DEClash>
0.0106

> <Gold.Chemscore.DEInternal>
3.0796

> <Gold.Chemscore.Rot>
2.1783

> <Gold.Chemscore.Internal.Correction>
   9.000000E+99

> <Gold.Chemscore.Hbonds>
donor molecule, donor type, donor heavy atom, donor atom, acceptor molecule, acceptor atom, score
      P1  H  6896  6909       L1     7  0.97
      P1  H  6931  6943       L1     8  0.16
      P1  H  6934  6947       L1     8  0.09

> <Gold.Chemscore.Hbond.Weighted>
-5.5890

> <Gold.Chemscore.Metal.Weighted>
-0.0000

> <Gold.Chemscore.Lipo.Weighted>
-8.1673

> <Gold.Chemscore.Internal_Hbond.Weighted>
0.0000

> <Gold.Chemscore.DEClash.Weighted>
0.0106

> <Gold.Chemscore.DEInternal.Weighted>
3.0796

> <Gold.Chemscore.Rot.Weighted>
5.5765

> <Gold.Chemscore.Internal.Correction.Weighted>
   9.000000E+99

> <Gold.Protein.RotatedTorsions>
[ 6907 6896 6895 6894 ] final   41.41 input  -60.11 | X-H torsion
[ 7974 7965 7964 7962 ] final  -68.02 input  175.53 | X-H torsion
[ 8008 7997 7996 7995 ] final  -31.86 input   59.86 | X-H torsion
[ 10167 10162 10161 10158 ] final  -49.21 input  -65.29 | X-H torsion
[ 10718 10713 10712 10709 ] final  -17.32 input   66.30 | X-H torsion
[ 10763 10752 10751 10750 ] final  101.83 input  -60.55 | X-H torsion
[ 11005 11000 10999 10996 ] final    1.08 input  -57.11 | X-H torsion

> <Gold.Protein.ActiveResidues>
 VAL166  LYS551  ARG553  GLY616  TRP617  ASP618  TYR619  PRO620  LYS621  CYS622 
 ASP623  PHE694  ASN695  SER759  ASP760  ASP761  ALA762  ILE779  LEU786  VAL792 
 PHE793  MET794  SER795  GLU796  ALA797  LYS798  CYS799  TRP800  GLU811  SER814 

> <Gold.Protein.RotatedAtoms>
  152.1950  134.8639  160.0513 H   0  0  0  0  0  0  0  0  0  0  0  0  # atno 6907 bound_to 6896
  151.9513  133.3662  159.4009 H   0  0  0  0  0  0  0  0  0  0  0  0  # atno 6908 bound_to 6896
  150.6943  134.4261  159.5271 H   0  0  0  0  0  0  0  0  0  0  0  0  # atno 6909 bound_to 6896
  145.7218  140.9035  143.0626 H   0  0  0  0  0  0  0  0  0  0  0  0  # atno 7974 bound_to 7965
  154.4199  140.1753  156.1634 H   0  0  0  0  0  0  0  0  0  0  0  0  # atno 8008 bound_to 7997
  155.9819  140.3376  155.6647 H   0  0  0  0  0  0  0  0  0  0  0  0  # atno 8009 bound_to 7997
  155.6488  140.0688  157.2584 H   0  0  0  0  0  0  0  0  0  0  0  0  # atno 8010 bound_to 7997
  140.6695  143.2707  151.4183 H   0  0  0  0  0  0  0  0  0  0  0  0  # atno 10167 bound_to 10162
  156.5751  130.4759  149.6345 H   0  0  0  0  0  0  0  0  0  0  0  0  # atno 10718 bound_to 10713
  153.3318  135.4031  155.1501 H   0  0  0  0  0  0  0  0  0  0  0  0  # atno 10763 bound_to 10752
  154.8624  135.3612  154.5461 H   0  0  0  0  0  0  0  0  0  0  0  0  # atno 10764 bound_to 10752
  153.5900  135.7074  153.5486 H   0  0  0  0  0  0  0  0  0  0  0  0  # atno 10765 bound_to 10752
  140.6195  133.9675  155.8217 H   0  0  0  0  0  0  0  0  0  0  0  0  # atno 11005 bound_to 11000
  144.6914  139.9213  143.7468 LP  0  0  0  0  0  0  0  0  0  0  0  0  # atno 17320 bound_to 7965
  146.0618  139.3611  143.0576 LP  0  0  0  0  0  0  0  0  0  0  0  0  # atno 17321 bound_to 7965
  139.5958  144.1401  152.2141 LP  0  0  0  0  0  0  0  0  0  0  0  0  # atno 17342 bound_to 10162
  140.0770  144.5732  150.7150 LP  0  0  0  0  0  0  0  0  0  0  0  0  # atno 17343 bound_to 10162
  156.2680  130.7000  151.1789 LP  0  0  0  0  0  0  0  0  0  0  0  0  # atno 17370 bound_to 10713
  157.7339  131.0586  150.5551 LP  0  0  0  0  0  0  0  0  0  0  0  0  # atno 17371 bound_to 10713
  141.0753  134.0145  157.3467 LP  0  0  0  0  0  0  0  0  0  0  0  0  # atno 17394 bound_to 11000
  139.9159  135.0196  156.7880 LP  0  0  0  0  0  0  0  0  0  0  0  0  # atno 17395 bound_to 11000

$$$$
