AV-unprocessed.smi:3154|AV-procd|sdf|12023|dock3
  -GOLD-   2272017433D 1   1.00000     0.00000
 Structure written by MMmdl.
 34 35  0  0  0  0  0  0  0  0  1 V2000
  152.6268  144.5968  158.3125 C   0  0  0  0  0  0  0  0  0  0  0  0
  151.8378  143.5889  159.1645 C   0  0  2  0  0  0  0  0  0  0  0  0
  152.0871  142.1195  158.7365 C   0  0  0  0  0  0  0  0  0  0  0  0
  153.0904  141.4318  159.5336 N   0  0  0  0  0  0  0  0  0  0  0  0
  153.5409  141.7419  160.8002 C   0  0  0  0  0  0  0  0  0  0  0  0
  154.4795  140.8096  161.1384 C   0  0  0  0  0  0  0  0  0  0  0  0
  154.5313  139.9553  160.0016 C   0  0  0  0  0  0  0  0  0  0  0  0
  153.6954  140.3268  159.0457 N   0  0  0  0  0  0  0  0  0  0  0  0
  150.4290  143.9695  159.0948 N   0  0  0  0  0  0  0  0  0  0  0  0
  150.1136  145.1739  159.8763 C   0  0  0  0  0  0  0  0  0  0  0  0
  148.7429  145.0909  160.5534 C   0  0  0  0  0  0  0  0  0  0  0  0
  148.6014  144.4917  161.6205 O   0  0  0  0  0  0  0  0  0  0  0  0
  147.7368  145.7047  159.9132 N   0  0  0  0  0  0  0  0  0  0  0  0
  146.3808  145.7580  160.3554 C   0  0  0  0  0  0  0  0  0  0  0  0
  145.7993  144.5143  160.9921 C   0  0  0  0  0  0  0  0  0  0  0  0
  145.3659  144.9185  159.6100 C   0  0  0  0  0  0  0  0  0  0  0  0
  153.6918  144.3632  158.3178 H   0  0  0  0  0  0  0  0  0  0  0  0
  152.5133  145.6106  158.6978 H   0  0  0  0  0  0  0  0  0  0  0  0
  152.2927  144.6014  157.2743 H   0  0  0  0  0  0  0  0  0  0  0  0
  152.1730  143.7076  160.1960 H   0  0  0  0  0  0  0  0  0  0  0  0
  151.1548  141.5609  158.8284 H   0  0  0  0  0  0  0  0  0  0  0  0
  152.3620  142.0467  157.6844 H   0  0  0  0  0  0  0  0  0  0  0  0
  153.1624  142.5931  161.3469 H   0  0  0  0  0  0  0  0  0  0  0  0
  155.0428  140.7473  162.0576 H   0  0  0  0  0  0  0  0  0  0  0  0
  155.1455  139.0810  159.8445 H   0  0  0  0  0  0  0  0  0  0  0  0
  150.1788  144.0983  158.1249 H   0  0  0  0  0  0  0  0  0  0  0  0
  150.8571  145.3238  160.6580 H   0  0  0  0  0  0  0  0  0  0  0  0
  150.1393  146.0490  159.2250 H   0  0  0  0  0  0  0  0  0  0  0  0
  147.9494  146.1748  159.0453 H   0  0  0  0  0  0  0  0  0  0  0  0
  146.0178  146.7096  160.7414 H   0  0  0  0  0  0  0  0  0  0  0  0
  146.4414  143.6399  161.0812 H   0  0  0  0  0  0  0  0  0  0  0  0
  145.0867  144.6526  161.8028 H   0  0  0  0  0  0  0  0  0  0  0  0
  144.3636  145.3266  159.4971 H   0  0  0  0  0  0  0  0  0  0  0  0
  145.7177  144.3128  158.7768 H   0  0  0  0  0  0  0  0  0  0  0  0
  1  2  1  0  0  0  0
  1 17  1  0  0  0  0
  1 18  1  0  0  0  0
  1 19  1  0  0  0  0
  2  3  1  0  0  0  0
  2  9  1  0  0  0  0
  2 20  1  0  0  0  0
  3  4  1  0  0  0  0
  3 21  1  0  0  0  0
  3 22  1  0  0  0  0
  4  8  1  0  0  0  0
  4  5  1  0  0  0  0
  5  6  2  0  0  0  0
  5 23  1  0  0  0  0
  6  7  1  0  0  0  0
  6 24  1  0  0  0  0
  7  8  2  0  0  0  0
  7 25  1  0  0  0  0
  9 10  1  0  0  0  0
  9 26  1  0  0  0  0
 10 11  1  0  0  0  0
 10 27  1  0  0  0  0
 10 28  1  0  0  0  0
 11 12  2  0  0  0  0
 11 13  1  0  0  0  0
 13 14  1  0  0  0  0
 13 29  1  0  0  0  0
 14 16  1  0  0  0  0
 14 15  1  0  0  0  0
 14 30  1  0  0  0  0
 15 16  1  0  0  0  0
 15 31  1  0  0  0  0
 15 32  1  0  0  0  0
 16 33  1  0  0  0  0
 16 34  1  0  0  0  0
M  END
> <s_m_source_file>
AV-unprocessed.smi

> <i_m_source_file_index>
3154

> <i_lp_mmshare_version>
43012

> <i_f3d_flags>
0

> <s_epik_input>
bjFbY0hdW2NIXVtjSF1uMVtDSDJdW0NAQEhdKFtDSDNdKVtOSF1bQ0gyXUMoPU8pW05IXVtDSF0yW0NIMl1bQ0gyXTI=

> <s_epik_cmdline>
J2VwaWtfcHl0aG9uJywgJy1waCcsICc3LjAnLCAnLXRuJywgJzgnLCAnLW1hJywgJzIwMCcsICctbWV0YWxfYmluZGluZycsICctaW1hZScsICc8aW5maWxlLm1hZT4nLCAnLW9tYWUnLCAnPG91dGZpbGUubWFlPic=

> <r_lp_tautomer_probability>
1

> <r_epik_Ionization_Penalty>
1.00229

> <r_epik_Ionization_Penalty_Charging>
0

> <r_epik_Ionization_Penalty_Neutral>
1.00229

> <r_epik_State_Penalty>
1.0509

> <r_epik_Charging_Adjusted_Penalty>
1.0509

> <i_epik_Tot_Q>
0

> <i_epik_Tot_abs_Q>
0

> <r_epik_Metal_State_Penalty>
1.05084

> <b_epik_Metal_Only>
0

> <s_lp_Force_Field>
OPLS_2005

> <r_lp_Energy>
19.1763

> <b_lp_Chiralities_Consistent>
1

> <s_lp_Variant>
AV-unprocessed.smi:3154-3

> <Gold.Version>
5.8.1

> <Gold.Id.Protein>
6NUR|6NUR_protein|mol2

> <Gold.PLP.Fitness>
41.0387

> <Gold.PLP.PLP>
-36.8092

> <Gold.PLP.part.hbond>
-3.0000

> <Gold.PLP.part.metal>
0.0000

> <Gold.PLP.part.buried>
-5.3125

> <Gold.PLP.part.nonpolar>
-29.2582

> <Gold.PLP.part.repulsive>
0.4021

> <Gold.PLP.ligand.clash>
0.0000

> <Gold.PLP.ligand.torsion>
1.7219

> <Gold.PLP.Chemscore.Hbond>
2.4960

> <Gold.PLP.Chemscore.CHOScore>
0.0000

> <Gold.PLP.Chemscore.Metal>
0.0000

> <Gold.Chemscore.Hbonds>
donor molecule, donor type, donor heavy atom, donor atom, acceptor molecule, acceptor atom, score
      L1  H    13    29       P1  8029  0.86
      P1  H  6933  6944       L1    12  0.59
      P1  H  7997  8010       L1     8  0.59

> <Gold.PLP.Chemscore.Internal.Correction>
0.1852

> <Gold.Rescore>
     Score         DG    S(hbond)    S(metal)    S(lipo)     H(rot)  DE(clash)    DE(int)     intcor
     15.31     -17.05       2.19        0.00      82.90       2.12       0.11       1.63       ----

> <Gold.Chemscore.Fitness>
15.3068

> <Gold.Chemscore.DG>
-17.0473

> <Gold.Chemscore.ZeroCoef>
-5.4800

> <Gold.Chemscore.Hbond>
2.1862

> <Gold.Chemscore.Metal>
0.0000

> <Gold.Chemscore.Lipo>
82.8988

> <Gold.Chemscore.Internal_Hbond>
0.0000

> <Gold.Chemscore.DEClash>
0.1104

> <Gold.Chemscore.DEInternal>
1.6300

> <Gold.Chemscore.Rot>
2.1225

> <Gold.Chemscore.Internal.Correction>
   9.000000E+99

> <Gold.Chemscore.Hbonds>
donor molecule, donor type, donor heavy atom, donor atom, acceptor molecule, acceptor atom, score
      L1  H    13    29       P1  8029  0.85
      P1  H  6933  6944       L1    12  0.54
      P1  H  7997  8010       L1     8  0.23

> <Gold.Chemscore.Hbond.Weighted>
-7.3018

> <Gold.Chemscore.Metal.Weighted>
-0.0000

> <Gold.Chemscore.Lipo.Weighted>
-9.6992

> <Gold.Chemscore.Internal_Hbond.Weighted>
0.0000

> <Gold.Chemscore.DEClash.Weighted>
0.1104

> <Gold.Chemscore.DEInternal.Weighted>
1.6300

> <Gold.Chemscore.Rot.Weighted>
5.4337

> <Gold.Chemscore.Internal.Correction.Weighted>
   9.000000E+99

> <Gold.Protein.RotatedTorsions>
[ 6907 6896 6895 6894 ] final  -37.00 input  -60.11 | X-H torsion
[ 7974 7965 7964 7962 ] final   16.65 input  175.53 | X-H torsion
[ 8008 7997 7996 7995 ] final   15.09 input   59.86 | X-H torsion
[ 10167 10162 10161 10158 ] final -113.59 input  -65.29 | X-H torsion
[ 10718 10713 10712 10709 ] final -141.41 input   66.30 | X-H torsion
[ 10763 10752 10751 10750 ] final   -5.75 input  -60.55 | X-H torsion
[ 11005 11000 10999 10996 ] final  -38.73 input  -57.11 | X-H torsion

> <Gold.Protein.ActiveResidues>
 VAL166  LYS551  ARG553  GLY616  TRP617  ASP618  TYR619  PRO620  LYS621  CYS622 
 ASP623  PHE694  ASN695  SER759  ASP760  ASP761  ALA762  ILE779  LEU786  VAL792 
 PHE793  MET794  SER795  GLU796  ALA797  LYS798  CYS799  TRP800  GLU811  SER814 

> <Gold.Protein.RotatedAtoms>
  151.0201  134.9462  159.8054 H   0  0  0  0  0  0  0  0  0  0  0  0  # atno 6907 bound_to 6896
  152.5323  134.2915  159.9055 H   0  0  0  0  0  0  0  0  0  0  0  0  # atno 6908 bound_to 6896
  151.2922  133.4118  159.2668 H   0  0  0  0  0  0  0  0  0  0  0  0  # atno 6909 bound_to 6896
  146.2243  139.8717  142.8586 H   0  0  0  0  0  0  0  0  0  0  0  0  # atno 7974 bound_to 7965
  154.8577  140.2939  155.5558 H   0  0  0  0  0  0  0  0  0  0  0  0  # atno 8008 bound_to 7997
  156.3019  140.2484  156.3479 H   0  0  0  0  0  0  0  0  0  0  0  0  # atno 8009 bound_to 7997
  154.8952  140.0393  157.1851 H   0  0  0  0  0  0  0  0  0  0  0  0  # atno 8010 bound_to 7997
  140.1102  143.4534  152.1757 H   0  0  0  0  0  0  0  0  0  0  0  0  # atno 10167 bound_to 10162
  156.3338  130.7600  151.1723 H   0  0  0  0  0  0  0  0  0  0  0  0  # atno 10718 bound_to 10713
  153.4028  135.7005  153.6414 H   0  0  0  0  0  0  0  0  0  0  0  0  # atno 10763 bound_to 10752
  153.4940  135.3666  155.2506 H   0  0  0  0  0  0  0  0  0  0  0  0  # atno 10764 bound_to 10752
  154.8712  135.4096  154.3366 H   0  0  0  0  0  0  0  0  0  0  0  0  # atno 10765 bound_to 10752
  141.0049  133.6936  156.2092 H   0  0  0  0  0  0  0  0  0  0  0  0  # atno 11005 bound_to 11000
  145.2602  141.0074  143.3831 LP  0  0  0  0  0  0  0  0  0  0  0  0  # atno 17320 bound_to 7965
  144.9305  139.4304  143.6497 LP  0  0  0  0  0  0  0  0  0  0  0  0  # atno 17321 bound_to 7965
  139.5623  144.7413  151.4119 LP  0  0  0  0  0  0  0  0  0  0  0  0  # atno 17342 bound_to 10162
  140.6930  143.7817  150.7283 LP  0  0  0  0  0  0  0  0  0  0  0  0  # atno 17343 bound_to 10162
  157.7435  131.0474  150.4941 LP  0  0  0  0  0  0  0  0  0  0  0  0  # atno 17370 bound_to 10713
  156.5111  130.4139  149.6300 LP  0  0  0  0  0  0  0  0  0  0  0  0  # atno 17371 bound_to 10713
  140.6828  134.4749  157.5589 LP  0  0  0  0  0  0  0  0  0  0  0  0  # atno 17394 bound_to 11000
  139.9058  134.8452  156.1712 LP  0  0  0  0  0  0  0  0  0  0  0  0  # atno 17395 bound_to 11000

$$$$
