AV-unprocessed.smi:2013|AV-procd|sdf|8160|dock5
  -GOLD-   2272010403D 1   1.00000     0.00000
 Structure written by MMmdl.
 50 51  0  0  0  0  0  0  0  0  1 V2000
  148.6335  141.4166  154.2242 C   0  0  0  0  0  0  0  0  0  0  0  0
  147.1328  141.4841  154.5728 C   0  0  0  0  0  0  0  0  0  0  0  0
  146.4894  142.7651  154.0147 C   0  0  0  0  0  0  0  0  0  0  0  0
  146.7430  141.2195  156.0629 C   0  0  1  0  0  0  0  0  0  0  0  0
  147.2392  142.3184  157.0468 C   0  0  0  0  0  0  0  0  0  0  0  0
  148.6908  142.4655  157.0403 N   0  0  0  0  0  0  0  0  0  0  0  0
  149.5612  141.5115  157.4024 C   0  0  0  0  0  0  0  0  0  0  0  0
  149.2171  140.4144  157.8441 O   0  0  0  0  0  0  0  0  0  0  0  0
  151.0476  141.8547  157.2468 C   0  0  0  0  0  0  0  0  0  0  0  0
  151.7132  142.0434  158.5416 N   0  0  0  0  0  0  0  0  0  0  0  0
  151.3548  143.1060  159.3509 C   0  0  0  0  0  0  0  0  0  0  0  0
  151.9019  143.3350  160.5648 C   0  0  0  0  0  0  0  0  0  0  0  0
  152.9295  142.4514  161.1027 C   0  0  0  0  0  0  0  0  0  0  0  0
  153.4413  142.6167  162.2104 O   0  0  0  0  0  0  0  0  0  0  0  0
  153.2857  141.3795  160.2491 N   0  0  0  0  0  0  0  0  0  0  0  0
  154.2863  140.4310  160.6926 C   0  0  0  0  0  0  0  0  0  0  0  0
  152.7030  141.1399  158.9854 C   0  0  0  0  0  0  0  0  0  0  0  0
  153.0341  140.1766  158.2891 O   0  0  0  0  0  0  0  0  0  0  0  0
  145.3494  140.7820  156.2769 N   0  0  0  0  0  0  0  0  0  0  0  0
  144.3693  141.8180  155.9560 C   0  0  0  0  0  0  0  0  0  0  0  0
  142.9399  141.3823  156.3186 C   0  0  0  0  0  0  0  0  0  0  0  0
  142.6295  140.1665  155.6461 O   0  0  0  0  0  0  0  0  0  0  0  0
  143.5339  139.1155  155.9694 C   0  0  0  0  0  0  0  0  0  0  0  0
  144.9711  139.5352  155.6143 C   0  0  0  0  0  0  0  0  0  0  0  0
  149.1920  142.2737  154.5926 H   0  0  0  0  0  0  0  0  0  0  0  0
  148.7657  141.4069  153.1420 H   0  0  0  0  0  0  0  0  0  0  0  0
  149.1073  140.5124  154.6040 H   0  0  0  0  0  0  0  0  0  0  0  0
  146.6790  140.6715  154.0041 H   0  0  0  0  0  0  0  0  0  0  0  0
  146.9127  143.6588  154.4743 H   0  0  0  0  0  0  0  0  0  0  0  0
  145.4137  142.7746  154.1930 H   0  0  0  0  0  0  0  0  0  0  0  0
  146.6440  142.8446  152.9383 H   0  0  0  0  0  0  0  0  0  0  0  0
  147.3451  140.3426  156.3061 H   0  0  0  0  0  0  0  0  0  0  0  0
  146.8087  143.2866  156.7930 H   0  0  0  0  0  0  0  0  0  0  0  0
  146.9198  142.1086  158.0676 H   0  0  0  0  0  0  0  0  0  0  0  0
  149.0594  143.3403  156.6961 H   0  0  0  0  0  0  0  0  0  0  0  0
  151.5583  141.0768  156.6761 H   0  0  0  0  0  0  0  0  0  0  0  0
  151.1261  142.7624  156.6474 H   0  0  0  0  0  0  0  0  0  0  0  0
  150.5927  143.7869  158.9999 H   0  0  0  0  0  0  0  0  0  0  0  0
  151.5716  144.1818  161.1482 H   0  0  0  0  0  0  0  0  0  0  0  0
  155.0025  140.2941  159.8802 H   0  0  0  0  0  0  0  0  0  0  0  0
  153.7627  139.5020  160.9239 H   0  0  0  0  0  0  0  0  0  0  0  0
  154.8179  140.8021  161.5684 H   0  0  0  0  0  0  0  0  0  0  0  0
  144.6093  142.7373  156.4909 H   0  0  0  0  0  0  0  0  0  0  0  0
  144.4018  142.0554  154.8929 H   0  0  0  0  0  0  0  0  0  0  0  0
  142.8382  141.2475  157.3964 H   0  0  0  0  0  0  0  0  0  0  0  0
  142.2229  142.1479  156.0219 H   0  0  0  0  0  0  0  0  0  0  0  0
  143.4551  138.8733  157.0304 H   0  0  0  0  0  0  0  0  0  0  0  0
  143.2528  138.2201  155.4152 H   0  0  0  0  0  0  0  0  0  0  0  0
  145.0501  139.6450  154.5324 H   0  0  0  0  0  0  0  0  0  0  0  0
  145.6381  138.7287  155.9005 H   0  0  0  0  0  0  0  0  0  0  0  0
  1  2  1  0  0  0  0
  1 25  1  0  0  0  0
  1 26  1  0  0  0  0
  1 27  1  0  0  0  0
  2  3  1  0  0  0  0
  2  4  1  0  0  0  0
  2 28  1  0  0  0  0
  3 29  1  0  0  0  0
  3 30  1  0  0  0  0
  3 31  1  0  0  0  0
  4  5  1  0  0  0  0
  4 19  1  0  0  0  0
  4 32  1  0  0  0  0
  5  6  1  0  0  0  0
  5 33  1  0  0  0  0
  5 34  1  0  0  0  0
  6  7  1  0  0  0  0
  6 35  1  0  0  0  0
  7  8  2  0  0  0  0
  7  9  1  0  0  0  0
  9 10  1  0  0  0  0
  9 36  1  0  0  0  0
  9 37  1  0  0  0  0
 10 17  1  0  0  0  0
 10 11  1  0  0  0  0
 11 12  2  0  0  0  0
 11 38  1  0  0  0  0
 12 13  1  0  0  0  0
 12 39  1  0  0  0  0
 13 14  2  0  0  0  0
 13 15  1  0  0  0  0
 15 16  1  0  0  0  0
 15 17  1  0  0  0  0
 16 40  1  0  0  0  0
 16 41  1  0  0  0  0
 16 42  1  0  0  0  0
 17 18  2  0  0  0  0
 19 24  1  0  0  0  0
 19 20  1  0  0  0  0
 20 21  1  0  0  0  0
 20 43  1  0  0  0  0
 20 44  1  0  0  0  0
 21 22  1  0  0  0  0
 21 45  1  0  0  0  0
 21 46  1  0  0  0  0
 22 23  1  0  0  0  0
 23 24  1  0  0  0  0
 23 47  1  0  0  0  0
 23 48  1  0  0  0  0
 24 49  1  0  0  0  0
 24 50  1  0  0  0  0
M  END
> <s_m_source_file>
AV-unprocessed.smi

> <i_m_source_file_index>
2013

> <i_lp_mmshare_version>
43012

> <i_f3d_flags>
0

> <s_epik_input>
W0NIMl0xW0NIMl1PW0NIMl1bQ0gyXU4xW0NASF0oW0NIXShbQ0gzXSlbQ0gzXSlbQ0gyXVtOSF1DKD1PKVtDSDJdbjJbY0hdW2NIXWMoPU8pbihbQ0gzXSljMj1P

> <s_epik_cmdline>
J2VwaWtfcHl0aG9uJywgJy1waCcsICc3LjAnLCAnLXRuJywgJzgnLCAnLW1hJywgJzIwMCcsICctbWV0YWxfYmluZGluZycsICctaW1hZScsICc8aW5maWxlLm1hZT4nLCAnLW9tYWUnLCAnPG91dGZpbGUubWFlPic=

> <r_lp_tautomer_probability>
1

> <r_epik_Ionization_Penalty>
0.45351

> <r_epik_Ionization_Penalty_Charging>
1.24653e-08

> <r_epik_Ionization_Penalty_Neutral>
0.45351

> <r_epik_State_Penalty>
0.456487

> <r_epik_Charging_Adjusted_Penalty>
0.456487

> <i_epik_Tot_Q>
0

> <i_epik_Tot_abs_Q>
0

> <r_epik_Metal_State_Penalty>
0.456449

> <b_epik_Metal_Only>
0

> <s_lp_Force_Field>
OPLS_2005

> <r_lp_Energy>
45.5307

> <b_lp_Chiralities_Consistent>
1

> <s_lp_Variant>
AV-unprocessed.smi:2013-4

> <Gold.Version>
5.8.1

> <Gold.Id.Protein>
6NUR|6NUR_protein|mol2

> <Gold.PLP.Fitness>
43.8942

> <Gold.PLP.PLP>
-38.3304

> <Gold.PLP.part.hbond>
-2.0000

> <Gold.PLP.part.metal>
0.0000

> <Gold.PLP.part.buried>
-4.0679

> <Gold.PLP.part.nonpolar>
-31.9188

> <Gold.PLP.part.repulsive>
0.2473

> <Gold.PLP.ligand.clash>
0.0000

> <Gold.PLP.ligand.torsion>
0.4600

> <Gold.PLP.Chemscore.Hbond>
1.9680

> <Gold.PLP.Chemscore.CHOScore>
0.0000

> <Gold.PLP.Chemscore.Metal>
0.0000

> <Gold.Chemscore.Hbonds>
donor molecule, donor type, donor heavy atom, donor atom, acceptor molecule, acceptor atom, score
      L1  H     6    35       P1  8028  0.98
      P1  H  7997  8010       L1    18  0.98

> <Gold.PLP.Chemscore.Internal.Correction>
0.5799

> <Gold.Rescore>
     Score         DG    S(hbond)    S(metal)    S(lipo)     H(rot)  DE(clash)    DE(int)     intcor
     13.10     -13.66       1.92        0.00      63.27       2.20       0.01       0.56       ----

> <Gold.Chemscore.Fitness>
13.0969

> <Gold.Chemscore.DG>
-13.6623

> <Gold.Chemscore.ZeroCoef>
-5.4800

> <Gold.Chemscore.Hbond>
1.9226

> <Gold.Chemscore.Metal>
0.0000

> <Gold.Chemscore.Lipo>
63.2713

> <Gold.Chemscore.Internal_Hbond>
0.0000

> <Gold.Chemscore.DEClash>
0.0082

> <Gold.Chemscore.DEInternal>
0.5572

> <Gold.Chemscore.Rot>
2.2039

> <Gold.Chemscore.Internal.Correction>
   9.000000E+99

> <Gold.Chemscore.Hbonds>
donor molecule, donor type, donor heavy atom, donor atom, acceptor molecule, acceptor atom, score
      L1  H     6    35       P1  8028  0.88
      P1  H  7997  8010       L1    18  0.90

> <Gold.Chemscore.Hbond.Weighted>
-6.4215

> <Gold.Chemscore.Metal.Weighted>
-0.0000

> <Gold.Chemscore.Lipo.Weighted>
-7.4027

> <Gold.Chemscore.Internal_Hbond.Weighted>
0.0000

> <Gold.Chemscore.DEClash.Weighted>
0.0082

> <Gold.Chemscore.DEInternal.Weighted>
0.5572

> <Gold.Chemscore.Rot.Weighted>
5.6420

> <Gold.Chemscore.Internal.Correction.Weighted>
   9.000000E+99

> <Gold.Protein.RotatedTorsions>
[ 6907 6896 6895 6894 ] final   51.61 input  -60.11 | X-H torsion
[ 7974 7965 7964 7962 ] final -140.01 input  175.53 | X-H torsion
[ 8008 7997 7996 7995 ] final   36.17 input   59.86 | X-H torsion
[ 10167 10162 10161 10158 ] final  119.56 input  -65.29 | X-H torsion
[ 10718 10713 10712 10709 ] final -166.25 input   66.30 | X-H torsion
[ 10763 10752 10751 10750 ] final -130.36 input  -60.55 | X-H torsion
[ 11005 11000 10999 10996 ] final   60.73 input  -57.11 | X-H torsion

> <Gold.Protein.ActiveResidues>
 VAL166  LYS551  ARG553  GLY616  TRP617  ASP618  TYR619  PRO620  LYS621  CYS622 
 ASP623  PHE694  ASN695  SER759  ASP760  ASP761  ALA762  ILE779  LEU786  VAL792 
 PHE793  MET794  SER795  GLU796  ALA797  LYS798  CYS799  TRP800  GLU811  SER814 

> <Gold.Protein.RotatedAtoms>
  152.3145  134.7457  160.0328 H   0  0  0  0  0  0  0  0  0  0  0  0  # atno 6907 bound_to 6896
  151.7927  133.3356  159.3512 H   0  0  0  0  0  0  0  0  0  0  0  0  # atno 6908 bound_to 6896
  150.7337  134.5758  159.5958 H   0  0  0  0  0  0  0  0  0  0  0  0  # atno 6909 bound_to 6896
  144.8631  140.6251  143.5315 H   0  0  0  0  0  0  0  0  0  0  0  0  # atno 7974 bound_to 7965
  155.1830  140.3301  155.4372 H   0  0  0  0  0  0  0  0  0  0  0  0  # atno 8008 bound_to 7997
  156.2470  140.1923  156.6877 H   0  0  0  0  0  0  0  0  0  0  0  0  # atno 8009 bound_to 7997
  154.6258  140.0589  156.9657 H   0  0  0  0  0  0  0  0  0  0  0  0  # atno 8010 bound_to 7997
  139.6038  144.7064  151.3000 H   0  0  0  0  0  0  0  0  0  0  0  0  # atno 10167 bound_to 10162
  156.6651  130.9061  151.3035 H   0  0  0  0  0  0  0  0  0  0  0  0  # atno 10718 bound_to 10713
  154.8755  135.3865  154.4071 H   0  0  0  0  0  0  0  0  0  0  0  0  # atno 10763 bound_to 10752
  153.4789  135.7030  153.5955 H   0  0  0  0  0  0  0  0  0  0  0  0  # atno 10764 bound_to 10752
  153.4379  135.3863  155.2178 H   0  0  0  0  0  0  0  0  0  0  0  0  # atno 10765 bound_to 10752
  140.0211  134.6152  155.9639 H   0  0  0  0  0  0  0  0  0  0  0  0  # atno 11005 bound_to 11000
  145.4273  139.1554  143.4041 LP  0  0  0  0  0  0  0  0  0  0  0  0  # atno 17320 bound_to 7965
  146.2876  140.4387  142.8752 LP  0  0  0  0  0  0  0  0  0  0  0  0  # atno 17321 bound_to 7965
  140.7270  143.6976  150.7871 LP  0  0  0  0  0  0  0  0  0  0  0  0  # atno 17342 bound_to 10162
  140.0557  143.5205  152.2652 LP  0  0  0  0  0  0  0  0  0  0  0  0  # atno 17343 bound_to 10162
  157.7096  130.9425  150.1045 LP  0  0  0  0  0  0  0  0  0  0  0  0  # atno 17370 bound_to 10713
  156.1981  130.3658  149.8823 LP  0  0  0  0  0  0  0  0  0  0  0  0  # atno 17371 bound_to 10713
  141.1774  133.6542  156.4883 LP  0  0  0  0  0  0  0  0  0  0  0  0  # atno 17394 bound_to 11000
  140.4386  134.7036  157.4980 LP  0  0  0  0  0  0  0  0  0  0  0  0  # atno 17395 bound_to 11000

$$$$
