AV-unprocessed.smi:1084|AV-procd|sdf|4718|dock4
  -GOLD-   22720 3243D 1   1.00000     0.00000
 Structure written by MMmdl.
 53 55  0  0  0  0  0  0  0  0  2 V2000
  144.0410  136.6774  152.1803 C   0  0  0  0  0  0  0  0  0  0  0  0
  145.5229  136.7228  152.6186 C   0  0  2  0  0  0  0  0  0  0  0  0
  146.2312  137.9748  152.0300 C   0  0  0  0  0  0  0  0  0  0  0  0
  147.5533  138.2069  152.6079 N   0  0  0  0  0  0  0  0  0  0  0  0
  147.8440  139.1079  153.5577 C   0  0  0  0  0  0  0  0  0  0  0  0
  147.0027  139.8425  154.0731 O   0  0  0  0  0  0  0  0  0  0  0  0
  149.1555  139.0874  153.8521 N   0  0  0  0  0  0  0  0  0  0  0  0
  149.8851  139.8543  154.8026 C   0  0  0  0  0  0  0  0  0  0  0  0
  151.2365  139.6374  155.1618 C   0  0  0  0  0  0  0  0  0  0  0  0
  151.8343  140.4861  156.1139 C   0  0  0  0  0  0  0  0  0  0  0  0
  151.0741  141.5331  156.6860 C   0  0  0  0  0  0  0  0  0  0  0  0
  151.6565  142.3972  157.6386 N   0  0  0  0  0  0  0  0  0  0  0  0
  151.6114  143.8348  157.3770 C   0  0  0  0  0  0  0  0  0  0  0  0
  152.5325  144.5868  158.3522 C   0  0  0  0  0  0  0  0  0  0  0  0
  152.1770  144.2627  159.6921 O   0  0  0  0  0  0  0  0  0  0  0  0
  152.3339  142.8730  159.9590 C   0  0  0  0  0  0  0  0  0  0  0  0
  151.4119  142.0552  159.0376 C   0  0  0  0  0  0  0  0  0  0  0  0
  149.7824  141.7424  156.3334 N   0  0  0  0  0  0  0  0  0  0  0  0
  149.2129  140.9262  155.4230 C   0  0  0  0  0  0  0  0  0  0  0  0
  146.1991  135.4294  152.2691 N   0  3  0  0  0  0  0  0  0  0  0  0
  146.1540  134.3705  153.3157 C   0  0  0  0  0  0  0  0  0  0  0  0
  146.9098  133.1096  152.8615 C   0  0  0  0  0  0  0  0  0  0  0  0
  146.3658  132.6340  151.6396 O   0  0  0  0  0  0  0  0  0  0  0  0
  146.5023  133.5940  150.6025 C   0  0  0  0  0  0  0  0  0  0  0  0
  145.7234  134.8659  150.9754 C   0  0  0  0  0  0  0  0  0  0  0  0
  143.5007  137.5726  152.4863 H   0  0  0  0  0  0  0  0  0  0  0  0
  143.4966  135.8420  152.6161 H   0  0  0  0  0  0  0  0  0  0  0  0
  143.9555  136.5971  151.0963 H   0  0  0  0  0  0  0  0  0  0  0  0
  145.5537  136.8258  153.7047 H   0  0  0  0  0  0  0  0  0  0  0  0
  146.4084  137.8482  150.9621 H   0  0  0  0  0  0  0  0  0  0  0  0
  145.5970  138.8563  152.1377 H   0  0  0  0  0  0  0  0  0  0  0  0
  148.3100  137.6462  152.2440 H   0  0  0  0  0  0  0  0  0  0  0  0
  149.7133  138.4399  153.3146 H   0  0  0  0  0  0  0  0  0  0  0  0
  151.8352  138.8526  154.7289 H   0  0  0  0  0  0  0  0  0  0  0  0
  152.8702  140.3351  156.3788 H   0  0  0  0  0  0  0  0  0  0  0  0
  151.9240  144.0426  156.3529 H   0  0  0  0  0  0  0  0  0  0  0  0
  150.5854  144.1900  157.4843 H   0  0  0  0  0  0  0  0  0  0  0  0
  153.5792  144.3367  158.1708 H   0  0  0  0  0  0  0  0  0  0  0  0
  152.4332  145.6627  158.2079 H   0  0  0  0  0  0  0  0  0  0  0  0
  153.3766  142.5812  159.8233 H   0  0  0  0  0  0  0  0  0  0  0  0
  152.0844  142.6825  161.0029 H   0  0  0  0  0  0  0  0  0  0  0  0
  150.3682  142.2669  159.2731 H   0  0  0  0  0  0  0  0  0  0  0  0
  151.5706  140.9948  159.2283 H   0  0  0  0  0  0  0  0  0  0  0  0
  148.1819  141.1397  155.1810 H   0  0  0  0  0  0  0  0  0  0  0  0
  146.6224  134.7129  154.2378 H   0  0  0  0  0  0  0  0  0  0  0  0
  145.1158  134.1235  153.5441 H   0  0  0  0  0  0  0  0  0  0  0  0
  147.9750  133.3159  152.7440 H   0  0  0  0  0  0  0  0  0  0  0  0
  146.8200  132.3272  153.6152 H   0  0  0  0  0  0  0  0  0  0  0  0
  147.5560  133.8164  150.4265 H   0  0  0  0  0  0  0  0  0  0  0  0
  146.1084  133.1706  149.6785 H   0  0  0  0  0  0  0  0  0  0  0  0
  144.6593  134.6356  151.0480 H   0  0  0  0  0  0  0  0  0  0  0  0
  145.8343  135.5853  150.1665 H   0  0  0  0  0  0  0  0  0  0  0  0
  147.1778  135.6501  152.1503 H   0  0  0  0  0  0  0  0  0  0  0  0
  1  2  1  0  0  0  0
  1 26  1  0  0  0  0
  1 27  1  0  0  0  0
  1 28  1  0  0  0  0
  2  3  1  0  0  0  0
  2 20  1  0  0  0  0
  2 29  1  0  0  0  0
  3  4  1  0  0  0  0
  3 30  1  0  0  0  0
  3 31  1  0  0  0  0
  4  5  1  0  0  0  0
  4 32  1  0  0  0  0
  5  6  2  0  0  0  0
  5  7  1  0  0  0  0
  7  8  1  0  0  0  0
  7 33  1  0  0  0  0
  8 19  1  0  0  0  0
  8  9  2  0  0  0  0
  9 10  1  0  0  0  0
  9 34  1  0  0  0  0
 10 11  2  0  0  0  0
 10 35  1  0  0  0  0
 11 12  1  0  0  0  0
 11 18  1  0  0  0  0
 12 17  1  0  0  0  0
 12 13  1  0  0  0  0
 13 14  1  0  0  0  0
 13 36  1  0  0  0  0
 13 37  1  0  0  0  0
 14 15  1  0  0  0  0
 14 38  1  0  0  0  0
 14 39  1  0  0  0  0
 15 16  1  0  0  0  0
 16 17  1  0  0  0  0
 16 40  1  0  0  0  0
 16 41  1  0  0  0  0
 17 42  1  0  0  0  0
 17 43  1  0  0  0  0
 18 19  2  0  0  0  0
 19 44  1  0  0  0  0
 20 25  1  0  0  0  0
 20 21  1  0  0  0  0
 20 53  1  0  0  0  0
 21 22  1  0  0  0  0
 21 45  1  0  0  0  0
 21 46  1  0  0  0  0
 22 23  1  0  0  0  0
 22 47  1  0  0  0  0
 22 48  1  0  0  0  0
 23 24  1  0  0  0  0
 24 25  1  0  0  0  0
 24 49  1  0  0  0  0
 24 50  1  0  0  0  0
 25 51  1  0  0  0  0
 25 52  1  0  0  0  0
M  CHG  1  20   1
M  END
> <s_m_source_file>
AV-unprocessed.smi

> <i_m_source_file_index>
1084

> <i_lp_mmshare_version>
43012

> <i_f3d_flags>
0

> <s_epik_input>
W0NIMl0xW0NIMl1PW0NIMl1bQ0gyXU4xW0NASF0oW0NIM10pW0NIMl1bTkhdQyg9TylbTkhdYzJbY0hdW2NIXWMobltjSF0yKU4zW0NIMl1bQ0gyXU9bQ0gyXVtDSDJdMw==

> <s_epik_cmdline>
J2VwaWtfcHl0aG9uJywgJy1waCcsICc3LjAnLCAnLXRuJywgJzgnLCAnLW1hJywgJzIwMCcsICctbWV0YWxfYmluZGluZycsICctaW1hZScsICc8aW5maWxlLm1hZT4nLCAnLW9tYWUnLCAnPG91dGZpbGUubWFlPic=

> <r_lp_tautomer_probability>
1

> <r_epik_Ionization_Penalty>
0.604236

> <r_epik_Ionization_Penalty_Charging>
0.602531

> <r_epik_Ionization_Penalty_Neutral>
0.00170595

> <r_epik_State_Penalty>
0.59929

> <r_epik_Charging_Adjusted_Penalty>
1.20182

> <i_epik_Tot_Q>
1

> <i_epik_Tot_abs_Q>
1

> <r_epik_Metal_State_Penalty>
0.598238

> <b_epik_Metal_Only>
0

> <s_lp_Force_Field>
OPLS_2005

> <r_lp_Energy>
38.6371

> <b_lp_Chiralities_Consistent>
1

> <s_lp_Variant>
AV-unprocessed.smi:1084-3

> <Gold.Version>
5.8.1

> <Gold.Id.Protein>
6NUR|6NUR_protein|mol2

> <Gold.PLP.Fitness>
52.2947

> <Gold.PLP.PLP>
-45.3504

> <Gold.PLP.part.hbond>
-3.6447

> <Gold.PLP.part.metal>
0.0000

> <Gold.PLP.part.buried>
-4.1504

> <Gold.PLP.part.nonpolar>
-37.7886

> <Gold.PLP.part.repulsive>
0.5797

> <Gold.PLP.ligand.clash>
0.0000

> <Gold.PLP.ligand.torsion>
1.2639

> <Gold.PLP.Chemscore.Hbond>
3.0000

> <Gold.PLP.Chemscore.CHOScore>
0.0000

> <Gold.PLP.Chemscore.Metal>
0.0000

> <Gold.Chemscore.Hbonds>
donor molecule, donor type, donor heavy atom, donor atom, acceptor molecule, acceptor atom, score
      L1  H     4    32       P1  7948  1.00
      L1  H    20    53       P1  7948  2.00

> <Gold.PLP.Chemscore.Internal.Correction>
0.4721

> <Gold.Rescore>
     Score         DG    S(hbond)    S(metal)    S(lipo)     H(rot)  DE(clash)    DE(int)     intcor
     17.92     -20.83       1.97        0.00     111.75       1.68       0.54       2.36       ----

> <Gold.Chemscore.Fitness>
17.9217

> <Gold.Chemscore.DG>
-20.8283

> <Gold.Chemscore.ZeroCoef>
-5.4800

> <Gold.Chemscore.Hbond>
1.9683

> <Gold.Chemscore.Metal>
0.0000

> <Gold.Chemscore.Lipo>
111.7513

> <Gold.Chemscore.Internal_Hbond>
0.0000

> <Gold.Chemscore.DEClash>
0.5445

> <Gold.Chemscore.DEInternal>
2.3622

> <Gold.Chemscore.Rot>
1.6800

> <Gold.Chemscore.Internal.Correction>
   9.000000E+99

> <Gold.Chemscore.Hbonds>
donor molecule, donor type, donor heavy atom, donor atom, acceptor molecule, acceptor atom, score
      L1  H     4    32       P1  7948  0.94
      L1  H    20    53       P1  7948  1.00

> <Gold.Chemscore.Hbond.Weighted>
-6.5741

> <Gold.Chemscore.Metal.Weighted>
-0.0000

> <Gold.Chemscore.Lipo.Weighted>
-13.0749

> <Gold.Chemscore.Internal_Hbond.Weighted>
0.0000

> <Gold.Chemscore.DEClash.Weighted>
0.5445

> <Gold.Chemscore.DEInternal.Weighted>
2.3622

> <Gold.Chemscore.Rot.Weighted>
4.3007

> <Gold.Chemscore.Internal.Correction.Weighted>
   9.000000E+99

> <Gold.Protein.RotatedTorsions>
[ 6907 6896 6895 6894 ] final  143.64 input  -60.11 | X-H torsion
[ 7974 7965 7964 7962 ] final -147.08 input  175.53 | X-H torsion
[ 8008 7997 7996 7995 ] final -100.63 input   59.86 | X-H torsion
[ 10167 10162 10161 10158 ] final  120.86 input  -65.29 | X-H torsion
[ 10718 10713 10712 10709 ] final  159.96 input   66.30 | X-H torsion
[ 10763 10752 10751 10750 ] final -110.77 input  -60.55 | X-H torsion
[ 11005 11000 10999 10996 ] final -108.44 input  -57.11 | X-H torsion

> <Gold.Protein.ActiveResidues>
 VAL166  LYS551  ARG553  GLY616  TRP617  ASP618  TYR619  PRO620  LYS621  CYS622 
 ASP623  PHE694  ASN695  SER759  ASP760  ASP761  ALA762  ILE779  LEU786  VAL792 
 PHE793  MET794  SER795  GLU796  ALA797  LYS798  CYS799  TRP800  GLU811  SER814 

> <Gold.Protein.RotatedAtoms>
  152.2038  133.4860  159.5072 H   0  0  0  0  0  0  0  0  0  0  0  0  # atno 6907 bound_to 6896
  150.6975  134.1556  159.4166 H   0  0  0  0  0  0  0  0  0  0  0  0  # atno 6908 bound_to 6896
  151.9474  135.0185  160.0590 H   0  0  0  0  0  0  0  0  0  0  0  0  # atno 6909 bound_to 6896
  144.8117  140.5373  143.5638 H   0  0  0  0  0  0  0  0  0  0  0  0  # atno 7974 bound_to 7965
  154.8313  140.0439  157.1479 H   0  0  0  0  0  0  0  0  0  0  0  0  # atno 8008 bound_to 7997
  154.9149  140.3019  155.5226 H   0  0  0  0  0  0  0  0  0  0  0  0  # atno 8009 bound_to 7997
  156.2987  140.2351  156.4193 H   0  0  0  0  0  0  0  0  0  0  0  0  # atno 8010 bound_to 7997
  139.5955  144.7040  151.3186 H   0  0  0  0  0  0  0  0  0  0  0  0  # atno 10167 bound_to 10162
  157.1569  131.0578  151.2252 H   0  0  0  0  0  0  0  0  0  0  0  0  # atno 10718 bound_to 10713
  154.8265  135.4552  154.0936 H   0  0  0  0  0  0  0  0  0  0  0  0  # atno 10763 bound_to 10752
  153.2246  135.6898  153.7967 H   0  0  0  0  0  0  0  0  0  0  0  0  # atno 10764 bound_to 10752
  153.7372  135.3318  155.3273 H   0  0  0  0  0  0  0  0  0  0  0  0  # atno 10765 bound_to 10752
  141.0901  133.9069  157.2094 H   0  0  0  0  0  0  0  0  0  0  0  0  # atno 11005 bound_to 11000
  145.5308  139.1475  143.3500 LP  0  0  0  0  0  0  0  0  0  0  0  0  # atno 17320 bound_to 7965
  146.2416  140.5449  142.8931 LP  0  0  0  0  0  0  0  0  0  0  0  0  # atno 17321 bound_to 7965
  140.7208  143.7140  150.7747 LP  0  0  0  0  0  0  0  0  0  0  0  0  # atno 17342 bound_to 10162
  140.0705  143.5066  152.2582 LP  0  0  0  0  0  0  0  0  0  0  0  0  # atno 17343 bound_to 10162
  157.4168  130.7415  149.6882 LP  0  0  0  0  0  0  0  0  0  0  0  0  # atno 17370 bound_to 10713
  155.9760  130.4081  150.3807 LP  0  0  0  0  0  0  0  0  0  0  0  0  # atno 17371 bound_to 10713
  139.9726  135.0123  156.9550 LP  0  0  0  0  0  0  0  0  0  0  0  0  # atno 17394 bound_to 11000
  140.5271  134.0850  155.7306 LP  0  0  0  0  0  0  0  0  0  0  0  0  # atno 17395 bound_to 11000

$$$$
