AV-unprocessed.smi:1893|AV-procd|sdf|7673|dock10
  -GOLD-   22720 9413D 1   1.00000     0.00000
 Structure written by MMmdl.
 43 44  0  0  0  0  0  0  0  0  2 V2000
  144.4610  135.3165  153.7420 C   0  0  0  0  0  0  0  0  0  0  0  0
  145.7045  135.7576  152.9394 C   0  0  2  0  0  0  0  0  0  0  0  0
  145.4800  135.6717  151.4151 C   0  0  0  0  0  0  0  0  0  0  0  0
  145.4711  134.2199  150.9139 C   0  0  0  0  0  0  0  0  0  0  0  0
  146.7519  133.5027  151.3577 C   0  0  0  0  0  0  0  0  0  0  0  0
  146.9498  133.6060  152.8788 C   0  0  0  0  0  0  0  0  0  0  0  0
  146.9497  135.0269  153.3235 N   0  3  2  0  0  0  0  0  0  0  0  0
  147.3274  135.2025  154.7491 C   0  0  0  0  0  0  0  0  0  0  0  0
  148.8509  135.1262  154.9654 C   0  0  0  0  0  0  0  0  0  0  0  0
  149.5074  136.3489  154.5201 N   0  0  0  0  0  0  0  0  0  0  0  0
  150.7711  136.6925  154.8159 C   0  0  0  0  0  0  0  0  0  0  0  0
  151.5231  135.9748  155.4764 O   0  0  0  0  0  0  0  0  0  0  0  0
  151.2424  138.0613  154.3020 C   0  0  2  0  0  0  0  0  0  0  0  0
  152.7494  138.2945  154.5341 C   0  0  0  0  0  0  0  0  0  0  0  0
  150.4196  139.1168  154.8804 N   0  0  0  0  0  0  0  0  0  0  0  0
  149.4878  139.0507  155.8342 C   0  0  0  0  0  0  0  0  0  0  0  0
  148.9707  140.2253  156.1657 N   0  0  0  0  0  0  0  0  0  0  0  0
  149.6834  141.0332  155.3258 C   0  0  0  0  0  0  0  0  0  0  0  0
  150.5756  140.4225  154.5465 N   0  0  0  0  0  0  0  0  0  0  0  0
  143.5859  135.8930  153.4406 H   0  0  0  0  0  0  0  0  0  0  0  0
  144.5914  135.4771  154.8122 H   0  0  0  0  0  0  0  0  0  0  0  0
  144.2208  134.2645  153.5928 H   0  0  0  0  0  0  0  0  0  0  0  0
  145.8712  136.8110  153.1696 H   0  0  0  0  0  0  0  0  0  0  0  0
  144.5492  136.1691  151.1397 H   0  0  0  0  0  0  0  0  0  0  0  0
  146.2752  136.2173  150.9049 H   0  0  0  0  0  0  0  0  0  0  0  0
  144.5976  133.6934  151.2993 H   0  0  0  0  0  0  0  0  0  0  0  0
  145.3881  134.1999  149.8267 H   0  0  0  0  0  0  0  0  0  0  0  0
  146.7155  132.4551  151.0566 H   0  0  0  0  0  0  0  0  0  0  0  0
  147.6108  133.9411  150.8475 H   0  0  0  0  0  0  0  0  0  0  0  0
  146.1729  133.0476  153.4021 H   0  0  0  0  0  0  0  0  0  0  0  0
  147.8946  133.1303  153.1387 H   0  0  0  0  0  0  0  0  0  0  0  0
  146.9887  136.1804  155.0951 H   0  0  0  0  0  0  0  0  0  0  0  0
  146.8075  134.4624  155.3593 H   0  0  0  0  0  0  0  0  0  0  0  0
  149.1007  134.9444  156.0110 H   0  0  0  0  0  0  0  0  0  0  0  0
  149.2657  134.2928  154.3978 H   0  0  0  0  0  0  0  0  0  0  0  0
  148.9576  136.9900  153.9662 H   0  0  0  0  0  0  0  0  0  0  0  0
  151.0769  138.0834  153.2234 H   0  0  0  0  0  0  0  0  0  0  0  0
  153.3454  137.5225  154.0461 H   0  0  0  0  0  0  0  0  0  0  0  0
  153.0092  138.2903  155.5936 H   0  0  0  0  0  0  0  0  0  0  0  0
  153.0609  139.2549  154.1225 H   0  0  0  0  0  0  0  0  0  0  0  0
  149.1872  138.1242  156.3015 H   0  0  0  0  0  0  0  0  0  0  0  0
  149.5479  142.1044  155.2946 H   0  0  0  0  0  0  0  0  0  0  0  0
  147.6841  135.4774  152.7967 H   0  0  0  0  0  0  0  0  0  0  0  0
  1  2  1  0  0  0  0
  1 20  1  0  0  0  0
  1 21  1  0  0  0  0
  1 22  1  0  0  0  0
  2  7  1  0  0  0  0
  2  3  1  0  0  0  0
  2 23  1  0  0  0  0
  3  4  1  0  0  0  0
  3 24  1  0  0  0  0
  3 25  1  0  0  0  0
  4  5  1  0  0  0  0
  4 26  1  0  0  0  0
  4 27  1  0  0  0  0
  5  6  1  0  0  0  0
  5 28  1  0  0  0  0
  5 29  1  0  0  0  0
  6  7  1  0  0  0  0
  6 30  1  0  0  0  0
  6 31  1  0  0  0  0
  7  8  1  0  0  0  0
  7 43  1  0  0  0  0
  8  9  1  0  0  0  0
  8 32  1  0  0  0  0
  8 33  1  0  0  0  0
  9 10  1  0  0  0  0
  9 34  1  0  0  0  0
  9 35  1  0  0  0  0
 10 11  1  0  0  0  0
 10 36  1  0  0  0  0
 11 12  2  0  0  0  0
 11 13  1  0  0  0  0
 13 14  1  0  0  0  0
 13 15  1  0  0  0  0
 13 37  1  0  0  0  0
 14 38  1  0  0  0  0
 14 39  1  0  0  0  0
 14 40  1  0  0  0  0
 15 19  1  0  0  0  0
 15 16  1  0  0  0  0
 16 17  2  0  0  0  0
 16 41  1  0  0  0  0
 17 18  1  0  0  0  0
 18 19  2  0  0  0  0
 18 42  1  0  0  0  0
M  CHG  1   7   1
M  END
> <s_m_source_file>
AV-unprocessed.smi

> <i_m_source_file_index>
1893

> <i_lp_mmshare_version>
43012

> <i_f3d_flags>
0

> <s_epik_input>
W0NIM11bQ0BASF0xW0NIMl1bQ0gyXVtDSDJdW0NIMl1OMVtDSDJdW0NIMl1bTkhdQyg9TylbQ0BIXShbQ0gzXSluMltjSF1uW2NIXW4y

> <s_epik_cmdline>
J2VwaWtfcHl0aG9uJywgJy1waCcsICc3LjAnLCAnLXRuJywgJzgnLCAnLW1hJywgJzIwMCcsICctbWV0YWxfYmluZGluZycsICctaW1hZScsICc8aW5maWxlLm1hZT4nLCAnLW9tYWUnLCAnPG91dGZpbGUubWFlPic=

> <r_lp_tautomer_probability>
1

> <r_epik_Ionization_Penalty>
0.00266409

> <r_epik_Ionization_Penalty_Charging>
0.00265606

> <r_epik_Ionization_Penalty_Neutral>
8.02794e-06

> <r_epik_State_Penalty>
0.00184955

> <r_epik_Charging_Adjusted_Penalty>
0.00450561

> <i_epik_Tot_Q>
1

> <i_epik_Tot_abs_Q>
1

> <r_epik_Metal_State_Penalty>
-0

> <b_epik_Metal_Only>
0

> <s_lp_Force_Field>
OPLS_2005

> <r_lp_Energy>
25.3191

> <b_lp_Chiralities_Consistent>
1

> <s_lp_Variant>
AV-unprocessed.smi:1893-3

> <Gold.Version>
5.8.1

> <Gold.Id.Protein>
6NUR|6NUR_protein|mol2

> <Gold.PLP.Fitness>
44.5804

> <Gold.PLP.PLP>
-30.5332

> <Gold.PLP.part.hbond>
-3.9073

> <Gold.PLP.part.metal>
0.0000

> <Gold.PLP.part.buried>
-4.6155

> <Gold.PLP.part.nonpolar>
-22.9203

> <Gold.PLP.part.repulsive>
0.2459

> <Gold.PLP.ligand.clash>
0.0000

> <Gold.PLP.ligand.torsion>
0.5185

> <Gold.PLP.Chemscore.Hbond>
3.9790

> <Gold.PLP.Chemscore.CHOScore>
1.0000

> <Gold.PLP.Chemscore.Metal>
0.0000

> <Gold.Chemscore.Hbonds>
donor molecule, donor type, donor heavy atom, donor atom, acceptor molecule, acceptor atom, score
      L1  H     7    43       P1  7948  2.00
      L1  H    10    36       P1  7948  0.07
      P1  H  7989  7998       L1    19  1.00
      P1  H 10752 10765       L1    12  1.00
      L1  C    18    42       P1  8028  0.53

> <Gold.PLP.Chemscore.Internal.Correction>
0.1474

> <Gold.Rescore>
     Score         DG    S(hbond)    S(metal)    S(lipo)     H(rot)  DE(clash)    DE(int)     intcor
     14.37     -15.04       3.00        0.00      51.61       2.54       0.01       0.66       ----

> <Gold.Chemscore.Fitness>
14.3690

> <Gold.Chemscore.DG>
-15.0379

> <Gold.Chemscore.ZeroCoef>
-5.4800

> <Gold.Chemscore.Hbond>
2.9988

> <Gold.Chemscore.Metal>
0.0000

> <Gold.Chemscore.Lipo>
51.6120

> <Gold.Chemscore.Internal_Hbond>
0.0000

> <Gold.Chemscore.DEClash>
0.0064

> <Gold.Chemscore.DEInternal>
0.6625

> <Gold.Chemscore.Rot>
2.5377

> <Gold.Chemscore.Internal.Correction>
   9.000000E+99

> <Gold.Chemscore.Hbonds>
donor molecule, donor type, donor heavy atom, donor atom, acceptor molecule, acceptor atom, score
      L1  H     7    43       P1  7948  1.00
      L1  H    10    36       P1  7948  0.08
      P1  H  7989  7998       L1    19  0.92
      P1  H 10752 10765       L1    12  0.88

> <Gold.Chemscore.Hbond.Weighted>
-10.0159

> <Gold.Chemscore.Metal.Weighted>
-0.0000

> <Gold.Chemscore.Lipo.Weighted>
-6.0386

> <Gold.Chemscore.Internal_Hbond.Weighted>
0.0000

> <Gold.Chemscore.DEClash.Weighted>
0.0064

> <Gold.Chemscore.DEInternal.Weighted>
0.6625

> <Gold.Chemscore.Rot.Weighted>
6.4966

> <Gold.Chemscore.Internal.Correction.Weighted>
   9.000000E+99

> <Gold.Protein.RotatedTorsions>
[ 6907 6896 6895 6894 ] final   44.40 input  -60.11 | X-H torsion
[ 7974 7965 7964 7962 ] final  -62.57 input  175.53 | X-H torsion
[ 8008 7997 7996 7995 ] final  -19.70 input   59.86 | X-H torsion
[ 10167 10162 10161 10158 ] final -130.14 input  -65.29 | X-H torsion
[ 10718 10713 10712 10709 ] final  134.85 input   66.30 | X-H torsion
[ 10763 10752 10751 10750 ] final -174.58 input  -60.55 | X-H torsion
[ 11005 11000 10999 10996 ] final -135.65 input  -57.11 | X-H torsion

> <Gold.Protein.ActiveResidues>
 VAL166  LYS551  ARG553  GLY616  TRP617  ASP618  TYR619  PRO620  LYS621  CYS622 
 ASP623  PHE694  ASN695  SER759  ASP760  ASP761  ALA762  ILE779  LEU786  VAL792 
 PHE793  MET794  SER795  GLU796  ALA797  LYS798  CYS799  TRP800  GLU811  SER814 

> <Gold.Protein.RotatedAtoms>
  152.2320  134.8313  160.0472 H   0  0  0  0  0  0  0  0  0  0  0  0  # atno 6907 bound_to 6896
  151.9058  133.3544  159.3854 H   0  0  0  0  0  0  0  0  0  0  0  0  # atno 6908 bound_to 6896
  150.7028  134.4708  159.5468 H   0  0  0  0  0  0  0  0  0  0  0  0  # atno 6909 bound_to 6896
  145.7896  140.8717  143.0287 H   0  0  0  0  0  0  0  0  0  0  0  0  # atno 7974 bound_to 7965
  154.4819  140.2082  155.9744 H   0  0  0  0  0  0  0  0  0  0  0  0  # atno 8008 bound_to 7997
  156.1177  140.3218  155.8133 H   0  0  0  0  0  0  0  0  0  0  0  0  # atno 8009 bound_to 7997
  155.4522  140.0518  157.2990 H   0  0  0  0  0  0  0  0  0  0  0  0  # atno 8010 bound_to 7997
  139.9324  143.6257  152.2526 H   0  0  0  0  0  0  0  0  0  0  0  0  # atno 10167 bound_to 10162
  157.4630  131.1075  150.9896 H   0  0  0  0  0  0  0  0  0  0  0  0  # atno 10718 bound_to 10713
  154.5945  135.2848  155.0600 H   0  0  0  0  0  0  0  0  0  0  0  0  # atno 10763 bound_to 10752
  154.1888  135.6444  153.5058 H   0  0  0  0  0  0  0  0  0  0  0  0  # atno 10764 bound_to 10752
  153.0133  135.5441  154.6643 H   0  0  0  0  0  0  0  0  0  0  0  0  # atno 10765 bound_to 10752
  140.8879  134.1849  157.4548 H   0  0  0  0  0  0  0  0  0  0  0  0  # atno 11005 bound_to 11000
  144.6784  140.0105  143.7484 LP  0  0  0  0  0  0  0  0  0  0  0  0  # atno 17320 bound_to 7965
  145.9990  139.3076  143.0939 LP  0  0  0  0  0  0  0  0  0  0  0  0  # atno 17321 bound_to 7965
  139.6771  144.7658  151.1675 LP  0  0  0  0  0  0  0  0  0  0  0  0  # atno 17342 bound_to 10162
  140.7634  143.5778  150.8926 LP  0  0  0  0  0  0  0  0  0  0  0  0  # atno 17343 bound_to 10162
  157.0687  130.5855  149.5398 LP  0  0  0  0  0  0  0  0  0  0  0  0  # atno 17370 bound_to 10713
  156.0037  130.5121  150.7756 LP  0  0  0  0  0  0  0  0  0  0  0  0  # atno 17371 bound_to 10713
  139.8726  134.9845  156.5244 LP  0  0  0  0  0  0  0  0  0  0  0  0  # atno 17394 bound_to 11000
  140.8383  133.8225  155.9050 LP  0  0  0  0  0  0  0  0  0  0  0  0  # atno 17395 bound_to 11000

$$$$
