AV-unprocessed.smi:35|AV-procd|sdf|253|dock6
  -GOLD-   2262016 13D 1   1.00000     0.00000
 Structure written by MMmdl.
 29 30  0  0  0  0  0  0  0  0  1 V2000
  149.4123  135.1674  158.2321 O   0  0  0  0  0  0  0  0  0  0  0  0
  149.4566  136.0904  157.4219 C   0  0  0  0  0  0  0  0  0  0  0  0
  150.4774  136.1464  156.4702 N   0  0  0  0  0  0  0  0  0  0  0  0
  150.6258  137.1359  155.4964 C   0  0  0  0  0  0  0  0  0  0  0  0
  151.5960  137.1051  154.7407 O   0  0  0  0  0  0  0  0  0  0  0  0
  149.6360  138.1456  155.4359 N   0  0  0  0  0  0  0  0  0  0  0  0
  149.7849  139.2629  154.4137 C   0  0  2  0  0  0  0  0  0  0  0  0
  150.7665  140.1631  154.8484 O   0  0  0  0  0  0  0  0  0  0  0  0
  150.1931  141.3697  155.3497 C   0  0  2  0  0  0  0  0  0  0  0  0
  149.8701  141.2460  156.8573 C   0  0  0  0  0  0  0  0  0  0  0  0
  149.5526  142.5153  157.3873 O   0  0  0  0  0  0  0  0  0  0  0  0
  148.9750  141.5226  154.4328 C   0  0  2  0  0  0  0  0  0  0  0  0
  147.9667  142.3520  154.9770 O   0  0  0  0  0  0  0  0  0  0  0  0
  148.4879  140.0921  154.2413 C   0  0  1  0  0  0  0  0  0  0  0  0
  147.9371  139.9545  152.9463 O   0  0  0  0  0  0  0  0  0  0  0  0
  148.6395  138.1622  156.4077 C   0  0  0  0  0  0  0  0  0  0  0  0
  148.5152  137.2009  157.3523 C   0  0  0  0  0  0  0  0  0  0  0  0
  147.0132  137.4030  158.6283 Br  0  0  0  0  0  0  0  0  0  0  0  0
  151.1752  135.4170  156.4987 H   0  0  0  0  0  0  0  0  0  0  0  0
  150.1253  138.7605  153.5062 H   0  0  0  0  0  0  0  0  0  0  0  0
  150.8812  142.2019  155.1950 H   0  0  0  0  0  0  0  0  0  0  0  0
  148.9882  140.6240  157.0089 H   0  0  0  0  0  0  0  0  0  0  0  0
  150.6770  140.7843  157.4241 H   0  0  0  0  0  0  0  0  0  0  0  0
  149.2167  143.0570  156.6894 H   0  0  0  0  0  0  0  0  0  0  0  0
  149.3081  141.9401  153.4808 H   0  0  0  0  0  0  0  0  0  0  0  0
  148.3843  143.0519  155.4562 H   0  0  0  0  0  0  0  0  0  0  0  0
  147.7609  139.8271  155.0108 H   0  0  0  0  0  0  0  0  0  0  0  0
  148.6313  139.7100  152.3529 H   0  0  0  0  0  0  0  0  0  0  0  0
  147.9191  138.9655  156.4347 H   0  0  0  0  0  0  0  0  0  0  0  0
  1  2  2  0  0  0  0
  2 17  1  0  0  0  0
  2  3  1  0  0  0  0
  3 19  1  0  0  0  0
  3  4  1  0  0  0  0
  4  5  2  0  0  0  0
  4  6  1  0  0  0  0
  6  7  1  0  0  0  0
  6 16  1  0  0  0  0
  7 14  1  0  0  0  0
  7  8  1  0  0  0  0
  7 20  1  0  0  0  0
  8  9  1  0  0  0  0
  9 10  1  0  0  0  0
  9 12  1  0  0  0  0
  9 21  1  0  0  0  0
 10 11  1  0  0  0  0
 10 22  1  0  0  0  0
 10 23  1  0  0  0  0
 11 24  1  0  0  0  0
 12 13  1  0  0  0  0
 12 14  1  0  0  0  0
 12 25  1  0  0  0  0
 13 26  1  0  0  0  0
 14 15  1  0  0  0  0
 14 27  1  0  0  0  0
 15 28  1  0  0  0  0
 16 17  2  0  0  0  0
 16 29  1  0  0  0  0
 17 18  1  0  0  0  0
M  END
> <s_m_source_file>
AV-unprocessed.smi

> <i_m_source_file_index>
35

> <i_lp_mmshare_version>
43012

> <i_f3d_flags>
0

> <s_epik_input>
Tz1jMVtuSF1jKD1PKW4oW2NIXWMxQnIpW0NAQEhdMk9bQ0BASF0oW0NIMl1bT0hdKVtDQEBIXShbT0hdKVtDQEhdMltPSF0=

> <s_epik_cmdline>
J2VwaWtfcHl0aG9uJywgJy1waCcsICc3LjAnLCAnLXRuJywgJzgnLCAnLW1hJywgJzIwMCcsICctbWV0YWxfYmluZGluZycsICctaW1hZScsICc8aW5maWxlLm1hZT4nLCAnLW9tYWUnLCAnPG91dGZpbGUubWFlPic=

> <r_lp_tautomer_probability>
0.999537

> <r_epik_Ionization_Penalty>
0.10812

> <r_epik_Ionization_Penalty_Charging>
0.108119

> <r_epik_Ionization_Penalty_Neutral>
4.93006e-07

> <r_epik_State_Penalty>
0.0979238

> <r_epik_Charging_Adjusted_Penalty>
0.206043

> <i_epik_Tot_Q>
0

> <i_epik_Tot_abs_Q>
0

> <r_epik_Metal_State_Penalty>
3.07911

> <b_epik_Metal_Only>
0

> <s_epik_Chemistry_Notes>
This compound contains an acetal/aminal-like group ( X-CH(R)-Y where X, Y are N, S, or O) that may be acid/base labile, releasing an aldehyde.

> <s_lp_Force_Field>
OPLS_2005

> <r_lp_Energy>
30.5173

> <b_lp_Chiralities_Consistent>
1

> <s_lp_Variant>
AV-unprocessed.smi:35-7

> <Gold.Version>
5.8.1

> <Gold.Id.Protein>
6NUR|6NUR_protein|mol2

> <Gold.PLP.Fitness>
40.9680

> <Gold.PLP.PLP>
-24.0706

> <Gold.PLP.part.hbond>
-5.6944

> <Gold.PLP.part.metal>
0.0000

> <Gold.PLP.part.buried>
-4.4577

> <Gold.PLP.part.nonpolar>
-13.5435

> <Gold.PLP.part.repulsive>
0.2953

> <Gold.PLP.ligand.clash>
0.0000

> <Gold.PLP.ligand.torsion>
0.5839

> <Gold.PLP.Chemscore.Hbond>
6.0000

> <Gold.PLP.Chemscore.CHOScore>
0.0000

> <Gold.PLP.Chemscore.Metal>
0.0000

> <Gold.Chemscore.Hbonds>
donor molecule, donor type, donor heavy atom, donor atom, acceptor molecule, acceptor atom, score
      L1  H    11    24       P1  8028  1.00
      L1  H    13    26       P1  8028  1.00
      L1  H    15    28       P1  7957  1.00
      P1  H  6896  6907       L1     1  1.00
      P1  H  7989  7998       L1     8  0.85
      P1  H 10752 10763       L1     5  1.00

> <Gold.PLP.Chemscore.Internal.Correction>
0.0653

> <Gold.Rescore>
     Score         DG    S(hbond)    S(metal)    S(lipo)     H(rot)  DE(clash)    DE(int)     intcor
     15.92     -16.64       5.09        0.00      30.43       3.67       0.00       0.72       ----

> <Gold.Chemscore.Fitness>
15.9243

> <Gold.Chemscore.DG>
-16.6442

> <Gold.Chemscore.ZeroCoef>
-5.4800

> <Gold.Chemscore.Hbond>
5.0896

> <Gold.Chemscore.Metal>
0.0000

> <Gold.Chemscore.Lipo>
30.4306

> <Gold.Chemscore.Internal_Hbond>
0.0000

> <Gold.Chemscore.DEClash>
0.0000

> <Gold.Chemscore.DEInternal>
0.7199

> <Gold.Chemscore.Rot>
3.6701

> <Gold.Chemscore.Internal.Correction>
   9.000000E+99

> <Gold.Chemscore.Hbonds>
donor molecule, donor type, donor heavy atom, donor atom, acceptor molecule, acceptor atom, score
      L1  H    11    24       P1  8028  0.96
      L1  H    13    26       P1  8028  0.95
      L1  H    15    28       P1  7957  0.92
      P1  H  6896  6907       L1     1  1.00
      P1  H  7989  7998       L1     8  0.12
      P1  H 10752 10763       L1     5  0.92

> <Gold.Chemscore.Hbond.Weighted>
-16.9993

> <Gold.Chemscore.Metal.Weighted>
-0.0000

> <Gold.Chemscore.Lipo.Weighted>
-3.5604

> <Gold.Chemscore.Internal_Hbond.Weighted>
0.0000

> <Gold.Chemscore.DEClash.Weighted>
0.0000

> <Gold.Chemscore.DEInternal.Weighted>
0.7199

> <Gold.Chemscore.Rot.Weighted>
9.3955

> <Gold.Chemscore.Internal.Correction.Weighted>
   9.000000E+99

> <Gold.Protein.RotatedTorsions>
[ 6907 6896 6895 6894 ] final  -78.84 input  -60.11 | X-H torsion
[ 7974 7965 7964 7962 ] final -160.43 input  175.53 | X-H torsion
[ 8008 7997 7996 7995 ] final  -14.55 input   59.86 | X-H torsion
[ 10167 10162 10161 10158 ] final  -48.11 input  -65.29 | X-H torsion
[ 10718 10713 10712 10709 ] final   12.14 input   66.30 | X-H torsion
[ 10763 10752 10751 10750 ] final   41.81 input  -60.55 | X-H torsion
[ 11005 11000 10999 10996 ] final   43.58 input  -57.11 | X-H torsion

> <Gold.Protein.ActiveResidues>
 VAL166  LYS551  ARG553  GLY616  TRP617  ASP618  TYR619  PRO620  LYS621  CYS622 
 ASP623  PHE694  ASN695  SER759  ASP760  ASP761  ALA762  ILE779  LEU786  VAL792 
 PHE793  MET794  SER795  GLU796  ALA797  LYS798  CYS799  TRP800  GLU811  SER814 

> <Gold.Protein.RotatedAtoms>
  150.6963  134.4212  159.5205 H   0  0  0  0  0  0  0  0  0  0  0  0  # atno 6907 bound_to 6896
  152.1954  134.8632  160.0522 H   0  0  0  0  0  0  0  0  0  0  0  0  # atno 6908 bound_to 6896
  151.9572  133.3649  159.4058 H   0  0  0  0  0  0  0  0  0  0  0  0  # atno 6909 bound_to 6896
  144.7427  140.3543  143.6109 H   0  0  0  0  0  0  0  0  0  0  0  0  # atno 7974 bound_to 7965
  154.5201  140.2220  155.8991 H   0  0  0  0  0  0  0  0  0  0  0  0  # atno 8008 bound_to 7997
  156.1652  140.3133  155.8842 H   0  0  0  0  0  0  0  0  0  0  0  0  # atno 8009 bound_to 7997
  155.3670  140.0464  157.3036 H   0  0  0  0  0  0  0  0  0  0  0  0  # atno 8010 bound_to 7997
  140.6746  143.2754  151.4023 H   0  0  0  0  0  0  0  0  0  0  0  0  # atno 10167 bound_to 10162
  157.0058  130.6097  149.5702 H   0  0  0  0  0  0  0  0  0  0  0  0  # atno 10718 bound_to 10713
  152.9898  135.6150  154.2848 H   0  0  0  0  0  0  0  0  0  0  0  0  # atno 10763 bound_to 10752
  154.2575  135.2783  155.2793 H   0  0  0  0  0  0  0  0  0  0  0  0  # atno 10764 bound_to 10752
  154.5234  135.5808  153.6757 H   0  0  0  0  0  0  0  0  0  0  0  0  # atno 10765 bound_to 10752
  140.1631  134.4316  155.8305 H   0  0  0  0  0  0  0  0  0  0  0  0  # atno 11005 bound_to 11000
  145.7244  139.1718  143.2466 LP  0  0  0  0  0  0  0  0  0  0  0  0  # atno 17320 bound_to 7965
  146.1253  140.7256  142.9438 LP  0  0  0  0  0  0  0  0  0  0  0  0  # atno 17321 bound_to 7965
  139.6031  144.1254  152.2219 LP  0  0  0  0  0  0  0  0  0  0  0  0  # atno 17342 bound_to 10162
  140.0644  144.5830  150.7238 LP  0  0  0  0  0  0  0  0  0  0  0  0  # atno 17343 bound_to 10162
  156.0154  130.5248  150.8118 LP  0  0  0  0  0  0  0  0  0  0  0  0  # atno 17370 bound_to 10713
  157.5357  131.0938  150.9896 LP  0  0  0  0  0  0  0  0  0  0  0  0  # atno 17371 bound_to 10713
  141.2211  133.6922  156.7630 LP  0  0  0  0  0  0  0  0  0  0  0  0  # atno 17394 bound_to 11000
  140.2466  134.8573  157.3626 LP  0  0  0  0  0  0  0  0  0  0  0  0  # atno 17395 bound_to 11000

$$$$
