#       Name:                AV-unprocessed.smi:527
#       Creating user name   scv26
#       Creation time:       Thu Mar 26 23:31:45 2020


#       File generated by GOLD software.
#

@<TRIPOS>MOLECULE
AV-unprocessed.smi:527
    47    48     1
SMALL
NO_CHARGES


@<TRIPOS>ATOM
      1 ****        -2.6593  -2.9545   2.1059 C.3            1 S1                 0.0000
      2 ****        -2.2160  -2.2253   0.8247 C.3            1 S1                 0.0000
      3 ****        -2.8015  -2.9394  -0.4111 C.3            1 S1                 0.0000
      4 ****        -2.3829  -2.2641  -1.7238 C.3            1 S1                 0.0000
      5 ****        -2.7764  -0.7803  -1.7276 C.3            1 S1                 0.0000
      6 ****        -2.1967  -0.0315  -0.5110 C.3            1 S1                 0.0000
      7 ****        -0.7424   0.0951  -0.6189 N.am           1 S1                 0.0000
      8 ****        -0.0886   1.0307  -1.3221 C.2            1 S1                 0.0000
      9 ****        -0.6555   1.9026  -1.9839 O.2            1 S1                 0.0000
     10 ****         1.2438   0.8826  -1.1951 N.am           1 S1                 0.0000
     11 ****         2.2109   1.6401  -1.7521 C.2            1 S1                 0.0000
     12 ****         2.0217   2.5996  -2.5018 O.2            1 S1                 0.0000
     13 ****         3.6451   1.2580  -1.3850 C.3            1 S1                 0.0000
     14 ****         4.1088   2.0196  -0.2215 N.pl3          1 S1                 0.0000
     15 ****         4.0468   1.6453   1.0968 C.2            1 S1                 0.0000
     16 ****         4.5871   2.6763   1.8217 C.2            1 S1                 0.0000
     17 ****         4.9546   3.6359   0.9167 N.pl3          1 S1                 1.0000
     18 ****         4.6622   3.2355  -0.3251 C.2            1 S1                 0.0000
     19 ****        -2.5984  -0.7181   0.8205 C.3            1 S1                 0.0000
     20 ****        -2.0400   0.0512   2.0350 C.3            1 S1                 0.0000
     21 ****        -3.7333  -2.8564   2.2675 H              1 S1                 0.0000
     22 ****        -2.1494  -2.5686   2.9883 H              1 S1                 0.0000
     23 ****        -2.4291  -4.0188   2.0491 H              1 S1                 0.0000
     24 ****        -1.1294  -2.3041   0.7683 H              1 S1                 0.0000
     25 ****        -2.4814  -3.9818  -0.4255 H              1 S1                 0.0000
     26 ****        -3.8903  -2.9544  -0.3450 H              1 S1                 0.0000
     27 ****        -1.3059  -2.3647  -1.8629 H              1 S1                 0.0000
     28 ****        -2.8507  -2.7727  -2.5672 H              1 S1                 0.0000
     29 ****        -2.4536  -0.3100  -2.6572 H              1 S1                 0.0000
     30 ****        -3.8640  -0.6996  -1.7123 H              1 S1                 0.0000
     31 ****        -2.6223   0.9739  -0.5042 H              1 S1                 0.0000
     32 ****        -0.1963  -0.5832  -0.1083 H              1 S1                 0.0000
     33 ****         1.5527   0.1211  -0.6094 H              1 S1                 0.0000
     34 ****         3.7182   0.1944  -1.1529 H              1 S1                 0.0000
     35 ****         4.3162   1.4564  -2.2223 H              1 S1                 0.0000
     36 ****         3.6323   0.6992   1.4133 H              1 S1                 0.0000
     37 ****         4.7323   2.7962   2.8857 H              1 S1                 0.0000
     38 ****         4.8347   3.7875  -1.2322 H              1 S1                 0.0000
     39 ****        -3.6859  -0.6597   0.8874 H              1 S1                 0.0000
     40 ****        -0.9589  -0.0608   2.1220 H              1 S1                 0.0000
     41 ****        -2.4859  -0.2928   2.9677 H              1 S1                 0.0000
     42 ****        -2.2581   1.1167   1.9560 H              1 S1                 0.0000
     43 ****         5.3839   4.5227   1.1503 H              1 S1                 0.0000
     44 ****        -1.6544   1.9364  -2.0149 LP             1 S1                 0.0000
     45 ****        -0.1164   2.5761  -2.4897 LP             1 S1                 0.0000
     46 ****         1.0895   2.8709  -2.7412 LP             1 S1                 0.0000
     47 ****         2.8004   3.1070  -2.8708 LP             1 S1                 0.0000
@<TRIPOS>BOND
    1    1    2 1     
    2    1   21 1     
    3    1   22 1     
    4    1   23 1     
    5    2   19 1     
    6    2    3 1     
    7    2   24 1     
    8    3    4 1     
    9    3   25 1     
   10    3   26 1     
   11    4    5 1     
   12    4   27 1     
   13    4   28 1     
   14    5    6 1     
   15    5   29 1     
   16    5   30 1     
   17    6    7 1     
   18    6   19 1     
   19    6   31 1     
   20    7    8 1     
   21    7   32 1     
   22    8    9 2     
   23    8   10 1     
   24   10   11 1     
   25   10   33 1     
   26   11   12 2     
   27   11   13 1     
   28   13   14 1     
   29   13   34 1     
   30   13   35 1     
   31   14   18 1     
   32   14   15 1     
   33   15   16 2     
   34   15   36 1     
   35   16   17 1     
   36   16   37 1     
   37   17   18 2     
   38   17   43 1     
   39   18   38 1     
   40   19   20 1     
   41   19   39 1     
   42   20   40 1     
   43   20   41 1     
   44   20   42 1     
   45    9   44 1     
   46    9   45 1     
   47   12   46 1     
   48   12   47 1     
@<TRIPOS>SUBSTRUCTURE
      1 S1             1
@<TRIPOS>SET
LONE_PAIRS      STATIC     ATOMS    <user>   **** ""
4 44 45 46 47
DONOR_HYDROGENS      STATIC     ATOMS    <user>   **** ""
3 32 33 43
ATOM$BLUE        STATIC     ATOMS    COLORGROUP SYSTEM
4 44 45 46 47
ATOM$RED        STATIC     ATOMS    COLORGROUP SYSTEM
3 32 33 43
