AV-unprocessed.smi:2666|AV-procd|sdf|10333|dock5
  -GOLD-   2272014353D 1   1.00000     0.00000
 Structure written by MMmdl.
 43 44  0  0  0  0  0  0  0  0  1 V2000
  144.5114  136.4368  152.5673 O   0  0  0  0  0  0  0  0  0  0  0  0
  145.7203  136.3499  152.3550 C   0  0  0  0  0  0  0  0  0  0  0  0
  146.3236  135.3322  151.7173 N   0  0  0  0  0  0  0  0  0  0  0  0
  145.7269  134.1836  151.1308 C   0  0  0  0  0  0  0  0  0  0  0  0
  144.3193  134.1213  151.0757 C   0  0  0  0  0  0  0  0  0  0  0  0
  143.7038  132.9863  150.5144 C   0  0  0  0  0  0  0  0  0  0  0  0
  144.5252  131.9469  150.0367 C   0  0  0  0  0  0  0  0  0  0  0  0
  145.8730  131.9820  150.0970 N   0  0  0  0  0  0  0  0  0  0  0  0
  146.4569  133.0749  150.6344 C   0  0  0  0  0  0  0  0  0  0  0  0
  146.6158  137.2632  152.7604 N   0  0  0  0  0  0  0  0  0  0  0  0
  146.3205  138.4923  153.5029 C   0  0  1  0  0  0  0  0  0  0  0  0
  145.6670  138.1171  154.8576 C   0  0  0  0  0  0  0  0  0  0  0  0
  144.1336  137.9731  154.8267 C   0  0  0  0  0  0  0  0  0  0  0  0
  143.5155  139.2413  154.8841 O   0  0  0  0  0  0  0  0  0  0  0  0
  147.6132  139.3473  153.6499 C   0  0  0  0  0  0  0  0  0  0  0  0
  148.7119  138.6265  154.4703 C   0  0  0  0  0  0  0  0  0  0  0  0
  149.9803  139.4800  154.6328 C   0  0  0  0  0  0  0  0  0  0  0  0
  149.6631  140.8400  155.2656 C   0  0  0  0  0  0  0  0  0  0  0  0
  148.6004  141.5806  154.4454 C   0  0  0  0  0  0  0  0  0  0  0  0
  147.3284  140.7331  154.2857 C   0  0  0  0  0  0  0  0  0  0  0  0
  147.3325  135.3546  151.6984 H   0  0  0  0  0  0  0  0  0  0  0  0
  143.7156  134.9342  151.4525 H   0  0  0  0  0  0  0  0  0  0  0  0
  142.6281  132.9134  150.4520 H   0  0  0  0  0  0  0  0  0  0  0  0
  144.0876  131.0609  149.6007 H   0  0  0  0  0  0  0  0  0  0  0  0
  147.5340  133.0339  150.6791 H   0  0  0  0  0  0  0  0  0  0  0  0
  147.5864  137.0980  152.5382 H   0  0  0  0  0  0  0  0  0  0  0  0
  145.6001  139.0932  152.9450 H   0  0  0  0  0  0  0  0  0  0  0  0
  146.0983  137.1800  155.2118 H   0  0  0  0  0  0  0  0  0  0  0  0
  145.9071  138.8621  155.6147 H   0  0  0  0  0  0  0  0  0  0  0  0
  143.7943  137.4409  153.9380 H   0  0  0  0  0  0  0  0  0  0  0  0
  143.8000  137.3917  155.6867 H   0  0  0  0  0  0  0  0  0  0  0  0
  143.3337  139.5286  154.0023 H   0  0  0  0  0  0  0  0  0  0  0  0
  148.0107  139.5226  152.6490 H   0  0  0  0  0  0  0  0  0  0  0  0
  148.3225  138.3630  155.4545 H   0  0  0  0  0  0  0  0  0  0  0  0
  149.0026  137.6924  153.9928 H   0  0  0  0  0  0  0  0  0  0  0  0
  150.7095  138.9480  155.2443 H   0  0  0  0  0  0  0  0  0  0  0  0
  150.4457  139.6306  153.6580 H   0  0  0  0  0  0  0  0  0  0  0  0
  149.3077  140.6978  156.2872 H   0  0  0  0  0  0  0  0  0  0  0  0
  150.5699  141.4416  155.3323 H   0  0  0  0  0  0  0  0  0  0  0  0
  148.3567  142.5293  154.9244 H   0  0  0  0  0  0  0  0  0  0  0  0
  149.0023  141.8256  153.4613 H   0  0  0  0  0  0  0  0  0  0  0  0
  146.6206  141.2995  153.6809 H   0  0  0  0  0  0  0  0  0  0  0  0
  146.8577  140.5978  155.2604 H   0  0  0  0  0  0  0  0  0  0  0  0
  1  2  2  0  0  0  0
  2  3  1  0  0  0  0
  2 10  1  0  0  0  0
  3  4  1  0  0  0  0
  3 21  1  0  0  0  0
  4  9  1  0  0  0  0
  4  5  2  0  0  0  0
  5  6  1  0  0  0  0
  5 22  1  0  0  0  0
  6  7  2  0  0  0  0
  6 23  1  0  0  0  0
  7  8  1  0  0  0  0
  7 24  1  0  0  0  0
  8  9  2  0  0  0  0
  9 25  1  0  0  0  0
 10 11  1  0  0  0  0
 10 26  1  0  0  0  0
 11 12  1  0  0  0  0
 11 15  1  0  0  0  0
 11 27  1  0  0  0  0
 12 13  1  0  0  0  0
 12 28  1  0  0  0  0
 12 29  1  0  0  0  0
 13 14  1  0  0  0  0
 13 30  1  0  0  0  0
 13 31  1  0  0  0  0
 14 32  1  0  0  0  0
 15 20  1  0  0  0  0
 15 16  1  0  0  0  0
 15 33  1  0  0  0  0
 16 17  1  0  0  0  0
 16 34  1  0  0  0  0
 16 35  1  0  0  0  0
 17 18  1  0  0  0  0
 17 36  1  0  0  0  0
 17 37  1  0  0  0  0
 18 19  1  0  0  0  0
 18 38  1  0  0  0  0
 18 39  1  0  0  0  0
 19 20  1  0  0  0  0
 19 40  1  0  0  0  0
 19 41  1  0  0  0  0
 20 42  1  0  0  0  0
 20 43  1  0  0  0  0
M  END
> <s_m_source_file>
AV-unprocessed.smi

> <i_m_source_file_index>
2666

> <i_lp_mmshare_version>
43012

> <i_f3d_flags>
0

> <s_epik_input>
W2NIXTFuW2NIXVtjSF1bY0hdYzFbTkhdQyg9TylbTkhdW0NASF0oW0NIMl1bQ0gyXVtPSF0pW0NIXTJbQ0gyXVtDSDJdW0NIMl1bQ0gyXVtDSDJdMg==

> <s_epik_cmdline>
J2VwaWtfcHl0aG9uJywgJy1waCcsICc3LjAnLCAnLXRuJywgJzgnLCAnLW1hJywgJzIwMCcsICctbWV0YWxfYmluZGluZycsICctaW1hZScsICc8aW5maWxlLm1hZT4nLCAnLW9tYWUnLCAnPG91dGZpbGUubWFlPic=

> <r_epik_Ionization_Penalty>
0.00500145

> <r_epik_Ionization_Penalty_Charging>
0

> <r_epik_Ionization_Penalty_Neutral>
0.00500145

> <r_epik_State_Penalty>
0.00360517

> <r_epik_Charging_Adjusted_Penalty>
0.00360517

> <i_epik_Tot_Q>
0

> <i_epik_Tot_abs_Q>
0

> <r_epik_Metal_State_Penalty>
-0

> <b_epik_Metal_Only>
0

> <s_lp_Force_Field>
OPLS_2005

> <r_lp_Energy>
18.9025

> <b_lp_Chiralities_Consistent>
1

> <s_lp_Variant>
AV-unprocessed.smi:2666-2

> <Gold.Version>
5.8.1

> <Gold.Id.Protein>
6NUR|6NUR_protein|mol2

> <Gold.PLP.Fitness>
44.4327

> <Gold.PLP.PLP>
-33.9207

> <Gold.PLP.part.hbond>
-3.0000

> <Gold.PLP.part.metal>
0.0000

> <Gold.PLP.part.buried>
-2.5618

> <Gold.PLP.part.nonpolar>
-28.9892

> <Gold.PLP.part.repulsive>
0.3941

> <Gold.PLP.ligand.clash>
0.0000

> <Gold.PLP.ligand.torsion>
0.5133

> <Gold.PLP.Chemscore.Hbond>
3.0000

> <Gold.PLP.Chemscore.CHOScore>
0.8313

> <Gold.PLP.Chemscore.Metal>
0.0000

> <Gold.Chemscore.Hbonds>
donor molecule, donor type, donor heavy atom, donor atom, acceptor molecule, acceptor atom, score
      L1  H     3    21       P1  7948  1.00
      L1  H    10    26       P1  7948  1.00
      L1  H    14    32       P1 10175  1.00
      L1  C     9    25       P1 10747  0.68

> <Gold.PLP.Chemscore.Internal.Correction>
0.0447

> <Gold.Rescore>
     Score         DG    S(hbond)    S(metal)    S(lipo)     H(rot)  DE(clash)    DE(int)     intcor
     17.37     -19.66       2.92        0.00      86.58       2.23       0.06       2.22       ----

> <Gold.Chemscore.Fitness>
17.3743

> <Gold.Chemscore.DG>
-19.6606

> <Gold.Chemscore.ZeroCoef>
-5.4800

> <Gold.Chemscore.Hbond>
2.9182

> <Gold.Chemscore.Metal>
0.0000

> <Gold.Chemscore.Lipo>
86.5821

> <Gold.Chemscore.Internal_Hbond>
0.0000

> <Gold.Chemscore.DEClash>
0.0621

> <Gold.Chemscore.DEInternal>
2.2241

> <Gold.Chemscore.Rot>
2.2251

> <Gold.Chemscore.Internal.Correction>
   9.000000E+99

> <Gold.Chemscore.Hbonds>
donor molecule, donor type, donor heavy atom, donor atom, acceptor molecule, acceptor atom, score
      L1  H     3    21       P1  7948  0.94
      L1  H    10    26       P1  7948  0.99
      L1  H    14    32       P1 10175  0.99

> <Gold.Chemscore.Hbond.Weighted>
-9.7466

> <Gold.Chemscore.Metal.Weighted>
-0.0000

> <Gold.Chemscore.Lipo.Weighted>
-10.1301

> <Gold.Chemscore.Internal_Hbond.Weighted>
0.0000

> <Gold.Chemscore.DEClash.Weighted>
0.0621

> <Gold.Chemscore.DEInternal.Weighted>
2.2241

> <Gold.Chemscore.Rot.Weighted>
5.6962

> <Gold.Chemscore.Internal.Correction.Weighted>
   9.000000E+99

> <Gold.Protein.RotatedTorsions>
[ 6907 6896 6895 6894 ] final  -50.27 input  -60.11 | X-H torsion
[ 7974 7965 7964 7962 ] final   49.63 input  175.53 | X-H torsion
[ 8008 7997 7996 7995 ] final -171.13 input   59.86 | X-H torsion
[ 10167 10162 10161 10158 ] final   -4.94 input  -65.29 | X-H torsion
[ 10718 10713 10712 10709 ] final  -64.82 input   66.30 | X-H torsion
[ 10763 10752 10751 10750 ] final   -3.55 input  -60.55 | X-H torsion
[ 11005 11000 10999 10996 ] final -138.46 input  -57.11 | X-H torsion

> <Gold.Protein.ActiveResidues>
 VAL166  LYS551  ARG553  GLY616  TRP617  ASP618  TYR619  PRO620  LYS621  CYS622 
 ASP623  PHE694  ASN695  SER759  ASP760  ASP761  ALA762  ILE779  LEU786  VAL792 
 PHE793  MET794  SER795  GLU796  ALA797  LYS798  CYS799  TRP800  GLU811  SER814 

> <Gold.Protein.RotatedAtoms>
  150.8724  134.8100  159.7164 H   0  0  0  0  0  0  0  0  0  0  0  0  # atno 6907 bound_to 6896
  152.4723  134.4926  159.9710 H   0  0  0  0  0  0  0  0  0  0  0  0  # atno 6908 bound_to 6896
  151.5013  133.3465  159.2905 H   0  0  0  0  0  0  0  0  0  0  0  0  # atno 6909 bound_to 6896
  146.0090  139.4523  142.9967 H   0  0  0  0  0  0  0  0  0  0  0  0  # atno 7974 bound_to 7965
  155.9274  140.1085  157.1159 H   0  0  0  0  0  0  0  0  0  0  0  0  # atno 8008 bound_to 7997
  154.4065  140.1244  156.4824 H   0  0  0  0  0  0  0  0  0  0  0  0  # atno 8009 bound_to 7997
  155.7121  140.3471  155.4981 H   0  0  0  0  0  0  0  0  0  0  0  0  # atno 8010 bound_to 7997
  140.6945  143.6366  150.8474 H   0  0  0  0  0  0  0  0  0  0  0  0  # atno 10167 bound_to 10162
  156.0706  130.4238  150.1474 H   0  0  0  0  0  0  0  0  0  0  0  0  # atno 10718 bound_to 10713
  153.3728  135.6995  153.6624 H   0  0  0  0  0  0  0  0  0  0  0  0  # atno 10763 bound_to 10752
  153.5267  135.3600  155.2658 H   0  0  0  0  0  0  0  0  0  0  0  0  # atno 10764 bound_to 10752
  154.8683  135.4171  154.3010 H   0  0  0  0  0  0  0  0  0  0  0  0  # atno 10765 bound_to 10752
  140.8614  134.2164  157.4705 H   0  0  0  0  0  0  0  0  0  0  0  0  # atno 11005 bound_to 11000
  145.7371  141.0022  143.1321 LP  0  0  0  0  0  0  0  0  0  0  0  0  # atno 17320 bound_to 7965
  144.6946  139.9054  143.7460 LP  0  0  0  0  0  0  0  0  0  0  0  0  # atno 17321 bound_to 7965
  140.0082  143.5671  152.2849 LP  0  0  0  0  0  0  0  0  0  0  0  0  # atno 17342 bound_to 10162
  139.6385  144.7652  151.2388 LP  0  0  0  0  0  0  0  0  0  0  0  0  # atno 17343 bound_to 10162
  156.9526  130.9779  151.3495 LP  0  0  0  0  0  0  0  0  0  0  0  0  # atno 17370 bound_to 10713
  157.5775  130.8353  149.8476 LP  0  0  0  0  0  0  0  0  0  0  0  0  # atno 17371 bound_to 10713
  139.8707  134.9731  156.4797 LP  0  0  0  0  0  0  0  0  0  0  0  0  # atno 17394 bound_to 11000
  140.8678  133.8011  155.9333 LP  0  0  0  0  0  0  0  0  0  0  0  0  # atno 17395 bound_to 11000

$$$$
