AV-unprocessed.smi:3058|AV-procd|sdf|11673|dock6
  -GOLD-   2272017 73D 1   1.00000     0.00000
 Structure written by MMmdl.
 39 41  0  0  0  0  0  0  0  0  2 V2000
  152.4594  140.3228  160.4865 O   0  0  0  0  0  0  0  0  0  0  0  0
  151.8040  140.9888  159.6847 C   0  0  0  0  0  0  0  0  0  0  0  0
  151.3822  140.5006  158.5077 N   0  0  0  0  0  0  0  0  0  0  0  0
  151.6258  139.1447  158.0295 C   0  0  0  0  0  0  0  0  0  0  0  0
  151.9198  139.1162  156.5197 C   0  0  0  0  0  0  0  0  0  0  0  0
  150.6665  139.3054  155.6879 C   0  0  0  0  0  0  0  0  0  0  0  0
  149.9728  140.5357  155.7080 C   0  0  0  0  0  0  0  0  0  0  0  0
  148.8097  140.6867  154.9243 C   0  0  0  0  0  0  0  0  0  0  0  0
  148.3659  139.6032  154.1391 C   0  0  0  0  0  0  0  0  0  0  0  0
  149.0554  138.4412  154.1452 N   0  3  0  0  0  0  0  0  0  0  0  0
  150.1738  138.2570  154.8809 C   0  0  0  0  0  0  0  0  0  0  0  0
  151.4241  142.4485  159.9914 C   0  0  2  0  0  0  0  0  0  0  0  0
  150.8157  143.1911  158.7759 C   0  0  0  0  0  0  0  0  0  0  0  0
  151.7164  144.4339  158.6329 C   0  0  1  0  0  0  0  0  0  0  0  0
  151.4755  145.3829  159.8226 C   0  0  0  0  0  0  0  0  0  0  0  0
  152.1451  144.6366  160.9929 C   0  0  0  0  0  0  0  0  0  0  0  0
  152.6463  143.3422  160.3240 C   0  0  2  0  0  0  0  0  0  0  0  0
  153.0912  143.8688  158.9596 C   0  0  0  0  0  0  0  0  0  0  0  0
  150.8467  141.1099  157.9063 H   0  0  0  0  0  0  0  0  0  0  0  0
  152.4489  138.6989  158.5909 H   0  0  0  0  0  0  0  0  0  0  0  0
  150.7412  138.5455  158.2471 H   0  0  0  0  0  0  0  0  0  0  0  0
  152.6419  139.8935  156.2657 H   0  0  0  0  0  0  0  0  0  0  0  0
  152.3791  138.1675  156.2386 H   0  0  0  0  0  0  0  0  0  0  0  0
  150.3283  141.3554  156.3158 H   0  0  0  0  0  0  0  0  0  0  0  0
  148.2660  141.6202  154.9265 H   0  0  0  0  0  0  0  0  0  0  0  0
  147.4872  139.6307  153.5113 H   0  0  0  0  0  0  0  0  0  0  0  0
  150.6360  137.2836  154.8012 H   0  0  0  0  0  0  0  0  0  0  0  0
  150.7201  142.4562  160.8257 H   0  0  0  0  0  0  0  0  0  0  0  0
  150.8511  142.5909  157.8652 H   0  0  0  0  0  0  0  0  0  0  0  0
  149.7728  143.4626  158.9435 H   0  0  0  0  0  0  0  0  0  0  0  0
  151.6374  144.9218  157.6611 H   0  0  0  0  0  0  0  0  0  0  0  0
  151.9587  146.3466  159.6565 H   0  0  0  0  0  0  0  0  0  0  0  0
  150.4145  145.5657  159.9969 H   0  0  0  0  0  0  0  0  0  0  0  0
  152.9808  145.2161  161.3876 H   0  0  0  0  0  0  0  0  0  0  0  0
  151.4556  144.4449  161.8158 H   0  0  0  0  0  0  0  0  0  0  0  0
  153.4282  142.8369  160.8926 H   0  0  0  0  0  0  0  0  0  0  0  0
  153.4175  143.0970  158.2624 H   0  0  0  0  0  0  0  0  0  0  0  0
  153.8675  144.6334  159.0238 H   0  0  0  0  0  0  0  0  0  0  0  0
  148.7166  137.6698  153.5696 H   0  0  0  0  0  0  0  0  0  0  0  0
  1  2  2  0  0  0  0
  2  3  1  0  0  0  0
  2 12  1  0  0  0  0
  3  4  1  0  0  0  0
  3 19  1  0  0  0  0
  4  5  1  0  0  0  0
  4 20  1  0  0  0  0
  4 21  1  0  0  0  0
  5  6  1  0  0  0  0
  5 22  1  0  0  0  0
  5 23  1  0  0  0  0
  6 11  1  0  0  0  0
  6  7  2  0  0  0  0
  7  8  1  0  0  0  0
  7 24  1  0  0  0  0
  8  9  2  0  0  0  0
  8 25  1  0  0  0  0
  9 10  1  0  0  0  0
  9 26  1  0  0  0  0
 10 11  2  0  0  0  0
 10 39  1  0  0  0  0
 11 27  1  0  0  0  0
 12 17  1  0  0  0  0
 12 13  1  0  0  0  0
 12 28  1  0  0  0  0
 13 14  1  0  0  0  0
 13 29  1  0  0  0  0
 13 30  1  0  0  0  0
 14 18  1  0  0  0  0
 14 15  1  0  0  0  0
 14 31  1  0  0  0  0
 15 16  1  0  0  0  0
 15 32  1  0  0  0  0
 15 33  1  0  0  0  0
 16 17  1  0  0  0  0
 16 34  1  0  0  0  0
 16 35  1  0  0  0  0
 17 18  1  0  0  0  0
 17 36  1  0  0  0  0
 18 37  1  0  0  0  0
 18 38  1  0  0  0  0
M  CHG  1  10   1
M  END
> <s_m_source_file>
AV-unprocessed.smi

> <i_m_source_file_index>
3058

> <i_lp_mmshare_version>
43012

> <i_f3d_flags>
0

> <s_epik_input>
W0NIMl0xW0NIMl1bQ0BIXShbQ0gyXTIpW0NAQEhdKFtDSDJdW0NAQEhdMTIpQyg9TylbTkhdW0NIMl1bQ0gyXWMzW2NIXVtjSF1bY0hdbltjSF0z

> <s_epik_cmdline>
J2VwaWtfcHl0aG9uJywgJy1waCcsICc3LjAnLCAnLXRuJywgJzgnLCAnLW1hJywgJzIwMCcsICctbWV0YWxfYmluZGluZycsICctaW1hZScsICc8aW5maWxlLm1hZT4nLCAnLW9tYWUnLCAnPG91dGZpbGUubWFlPic=

> <r_epik_Ionization_Penalty>
2.24375

> <r_epik_Ionization_Penalty_Charging>
2.24375

> <r_epik_Ionization_Penalty_Neutral>
1.89995e-08

> <r_epik_State_Penalty>
2.39035

> <r_epik_Charging_Adjusted_Penalty>
4.63411

> <i_epik_Tot_Q>
1

> <i_epik_Tot_abs_Q>
1

> <r_epik_Metal_State_Penalty>
2.40369

> <b_epik_Metal_Only>
0

> <s_lp_Force_Field>
OPLS_2005

> <r_lp_Energy>
53.6325

> <b_lp_Chiralities_Consistent>
1

> <s_lp_Variant>
AV-unprocessed.smi:3058-5

> <Gold.Version>
5.8.1

> <Gold.Id.Protein>
6NUR|6NUR_protein|mol2

> <Gold.PLP.Fitness>
49.4947

> <Gold.PLP.PLP>
-44.2071

> <Gold.PLP.part.hbond>
-2.0000

> <Gold.PLP.part.metal>
0.0000

> <Gold.PLP.part.buried>
-1.7655

> <Gold.PLP.part.nonpolar>
-40.3196

> <Gold.PLP.part.repulsive>
0.1476

> <Gold.PLP.ligand.clash>
0.0000

> <Gold.PLP.ligand.torsion>
0.3700

> <Gold.PLP.Chemscore.Hbond>
2.0000

> <Gold.PLP.Chemscore.CHOScore>
0.0000

> <Gold.PLP.Chemscore.Metal>
0.0000

> <Gold.Chemscore.Hbonds>
donor molecule, donor type, donor heavy atom, donor atom, acceptor molecule, acceptor atom, score
      L1  H    10    39       P1  7948  1.01

> <Gold.PLP.Chemscore.Internal.Correction>
0.0275

> <Gold.Rescore>
     Score         DG    S(hbond)    S(metal)    S(lipo)     H(rot)  DE(clash)    DE(int)     intcor
     19.58     -20.11       0.99        0.00     128.47       1.45       0.12       0.41       ----

> <Gold.Chemscore.Fitness>
19.5786

> <Gold.Chemscore.DG>
-20.1074

> <Gold.Chemscore.ZeroCoef>
-5.4800

> <Gold.Chemscore.Hbond>
0.9944

> <Gold.Chemscore.Metal>
0.0000

> <Gold.Chemscore.Lipo>
128.4655

> <Gold.Chemscore.Internal_Hbond>
0.0000

> <Gold.Chemscore.DEClash>
0.1166

> <Gold.Chemscore.DEInternal>
0.4123

> <Gold.Chemscore.Rot>
1.4548

> <Gold.Chemscore.Internal.Correction>
   9.000000E+99

> <Gold.Chemscore.Hbonds>
donor molecule, donor type, donor heavy atom, donor atom, acceptor molecule, acceptor atom, score
      L1  H    10    39       P1  7948  0.47

> <Gold.Chemscore.Hbond.Weighted>
-3.3212

> <Gold.Chemscore.Metal.Weighted>
-0.0000

> <Gold.Chemscore.Lipo.Weighted>
-15.0305

> <Gold.Chemscore.Internal_Hbond.Weighted>
0.0000

> <Gold.Chemscore.DEClash.Weighted>
0.1166

> <Gold.Chemscore.DEInternal.Weighted>
0.4123

> <Gold.Chemscore.Rot.Weighted>
3.7242

> <Gold.Chemscore.Internal.Correction.Weighted>
   9.000000E+99

> <Gold.Protein.RotatedTorsions>
[ 6907 6896 6895 6894 ] final  -96.13 input  -60.11 | X-H torsion
[ 7974 7965 7964 7962 ] final -168.36 input  175.53 | X-H torsion
[ 8008 7997 7996 7995 ] final  -70.34 input   59.86 | X-H torsion
[ 10167 10162 10161 10158 ] final  154.47 input  -65.29 | X-H torsion
[ 10718 10713 10712 10709 ] final  101.34 input   66.30 | X-H torsion
[ 10763 10752 10751 10750 ] final  105.17 input  -60.55 | X-H torsion
[ 11005 11000 10999 10996 ] final  -43.35 input  -57.11 | X-H torsion

> <Gold.Protein.ActiveResidues>
 VAL166  LYS551  ARG553  GLY616  TRP617  ASP618  TYR619  PRO620  LYS621  CYS622 
 ASP623  PHE694  ASN695  SER759  ASP760  ASP761  ALA762  ILE779  LEU786  VAL792 
 PHE793  MET794  SER795  GLU796  ALA797  LYS798  CYS799  TRP800  GLU811  SER814 

> <Gold.Protein.RotatedAtoms>
  150.6981  134.1550  159.4154 H   0  0  0  0  0  0  0  0  0  0  0  0  # atno 6907 bound_to 6896
  151.9532  135.0157  160.0552 H   0  0  0  0  0  0  0  0  0  0  0  0  # atno 6908 bound_to 6896
  152.1992  133.4794  159.5086 H   0  0  0  0  0  0  0  0  0  0  0  0  # atno 6909 bound_to 6896
  144.7205  140.2382  143.6295 H   0  0  0  0  0  0  0  0  0  0  0  0  # atno 7974 bound_to 7965
  154.5004  140.0836  156.7786 H   0  0  0  0  0  0  0  0  0  0  0  0  # atno 8008 bound_to 7997
  155.4016  140.3437  155.4239 H   0  0  0  0  0  0  0  0  0  0  0  0  # atno 8009 bound_to 7997
  156.1449  140.1540  156.8850 H   0  0  0  0  0  0  0  0  0  0  0  0  # atno 8010 bound_to 7997
  139.4823  144.5183  151.7916 H   0  0  0  0  0  0  0  0  0  0  0  0  # atno 10167 bound_to 10162
  157.6832  131.0723  150.5237 H   0  0  0  0  0  0  0  0  0  0  0  0  # atno 10718 bound_to 10713
  153.3758  135.3919  155.1821 H   0  0  0  0  0  0  0  0  0  0  0  0  # atno 10763 bound_to 10752
  154.8701  135.3713  154.4920 H   0  0  0  0  0  0  0  0  0  0  0  0  # atno 10764 bound_to 10752
  153.5392  135.7084  153.5706 H   0  0  0  0  0  0  0  0  0  0  0  0  # atno 10765 bound_to 10752
  141.0378  133.6793  156.2720 H   0  0  0  0  0  0  0  0  0  0  0  0  # atno 11005 bound_to 11000
  145.8345  139.2101  143.1863 LP  0  0  0  0  0  0  0  0  0  0  0  0  # atno 17320 bound_to 7965
  146.0401  140.8173  142.9833 LP  0  0  0  0  0  0  0  0  0  0  0  0  # atno 17321 bound_to 7965
  140.4694  144.1608  150.5916 LP  0  0  0  0  0  0  0  0  0  0  0  0  # atno 17342 bound_to 10162
  140.4398  143.2531  151.9487 LP  0  0  0  0  0  0  0  0  0  0  0  0  # atno 17343 bound_to 10162
  156.5549  130.4241  149.6090 LP  0  0  0  0  0  0  0  0  0  0  0  0  # atno 17370 bound_to 10713
  156.2870  130.7103  151.1942 LP  0  0  0  0  0  0  0  0  0  0  0  0  # atno 17371 bound_to 10713
  140.6291  134.5283  157.5557 LP  0  0  0  0  0  0  0  0  0  0  0  0  # atno 17394 bound_to 11000
  139.9253  134.8068  156.1087 LP  0  0  0  0  0  0  0  0  0  0  0  0  # atno 17395 bound_to 11000

$$$$
