#       Name:                AV-unprocessed.smi:69
#       Creating user name   scv26
#       Creation time:       Thu Mar 26 16:55:15 2020


#       File generated by GOLD software.
#

@<TRIPOS>MOLECULE
AV-unprocessed.smi:69
    43    45     1
SMALL
NO_CHARGES


@<TRIPOS>ATOM
      1 ****        -5.1998   0.2024   0.2628 N.pl3          1 S1                 0.0000
      2 ****        -3.8886   0.4782   0.2359 C.ar           1 S1                 0.0000
      3 ****        -3.5049   1.7761   0.2434 N.ar           1 S1                 0.0000
      4 ****        -2.2026   2.0766   0.2167 C.ar           1 S1                 0.0000
      5 ****        -1.1553   1.2489   0.1813 N.ar           1 S1                 0.0000
      6 ****        -1.5426  -0.0603   0.1739 C.ar           1 S1                 0.0000
      7 ****        -2.8871  -0.5249   0.1987 C.ar           1 S1                 0.0000
      8 ****        -2.9096  -1.9123   0.1788 N.2            1 S1                 0.0000
      9 ****        -1.6474  -2.2452   0.1431 C.2            1 S1                 0.0000
     10 ****        -0.7549  -1.1951   0.1332 N.pl3          1 S1                 0.0000
     11 ****         0.7426  -1.2814   0.0919 C.3            1 S1                 0.0000
     12 ****         1.2900  -0.3041   0.9260 O.3            1 S1                 0.0000
     13 ****         2.1140   0.5913   0.1812 C.3            1 S1                 0.0000
     14 ****         3.2522   1.1481   1.0543 C.3            1 S1                 0.0000
     15 ****         2.7828   2.2270   1.8340 O.3            1 S1                 0.0000
     16 ****         2.5544  -0.2322  -1.0377 C.3            1 S1                 0.0000
     17 ****         3.6684  -1.0522  -0.7322 O.3            1 S1                 0.0000
     18 ****         1.3306  -1.0886  -1.3210 C.3            1 S1                 0.0000
     19 ****         0.4593  -0.4321  -2.2251 O.3            1 S1                 0.0000
     20 ****         0.9750  -2.2612   0.5115 H              1 S1                 0.0000
     21 ****         1.4966   1.4127  -0.1844 H              1 S1                 0.0000
     22 ****         2.8256   0.4029  -1.8823 H              1 S1                 0.0000
     23 ****         1.5881  -2.0589  -1.7477 H              1 S1                 0.0000
     24 ****        -5.5112  -0.7582   0.2569 H              1 S1                 0.0000
     25 ****        -5.8720   0.9550   0.2922 H              1 S1                 0.0000
     26 ****        -1.9650   3.1299   0.2238 H              1 S1                 0.0000
     27 ****        -1.3293  -3.2774   0.1204 H              1 S1                 0.0000
     28 ****         3.6768   0.3754   1.6960 H              1 S1                 0.0000
     29 ****         4.0567   1.5286   0.4242 H              1 S1                 0.0000
     30 ****         3.4960   2.5482   2.3642 H              1 S1                 0.0000
     31 ****         4.4076  -0.4954  -0.5413 H              1 S1                 0.0000
     32 ****        -0.3475  -0.9220  -2.2717 H              1 S1                 0.0000
     33 ****        -4.1899   2.5042   0.2687 LP             1 S1                 0.0000
     34 ****        -0.2023   1.5514   0.1625 LP             1 S1                 0.0000
     35 ****        -3.7065  -2.5163   0.1893 LP             1 S1                 0.0000
     36 ****         1.8418  -0.7471   1.6325 LP             1 S1                 0.0000
     37 ****         0.5497   0.2124   1.3563 LP             1 S1                 0.0000
     38 ****         2.0373   1.9172   2.4240 LP             1 S1                 0.0000
     39 ****         2.4528   2.9569   1.2353 LP             1 S1                 0.0000
     40 ****         3.8806  -1.6379  -1.5144 LP             1 S1                 0.0000
     41 ****         3.4603  -1.6210   0.0635 LP             1 S1                 0.0000
     42 ****         0.8816  -0.3901  -3.1306 LP             1 S1                 0.0000
     43 ****         0.2729   0.4954  -1.9010 LP             1 S1                 0.0000
@<TRIPOS>BOND
    1    1    2 1     
    2    1   24 1     
    3    1   25 1     
    4    2    7 ar    
    5    2    3 ar    
    6    3    4 ar    
    7    4    5 ar    
    8    4   26 1     
    9    5    6 ar    
   10    6   10 1     
   11    6    7 ar    
   12    7    8 1     
   13    8    9 2     
   14    9   10 1     
   15    9   27 1     
   16   10   11 1     
   17   11   20 1     
   18   11   18 1     
   19   11   12 1     
   20   12   13 1     
   21   13   21 1     
   22   13   14 1     
   23   13   16 1     
   24   14   15 1     
   25   14   28 1     
   26   14   29 1     
   27   15   30 1     
   28   16   22 1     
   29   16   17 1     
   30   16   18 1     
   31   17   31 1     
   32   18   23 1     
   33   18   19 1     
   34   19   32 1     
   35    3   33 1     
   36    5   34 1     
   37    8   35 1     
   38   12   36 1     
   39   12   37 1     
   40   15   38 1     
   41   15   39 1     
   42   17   40 1     
   43   17   41 1     
   44   19   42 1     
   45   19   43 1     
@<TRIPOS>SUBSTRUCTURE
      1 S1             1
@<TRIPOS>SET
LONE_PAIRS      STATIC     ATOMS    <user>   **** ""
11 33 34 35 36 37 38 39 40 41 42 43
DONOR_HYDROGENS      STATIC     ATOMS    <user>   **** ""
5 24 25 30 31 32
ATOM$BLUE        STATIC     ATOMS    COLORGROUP SYSTEM
11 33 34 35 36 37 38 39 40 41 42 43
ATOM$RED        STATIC     ATOMS    COLORGROUP SYSTEM
5 24 25 30 31 32
