#       Name:                AV-unprocessed.smi:110
#       Creating user name   scv26
#       Creation time:       Thu Mar 26 18:14:47 2020


#       File generated by GOLD software.
#

@<TRIPOS>MOLECULE
AV-unprocessed.smi:110
    57    61     1
SMALL
NO_CHARGES


@<TRIPOS>ATOM
      1 ****        -4.8264   0.5493  -3.9975 O.3            1 S1                 0.0000
      2 ****        -4.3874  -0.6868  -3.4766 C.3            1 S1                 0.0000
      3 ****        -2.9097  -0.9133  -3.8333 C.3            1 S1                 0.0000
      4 ****        -2.1074  -0.1655  -2.9224 O.3            1 S1                 0.0000
      5 ****        -0.9647  -0.8911  -2.6195 C.3            1 S1                 0.0000
      6 ****        -0.4101  -0.4066  -1.3212 N.pl3          1 S1                 0.0000
      7 ****        -1.0369   0.2900  -0.3118 C.2            1 S1                 0.0000
      8 ****        -0.2838   0.5718   0.7172 N.2            1 S1                 0.0000
      9 ****         0.9593   0.0402   0.3906 C.ar           1 S1                 0.0000
     10 ****         2.2263  -0.0216   1.0389 C.ar           1 S1                 0.0000
     11 ****         2.4955   0.5039   2.2572 N.pl3          1 S1                 0.0000
     12 ****         3.1839  -0.3151   3.2651 C.3            1 S1                 0.0000
     13 ****         2.9545   0.3477   4.6364 C.3            1 S1                 0.0000
     14 ****         2.2568   1.6059   4.2309 C.ar           1 S1                 0.0000
     15 ****         1.8714   2.6716   5.0627 C.ar           1 S1                 0.0000
     16 ****         1.2438   3.7864   4.4669 C.ar           1 S1                 0.0000
     17 ****         1.0241   3.8209   3.0702 C.ar           1 S1                 0.0000
     18 ****         1.4214   2.7390   2.2540 C.ar           1 S1                 0.0000
     19 ****         2.0285   1.6188   2.8582 C.ar           1 S1                 0.0000
     20 ****         3.2202  -0.7009   0.4104 N.ar           1 S1                 0.0000
     21 ****         3.0074  -1.2488  -0.7893 C.ar           1 S1                 0.0000
     22 ****         1.8916  -1.2481  -1.5208 N.ar           1 S1                 0.0000
     23 ****         0.8807  -0.5916  -0.8825 C.ar           1 S1                 0.0000
     24 ****        -1.4074  -2.3536  -2.5683 C.3            1 S1                 0.0000
     25 ****        -1.9618  -2.7195  -1.3173 O.3            1 S1                 0.0000
     26 ****        -2.4660  -2.3846  -3.6650 C.3            1 S1                 0.0000
     27 ****        -1.8893  -2.8412  -4.8738 O.3            1 S1                 0.0000
     28 ****        -2.7085  -0.5698  -4.8502 H              1 S1                 0.0000
     29 ****        -0.1893  -0.6990  -3.3628 H              1 S1                 0.0000
     30 ****        -0.5576  -3.0069  -2.7712 H              1 S1                 0.0000
     31 ****        -3.2924  -3.0512  -3.4131 H              1 S1                 0.0000
     32 ****        -5.7409   0.6576  -3.7854 H              1 S1                 0.0000
     33 ****        -4.5473  -0.7257  -2.3985 H              1 S1                 0.0000
     34 ****        -5.0068  -1.4637  -3.9257 H              1 S1                 0.0000
     35 ****        -2.0762   0.5811  -0.3588 H              1 S1                 0.0000
     36 ****         2.8123  -1.3407   3.2570 H              1 S1                 0.0000
     37 ****         4.2489  -0.3438   3.0311 H              1 S1                 0.0000
     38 ****         2.3079  -0.2533   5.2765 H              1 S1                 0.0000
     39 ****         3.8882   0.5589   5.1582 H              1 S1                 0.0000
     40 ****         2.0556   2.6410   6.1263 H              1 S1                 0.0000
     41 ****         0.9378   4.6213   5.0799 H              1 S1                 0.0000
     42 ****         0.5540   4.6841   2.6228 H              1 S1                 0.0000
     43 ****         1.2662   2.7814   1.1863 H              1 S1                 0.0000
     44 ****         3.8521  -1.7611  -1.2254 H              1 S1                 0.0000
     45 ****        -2.6440  -2.1026  -1.1010 H              1 S1                 0.0000
     46 ****        -1.1762  -2.2657  -5.1048 H              1 S1                 0.0000
     47 ****        -4.7074   0.5580  -4.9904 LP             1 S1                 0.0000
     48 ****        -4.2959   1.2935  -3.5917 LP             1 S1                 0.0000
     49 ****        -2.6254   0.0077  -2.0848 LP             1 S1                 0.0000
     50 ****        -1.8495   0.7053  -3.3409 LP             1 S1                 0.0000
     51 ****        -0.5423   1.0594   1.5511 LP             1 S1                 0.0000
     52 ****         4.1151  -0.7913   0.8474 LP             1 S1                 0.0000
     53 ****         1.8073  -1.6742  -2.4215 LP             1 S1                 0.0000
     54 ****        -1.2514  -2.6976  -0.6138 LP             1 S1                 0.0000
     55 ****        -2.3457  -3.6410  -1.3748 LP             1 S1                 0.0000
     56 ****        -2.5773  -2.8327  -5.5994 LP             1 S1                 0.0000
     57 ****        -1.5448  -3.7720  -4.7520 LP             1 S1                 0.0000
@<TRIPOS>BOND
    1    1    2 1     
    2    1   32 1     
    3    2    3 1     
    4    2   33 1     
    5    2   34 1     
    6    3   28 1     
    7    3   26 1     
    8    3    4 1     
    9    4    5 1     
   10    5   29 1     
   11    5    6 1     
   12    5   24 1     
   13    6   23 1     
   14    6    7 1     
   15    7    8 2     
   16    7   35 1     
   17    8    9 1     
   18    9   23 ar    
   19    9   10 ar    
   20   10   11 1     
   21   10   20 ar    
   22   11   19 1     
   23   11   12 1     
   24   12   13 1     
   25   12   36 1     
   26   12   37 1     
   27   13   14 1     
   28   13   38 1     
   29   13   39 1     
   30   14   19 ar    
   31   14   15 ar    
   32   15   16 ar    
   33   15   40 1     
   34   16   17 ar    
   35   16   41 1     
   36   17   18 ar    
   37   17   42 1     
   38   18   19 ar    
   39   18   43 1     
   40   20   21 ar    
   41   21   22 ar    
   42   21   44 1     
   43   22   23 ar    
   44   24   30 1     
   45   24   25 1     
   46   24   26 1     
   47   25   45 1     
   48   26   31 1     
   49   26   27 1     
   50   27   46 1     
   51    1   47 1     
   52    1   48 1     
   53    4   49 1     
   54    4   50 1     
   55    8   51 1     
   56   20   52 1     
   57   22   53 1     
   58   25   54 1     
   59   25   55 1     
   60   27   56 1     
   61   27   57 1     
@<TRIPOS>SUBSTRUCTURE
      1 S1             1
@<TRIPOS>SET
LONE_PAIRS      STATIC     ATOMS    <user>   **** ""
11 47 48 49 50 51 52 53 54 55 56 57
DONOR_HYDROGENS      STATIC     ATOMS    <user>   **** ""
3 32 45 46
ATOM$BLUE        STATIC     ATOMS    COLORGROUP SYSTEM
11 47 48 49 50 51 52 53 54 55 56 57
ATOM$RED        STATIC     ATOMS    COLORGROUP SYSTEM
3 32 45 46
