#       Name:                AV-unprocessed.smi:3160
#       Creating user name   scv26
#       Creation time:       Fri Mar 27 17:48:04 2020


#       File generated by GOLD software.
#

@<TRIPOS>MOLECULE
AV-unprocessed.smi:3160
    41    42     1
SMALL
NO_CHARGES


@<TRIPOS>ATOM
      1 ****        -3.6459  -2.2369   1.8997 C.3            1 S1                 0.0000
      2 ****        -2.9073  -1.0513   1.3485 C.2            1 S1                 0.0000
      3 ****        -2.2752  -0.0014   2.0725 C.2            1 S1                 0.0000
      4 ****        -1.7064   0.8953   1.2839 N.2            1 S1                 0.0000
      5 ****        -1.9543   0.4543   0.0306 N.pl3          1 S1                 0.0000
      6 ****        -1.4596   1.1981  -1.1228 C.3            1 S1                 0.0000
      7 ****        -2.1343   2.5820  -1.1799 C.3            1 S1                 0.0000
      8 ****         0.0912   1.2704  -1.1248 C.3            1 S1                 0.0000
      9 ****         0.6568   1.9792  -2.3669 C.3            1 S1                 0.0000
     10 ****         0.6656  -0.0943  -1.0519 N.4            1 S1                 1.0000
     11 ****         1.5203  -0.3621   0.1245 C.3            1 S1                 0.0000
     12 ****         2.8726   0.3532   0.0701 C.3            1 S1                 0.0000
     13 ****         3.7740  -0.4472   1.0180 C.3            1 S1                 0.0000
     14 ****         3.1393  -1.8424   1.1430 C.3            1 S1                 0.0000
     15 ****         1.9099  -1.8356   0.2288 C.3            1 S1                 0.0000
     16 ****        -2.6821  -0.7178   0.0429 C.2            1 S1                 0.0000
     17 ****        -3.6311  -2.2537   2.9897 H              1 S1                 0.0000
     18 ****        -3.2104  -3.1764   1.5588 H              1 S1                 0.0000
     19 ****        -4.6923  -2.2361   1.5938 H              1 S1                 0.0000
     20 ****        -2.2115   0.1338   3.1422 H              1 S1                 0.0000
     21 ****        -1.7745   0.6473  -2.0107 H              1 S1                 0.0000
     22 ****        -1.9271   3.0924  -2.1200 H              1 S1                 0.0000
     23 ****        -1.7964   3.2271  -0.3682 H              1 S1                 0.0000
     24 ****        -3.2180   2.4913  -1.1011 H              1 S1                 0.0000
     25 ****         0.4089   1.8414  -0.2508 H              1 S1                 0.0000
     26 ****         0.3550   3.0254  -2.4066 H              1 S1                 0.0000
     27 ****         0.3231   1.4986  -3.2872 H              1 S1                 0.0000
     28 ****         1.7472   1.9661  -2.3622 H              1 S1                 0.0000
     29 ****        -0.1065  -0.7447  -1.0209 H              1 S1                 0.0000
     30 ****         0.9904  -0.0787   1.0355 H              1 S1                 0.0000
     31 ****         3.2798   0.3062  -0.9411 H              1 S1                 0.0000
     32 ****         2.8059   1.4048   0.3511 H              1 S1                 0.0000
     33 ****         4.7964  -0.4978   0.6416 H              1 S1                 0.0000
     34 ****         3.8118   0.0308   1.9979 H              1 S1                 0.0000
     35 ****         3.8353  -2.6364   0.8706 H              1 S1                 0.0000
     36 ****         2.8355  -2.0163   2.1760 H              1 S1                 0.0000
     37 ****         1.1004  -2.4587   0.6110 H              1 S1                 0.0000
     38 ****         2.1889  -2.2196  -0.7539 H              1 S1                 0.0000
     39 ****        -2.9743  -1.2166  -0.8695 H              1 S1                 0.0000
     40 ****         1.1988  -0.2726  -1.8908 H              1 S1                 0.0000
     41 ****        -1.2046   1.7168   1.5547 LP             1 S1                 0.0000
@<TRIPOS>BOND
    1    1    2 1     
    2    1   17 1     
    3    1   18 1     
    4    1   19 1     
    5    2   16 2     
    6    2    3 1     
    7    3    4 2     
    8    3   20 1     
    9    4    5 1     
   10    5    6 1     
   11    5   16 1     
   12    6    7 1     
   13    6    8 1     
   14    6   21 1     
   15    7   22 1     
   16    7   23 1     
   17    7   24 1     
   18    8    9 1     
   19    8   10 1     
   20    8   25 1     
   21    9   26 1     
   22    9   27 1     
   23    9   28 1     
   24   10   11 1     
   25   10   29 1     
   26   10   40 1     
   27   11   15 1     
   28   11   12 1     
   29   11   30 1     
   30   12   13 1     
   31   12   31 1     
   32   12   32 1     
   33   13   14 1     
   34   13   33 1     
   35   13   34 1     
   36   14   15 1     
   37   14   35 1     
   38   14   36 1     
   39   15   37 1     
   40   15   38 1     
   41   16   39 1     
   42    4   41 1     
@<TRIPOS>SUBSTRUCTURE
      1 S1             1
@<TRIPOS>SET
LONE_PAIRS      STATIC     ATOMS    <user>   **** ""
1 41
DONOR_HYDROGENS      STATIC     ATOMS    <user>   **** ""
2 29 40
ATOM$BLUE        STATIC     ATOMS    COLORGROUP SYSTEM
1 41
ATOM$RED        STATIC     ATOMS    COLORGROUP SYSTEM
2 29 40
