AV-unprocessed.smi:101|AV-procd|sdf|937|dock6
  -GOLD-   2262017453D 1   1.00000     0.00000
 Structure written by MMmdl.
 43 45  0  0  0  0  0  0  0  0  2 V2000
  146.1266  143.8555  159.3031 C   0  0  0  0  0  0  0  0  0  0  0  0
  145.7806  142.7606  158.3089 C   0  0  0  0  0  0  0  0  0  0  0  0
  146.7159  142.1749  157.5286 C   0  0  0  0  0  0  0  0  0  0  0  0
  146.3980  141.1733  156.6258 N   0  0  0  0  0  0  0  0  0  0  0  0
  147.4578  140.5049  155.7661 C   0  0  2  0  0  0  0  0  0  0  0  0
  148.5977  140.2558  156.5356 O   0  0  0  0  0  0  0  0  0  0  0  0
  149.6134  141.1961  156.2065 C   0  0  1  0  0  0  0  0  0  0  0  0
  150.9931  140.7018  156.6606 C   0  0  0  0  0  0  0  0  0  0  0  0
  151.3095  141.3384  157.8872 O   0  0  0  0  0  0  0  0  0  0  0  0
  152.4075  140.9809  158.5779 C   0  0  0  0  0  0  0  0  0  0  0  0
  153.1867  140.0977  158.2142 O   0  0  0  0  0  0  0  0  0  0  0  0
  152.5790  141.7683  159.8331 C   0  0  0  0  0  0  0  0  0  0  0  0
  153.4743  141.3059  160.8259 C   0  0  0  0  0  0  0  0  0  0  0  0
  153.6557  142.0288  162.0211 C   0  0  0  0  0  0  0  0  0  0  0  0
  152.9448  143.2235  162.2378 C   0  0  0  0  0  0  0  0  0  0  0  0
  152.0511  143.6943  161.2582 C   0  0  0  0  0  0  0  0  0  0  0  0
  151.8673  142.9722  160.0630 C   0  0  0  0  0  0  0  0  0  0  0  0
  149.4241  141.3817  154.6997 C   0  0  1  0  0  0  0  0  0  0  0  0
  150.0097  140.3089  153.9851 O   0  0  0  0  0  0  0  0  0  0  0  0
  147.9065  141.3643  154.5542 C   0  0  2  0  0  0  0  0  0  0  0  0
  147.4179  142.6944  154.5784 O   0  0  0  0  0  0  0  0  0  0  0  0
  145.0533  140.7322  156.5165 C   0  0  0  0  0  0  0  0  0  0  0  0
  144.8051  139.8389  155.7063 O   0  0  0  0  0  0  0  0  0  0  0  0
  144.1027  141.3183  157.2979 N   0  5  0  0  0  0  0  0  0  0  0  0
  144.3885  142.3112  158.1884 C   0  0  0  0  0  0  0  0  0  0  0  0
  143.5198  142.8339  158.8859 O   0  0  0  0  0  0  0  0  0  0  0  0
  147.1887  144.0995  159.2711 H   0  0  0  0  0  0  0  0  0  0  0  0
  145.8830  143.5386  160.3177 H   0  0  0  0  0  0  0  0  0  0  0  0
  145.5652  144.7636  159.0809 H   0  0  0  0  0  0  0  0  0  0  0  0
  147.7377  142.5063  157.6276 H   0  0  0  0  0  0  0  0  0  0  0  0
  147.0311  139.5419  155.4803 H   0  0  0  0  0  0  0  0  0  0  0  0
  149.3912  142.1468  156.6943 H   0  0  0  0  0  0  0  0  0  0  0  0
  150.9972  139.6164  156.7712 H   0  0  0  0  0  0  0  0  0  0  0  0
  151.7494  140.9652  155.9202 H   0  0  0  0  0  0  0  0  0  0  0  0
  154.0311  140.3910  160.6815 H   0  0  0  0  0  0  0  0  0  0  0  0
  154.3412  141.6654  162.7724 H   0  0  0  0  0  0  0  0  0  0  0  0
  153.0843  143.7780  163.1540 H   0  0  0  0  0  0  0  0  0  0  0  0
  151.5043  144.6112  161.4228 H   0  0  0  0  0  0  0  0  0  0  0  0
  151.1729  143.3621  159.3329 H   0  0  0  0  0  0  0  0  0  0  0  0
  149.8728  142.3102  154.3434 H   0  0  0  0  0  0  0  0  0  0  0  0
  149.5860  140.2476  153.1424 H   0  0  0  0  0  0  0  0  0  0  0  0
  147.5807  140.8930  153.6259 H   0  0  0  0  0  0  0  0  0  0  0  0
  147.9341  143.1867  155.1996 H   0  0  0  0  0  0  0  0  0  0  0  0
  1  2  1  0  0  0  0
  1 27  1  0  0  0  0
  1 28  1  0  0  0  0
  1 29  1  0  0  0  0
  2 25  1  0  0  0  0
  2  3  2  0  0  0  0
  3  4  1  0  0  0  0
  3 30  1  0  0  0  0
  4  5  1  0  0  0  0
  4 22  1  0  0  0  0
  5 20  1  0  0  0  0
  5  6  1  0  0  0  0
  5 31  1  0  0  0  0
  6  7  1  0  0  0  0
  7  8  1  0  0  0  0
  7 18  1  0  0  0  0
  7 32  1  0  0  0  0
  8  9  1  0  0  0  0
  8 33  1  0  0  0  0
  8 34  1  0  0  0  0
  9 10  1  0  0  0  0
 10 11  2  0  0  0  0
 10 12  1  0  0  0  0
 12 17  1  0  0  0  0
 12 13  2  0  0  0  0
 13 14  1  0  0  0  0
 13 35  1  0  0  0  0
 14 15  2  0  0  0  0
 14 36  1  0  0  0  0
 15 16  1  0  0  0  0
 15 37  1  0  0  0  0
 16 17  2  0  0  0  0
 16 38  1  0  0  0  0
 17 39  1  0  0  0  0
 18 19  1  0  0  0  0
 18 20  1  0  0  0  0
 18 40  1  0  0  0  0
 19 41  1  0  0  0  0
 20 21  1  0  0  0  0
 20 42  1  0  0  0  0
 21 43  1  0  0  0  0
 22 23  2  0  0  0  0
 22 24  1  0  0  0  0
 24 25  1  0  0  0  0
 25 26  2  0  0  0  0
M  CHG  1  24  -1
M  END
> <s_m_source_file>
AV-unprocessed.smi

> <i_m_source_file_index>
101

> <i_lp_mmshare_version>
43012

> <i_f3d_flags>
0

> <s_epik_input>
Tz1jMVtuSF1jKD1PKW4oW2NIXWMxW0NIM10pW0NAQEhdMk9bQ0BIXShbQ0BASF0oW09IXSlbQ0BIXTJbT0hdKVtDSDJdT0MoPU8pYzNbY0hdW2NIXVtjSF1bY0hdW2NIXTM=

> <s_epik_cmdline>
J2VwaWtfcHl0aG9uJywgJy1waCcsICc3LjAnLCAnLXRuJywgJzgnLCAnLW1hJywgJzIwMCcsICctbWV0YWxfYmluZGluZycsICctaW1hZScsICc8aW5maWxlLm1hZT4nLCAnLW9tYWUnLCAnPG91dGZpbGUubWFlPic=

> <r_lp_tautomer_probability>
0.999537

> <r_epik_Ionization_Penalty>
3.21006

> <r_epik_Ionization_Penalty_Charging>
5.75142e-08

> <r_epik_Ionization_Penalty_Neutral>
3.21006

> <r_epik_State_Penalty>
3.20925

> <r_epik_Charging_Adjusted_Penalty>
3.20925

> <i_epik_Tot_Q>
-1

> <i_epik_Tot_abs_Q>
1

> <r_epik_Metal_State_Penalty>
0.119957

> <b_epik_Metal_Only>
1

> <s_epik_Chemistry_Notes>
This compound has an ester and may undergo hydrolysis at high or low pH. This compound contains an acetal/aminal-like group ( X-CH(R)-Y where X, Y are N, S, or O) that may be acid/base labile, releasing an aldehyde.

> <s_lp_Force_Field>
OPLS_2005

> <r_lp_Energy>
45.504

> <b_lp_Chiralities_Consistent>
1

> <s_lp_Variant>
AV-unprocessed.smi:101-25

> <Gold.Version>
5.8.1

> <Gold.Id.Protein>
6NUR|6NUR_protein|mol2

> <Gold.PLP.Fitness>
51.6538

> <Gold.PLP.PLP>
-42.2761

> <Gold.PLP.part.hbond>
-4.1979

> <Gold.PLP.part.metal>
0.0000

> <Gold.PLP.part.buried>
-4.2624

> <Gold.PLP.part.nonpolar>
-32.6574

> <Gold.PLP.part.repulsive>
0.1395

> <Gold.PLP.ligand.clash>
0.0000

> <Gold.PLP.ligand.torsion>
1.0925

> <Gold.PLP.Chemscore.Hbond>
3.7840

> <Gold.PLP.Chemscore.CHOScore>
0.0000

> <Gold.PLP.Chemscore.Metal>
0.0000

> <Gold.Chemscore.Hbonds>
donor molecule, donor type, donor heavy atom, donor atom, acceptor molecule, acceptor atom, score
      L1  H    19    41       P1  7957  1.00
      L1  H    21    43       P1  8028  0.98
      P1  H  7989  7998       L1    19  0.76
      P1  H  7997  8008       L1    11  1.00

> <Gold.PLP.Chemscore.Internal.Correction>
0.2107

> <Gold.Rescore>
     Score         DG    S(hbond)    S(metal)    S(lipo)     H(rot)  DE(clash)    DE(int)     intcor
     16.75     -18.01       2.92        0.00      95.07       3.27       0.08       1.18       ----

> <Gold.Chemscore.Fitness>
16.7489

> <Gold.Chemscore.DG>
-18.0115

> <Gold.Chemscore.ZeroCoef>
-5.4800

> <Gold.Chemscore.Hbond>
2.9247

> <Gold.Chemscore.Metal>
0.0000

> <Gold.Chemscore.Lipo>
95.0653

> <Gold.Chemscore.Internal_Hbond>
0.0000

> <Gold.Chemscore.DEClash>
0.0778

> <Gold.Chemscore.DEInternal>
1.1848

> <Gold.Chemscore.Rot>
3.2656

> <Gold.Chemscore.Internal.Correction>
   9.000000E+99

> <Gold.Chemscore.Hbonds>
donor molecule, donor type, donor heavy atom, donor atom, acceptor molecule, acceptor atom, score
      L1  H    19    41       P1  7957  0.93
      L1  H    21    43       P1  8028  0.69
      P1  H  7989  7998       L1    19  0.09
      P1  H  7997  8008       L1    11  0.95

> <Gold.Chemscore.Hbond.Weighted>
-9.7686

> <Gold.Chemscore.Metal.Weighted>
-0.0000

> <Gold.Chemscore.Lipo.Weighted>
-11.1226

> <Gold.Chemscore.Internal_Hbond.Weighted>
0.0000

> <Gold.Chemscore.DEClash.Weighted>
0.0778

> <Gold.Chemscore.DEInternal.Weighted>
1.1848

> <Gold.Chemscore.Rot.Weighted>
8.3598

> <Gold.Chemscore.Internal.Correction.Weighted>
   9.000000E+99

> <Gold.Protein.RotatedTorsions>
[ 6907 6896 6895 6894 ] final  -82.66 input  -60.11 | X-H torsion
[ 7974 7965 7964 7962 ] final  -19.60 input  175.53 | X-H torsion
[ 8008 7997 7996 7995 ] final  -84.52 input   59.86 | X-H torsion
[ 10167 10162 10161 10158 ] final  143.53 input  -65.29 | X-H torsion
[ 10718 10713 10712 10709 ] final  -24.99 input   66.30 | X-H torsion
[ 10763 10752 10751 10750 ] final -109.15 input  -60.55 | X-H torsion
[ 11005 11000 10999 10996 ] final   27.07 input  -57.11 | X-H torsion

> <Gold.Protein.ActiveResidues>
 VAL166  LYS551  ARG553  GLY616  TRP617  ASP618  TYR619  PRO620  LYS621  CYS622 
 ASP623  PHE694  ASN695  SER759  ASP760  ASP761  ALA762  ILE779  LEU786  VAL792 
 PHE793  MET794  SER795  GLU796  ALA797  LYS798  CYS799  TRP800  GLU811  SER814 

> <Gold.Protein.RotatedAtoms>
  150.6894  134.3631  159.4958 H   0  0  0  0  0  0  0  0  0  0  0  0  # atno 6907 bound_to 6896
  152.1457  134.9025  160.0560 H   0  0  0  0  0  0  0  0  0  0  0  0  # atno 6908 bound_to 6896
  152.0141  133.3838  159.4269 H   0  0  0  0  0  0  0  0  0  0  0  0  # atno 6909 bound_to 6896
  146.1833  140.4084  142.8486 H   0  0  0  0  0  0  0  0  0  0  0  0  # atno 7974 bound_to 7965
  154.6307  140.0604  156.9728 H   0  0  0  0  0  0  0  0  0  0  0  0  # atno 8008 bound_to 7997
  155.1671  140.3287  155.4381 H   0  0  0  0  0  0  0  0  0  0  0  0  # atno 8009 bound_to 7997
  156.2481  140.1920  156.6775 H   0  0  0  0  0  0  0  0  0  0  0  0  # atno 8010 bound_to 7997
  139.4967  144.6034  151.6432 H   0  0  0  0  0  0  0  0  0  0  0  0  # atno 10167 bound_to 10162
  156.4704  130.4523  149.6873 H   0  0  0  0  0  0  0  0  0  0  0  0  # atno 10718 bound_to 10713
  154.8177  135.4611  154.0689 H   0  0  0  0  0  0  0  0  0  0  0  0  # atno 10763 bound_to 10752
  153.2068  135.6876  153.8169 H   0  0  0  0  0  0  0  0  0  0  0  0  # atno 10764 bound_to 10752
  153.7634  135.3281  155.3317 H   0  0  0  0  0  0  0  0  0  0  0  0  # atno 10765 bound_to 10752
  140.3303  134.2445  155.7703 H   0  0  0  0  0  0  0  0  0  0  0  0  # atno 11005 bound_to 11000
  144.8352  140.6771  143.6265 LP  0  0  0  0  0  0  0  0  0  0  0  0  # atno 17320 bound_to 7965
  145.4013  139.1597  143.4176 LP  0  0  0  0  0  0  0  0  0  0  0  0  # atno 17321 bound_to 7965
  140.5689  144.0142  150.6206 LP  0  0  0  0  0  0  0  0  0  0  0  0  # atno 17342 bound_to 10162
  140.3253  143.3111  152.0742 LP  0  0  0  0  0  0  0  0  0  0  0  0  # atno 17343 bound_to 10162
  156.3625  130.7488  151.2462 LP  0  0  0  0  0  0  0  0  0  0  0  0  # atno 17370 bound_to 10713
  157.7491  131.0346  150.4326 LP  0  0  0  0  0  0  0  0  0  0  0  0  # atno 17371 bound_to 10713
  141.2065  133.7831  157.0173 LP  0  0  0  0  0  0  0  0  0  0  0  0  # atno 17394 bound_to 11000
  140.0866  134.9617  157.1710 LP  0  0  0  0  0  0  0  0  0  0  0  0  # atno 17395 bound_to 11000

$$$$
