AV-unprocessed.smi:2838|AV-procd|sdf|10928|dock8
  -GOLD-   2272015373D 1   1.00000     0.00000
 Structure written by MMmdl.
 48 49  0  0  0  0  0  0  0  0  1 V2000
  146.6821  142.2309  154.0441 C   0  0  0  0  0  0  0  0  0  0  0  0
  147.3479  141.0154  153.3762 C   0  0  2  0  0  0  0  0  0  0  0  0
  146.2939  140.0524  153.0523 N   0  0  0  0  0  0  0  0  0  0  0  0
  146.4807  138.7901  152.6381 C   0  0  0  0  0  0  0  0  0  0  0  0
  147.5888  138.2704  152.5089 O   0  0  0  0  0  0  0  0  0  0  0  0
  145.3093  138.1884  152.3721 N   0  0  0  0  0  0  0  0  0  0  0  0
  145.0930  136.8543  151.9364 C   0  0  0  0  0  0  0  0  0  0  0  0
  145.9968  136.1039  151.1477 C   0  0  0  0  0  0  0  0  0  0  0  0
  145.7311  134.8310  150.7849 N   0  0  0  0  0  0  0  0  0  0  0  0
  144.5928  134.2793  151.2258 C   0  0  0  0  0  0  0  0  0  0  0  0
  144.2289  132.8897  150.6737 C   0  0  0  0  0  0  0  0  0  0  0  0
  145.3359  131.8551  150.9867 C   0  0  0  0  0  0  0  0  0  0  0  0
  144.0981  132.9224  149.1328 C   0  0  0  0  0  0  0  0  0  0  0  0
  142.9007  132.4231  151.2975 C   0  0  0  0  0  0  0  0  0  0  0  0
  143.6616  134.9128  151.9512 N   0  0  0  0  0  0  0  0  0  0  0  0
  143.9161  136.1843  152.3251 C   0  0  0  0  0  0  0  0  0  0  0  0
  148.4508  140.3626  154.2544 C   0  0  0  0  0  0  0  0  0  0  0  0
  147.8789  139.7092  155.5300 C   0  0  0  0  0  0  0  0  0  0  0  0
  148.9964  139.1361  156.4164 C   0  0  0  0  0  0  0  0  0  0  0  0
  149.9248  140.1587  156.7532 O   0  0  0  0  0  0  0  0  0  0  0  0
  150.5779  140.7003  155.6125 C   0  0  0  0  0  0  0  0  0  0  0  0
  149.5486  141.3609  154.6815 C   0  0  0  0  0  0  0  0  0  0  0  0
  147.3828  143.0545  154.1770 H   0  0  0  0  0  0  0  0  0  0  0  0
  146.2750  141.9739  155.0227 H   0  0  0  0  0  0  0  0  0  0  0  0
  145.8621  142.6114  153.4338 H   0  0  0  0  0  0  0  0  0  0  0  0
  147.8116  141.3701  152.4539 H   0  0  0  0  0  0  0  0  0  0  0  0
  145.3441  140.3862  153.1264 H   0  0  0  0  0  0  0  0  0  0  0  0
  144.4837  138.7659  152.4363 H   0  0  0  0  0  0  0  0  0  0  0  0
  146.9421  136.4990  150.8096 H   0  0  0  0  0  0  0  0  0  0  0  0
  145.1037  130.8814  150.5536 H   0  0  0  0  0  0  0  0  0  0  0  0
  145.4585  131.7002  152.0592 H   0  0  0  0  0  0  0  0  0  0  0  0
  146.2998  132.1704  150.5853 H   0  0  0  0  0  0  0  0  0  0  0  0
  145.0164  133.2786  148.6639 H   0  0  0  0  0  0  0  0  0  0  0  0
  143.2856  133.5714  148.8047 H   0  0  0  0  0  0  0  0  0  0  0  0
  143.8891  131.9307  148.7305 H   0  0  0  0  0  0  0  0  0  0  0  0
  142.6093  131.4399  150.9271 H   0  0  0  0  0  0  0  0  0  0  0  0
  142.0901  133.1152  151.0666 H   0  0  0  0  0  0  0  0  0  0  0  0
  142.9762  132.3570  152.3836 H   0  0  0  0  0  0  0  0  0  0  0  0
  143.1653  136.6732  152.9284 H   0  0  0  0  0  0  0  0  0  0  0  0
  148.9300  139.5792  153.6650 H   0  0  0  0  0  0  0  0  0  0  0  0
  147.3086  140.4450  156.0986 H   0  0  0  0  0  0  0  0  0  0  0  0
  147.1881  138.9054  155.2782 H   0  0  0  0  0  0  0  0  0  0  0  0
  148.5732  138.7304  157.3354 H   0  0  0  0  0  0  0  0  0  0  0  0
  149.5091  138.3148  155.9133 H   0  0  0  0  0  0  0  0  0  0  0  0
  151.3100  141.4369  155.9435 H   0  0  0  0  0  0  0  0  0  0  0  0
  151.1294  139.9175  155.0893 H   0  0  0  0  0  0  0  0  0  0  0  0
  150.0702  141.7598  153.8118 H   0  0  0  0  0  0  0  0  0  0  0  0
  149.0952  142.2129  155.1897 H   0  0  0  0  0  0  0  0  0  0  0  0
  1  2  1  0  0  0  0
  1 23  1  0  0  0  0
  1 24  1  0  0  0  0
  1 25  1  0  0  0  0
  2  3  1  0  0  0  0
  2 17  1  0  0  0  0
  2 26  1  0  0  0  0
  3  4  1  0  0  0  0
  3 27  1  0  0  0  0
  4  5  2  0  0  0  0
  4  6  1  0  0  0  0
  6  7  1  0  0  0  0
  6 28  1  0  0  0  0
  7 16  1  0  0  0  0
  7  8  2  0  0  0  0
  8  9  1  0  0  0  0
  8 29  1  0  0  0  0
  9 10  2  0  0  0  0
 10 11  1  0  0  0  0
 10 15  1  0  0  0  0
 11 12  1  0  0  0  0
 11 13  1  0  0  0  0
 11 14  1  0  0  0  0
 12 30  1  0  0  0  0
 12 31  1  0  0  0  0
 12 32  1  0  0  0  0
 13 33  1  0  0  0  0
 13 34  1  0  0  0  0
 13 35  1  0  0  0  0
 14 36  1  0  0  0  0
 14 37  1  0  0  0  0
 14 38  1  0  0  0  0
 15 16  2  0  0  0  0
 16 39  1  0  0  0  0
 17 22  1  0  0  0  0
 17 18  1  0  0  0  0
 17 40  1  0  0  0  0
 18 19  1  0  0  0  0
 18 41  1  0  0  0  0
 18 42  1  0  0  0  0
 19 20  1  0  0  0  0
 19 43  1  0  0  0  0
 19 44  1  0  0  0  0
 20 21  1  0  0  0  0
 21 22  1  0  0  0  0
 21 45  1  0  0  0  0
 21 46  1  0  0  0  0
 22 47  1  0  0  0  0
 22 48  1  0  0  0  0
M  END
> <s_m_source_file>
AV-unprocessed.smi

> <i_m_source_file_index>
2838

> <i_lp_mmshare_version>
43012

> <i_f3d_flags>
0

> <s_epik_input>
W0NIMl0xW0NIMl1PW0NIMl1bQ0gyXVtDSF0xW0NASF0oW0NIM10pW05IXUMoPU8pW05IXWMyW2NIXW5jKEMoW0NIM10pKFtDSDNdKVtDSDNdKW5bY0hdMg==

> <s_epik_cmdline>
J2VwaWtfcHl0aG9uJywgJy1waCcsICc3LjAnLCAnLXRuJywgJzgnLCAnLW1hJywgJzIwMCcsICctbWV0YWxfYmluZGluZycsICctaW1hZScsICc8aW5maWxlLm1hZT4nLCAnLW9tYWUnLCAnPG91dGZpbGUubWFlPic=

> <r_lp_tautomer_probability>
1

> <r_epik_Ionization_Penalty>
2.74753e-05

> <r_epik_Ionization_Penalty_Charging>
0

> <r_epik_Ionization_Penalty_Neutral>
2.74753e-05

> <r_epik_State_Penalty>
-0

> <r_epik_Charging_Adjusted_Penalty>
0

> <i_epik_Tot_Q>
0

> <i_epik_Tot_abs_Q>
0

> <r_epik_Metal_State_Penalty>
-0

> <b_epik_Metal_Only>
0

> <s_lp_Force_Field>
OPLS_2005

> <r_lp_Energy>
9.68517

> <b_lp_Chiralities_Consistent>
1

> <s_lp_Variant>
AV-unprocessed.smi:2838-1

> <Gold.Version>
5.8.1

> <Gold.Id.Protein>
6NUR|6NUR_protein|mol2

> <Gold.PLP.Fitness>
41.2996

> <Gold.PLP.PLP>
-33.3762

> <Gold.PLP.part.hbond>
-3.0000

> <Gold.PLP.part.metal>
0.0000

> <Gold.PLP.part.buried>
-1.8624

> <Gold.PLP.part.nonpolar>
-33.4794

> <Gold.PLP.part.repulsive>
4.9651

> <Gold.PLP.ligand.clash>
0.0000

> <Gold.PLP.ligand.torsion>
0.4923

> <Gold.PLP.Chemscore.Hbond>
1.9760

> <Gold.PLP.Chemscore.CHOScore>
0.9434

> <Gold.PLP.Chemscore.Metal>
0.0000

> <Gold.Chemscore.Hbonds>
donor molecule, donor type, donor heavy atom, donor atom, acceptor molecule, acceptor atom, score
      L1  H     3    27       P1 10175  0.99
      L1  H     6    28       P1 10175  1.00
      L1  C     8    29       P1  7948  0.94

> <Gold.PLP.Chemscore.Internal.Correction>
0.1500

> <Gold.Rescore>
     Score         DG    S(hbond)    S(metal)    S(lipo)     H(rot)  DE(clash)    DE(int)     intcor
     14.02     -19.36       1.88        0.00      94.11       1.34       2.60       2.74       ----

> <Gold.Chemscore.Fitness>
14.0175

> <Gold.Chemscore.DG>
-19.3621

> <Gold.Chemscore.ZeroCoef>
-5.4800

> <Gold.Chemscore.Hbond>
1.8831

> <Gold.Chemscore.Metal>
0.0000

> <Gold.Chemscore.Lipo>
94.1120

> <Gold.Chemscore.Internal_Hbond>
0.0000

> <Gold.Chemscore.DEClash>
2.6041

> <Gold.Chemscore.DEInternal>
2.7405

> <Gold.Chemscore.Rot>
1.3354

> <Gold.Chemscore.Internal.Correction>
   9.000000E+99

> <Gold.Chemscore.Hbonds>
donor molecule, donor type, donor heavy atom, donor atom, acceptor molecule, acceptor atom, score
      L1  H     3    27       P1 10175  0.91
      L1  H     6    28       P1 10175  0.95

> <Gold.Chemscore.Hbond.Weighted>
-6.2895

> <Gold.Chemscore.Metal.Weighted>
-0.0000

> <Gold.Chemscore.Lipo.Weighted>
-11.0111

> <Gold.Chemscore.Internal_Hbond.Weighted>
0.0000

> <Gold.Chemscore.DEClash.Weighted>
2.6041

> <Gold.Chemscore.DEInternal.Weighted>
2.7405

> <Gold.Chemscore.Rot.Weighted>
3.4185

> <Gold.Chemscore.Internal.Correction.Weighted>
   9.000000E+99

> <Gold.Protein.RotatedTorsions>
[ 6907 6896 6895 6894 ] final   16.70 input  -60.11 | X-H torsion
[ 7974 7965 7964 7962 ] final  132.18 input  175.53 | X-H torsion
[ 8008 7997 7996 7995 ] final   77.43 input   59.86 | X-H torsion
[ 10167 10162 10161 10158 ] final  -68.60 input  -65.29 | X-H torsion
[ 10718 10713 10712 10709 ] final   -0.77 input   66.30 | X-H torsion
[ 10763 10752 10751 10750 ] final   45.90 input  -60.55 | X-H torsion
[ 11005 11000 10999 10996 ] final -119.55 input  -57.11 | X-H torsion

> <Gold.Protein.ActiveResidues>
 VAL166  LYS551  ARG553  GLY616  TRP617  ASP618  TYR619  PRO620  LYS621  CYS622 
 ASP623  PHE694  ASN695  SER759  ASP760  ASP761  ALA762  ILE779  LEU786  VAL792 
 PHE793  MET794  SER795  GLU796  ALA797  LYS798  CYS799  TRP800  GLU811  SER814 

> <Gold.Protein.RotatedAtoms>
  151.8380  135.0600  160.0444 H   0  0  0  0  0  0  0  0  0  0  0  0  # atno 6907 bound_to 6896
  152.2831  133.5484  159.5518 H   0  0  0  0  0  0  0  0  0  0  0  0  # atno 6908 bound_to 6896
  150.7197  134.0452  159.3821 H   0  0  0  0  0  0  0  0  0  0  0  0  # atno 6909 bound_to 6896
  144.9995  139.4326  143.5299 H   0  0  0  0  0  0  0  0  0  0  0  0  # atno 7974 bound_to 7965
  155.8415  140.3462  155.5635 H   0  0  0  0  0  0  0  0  0  0  0  0  # atno 8008 bound_to 7997
  155.8135  140.0902  157.1910 H   0  0  0  0  0  0  0  0  0  0  0  0  # atno 8009 bound_to 7997
  154.4005  140.1443  156.3402 H   0  0  0  0  0  0  0  0  0  0  0  0  # atno 8010 bound_to 7997
  140.5495  143.2312  151.6939 H   0  0  0  0  0  0  0  0  0  0  0  0  # atno 10167 bound_to 10162
  156.8155  130.5439  149.5703 H   0  0  0  0  0  0  0  0  0  0  0  0  # atno 10718 bound_to 10713
  152.9818  135.6025  154.3511 H   0  0  0  0  0  0  0  0  0  0  0  0  # atno 10763 bound_to 10752
  154.3201  135.2770  155.2526 H   0  0  0  0  0  0  0  0  0  0  0  0  # atno 10764 bound_to 10752
  154.4696  135.5945  153.6368 H   0  0  0  0  0  0  0  0  0  0  0  0  # atno 10765 bound_to 10752
  141.0207  134.0128  157.3286 H   0  0  0  0  0  0  0  0  0  0  0  0  # atno 11005 bound_to 11000
  146.3449  139.9375  142.8745 LP  0  0  0  0  0  0  0  0  0  0  0  0  # atno 17320 bound_to 7965
  145.2173  140.9920  143.4066 LP  0  0  0  0  0  0  0  0  0  0  0  0  # atno 17321 bound_to 7965
  139.5021  144.3841  152.0346 LP  0  0  0  0  0  0  0  0  0  0  0  0  # atno 17342 bound_to 10162
  140.2957  144.3703  150.6075 LP  0  0  0  0  0  0  0  0  0  0  0  0  # atno 17343 bound_to 10162
  156.1019  130.5975  150.9908 LP  0  0  0  0  0  0  0  0  0  0  0  0  # atno 17370 bound_to 10713
  157.6484  131.0900  150.8105 LP  0  0  0  0  0  0  0  0  0  0  0  0  # atno 17371 bound_to 10713
  139.9144  135.0195  156.7824 LP  0  0  0  0  0  0  0  0  0  0  0  0  # atno 17394 bound_to 11000
  140.6577  133.9673  155.7788 LP  0  0  0  0  0  0  0  0  0  0  0  0  # atno 17395 bound_to 11000

$$$$
