AV-unprocessed.smi:3342|AV-procd|sdf|12890|dock9
  -GOLD-   2272019293D 1   1.00000     0.00000
 Structure written by MMmdl.
 41 42  0  0  0  0  0  0  0  0  1 V2000
  149.7873  142.0710  157.0479 C   0  0  0  0  0  0  0  0  0  0  0  0
  151.2929  141.8236  157.2308 C   0  0  1  0  0  0  0  0  0  0  0  0
  151.7323  142.0761  158.6855 C   0  0  0  0  0  0  0  0  0  0  0  0
  151.5359  143.4562  159.0896 N   0  0  0  0  0  0  0  0  0  0  0  0
  152.4980  144.4558  159.1554 C   0  0  0  0  0  0  0  0  0  0  0  0
  151.8528  145.5940  159.5836 C   0  0  0  0  0  0  0  0  0  0  0  0
  150.5026  145.3190  159.7876 N   0  0  0  0  0  0  0  0  0  0  0  0
  150.3903  144.0344  159.4755 C   0  0  0  0  0  0  0  0  0  0  0  0
  151.6264  140.4554  156.8423 N   0  0  0  0  0  0  0  0  0  0  0  0
  151.2242  139.8340  155.7210 C   0  0  0  0  0  0  0  0  0  0  0  0
  150.4756  140.3748  154.9058 O   0  0  0  0  0  0  0  0  0  0  0  0
  151.7115  138.5770  155.5647 N   0  0  0  0  0  0  0  0  0  0  0  0
  152.4766  137.8056  156.5594 C   0  0  0  0  0  0  0  0  0  0  0  0
  151.5769  136.6877  157.1155 C   0  0  0  0  0  0  0  0  0  0  0  0
  151.0513  135.7801  155.9783 C   0  0  0  0  0  0  0  0  0  0  0  0
  150.0508  134.7475  156.5150 C   0  0  0  0  0  0  0  0  0  0  0  0
  149.5770  133.8503  155.6469 N   0  0  0  0  0  0  0  0  0  0  0  0
  149.7092  134.7566  157.6963 O   0  0  0  0  0  0  0  0  0  0  0  0
  150.4247  136.6257  154.8445 C   0  0  0  0  0  0  0  0  0  0  0  0
  151.3768  137.7506  154.3985 C   0  0  0  0  0  0  0  0  0  0  0  0
  149.5227  143.0928  157.3201 H   0  0  0  0  0  0  0  0  0  0  0  0
  149.1958  141.3975  157.6691 H   0  0  0  0  0  0  0  0  0  0  0  0
  149.4842  141.9200  156.0113 H   0  0  0  0  0  0  0  0  0  0  0  0
  151.8334  142.5216  156.5885 H   0  0  0  0  0  0  0  0  0  0  0  0
  151.1633  141.4415  159.3662 H   0  0  0  0  0  0  0  0  0  0  0  0
  152.7835  141.8167  158.8209 H   0  0  0  0  0  0  0  0  0  0  0  0
  153.5318  144.2803  158.8966 H   0  0  0  0  0  0  0  0  0  0  0  0
  152.2533  146.5817  159.7589 H   0  0  0  0  0  0  0  0  0  0  0  0
  149.4518  143.5018  159.5263 H   0  0  0  0  0  0  0  0  0  0  0  0
  152.2367  139.9455  157.4640 H   0  0  0  0  0  0  0  0  0  0  0  0
  153.3526  137.3707  156.0761 H   0  0  0  0  0  0  0  0  0  0  0  0
  152.8727  138.4051  157.3791 H   0  0  0  0  0  0  0  0  0  0  0  0
  152.1354  136.0934  157.8398 H   0  0  0  0  0  0  0  0  0  0  0  0
  150.7445  137.1370  157.6598 H   0  0  0  0  0  0  0  0  0  0  0  0
  151.9060  135.2463  155.5587 H   0  0  0  0  0  0  0  0  0  0  0  0
  148.9177  133.1500  155.9535 H   0  0  0  0  0  0  0  0  0  0  0  0
  149.8826  133.8754  154.6850 H   0  0  0  0  0  0  0  0  0  0  0  0
  150.1848  135.9891  153.9920 H   0  0  0  0  0  0  0  0  0  0  0  0
  149.4824  137.0669  155.1746 H   0  0  0  0  0  0  0  0  0  0  0  0
  150.9200  138.3234  153.5903 H   0  0  0  0  0  0  0  0  0  0  0  0
  152.2904  137.3267  153.9791 H   0  0  0  0  0  0  0  0  0  0  0  0
  1  2  1  0  0  0  0
  1 21  1  0  0  0  0
  1 22  1  0  0  0  0
  1 23  1  0  0  0  0
  2  3  1  0  0  0  0
  2  9  1  0  0  0  0
  2 24  1  0  0  0  0
  3  4  1  0  0  0  0
  3 25  1  0  0  0  0
  3 26  1  0  0  0  0
  4  8  1  0  0  0  0
  4  5  1  0  0  0  0
  5  6  2  0  0  0  0
  5 27  1  0  0  0  0
  6  7  1  0  0  0  0
  6 28  1  0  0  0  0
  7  8  2  0  0  0  0
  8 29  1  0  0  0  0
  9 10  1  0  0  0  0
  9 30  1  0  0  0  0
 10 11  2  0  0  0  0
 10 12  1  0  0  0  0
 12 20  1  0  0  0  0
 12 13  1  0  0  0  0
 13 14  1  0  0  0  0
 13 31  1  0  0  0  0
 13 32  1  0  0  0  0
 14 15  1  0  0  0  0
 14 33  1  0  0  0  0
 14 34  1  0  0  0  0
 15 16  1  0  0  0  0
 15 19  1  0  0  0  0
 15 35  1  0  0  0  0
 16 17  1  0  0  0  0
 16 18  2  0  0  0  0
 17 36  1  0  0  0  0
 17 37  1  0  0  0  0
 19 20  1  0  0  0  0
 19 38  1  0  0  0  0
 19 39  1  0  0  0  0
 20 40  1  0  0  0  0
 20 41  1  0  0  0  0
M  END
> <s_m_source_file>
AV-unprocessed.smi

> <i_m_source_file_index>
3342

> <i_lp_mmshare_version>
43012

> <i_f3d_flags>
0

> <s_epik_input>
W2NIXTFuW2NIXVtjSF1uMVtDSDJdW0NAQEhdKFtDSDNdKVtOSF1DKD1PKU4yW0NIMl1bQ0gyXVtDSF0oQyg9TylbTkgyXSlbQ0gyXVtDSDJdMg==

> <s_epik_cmdline>
J2VwaWtfcHl0aG9uJywgJy1waCcsICc3LjAnLCAnLXRuJywgJzgnLCAnLW1hJywgJzIwMCcsICctbWV0YWxfYmluZGluZycsICctaW1hZScsICc8aW5maWxlLm1hZT4nLCAnLW9tYWUnLCAnPG91dGZpbGUubWFlPic=

> <r_lp_tautomer_probability>
1

> <r_epik_Ionization_Penalty>
0.624431

> <r_epik_Ionization_Penalty_Charging>
0.624374

> <r_epik_Ionization_Penalty_Neutral>
5.67186e-05

> <r_epik_State_Penalty>
0.640677

> <r_epik_Charging_Adjusted_Penalty>
1.26505

> <i_epik_Tot_Q>
0

> <i_epik_Tot_abs_Q>
0

> <r_epik_Metal_State_Penalty>
0.307574

> <b_epik_Metal_Only>
0

> <s_lp_Force_Field>
OPLS_2005

> <r_lp_Energy>
30.3525

> <b_lp_Chiralities_Consistent>
1

> <s_lp_Variant>
AV-unprocessed.smi:3342-4

> <Gold.Version>
5.8.1

> <Gold.Id.Protein>
6NUR|6NUR_protein|mol2

> <Gold.PLP.Fitness>
40.7878

> <Gold.PLP.PLP>
-35.5878

> <Gold.PLP.part.hbond>
-2.3534

> <Gold.PLP.part.metal>
0.0000

> <Gold.PLP.part.buried>
-5.1991

> <Gold.PLP.part.nonpolar>
-29.5073

> <Gold.PLP.part.repulsive>
0.4211

> <Gold.PLP.ligand.clash>
0.0000

> <Gold.PLP.ligand.torsion>
0.4329

> <Gold.PLP.Chemscore.Hbond>
1.9920

> <Gold.PLP.Chemscore.CHOScore>
0.0000

> <Gold.PLP.Chemscore.Metal>
0.0000

> <Gold.Chemscore.Hbonds>
donor molecule, donor type, donor heavy atom, donor atom, acceptor molecule, acceptor atom, score
      P1  H  6896  6909       L1    18  1.00
      P1  H  7989  7998       L1    11  1.00

> <Gold.PLP.Chemscore.Internal.Correction>
0.0897

> <Gold.Rescore>
     Score         DG    S(hbond)    S(metal)    S(lipo)     H(rot)  DE(clash)    DE(int)     intcor
     13.78     -15.22       1.97        0.00      76.78       2.28       0.03       1.40       ----

> <Gold.Chemscore.Fitness>
13.7844

> <Gold.Chemscore.DG>
-15.2154

> <Gold.Chemscore.ZeroCoef>
-5.4800

> <Gold.Chemscore.Hbond>
1.9695

> <Gold.Chemscore.Metal>
0.0000

> <Gold.Chemscore.Lipo>
76.7791

> <Gold.Chemscore.Internal_Hbond>
0.0000

> <Gold.Chemscore.DEClash>
0.0284

> <Gold.Chemscore.DEInternal>
1.4026

> <Gold.Chemscore.Rot>
2.2757

> <Gold.Chemscore.Internal.Correction>
   9.000000E+99

> <Gold.Chemscore.Hbonds>
donor molecule, donor type, donor heavy atom, donor atom, acceptor molecule, acceptor atom, score
      P1  H  6896  6909       L1    18  0.91
      P1  H  7989  7998       L1    11  0.44

> <Gold.Chemscore.Hbond.Weighted>
-6.5781

> <Gold.Chemscore.Metal.Weighted>
-0.0000

> <Gold.Chemscore.Lipo.Weighted>
-8.9832

> <Gold.Chemscore.Internal_Hbond.Weighted>
0.0000

> <Gold.Chemscore.DEClash.Weighted>
0.0284

> <Gold.Chemscore.DEInternal.Weighted>
1.4026

> <Gold.Chemscore.Rot.Weighted>
5.8259

> <Gold.Chemscore.Internal.Correction.Weighted>
   9.000000E+99

> <Gold.Protein.RotatedTorsions>
[ 6907 6896 6895 6894 ] final   26.79 input  -60.11 | X-H torsion
[ 7974 7965 7964 7962 ] final  145.31 input  175.53 | X-H torsion
[ 8008 7997 7996 7995 ] final -130.29 input   59.86 | X-H torsion
[ 10167 10162 10161 10158 ] final   36.12 input  -65.29 | X-H torsion
[ 10718 10713 10712 10709 ] final   19.96 input   66.30 | X-H torsion
[ 10763 10752 10751 10750 ] final  -44.76 input  -60.55 | X-H torsion
[ 11005 11000 10999 10996 ] final   99.08 input  -57.11 | X-H torsion

> <Gold.Protein.ActiveResidues>
 VAL166  LYS551  ARG553  GLY616  TRP617  ASP618  TYR619  PRO620  LYS621  CYS622 
 ASP623  PHE694  ASN695  SER759  ASP760  ASP761  ALA762  ILE779  LEU786  VAL792 
 PHE793  MET794  SER795  GLU796  ALA797  LYS798  CYS799  TRP800  GLU811  SER814 

> <Gold.Protein.RotatedAtoms>
  151.9927  134.9970  160.0561 H   0  0  0  0  0  0  0  0  0  0  0  0  # atno 6907 bound_to 6896
  152.1593  133.4567  159.4861 H   0  0  0  0  0  0  0  0  0  0  0  0  # atno 6908 bound_to 6896
  150.6885  134.2009  159.4365 H   0  0  0  0  0  0  0  0  0  0  0  0  # atno 6909 bound_to 6896
  144.8763  139.5767  143.5863 H   0  0  0  0  0  0  0  0  0  0  0  0  # atno 7974 bound_to 7965
  155.2934  140.0449  157.3024 H   0  0  0  0  0  0  0  0  0  0  0  0  # atno 8008 bound_to 7997
  154.5528  140.2322  155.8425 H   0  0  0  0  0  0  0  0  0  0  0  0  # atno 8009 bound_to 7997
  156.1982  140.3033  155.9477 H   0  0  0  0  0  0  0  0  0  0  0  0  # atno 8010 bound_to 7997
  140.4157  144.1530  150.6143 H   0  0  0  0  0  0  0  0  0  0  0  0  # atno 10167 bound_to 10162
  157.1178  130.6536  149.5915 H   0  0  0  0  0  0  0  0  0  0  0  0  # atno 10718 bound_to 10713
  154.0174  135.6673  153.4770 H   0  0  0  0  0  0  0  0  0  0  0  0  # atno 10763 bound_to 10752
  153.0595  135.5036  154.8055 H   0  0  0  0  0  0  0  0  0  0  0  0  # atno 10764 bound_to 10752
  154.6958  135.3069  154.9377 H   0  0  0  0  0  0  0  0  0  0  0  0  # atno 10765 bound_to 10752
  139.8771  134.9079  156.4553 H   0  0  0  0  0  0  0  0  0  0  0  0  # atno 11005 bound_to 11000
  146.2965  139.7293  142.9123 LP  0  0  0  0  0  0  0  0  0  0  0  0  # atno 17320 bound_to 7965
  145.4036  141.0388  143.3056 LP  0  0  0  0  0  0  0  0  0  0  0  0  # atno 17321 bound_to 7965
  140.4589  143.2457  151.9247 LP  0  0  0  0  0  0  0  0  0  0  0  0  # atno 17342 bound_to 10162
  139.4782  144.5488  151.8418 LP  0  0  0  0  0  0  0  0  0  0  0  0  # atno 17343 bound_to 10162
  155.9835  130.4855  150.6938 LP  0  0  0  0  0  0  0  0  0  0  0  0  # atno 17370 bound_to 10713
  157.4503  131.0872  151.0853 LP  0  0  0  0  0  0  0  0  0  0  0  0  # atno 17371 bound_to 10713
  140.8903  133.7853  155.9564 LP  0  0  0  0  0  0  0  0  0  0  0  0  # atno 17394 bound_to 11000
  140.8761  134.2668  157.5167 LP  0  0  0  0  0  0  0  0  0  0  0  0  # atno 17395 bound_to 11000

$$$$
