AV-unprocessed.smi:1394|AV-procd|sdf|5668|dock10
  -GOLD-   22720 5293D 1   1.00000     0.00000
 Structure written by MMmdl.
 41 42  0  0  0  0  0  0  0  0  1 V2000
  147.0149  141.8526  153.7747 C   0  0  0  0  0  0  0  0  0  0  0  0
  146.5900  142.6336  155.0313 C   0  0  1  0  0  0  0  0  0  0  0  0
  145.0523  142.6879  155.1387 C   0  0  0  0  0  0  0  0  0  0  0  0
  144.5915  143.4694  156.3783 C   0  0  0  0  0  0  0  0  0  0  0  0
  145.1962  142.8769  157.6582 C   0  0  0  0  0  0  0  0  0  0  0  0
  146.7283  142.8334  157.5722 C   0  0  0  0  0  0  0  0  0  0  0  0
  147.2080  142.0540  156.3288 C   0  0  2  0  0  0  0  0  0  0  0  0
  148.6673  142.0863  156.2568 N   0  0  0  0  0  0  0  0  0  0  0  0
  149.4713  141.0123  156.2607 C   0  0  0  0  0  0  0  0  0  0  0  0
  149.0533  139.8549  156.3120 O   0  0  0  0  0  0  0  0  0  0  0  0
  150.9769  141.2979  156.1742 C   0  0  0  0  0  0  0  0  0  0  0  0
  151.5244  141.8860  157.4088 N   0  0  0  0  0  0  0  0  0  0  0  0
  151.1388  143.2035  157.7140 C   0  0  0  0  0  0  0  0  0  0  0  0
  151.5813  143.8315  158.8116 C   0  0  0  0  0  0  0  0  0  0  0  0
  152.4750  143.1193  159.6920 C   0  0  0  0  0  0  0  0  0  0  0  0
  152.8654  141.8515  159.4237 C   0  0  0  0  0  0  0  0  0  0  0  0
  153.8072  141.0810  160.3462 C   0  0  0  0  0  0  0  0  0  0  0  0
  155.0427  141.0620  159.8447 F   0  0  0  0  0  0  0  0  0  0  0  0
  153.8686  141.6287  161.5609 F   0  0  0  0  0  0  0  0  0  0  0  0
  153.3960  139.8203  160.4889 F   0  0  0  0  0  0  0  0  0  0  0  0
  152.3747  141.1699  158.2083 C   0  0  0  0  0  0  0  0  0  0  0  0
  152.7055  140.0186  157.9190 O   0  0  0  0  0  0  0  0  0  0  0  0
  146.7093  140.8079  153.8375 H   0  0  0  0  0  0  0  0  0  0  0  0
  148.0953  141.8750  153.6307 H   0  0  0  0  0  0  0  0  0  0  0  0
  146.5618  142.2769  152.8785 H   0  0  0  0  0  0  0  0  0  0  0  0
  146.9474  143.6581  154.9151 H   0  0  0  0  0  0  0  0  0  0  0  0
  144.6314  143.1479  154.2438 H   0  0  0  0  0  0  0  0  0  0  0  0
  144.6508  141.6745  155.1807 H   0  0  0  0  0  0  0  0  0  0  0  0
  144.8858  144.5154  156.2835 H   0  0  0  0  0  0  0  0  0  0  0  0
  143.5030  143.4577  156.4416 H   0  0  0  0  0  0  0  0  0  0  0  0
  144.8884  143.4656  158.5228 H   0  0  0  0  0  0  0  0  0  0  0  0
  144.8089  141.8694  157.8157 H   0  0  0  0  0  0  0  0  0  0  0  0
  147.1165  143.8526  157.5414 H   0  0  0  0  0  0  0  0  0  0  0  0
  147.1281  142.3800  158.4801 H   0  0  0  0  0  0  0  0  0  0  0  0
  146.8827  141.0157  156.4222 H   0  0  0  0  0  0  0  0  0  0  0  0
  149.0981  142.9982  156.2067 H   0  0  0  0  0  0  0  0  0  0  0  0
  151.4840  140.3626  155.9341 H   0  0  0  0  0  0  0  0  0  0  0  0
  151.1788  141.9563  155.3270 H   0  0  0  0  0  0  0  0  0  0  0  0
  150.4726  143.6674  157.0014 H   0  0  0  0  0  0  0  0  0  0  0  0
  151.2784  144.8450  159.0302 H   0  0  0  0  0  0  0  0  0  0  0  0
  152.8297  143.6226  160.5788 H   0  0  0  0  0  0  0  0  0  0  0  0
  1  2  1  0  0  0  0
  1 23  1  0  0  0  0
  1 24  1  0  0  0  0
  1 25  1  0  0  0  0
  2  7  1  0  0  0  0
  2  3  1  0  0  0  0
  2 26  1  0  0  0  0
  3  4  1  0  0  0  0
  3 27  1  0  0  0  0
  3 28  1  0  0  0  0
  4  5  1  0  0  0  0
  4 29  1  0  0  0  0
  4 30  1  0  0  0  0
  5  6  1  0  0  0  0
  5 31  1  0  0  0  0
  5 32  1  0  0  0  0
  6  7  1  0  0  0  0
  6 33  1  0  0  0  0
  6 34  1  0  0  0  0
  7  8  1  0  0  0  0
  7 35  1  0  0  0  0
  8  9  1  0  0  0  0
  8 36  1  0  0  0  0
  9 10  2  0  0  0  0
  9 11  1  0  0  0  0
 11 12  1  0  0  0  0
 11 37  1  0  0  0  0
 11 38  1  0  0  0  0
 12 21  1  0  0  0  0
 12 13  1  0  0  0  0
 13 14  2  0  0  0  0
 13 39  1  0  0  0  0
 14 15  1  0  0  0  0
 14 40  1  0  0  0  0
 15 16  2  0  0  0  0
 15 41  1  0  0  0  0
 16 17  1  0  0  0  0
 16 21  1  0  0  0  0
 17 18  1  0  0  0  0
 17 19  1  0  0  0  0
 17 20  1  0  0  0  0
 21 22  2  0  0  0  0
M  END
> <s_m_source_file>
AV-unprocessed.smi

> <i_m_source_file_index>
1394

> <i_lp_mmshare_version>
43012

> <i_f3d_flags>
0

> <s_epik_input>
W0NIM11bQ0BASF0xW0NIMl1bQ0gyXVtDSDJdW0NIMl1bQ0BIXTFbTkhdQyg9TylbQ0gyXW4yW2NIXVtjSF1bY0hdYyhDKEYpKEYpRiljMj1P

> <s_epik_cmdline>
J2VwaWtfcHl0aG9uJywgJy1waCcsICc3LjAnLCAnLXRuJywgJzgnLCAnLW1hJywgJzIwMCcsICctbWV0YWxfYmluZGluZycsICctaW1hZScsICc8aW5maWxlLm1hZT4nLCAnLW9tYWUnLCAnPG91dGZpbGUubWFlPic=

> <r_lp_tautomer_probability>
1

> <r_epik_Ionization_Penalty>
2.11487e-08

> <r_epik_Ionization_Penalty_Charging>
2.10183e-09

> <r_epik_Ionization_Penalty_Neutral>
1.90469e-08

> <r_epik_State_Penalty>
-0

> <r_epik_Charging_Adjusted_Penalty>
2.10183e-09

> <i_epik_Tot_Q>
0

> <i_epik_Tot_abs_Q>
0

> <r_epik_Metal_State_Penalty>
-0

> <b_epik_Metal_Only>
0

> <s_lp_Force_Field>
OPLS_2005

> <r_lp_Energy>
20.4612

> <b_lp_Chiralities_Consistent>
1

> <s_lp_Variant>
AV-unprocessed.smi:1394-4

> <Gold.Version>
5.8.1

> <Gold.Id.Protein>
6NUR|6NUR_protein|mol2

> <Gold.PLP.Fitness>
50.6543

> <Gold.PLP.PLP>
-43.4319

> <Gold.PLP.part.hbond>
-2.0000

> <Gold.PLP.part.metal>
0.0000

> <Gold.PLP.part.buried>
-4.4717

> <Gold.PLP.part.nonpolar>
-35.6861

> <Gold.PLP.part.repulsive>
0.0338

> <Gold.PLP.ligand.clash>
0.0000

> <Gold.PLP.ligand.torsion>
0.9282

> <Gold.PLP.Chemscore.Hbond>
1.9280

> <Gold.PLP.Chemscore.CHOScore>
1.0000

> <Gold.PLP.Chemscore.Metal>
0.0000

> <Gold.Chemscore.Hbonds>
donor molecule, donor type, donor heavy atom, donor atom, acceptor molecule, acceptor atom, score
      L1  H     8    36       P1  8028  0.90
      P1  H  7997  8009       L1    22  0.93
      L1  C    13    39       P1  8028  1.00

> <Gold.PLP.Chemscore.Internal.Correction>
0.2948

> <Gold.Rescore>
     Score         DG    S(hbond)    S(metal)    S(lipo)     H(rot)  DE(clash)    DE(int)     intcor
     14.77     -17.76       1.83        0.00      86.10       1.52       0.28       2.72       ----

> <Gold.Chemscore.Fitness>
14.7656

> <Gold.Chemscore.DG>
-17.7607

> <Gold.Chemscore.ZeroCoef>
-5.4800

> <Gold.Chemscore.Hbond>
1.8289

> <Gold.Chemscore.Metal>
0.0000

> <Gold.Chemscore.Lipo>
86.1031

> <Gold.Chemscore.Internal_Hbond>
0.0000

> <Gold.Chemscore.DEClash>
0.2761

> <Gold.Chemscore.DEInternal>
2.7190

> <Gold.Chemscore.Rot>
1.5242

> <Gold.Chemscore.Internal.Correction>
   9.000000E+99

> <Gold.Chemscore.Hbonds>
donor molecule, donor type, donor heavy atom, donor atom, acceptor molecule, acceptor atom, score
      L1  H     8    36       P1  8028  0.88
      P1  H  7997  8009       L1    22  0.60

> <Gold.Chemscore.Hbond.Weighted>
-6.1085

> <Gold.Chemscore.Metal.Weighted>
-0.0000

> <Gold.Chemscore.Lipo.Weighted>
-10.0741

> <Gold.Chemscore.Internal_Hbond.Weighted>
0.0000

> <Gold.Chemscore.DEClash.Weighted>
0.2761

> <Gold.Chemscore.DEInternal.Weighted>
2.7190

> <Gold.Chemscore.Rot.Weighted>
3.9019

> <Gold.Chemscore.Internal.Correction.Weighted>
   9.000000E+99

> <Gold.Protein.RotatedTorsions>
[ 6907 6896 6895 6894 ] final  106.10 input  -60.11 | X-H torsion
[ 7974 7965 7964 7962 ] final   59.53 input  175.53 | X-H torsion
[ 8008 7997 7996 7995 ] final  159.27 input   59.86 | X-H torsion
[ 10167 10162 10161 10158 ] final  138.42 input  -65.29 | X-H torsion
[ 10718 10713 10712 10709 ] final -114.58 input   66.30 | X-H torsion
[ 10763 10752 10751 10750 ] final  -84.95 input  -60.55 | X-H torsion
[ 11005 11000 10999 10996 ] final  105.75 input  -57.11 | X-H torsion

> <Gold.Protein.ActiveResidues>
 VAL166  LYS551  ARG553  GLY616  TRP617  ASP618  TYR619  PRO620  LYS621  CYS622 
 ASP623  PHE694  ASN695  SER759  ASP760  ASP761  ALA762  ILE779  LEU786  VAL792 
 PHE793  MET794  SER795  GLU796  ALA797  LYS798  CYS799  TRP800  GLU811  SER814 

> <Gold.Protein.RotatedAtoms>
  152.5206  133.9431  159.7635 H   0  0  0  0  0  0  0  0  0  0  0  0  # atno 6907 bound_to 6896
  150.9757  133.6289  159.2737 H   0  0  0  0  0  0  0  0  0  0  0  0  # atno 6908 bound_to 6896
  151.3485  135.0885  159.9448 H   0  0  0  0  0  0  0  0  0  0  0  0  # atno 6909 bound_to 6896
  145.9062  139.3618  143.0563 H   0  0  0  0  0  0  0  0  0  0  0  0  # atno 7974 bound_to 7965
  156.2250  140.1836  156.7386 H   0  0  0  0  0  0  0  0  0  0  0  0  # atno 8008 bound_to 7997
  154.5926  140.0648  156.9287 H   0  0  0  0  0  0  0  0  0  0  0  0  # atno 8009 bound_to 7997
  155.2310  140.3315  155.4306 H   0  0  0  0  0  0  0  0  0  0  0  0  # atno 8010 bound_to 7997
  139.5111  144.6354  151.5709 H   0  0  0  0  0  0  0  0  0  0  0  0  # atno 10167 bound_to 10162
  156.0839  130.6034  150.8794 H   0  0  0  0  0  0  0  0  0  0  0  0  # atno 10718 bound_to 10713
  154.6055  135.5502  153.7418 H   0  0  0  0  0  0  0  0  0  0  0  0  # atno 10763 bound_to 10752
  153.0172  135.6377  154.1653 H   0  0  0  0  0  0  0  0  0  0  0  0  # atno 10764 bound_to 10752
  154.1592  135.2898  155.3093 H   0  0  0  0  0  0  0  0  0  0  0  0  # atno 10765 bound_to 10752
  139.8805  134.9346  156.5561 H   0  0  0  0  0  0  0  0  0  0  0  0  # atno 11005 bound_to 11000
  145.8729  140.9409  143.0641 LP  0  0  0  0  0  0  0  0  0  0  0  0  # atno 17320 bound_to 7965
  144.6739  140.0679  143.7474 LP  0  0  0  0  0  0  0  0  0  0  0  0  # atno 17321 bound_to 7965
  140.6102  143.9451  150.6447 LP  0  0  0  0  0  0  0  0  0  0  0  0  # atno 17342 bound_to 10162
  140.2691  143.3469  152.1254 LP  0  0  0  0  0  0  0  0  0  0  0  0  # atno 17343 bound_to 10162
  157.5967  131.0943  150.9030 LP  0  0  0  0  0  0  0  0  0  0  0  0  # atno 17370 bound_to 10713
  156.9195  130.5310  149.5279 LP  0  0  0  0  0  0  0  0  0  0  0  0  # atno 17371 bound_to 10713
  140.8204  133.8358  155.8890 LP  0  0  0  0  0  0  0  0  0  0  0  0  # atno 17394 bound_to 11000
  140.9424  134.1884  157.4788 LP  0  0  0  0  0  0  0  0  0  0  0  0  # atno 17395 bound_to 11000

$$$$
