AV-unprocessed.smi:924|AV-procd|sdf|4180|dock9
  -GOLD-   22720 2 83D 1   1.00000     0.00000
 Structure written by MMmdl.
 45 48  0  0  0  0  0  0  0  0  2 V2000
  150.5017  140.2169  154.6273 O   0  0  0  0  0  0  0  0  0  0  0  0
  149.6782  141.0852  154.9179 C   0  0  0  0  0  0  0  0  0  0  0  0
  148.7726  141.7017  153.8440 C   0  0  0  0  0  0  0  0  0  0  0  0
  147.3686  141.7898  154.2761 N   0  0  0  0  0  0  0  0  0  0  0  0
  146.7573  143.0547  154.2136 C   0  0  0  0  0  0  0  0  0  0  0  0
  145.4727  143.2424  154.5701 C   0  0  0  0  0  0  0  0  0  0  0  0
  144.7100  142.0897  155.0323 C   0  0  0  0  0  0  0  0  0  0  0  0
  143.5368  142.2429  155.3671 O   0  0  0  0  0  0  0  0  0  0  0  0
  145.3457  140.8821  155.0705 N   0  5  0  0  0  0  0  0  0  0  0  0
  146.6521  140.7049  154.6996 C   0  0  0  0  0  0  0  0  0  0  0  0
  147.2022  139.6039  154.7349 O   0  0  0  0  0  0  0  0  0  0  0  0
  149.5117  141.5522  156.1647 N   0  0  0  0  0  0  0  0  0  0  0  0
  150.2979  141.1606  157.3323 C   0  0  0  0  0  0  0  0  0  0  0  0
  150.8483  142.3677  158.1353 C   0  0  0  0  0  0  0  0  0  0  0  0
  149.7157  143.1366  158.8718 C   0  0  0  0  0  0  0  0  0  0  0  0
  150.2908  144.3532  159.6274 C   0  0  1  0  0  0  0  0  0  0  0  0
  151.3235  143.8712  160.6676 C   0  0  0  0  0  0  0  0  0  0  0  0
  152.4672  143.1301  159.9433 C   0  0  2  0  0  0  0  0  0  0  0  0
  153.1515  144.0857  158.9442 C   0  0  0  0  0  0  0  0  0  0  0  0
  152.1129  144.5656  157.9094 C   0  0  2  0  0  0  0  0  0  0  0  0
  150.9692  145.3110  158.6270 C   0  0  0  0  0  0  0  0  0  0  0  0
  151.5397  143.3491  157.1522 C   0  0  0  0  0  0  0  0  0  0  0  0
  151.8962  141.9107  159.1873 C   0  0  0  0  0  0  0  0  0  0  0  0
  149.1725  142.6791  153.5702 H   0  0  0  0  0  0  0  0  0  0  0  0
  148.8298  141.1051  152.9319 H   0  0  0  0  0  0  0  0  0  0  0  0
  147.3913  143.8521  153.8534 H   0  0  0  0  0  0  0  0  0  0  0  0
  145.0175  144.2201  154.5119 H   0  0  0  0  0  0  0  0  0  0  0  0
  148.8043  142.2573  156.3115 H   0  0  0  0  0  0  0  0  0  0  0  0
  149.6473  140.5632  157.9718 H   0  0  0  0  0  0  0  0  0  0  0  0
  151.1138  140.4973  157.0394 H   0  0  0  0  0  0  0  0  0  0  0  0
  148.9560  143.4633  158.1605 H   0  0  0  0  0  0  0  0  0  0  0  0
  149.2068  142.4881  159.5854 H   0  0  0  0  0  0  0  0  0  0  0  0
  149.4815  144.8768  160.1374 H   0  0  0  0  0  0  0  0  0  0  0  0
  151.7181  144.7186  161.2297 H   0  0  0  0  0  0  0  0  0  0  0  0
  150.8475  143.2129  161.3955 H   0  0  0  0  0  0  0  0  0  0  0  0
  153.1992  142.7904  160.6767 H   0  0  0  0  0  0  0  0  0  0  0  0
  153.5831  144.9380  159.4705 H   0  0  0  0  0  0  0  0  0  0  0  0
  153.9790  143.5810  158.4439 H   0  0  0  0  0  0  0  0  0  0  0  0
  152.5940  145.2393  157.1998 H   0  0  0  0  0  0  0  0  0  0  0  0
  150.2418  145.6769  157.9013 H   0  0  0  0  0  0  0  0  0  0  0  0
  151.3561  146.1885  159.1464 H   0  0  0  0  0  0  0  0  0  0  0  0
  152.3405  142.8417  156.6125 H   0  0  0  0  0  0  0  0  0  0  0  0
  150.8302  143.6876  156.3956 H   0  0  0  0  0  0  0  0  0  0  0  0
  151.4483  141.2204  159.9031 H   0  0  0  0  0  0  0  0  0  0  0  0
  152.7054  141.3638  158.7014 H   0  0  0  0  0  0  0  0  0  0  0  0
  1  2  2  0  0  0  0
  2  3  1  0  0  0  0
  2 12  1  0  0  0  0
  3  4  1  0  0  0  0
  3 24  1  0  0  0  0
  3 25  1  0  0  0  0
  4 10  1  0  0  0  0
  4  5  1  0  0  0  0
  5  6  2  0  0  0  0
  5 26  1  0  0  0  0
  6  7  1  0  0  0  0
  6 27  1  0  0  0  0
  7  8  2  0  0  0  0
  7  9  1  0  0  0  0
  9 10  1  0  0  0  0
 10 11  2  0  0  0  0
 12 13  1  0  0  0  0
 12 28  1  0  0  0  0
 13 14  1  0  0  0  0
 13 29  1  0  0  0  0
 13 30  1  0  0  0  0
 14 22  1  0  0  0  0
 14 23  1  0  0  0  0
 14 15  1  0  0  0  0
 15 16  1  0  0  0  0
 15 31  1  0  0  0  0
 15 32  1  0  0  0  0
 16 21  1  0  0  0  0
 16 17  1  0  0  0  0
 16 33  1  0  0  0  0
 17 18  1  0  0  0  0
 17 34  1  0  0  0  0
 17 35  1  0  0  0  0
 18 19  1  0  0  0  0
 18 23  1  0  0  0  0
 18 36  1  0  0  0  0
 19 20  1  0  0  0  0
 19 37  1  0  0  0  0
 19 38  1  0  0  0  0
 20 21  1  0  0  0  0
 20 22  1  0  0  0  0
 20 39  1  0  0  0  0
 21 40  1  0  0  0  0
 21 41  1  0  0  0  0
 22 42  1  0  0  0  0
 22 43  1  0  0  0  0
 23 44  1  0  0  0  0
 23 45  1  0  0  0  0
M  CHG  1   9  -1
M  END
> <s_m_source_file>
AV-unprocessed.smi

> <i_m_source_file_index>
924

> <i_lp_mmshare_version>
43012

> <i_f3d_flags>
0

> <s_epik_input>
Tz1jMVtuSF1jKD1PKVtjSF1bY0hdbjFbQ0gyXUMoPU8pW05IXVtDSDJdQzIzW0NIMl1bQ0BIXTRbQ0gyXVtDQEBIXShbQ0gyXTMpW0NIMl1bQ0BIXShbQ0gyXTQpW0NIMl0y

> <s_epik_cmdline>
J2VwaWtfcHl0aG9uJywgJy1waCcsICc3LjAnLCAnLXRuJywgJzgnLCAnLW1hJywgJzIwMCcsICctbWV0YWxfYmluZGluZycsICctaW1hZScsICc8aW5maWxlLm1hZT4nLCAnLW9tYWUnLCAnPG91dGZpbGUubWFlPic=

> <r_lp_tautomer_probability>
0.999537

> <r_epik_Ionization_Penalty>
3.12434

> <r_epik_Ionization_Penalty_Charging>
2.83226e-08

> <r_epik_Ionization_Penalty_Neutral>
3.12434

> <r_epik_State_Penalty>
3.12343

> <r_epik_Charging_Adjusted_Penalty>
3.12343

> <i_epik_Tot_Q>
-1

> <i_epik_Tot_abs_Q>
1

> <r_epik_Metal_State_Penalty>
0.463885

> <b_epik_Metal_Only>
1

> <s_lp_Force_Field>
OPLS_2005

> <r_lp_Energy>
43.5062

> <b_lp_Chiralities_Consistent>
1

> <s_lp_Variant>
AV-unprocessed.smi:924-2

> <Gold.Version>
5.8.1

> <Gold.Id.Protein>
6NUR|6NUR_protein|mol2

> <Gold.PLP.Fitness>
46.3902

> <Gold.PLP.PLP>
-42.4188

> <Gold.PLP.part.hbond>
-1.0000

> <Gold.PLP.part.metal>
0.0000

> <Gold.PLP.part.buried>
-4.0131

> <Gold.PLP.part.nonpolar>
-38.1370

> <Gold.PLP.part.repulsive>
0.4387

> <Gold.PLP.ligand.clash>
0.0000

> <Gold.PLP.ligand.torsion>
0.3211

> <Gold.PLP.Chemscore.Hbond>
1.0000

> <Gold.PLP.Chemscore.CHOScore>
0.5360

> <Gold.PLP.Chemscore.Metal>
0.0000

> <Gold.Chemscore.Hbonds>
donor molecule, donor type, donor heavy atom, donor atom, acceptor molecule, acceptor atom, score
      P1  H  7989  7998       L1     1  1.00
      L1  C     5    26       P1  8028  0.52

> <Gold.PLP.Chemscore.Internal.Correction>
0.0055

> <Gold.Rescore>
     Score         DG    S(hbond)    S(metal)    S(lipo)     H(rot)  DE(clash)    DE(int)     intcor
     16.29     -18.12       0.96        0.00     122.15       1.90       1.54       0.29       ----

> <Gold.Chemscore.Fitness>
16.2937

> <Gold.Chemscore.DG>
-18.1223

> <Gold.Chemscore.ZeroCoef>
-5.4800

> <Gold.Chemscore.Hbond>
0.9592

> <Gold.Chemscore.Metal>
0.0000

> <Gold.Chemscore.Lipo>
122.1539

> <Gold.Chemscore.Internal_Hbond>
0.0000

> <Gold.Chemscore.DEClash>
1.5416

> <Gold.Chemscore.DEInternal>
0.2870

> <Gold.Chemscore.Rot>
1.8959

> <Gold.Chemscore.Internal.Correction>
   9.000000E+99

> <Gold.Chemscore.Hbonds>
donor molecule, donor type, donor heavy atom, donor atom, acceptor molecule, acceptor atom, score
      P1  H  7989  7998       L1     1  0.70

> <Gold.Chemscore.Hbond.Weighted>
-3.2038

> <Gold.Chemscore.Metal.Weighted>
-0.0000

> <Gold.Chemscore.Lipo.Weighted>
-14.2920

> <Gold.Chemscore.Internal_Hbond.Weighted>
0.0000

> <Gold.Chemscore.DEClash.Weighted>
1.5416

> <Gold.Chemscore.DEInternal.Weighted>
0.2870

> <Gold.Chemscore.Rot.Weighted>
4.8535

> <Gold.Chemscore.Internal.Correction.Weighted>
   9.000000E+99

> <Gold.Protein.RotatedTorsions>
[ 6907 6896 6895 6894 ] final  -54.72 input  -60.11 | X-H torsion
[ 7974 7965 7964 7962 ] final  139.28 input  175.53 | X-H torsion
[ 8008 7997 7996 7995 ] final   63.06 input   59.86 | X-H torsion
[ 10167 10162 10161 10158 ] final  -17.54 input  -65.29 | X-H torsion
[ 10718 10713 10712 10709 ] final  -21.25 input   66.30 | X-H torsion
[ 10763 10752 10751 10750 ] final  -97.22 input  -60.55 | X-H torsion
[ 11005 11000 10999 10996 ] final -153.56 input  -57.11 | X-H torsion

> <Gold.Protein.ActiveResidues>
 VAL166  LYS551  ARG553  GLY616  TRP617  ASP618  TYR619  PRO620  LYS621  CYS622 
 ASP623  PHE694  ASN695  SER759  ASP760  ASP761  ALA762  ILE779  LEU786  VAL792 
 PHE793  MET794  SER795  GLU796  ALA797  LYS798  CYS799  TRP800  GLU811  SER814 

> <Gold.Protein.RotatedAtoms>
  150.8313  134.7568  159.6855 H   0  0  0  0  0  0  0  0  0  0  0  0  # atno 6907 bound_to 6896
  152.4417  134.5573  159.9894 H   0  0  0  0  0  0  0  0  0  0  0  0  # atno 6908 bound_to 6896
  151.5734  133.3349  159.3030 H   0  0  0  0  0  0  0  0  0  0  0  0  # atno 6909 bound_to 6896
  144.9293  139.5067  143.5625 H   0  0  0  0  0  0  0  0  0  0  0  0  # atno 7974 bound_to 7965
  155.6242  140.3496  155.4661 H   0  0  0  0  0  0  0  0  0  0  0  0  # atno 8008 bound_to 7997
  156.0055  140.1222  157.0529 H   0  0  0  0  0  0  0  0  0  0  0  0  # atno 8009 bound_to 7997
  154.4263  140.1092  156.5743 H   0  0  0  0  0  0  0  0  0  0  0  0  # atno 8010 bound_to 7997
  140.7248  143.5005  150.9875 H   0  0  0  0  0  0  0  0  0  0  0  0  # atno 10167 bound_to 10162
  156.5207  130.4631  149.6598 H   0  0  0  0  0  0  0  0  0  0  0  0  # atno 10718 bound_to 10713
  154.7309  135.5054  153.8962 H   0  0  0  0  0  0  0  0  0  0  0  0  # atno 10763 bound_to 10752
  153.0949  135.6669  153.9792 H   0  0  0  0  0  0  0  0  0  0  0  0  # atno 10764 bound_to 10752
  153.9593  135.3049  155.3413 H   0  0  0  0  0  0  0  0  0  0  0  0  # atno 10765 bound_to 10752
  140.7068  134.3876  157.5203 H   0  0  0  0  0  0  0  0  0  0  0  0  # atno 11005 bound_to 11000
  146.3240  139.8232  142.8922 LP  0  0  0  0  0  0  0  0  0  0  0  0  # atno 17320 bound_to 7965
  145.3167  141.0234  143.3523 LP  0  0  0  0  0  0  0  0  0  0  0  0  # atno 17321 bound_to 7965
  139.8714  143.7187  152.3166 LP  0  0  0  0  0  0  0  0  0  0  0  0  # atno 17342 bound_to 10162
  139.7438  144.7552  151.0612 LP  0  0  0  0  0  0  0  0  0  0  0  0  # atno 17343 bound_to 10162
  156.3152  130.7251  151.2152 LP  0  0  0  0  0  0  0  0  0  0  0  0  # atno 17370 bound_to 10713
  157.7437  131.0470  150.4924 LP  0  0  0  0  0  0  0  0  0  0  0  0  # atno 17371 bound_to 10713
  139.8882  134.8862  156.2487 LP  0  0  0  0  0  0  0  0  0  0  0  0  # atno 17394 bound_to 11000
  141.0118  133.7091  156.1123 LP  0  0  0  0  0  0  0  0  0  0  0  0  # atno 17395 bound_to 11000

$$$$
