AV-unprocessed.smi:1795|AV-procd|sdf|7238|dock6
  -GOLD-   22720 8483D 1   1.00000     0.00000
 Structure written by MMmdl.
 47 48  0  0  0  0  0  0  0  0  1 V2000
  149.5765  136.5547  157.6394 C   0  0  0  0  0  0  0  0  0  0  0  0
  149.6290  137.2966  156.2996 C   0  0  1  0  0  0  0  0  0  0  0  0
  148.6899  138.5174  156.2736 C   0  0  0  0  0  0  0  0  0  0  0  0
  148.7776  139.2820  155.0246 N   0  0  0  0  0  0  0  0  0  0  0  0
  147.8864  140.4660  155.0239 C   0  0  2  0  0  0  0  0  0  0  0  0
  148.1054  141.3812  153.7922 C   0  0  0  0  0  0  0  0  0  0  0  0
  148.0039  141.3302  156.3136 C   0  0  0  0  0  0  0  0  0  0  0  0
  149.2848  142.0214  156.4335 N   0  0  0  0  0  0  0  0  0  0  0  0
  150.3288  141.5862  157.1551 C   0  0  0  0  0  0  0  0  0  0  0  0
  150.3067  140.5410  157.8072 O   0  0  0  0  0  0  0  0  0  0  0  0
  151.5732  142.4856  157.1472 C   0  0  0  0  0  0  0  0  0  0  0  0
  151.7221  143.2875  158.3733 N   0  0  0  0  0  0  0  0  0  0  0  0
  151.1527  144.5766  158.3691 C   0  0  0  0  0  0  0  0  0  0  0  0
  151.2245  145.3881  159.4361 C   0  0  0  0  0  0  0  0  0  0  0  0
  151.9100  144.9090  160.6129 C   0  0  0  0  0  0  0  0  0  0  0  0
  152.4554  143.6764  160.6289 C   0  0  0  0  0  0  0  0  0  0  0  0
  152.3762  142.7846  159.4658 C   0  0  0  0  0  0  0  0  0  0  0  0
  152.8670  141.6553  159.4734 O   0  0  0  0  0  0  0  0  0  0  0  0
  150.1860  139.6343  154.8117 C   0  0  0  0  0  0  0  0  0  0  0  0
  151.1252  138.4135  154.8459 C   0  0  1  0  0  0  0  0  0  0  0  0
  152.5980  138.8133  154.7062 C   0  0  0  0  0  0  0  0  0  0  0  0
  150.9646  137.7333  156.0841 O   0  0  0  0  0  0  0  0  0  0  0  0
  148.5710  136.1862  157.8445 H   0  0  0  0  0  0  0  0  0  0  0  0
  149.8697  137.2060  158.4632 H   0  0  0  0  0  0  0  0  0  0  0  0
  150.2499  135.6974  157.6367 H   0  0  0  0  0  0  0  0  0  0  0  0
  149.3489  136.6028  155.5050 H   0  0  0  0  0  0  0  0  0  0  0  0
  147.6782  138.1443  156.4224 H   0  0  0  0  0  0  0  0  0  0  0  0
  148.9156  139.1683  157.1199 H   0  0  0  0  0  0  0  0  0  0  0  0
  146.8582  140.1053  154.9709 H   0  0  0  0  0  0  0  0  0  0  0  0
  147.4894  142.2790  153.8256 H   0  0  0  0  0  0  0  0  0  0  0  0
  147.8369  140.8892  152.8585 H   0  0  0  0  0  0  0  0  0  0  0  0
  149.1454  141.7006  153.7191 H   0  0  0  0  0  0  0  0  0  0  0  0
  147.2330  142.0974  156.3678 H   0  0  0  0  0  0  0  0  0  0  0  0
  147.8725  140.7012  157.1947 H   0  0  0  0  0  0  0  0  0  0  0  0
  149.3822  142.8920  155.9311 H   0  0  0  0  0  0  0  0  0  0  0  0
  152.4619  141.8713  156.9895 H   0  0  0  0  0  0  0  0  0  0  0  0
  151.5170  143.1346  156.2723 H   0  0  0  0  0  0  0  0  0  0  0  0
  150.6516  144.8559  157.4536 H   0  0  0  0  0  0  0  0  0  0  0  0
  150.7779  146.3713  159.4165 H   0  0  0  0  0  0  0  0  0  0  0  0
  151.9848  145.5413  161.4853 H   0  0  0  0  0  0  0  0  0  0  0  0
  152.9633  143.3348  161.5188 H   0  0  0  0  0  0  0  0  0  0  0  0
  150.3214  140.1043  153.8399 H   0  0  0  0  0  0  0  0  0  0  0  0
  150.5021  140.3601  155.5629 H   0  0  0  0  0  0  0  0  0  0  0  0
  150.8690  137.7334  154.0316 H   0  0  0  0  0  0  0  0  0  0  0  0
  152.7772  139.3286  153.7622 H   0  0  0  0  0  0  0  0  0  0  0  0
  153.2440  137.9355  154.7336 H   0  0  0  0  0  0  0  0  0  0  0  0
  152.9049  139.4782  155.5142 H   0  0  0  0  0  0  0  0  0  0  0  0
  1  2  1  0  0  0  0
  1 23  1  0  0  0  0
  1 24  1  0  0  0  0
  1 25  1  0  0  0  0
  2 22  1  0  0  0  0
  2  3  1  0  0  0  0
  2 26  1  0  0  0  0
  3  4  1  0  0  0  0
  3 27  1  0  0  0  0
  3 28  1  0  0  0  0
  4  5  1  0  0  0  0
  4 19  1  0  0  0  0
  5  6  1  0  0  0  0
  5  7  1  0  0  0  0
  5 29  1  0  0  0  0
  6 30  1  0  0  0  0
  6 31  1  0  0  0  0
  6 32  1  0  0  0  0
  7  8  1  0  0  0  0
  7 33  1  0  0  0  0
  7 34  1  0  0  0  0
  8  9  1  0  0  0  0
  8 35  1  0  0  0  0
  9 10  2  0  0  0  0
  9 11  1  0  0  0  0
 11 12  1  0  0  0  0
 11 36  1  0  0  0  0
 11 37  1  0  0  0  0
 12 17  1  0  0  0  0
 12 13  1  0  0  0  0
 13 14  2  0  0  0  0
 13 38  1  0  0  0  0
 14 15  1  0  0  0  0
 14 39  1  0  0  0  0
 15 16  2  0  0  0  0
 15 40  1  0  0  0  0
 16 17  1  0  0  0  0
 16 41  1  0  0  0  0
 17 18  2  0  0  0  0
 19 20  1  0  0  0  0
 19 42  1  0  0  0  0
 19 43  1  0  0  0  0
 20 21  1  0  0  0  0
 20 22  1  0  0  0  0
 20 44  1  0  0  0  0
 21 45  1  0  0  0  0
 21 46  1  0  0  0  0
 21 47  1  0  0  0  0
M  END
> <s_m_source_file>
AV-unprocessed.smi

> <i_m_source_file_index>
1795

> <i_lp_mmshare_version>
43012

> <i_f3d_flags>
0

> <s_epik_input>
W0NIM11bQ0BASF0xW0NIMl1OKFtDSDJdW0NASF0oTzEpW0NIM10pW0NASF0oW0NIM10pW0NIMl1bTkhdQyg9TylbQ0gyXW4yW2NIXVtjSF1bY0hdW2NIXWMyPU8=

> <s_epik_cmdline>
J2VwaWtfcHl0aG9uJywgJy1waCcsICc3LjAnLCAnLXRuJywgJzgnLCAnLW1hJywgJzIwMCcsICctbWV0YWxfYmluZGluZycsICctaW1hZScsICc8aW5maWxlLm1hZT4nLCAnLW9tYWUnLCAnPG91dGZpbGUubWFlPic=

> <r_lp_tautomer_probability>
1

> <r_epik_Ionization_Penalty>
0.237383

> <r_epik_Ionization_Penalty_Charging>
3.58805e-07

> <r_epik_Ionization_Penalty_Neutral>
0.237382

> <r_epik_State_Penalty>
0.228245

> <r_epik_Charging_Adjusted_Penalty>
0.228245

> <i_epik_Tot_Q>
0

> <i_epik_Tot_abs_Q>
0

> <r_epik_Metal_State_Penalty>
0.228221

> <b_epik_Metal_Only>
0

> <s_lp_Force_Field>
OPLS_2005

> <r_lp_Energy>
36.5545

> <b_lp_Chiralities_Consistent>
1

> <s_lp_Variant>
AV-unprocessed.smi:1795-2

> <Gold.Version>
5.8.1

> <Gold.Id.Protein>
6NUR|6NUR_protein|mol2

> <Gold.PLP.Fitness>
44.8908

> <Gold.PLP.PLP>
-40.6353

> <Gold.PLP.part.hbond>
-1.0000

> <Gold.PLP.part.metal>
0.0000

> <Gold.PLP.part.buried>
-6.9002

> <Gold.PLP.part.nonpolar>
-33.7634

> <Gold.PLP.part.repulsive>
0.1279

> <Gold.PLP.ligand.clash>
0.0000

> <Gold.PLP.ligand.torsion>
0.8962

> <Gold.PLP.Chemscore.Hbond>
1.0000

> <Gold.PLP.Chemscore.CHOScore>
1.0000

> <Gold.PLP.Chemscore.Metal>
0.0000

> <Gold.Chemscore.Hbonds>
donor molecule, donor type, donor heavy atom, donor atom, acceptor molecule, acceptor atom, score
      L1  H     8    35       P1  8028  1.00
      L1  C    13    38       P1  8028  1.00

> <Gold.PLP.Chemscore.Internal.Correction>
0.0478

> <Gold.Rescore>
     Score         DG    S(hbond)    S(metal)    S(lipo)     H(rot)  DE(clash)    DE(int)     intcor
     15.23     -16.17       0.99        0.00     103.18       1.83       0.24       0.70       ----

> <Gold.Chemscore.Fitness>
15.2317

> <Gold.Chemscore.DG>
-16.1703

> <Gold.Chemscore.ZeroCoef>
-5.4800

> <Gold.Chemscore.Hbond>
0.9850

> <Gold.Chemscore.Metal>
0.0000

> <Gold.Chemscore.Lipo>
103.1846

> <Gold.Chemscore.Internal_Hbond>
0.0000

> <Gold.Chemscore.DEClash>
0.2403

> <Gold.Chemscore.DEInternal>
0.6983

> <Gold.Chemscore.Rot>
1.8251

> <Gold.Chemscore.Internal.Correction>
   9.000000E+99

> <Gold.Chemscore.Hbonds>
donor molecule, donor type, donor heavy atom, donor atom, acceptor molecule, acceptor atom, score
      L1  H     8    35       P1  8028  0.94

> <Gold.Chemscore.Hbond.Weighted>
-3.2901

> <Gold.Chemscore.Metal.Weighted>
-0.0000

> <Gold.Chemscore.Lipo.Weighted>
-12.0726

> <Gold.Chemscore.Internal_Hbond.Weighted>
0.0000

> <Gold.Chemscore.DEClash.Weighted>
0.2403

> <Gold.Chemscore.DEInternal.Weighted>
0.6983

> <Gold.Chemscore.Rot.Weighted>
4.6724

> <Gold.Chemscore.Internal.Correction.Weighted>
   9.000000E+99

> <Gold.Protein.RotatedTorsions>
[ 6907 6896 6895 6894 ] final   71.78 input  -60.11 | X-H torsion
[ 7974 7965 7964 7962 ] final  -24.90 input  175.53 | X-H torsion
[ 8008 7997 7996 7995 ] final   15.80 input   59.86 | X-H torsion
[ 10167 10162 10161 10158 ] final   18.12 input  -65.29 | X-H torsion
[ 10718 10713 10712 10709 ] final  -61.46 input   66.30 | X-H torsion
[ 10763 10752 10751 10750 ] final  158.52 input  -60.55 | X-H torsion
[ 11005 11000 10999 10996 ] final  176.43 input  -57.11 | X-H torsion

> <Gold.Protein.ActiveResidues>
 VAL166  LYS551  ARG553  GLY616  TRP617  ASP618  TYR619  PRO620  LYS621  CYS622 
 ASP623  PHE694  ASN695  SER759  ASP760  ASP761  ALA762  ILE779  LEU786  VAL792 
 PHE793  MET794  SER795  GLU796  ALA797  LYS798  CYS799  TRP800  GLU811  SER814 

> <Gold.Protein.RotatedAtoms>
  152.4830  134.4670  159.9623 H   0  0  0  0  0  0  0  0  0  0  0  0  # atno 6907 bound_to 6896
  151.4672  133.3572  159.2826 H   0  0  0  0  0  0  0  0  0  0  0  0  # atno 6908 bound_to 6896
  150.8917  134.8346  159.7358 H   0  0  0  0  0  0  0  0  0  0  0  0  # atno 6909 bound_to 6896
  146.1525  140.4814  142.8605 H   0  0  0  0  0  0  0  0  0  0  0  0  # atno 7974 bound_to 7965
  154.8678  140.2954  155.5499 H   0  0  0  0  0  0  0  0  0  0  0  0  # atno 8008 bound_to 7997
  156.3021  140.2466  156.3596 H   0  0  0  0  0  0  0  0  0  0  0  0  # atno 8009 bound_to 7997
  154.8849  140.0396  157.1793 H   0  0  0  0  0  0  0  0  0  0  0  0  # atno 8010 bound_to 7997
  140.5676  143.9221  150.6688 H   0  0  0  0  0  0  0  0  0  0  0  0  # atno 10167 bound_to 10162
  156.0920  130.4198  150.0998 H   0  0  0  0  0  0  0  0  0  0  0  0  # atno 10718 bound_to 10713
  154.2173  135.2783  155.2937 H   0  0  0  0  0  0  0  0  0  0  0  0  # atno 10763 bound_to 10752
  154.5730  135.5612  153.7117 H   0  0  0  0  0  0  0  0  0  0  0  0  # atno 10764 bound_to 10752
  153.0050  135.6326  154.2312 H   0  0  0  0  0  0  0  0  0  0  0  0  # atno 10765 bound_to 10752
  140.3731  134.7013  157.4404 H   0  0  0  0  0  0  0  0  0  0  0  0  # atno 11005 bound_to 11000
  144.7922  140.6054  143.6534 LP  0  0  0  0  0  0  0  0  0  0  0  0  # atno 17320 bound_to 7965
  145.4788  139.1497  143.3773 LP  0  0  0  0  0  0  0  0  0  0  0  0  # atno 17321 bound_to 7965
  140.2688  143.3471  152.1256 LP  0  0  0  0  0  0  0  0  0  0  0  0  # atno 17342 bound_to 10162
  139.5101  144.6878  151.5841 LP  0  0  0  0  0  0  0  0  0  0  0  0  # atno 17343 bound_to 10162
  156.9006  130.9619  151.3577 LP  0  0  0  0  0  0  0  0  0  0  0  0  # atno 17370 bound_to 10713
  157.6072  130.8555  149.8893 LP  0  0  0  0  0  0  0  0  0  0  0  0  # atno 17371 bound_to 10713
  140.0537  134.6095  155.8831 LP  0  0  0  0  0  0  0  0  0  0  0  0  # atno 17394 bound_to 11000
  141.1948  133.6584  156.5613 LP  0  0  0  0  0  0  0  0  0  0  0  0  # atno 17395 bound_to 11000

$$$$
