AV-unprocessed.smi:1662|AV-procd|sdf|6660|dock10
  -GOLD-   22720 7373D 1   1.00000     0.00000
 Structure written by MMmdl.
 47 48  0  0  0  0  0  0  0  0  1 V2000
  146.4939  137.0993  162.6502 C   0  0  0  0  0  0  0  0  0  0  0  0
  147.1065  136.2379  161.5792 C   0  0  0  0  0  0  0  0  0  0  0  0
  147.9007  136.8252  160.7459 N   0  0  0  0  0  0  0  0  0  0  0  0
  148.5258  136.1251  159.7319 N   0  0  0  0  0  0  0  0  0  0  0  0
  149.4621  136.9361  158.9338 C   0  0  0  0  0  0  0  0  0  0  0  0
  148.7808  137.8820  157.9284 C   0  0  0  0  0  0  0  0  0  0  0  0
  147.6028  137.6976  157.6258 O   0  0  0  0  0  0  0  0  0  0  0  0
  149.5182  138.8835  157.4227 N   0  0  0  0  0  0  0  0  0  0  0  0
  149.0890  139.8908  156.4573 C   0  0  1  0  0  0  0  0  0  0  0  0
  147.7250  140.4825  156.8630 C   0  0  0  0  0  0  0  0  0  0  0  0
  147.8277  141.3187  158.1472 C   0  0  0  0  0  0  0  0  0  0  0  0
  148.8854  142.4209  158.0008 C   0  0  0  0  0  0  0  0  0  0  0  0
  150.2679  141.8561  157.6129 C   0  0  2  0  0  0  0  0  0  0  0  0
  151.2848  143.0049  157.4932 C   0  0  0  0  0  0  0  0  0  0  0  0
  150.1672  140.9972  156.3199 C   0  0  1  0  0  0  0  0  0  0  0  0
  151.5231  140.4017  155.8876 C   0  0  0  0  0  0  0  0  0  0  0  0
  148.3683  134.7897  159.4991 C   0  0  0  0  0  0  0  0  0  0  0  0
  148.9570  134.2021  158.5907 O   0  0  0  0  0  0  0  0  0  0  0  0
  147.4619  134.1325  160.4427 C   0  0  0  0  0  0  0  0  0  0  0  0
  147.2761  132.7320  160.2393 C   0  0  0  0  0  0  0  0  0  0  0  0
  147.1403  131.5924  160.0883 N   0  0  0  0  0  0  0  0  0  0  0  0
  146.8510  134.8071  161.4485 C   0  0  0  0  0  0  0  0  0  0  0  0
  145.9087  134.1694  162.4599 C   0  0  0  0  0  0  0  0  0  0  0  0
  145.4056  137.0556  162.6088 H   0  0  0  0  0  0  0  0  0  0  0  0
  146.7846  138.1458  162.5466 H   0  0  0  0  0  0  0  0  0  0  0  0
  146.8089  136.7676  163.6394 H   0  0  0  0  0  0  0  0  0  0  0  0
  150.1112  137.5240  159.5849 H   0  0  0  0  0  0  0  0  0  0  0  0
  150.1329  136.2803  158.3757 H   0  0  0  0  0  0  0  0  0  0  0  0
  150.4754  138.9517  157.7365 H   0  0  0  0  0  0  0  0  0  0  0  0
  148.9750  139.4074  155.4852 H   0  0  0  0  0  0  0  0  0  0  0  0
  147.3519  141.1119  156.0540 H   0  0  0  0  0  0  0  0  0  0  0  0
  146.9880  139.6889  156.9923 H   0  0  0  0  0  0  0  0  0  0  0  0
  146.8589  141.7624  158.3778 H   0  0  0  0  0  0  0  0  0  0  0  0
  148.0794  140.6761  158.9920 H   0  0  0  0  0  0  0  0  0  0  0  0
  148.5571  143.1369  157.2459 H   0  0  0  0  0  0  0  0  0  0  0  0
  148.9586  142.9752  158.9371 H   0  0  0  0  0  0  0  0  0  0  0  0
  150.6035  141.2131  158.4282 H   0  0  0  0  0  0  0  0  0  0  0  0
  151.0533  143.6541  156.6484 H   0  0  0  0  0  0  0  0  0  0  0  0
  152.3011  142.6340  157.3639 H   0  0  0  0  0  0  0  0  0  0  0  0
  151.2861  143.6210  158.3928 H   0  0  0  0  0  0  0  0  0  0  0  0
  149.8425  141.6565  155.5132 H   0  0  0  0  0  0  0  0  0  0  0  0
  151.9909  139.8338  156.6925 H   0  0  0  0  0  0  0  0  0  0  0  0
  152.2228  141.1779  155.5795 H   0  0  0  0  0  0  0  0  0  0  0  0
  151.4014  139.7309  155.0368 H   0  0  0  0  0  0  0  0  0  0  0  0
  145.7935  133.0979  162.2989 H   0  0  0  0  0  0  0  0  0  0  0  0
  144.9173  134.6190  162.3945 H   0  0  0  0  0  0  0  0  0  0  0  0
  146.2842  134.3088  163.4743 H   0  0  0  0  0  0  0  0  0  0  0  0
  1  2  1  0  0  0  0
  1 24  1  0  0  0  0
  1 25  1  0  0  0  0
  1 26  1  0  0  0  0
  2 22  1  0  0  0  0
  2  3  2  0  0  0  0
  3  4  1  0  0  0  0
  4  5  1  0  0  0  0
  4 17  1  0  0  0  0
  5  6  1  0  0  0  0
  5 27  1  0  0  0  0
  5 28  1  0  0  0  0
  6  7  2  0  0  0  0
  6  8  1  0  0  0  0
  8  9  1  0  0  0  0
  8 29  1  0  0  0  0
  9 15  1  0  0  0  0
  9 10  1  0  0  0  0
  9 30  1  0  0  0  0
 10 11  1  0  0  0  0
 10 31  1  0  0  0  0
 10 32  1  0  0  0  0
 11 12  1  0  0  0  0
 11 33  1  0  0  0  0
 11 34  1  0  0  0  0
 12 13  1  0  0  0  0
 12 35  1  0  0  0  0
 12 36  1  0  0  0  0
 13 14  1  0  0  0  0
 13 15  1  0  0  0  0
 13 37  1  0  0  0  0
 14 38  1  0  0  0  0
 14 39  1  0  0  0  0
 14 40  1  0  0  0  0
 15 16  1  0  0  0  0
 15 41  1  0  0  0  0
 16 42  1  0  0  0  0
 16 43  1  0  0  0  0
 16 44  1  0  0  0  0
 17 18  2  0  0  0  0
 17 19  1  0  0  0  0
 19 20  1  0  0  0  0
 19 22  2  0  0  0  0
 20 21  3  0  0  0  0
 22 23  1  0  0  0  0
 23 45  1  0  0  0  0
 23 46  1  0  0  0  0
 23 47  1  0  0  0  0
M  END
> <s_m_source_file>
AV-unprocessed.smi

> <i_m_source_file_index>
1662

> <i_lp_mmshare_version>
43012

> <i_f3d_flags>
0

> <s_epik_input>
TiNDYyhjMVtDSDNdKWMoPU8pbihuYzFbQ0gzXSlbQ0gyXUMoPU8pW05IXVtDQEBIXTJbQ0gyXVtDSDJdW0NIMl1bQ0BASF0oW0NIM10pW0NASF0yW0NIM10=

> <s_epik_cmdline>
J2VwaWtfcHl0aG9uJywgJy1waCcsICc3LjAnLCAnLXRuJywgJzgnLCAnLW1hJywgJzIwMCcsICctbWV0YWxfYmluZGluZycsICctaW1hZScsICc8aW5maWxlLm1hZT4nLCAnLW9tYWUnLCAnPG91dGZpbGUubWFlPic=

> <r_lp_tautomer_probability>
1

> <r_epik_Ionization_Penalty>
1.90709e-08

> <r_epik_Ionization_Penalty_Charging>
2.37982e-11

> <r_epik_Ionization_Penalty_Neutral>
1.90471e-08

> <r_epik_State_Penalty>
-0

> <r_epik_Charging_Adjusted_Penalty>
2.37982e-11

> <i_epik_Tot_Q>
0

> <i_epik_Tot_abs_Q>
0

> <r_epik_Metal_State_Penalty>
-0

> <b_epik_Metal_Only>
0

> <s_lp_Force_Field>
OPLS_2005

> <r_lp_Energy>
25.169

> <b_lp_Chiralities_Consistent>
1

> <s_lp_Variant>
AV-unprocessed.smi:1662-4

> <Gold.Version>
5.8.1

> <Gold.Id.Protein>
6NUR|6NUR_protein|mol2

> <Gold.PLP.Fitness>
40.7906

> <Gold.PLP.PLP>
-33.5849

> <Gold.PLP.part.hbond>
-3.0000

> <Gold.PLP.part.metal>
0.0000

> <Gold.PLP.part.buried>
-2.0332

> <Gold.PLP.part.nonpolar>
-28.7480

> <Gold.PLP.part.repulsive>
0.0733

> <Gold.PLP.ligand.clash>
0.0000

> <Gold.PLP.ligand.torsion>
0.5193

> <Gold.PLP.Chemscore.Hbond>
2.7440

> <Gold.PLP.Chemscore.CHOScore>
0.0000

> <Gold.PLP.Chemscore.Metal>
0.0000

> <Gold.Chemscore.Hbonds>
donor molecule, donor type, donor heavy atom, donor atom, acceptor molecule, acceptor atom, score
      P1  H  6896  6907       L1    18  0.85
      P1  H  6931  6943       L1     3  0.68
      P1  H  6934  6947       L1     3  0.25

> <Gold.PLP.Chemscore.Internal.Correction>
0.0123

> <Gold.Rescore>
     Score         DG    S(hbond)    S(metal)    S(lipo)     H(rot)  DE(clash)    DE(int)     intcor
     15.76     -17.67       1.89        0.00      81.99       1.45       0.14       1.77       ----

> <Gold.Chemscore.Fitness>
15.7609

> <Gold.Chemscore.DG>
-17.6727

> <Gold.Chemscore.ZeroCoef>
-5.4800

> <Gold.Chemscore.Hbond>
1.8899

> <Gold.Chemscore.Metal>
0.0000

> <Gold.Chemscore.Lipo>
81.9931

> <Gold.Chemscore.Internal_Hbond>
0.0000

> <Gold.Chemscore.DEClash>
0.1444

> <Gold.Chemscore.DEInternal>
1.7674

> <Gold.Chemscore.Rot>
1.4504

> <Gold.Chemscore.Internal.Correction>
   9.000000E+99

> <Gold.Chemscore.Hbonds>
donor molecule, donor type, donor heavy atom, donor atom, acceptor molecule, acceptor atom, score
      P1  H  6896  6907       L1    18  0.15
      P1  H  6931  6943       L1     3  0.34
      P1  H  6934  6947       L1     3  0.07

> <Gold.Chemscore.Hbond.Weighted>
-6.3124

> <Gold.Chemscore.Metal.Weighted>
-0.0000

> <Gold.Chemscore.Lipo.Weighted>
-9.5932

> <Gold.Chemscore.Internal_Hbond.Weighted>
0.0000

> <Gold.Chemscore.DEClash.Weighted>
0.1444

> <Gold.Chemscore.DEInternal.Weighted>
1.7674

> <Gold.Chemscore.Rot.Weighted>
3.7129

> <Gold.Chemscore.Internal.Correction.Weighted>
   9.000000E+99

> <Gold.Protein.RotatedTorsions>
[ 6907 6896 6895 6894 ] final  -95.58 input  -60.11 | X-H torsion
[ 7974 7965 7964 7962 ] final    7.07 input  175.53 | X-H torsion
[ 8008 7997 7996 7995 ] final  -78.92 input   59.86 | X-H torsion
[ 10167 10162 10161 10158 ] final  134.33 input  -65.29 | X-H torsion
[ 10718 10713 10712 10709 ] final  170.23 input   66.30 | X-H torsion
[ 10763 10752 10751 10750 ] final  -49.89 input  -60.55 | X-H torsion
[ 11005 11000 10999 10996 ] final  -16.45 input  -57.11 | X-H torsion

> <Gold.Protein.ActiveResidues>
 VAL166  LYS551  ARG553  GLY616  TRP617  ASP618  TYR619  PRO620  LYS621  CYS622 
 ASP623  PHE694  ASN695  SER759  ASP760  ASP761  ALA762  ILE779  LEU786  VAL792 
 PHE793  MET794  SER795  GLU796  ALA797  LYS798  CYS799  TRP800  GLU811  SER814 

> <Gold.Protein.RotatedAtoms>
  150.6967  134.1635  159.4185 H   0  0  0  0  0  0  0  0  0  0  0  0  # atno 6907 bound_to 6896
  151.9615  135.0119  160.0557 H   0  0  0  0  0  0  0  0  0  0  0  0  # atno 6908 bound_to 6896
  152.1922  133.4746  159.5051 H   0  0  0  0  0  0  0  0  0  0  0  0  # atno 6909 bound_to 6896
  146.2430  140.0138  142.8404 H   0  0  0  0  0  0  0  0  0  0  0  0  # atno 7974 bound_to 7965
  154.5735  140.0686  156.8999 H   0  0  0  0  0  0  0  0  0  0  0  0  # atno 8008 bound_to 7997
  155.2591  140.3357  155.4256 H   0  0  0  0  0  0  0  0  0  0  0  0  # atno 8009 bound_to 7997
  156.2136  140.1769  156.7624 H   0  0  0  0  0  0  0  0  0  0  0  0  # atno 8010 bound_to 7997
  139.5260  144.6572  151.5124 H   0  0  0  0  0  0  0  0  0  0  0  0  # atno 10167 bound_to 10162
  157.0112  131.0204  151.2802 H   0  0  0  0  0  0  0  0  0  0  0  0  # atno 10718 bound_to 10713
  154.1015  135.6562  153.4869 H   0  0  0  0  0  0  0  0  0  0  0  0  # atno 10763 bound_to 10752
  153.0287  135.5226  154.7282 H   0  0  0  0  0  0  0  0  0  0  0  0  # atno 10764 bound_to 10752
  154.6435  135.2991  155.0043 H   0  0  0  0  0  0  0  0  0  0  0  0  # atno 10765 bound_to 10752
  140.8069  133.8170  155.9525 H   0  0  0  0  0  0  0  0  0  0  0  0  # atno 11005 bound_to 11000
  145.1303  140.9514  143.4548 LP  0  0  0  0  0  0  0  0  0  0  0  0  # atno 17320 bound_to 7965
  145.0394  139.3273  143.5984 LP  0  0  0  0  0  0  0  0  0  0  0  0  # atno 17321 bound_to 7965
  140.6404  143.8901  150.6686 LP  0  0  0  0  0  0  0  0  0  0  0  0  # atno 17342 bound_to 10162
  140.2233  143.3792  152.1625 LP  0  0  0  0  0  0  0  0  0  0  0  0  # atno 17343 bound_to 10162
  157.5319  130.8064  149.7927 LP  0  0  0  0  0  0  0  0  0  0  0  0  # atno 17370 bound_to 10713
  156.0135  130.3823  150.2185 LP  0  0  0  0  0  0  0  0  0  0  0  0  # atno 17371 bound_to 10713
  140.9237  134.2109  157.4909 LP  0  0  0  0  0  0  0  0  0  0  0  0  # atno 17394 bound_to 11000
  139.8717  134.9803  156.5072 LP  0  0  0  0  0  0  0  0  0  0  0  0  # atno 17395 bound_to 11000

$$$$
