AV-unprocessed.smi:2275|AV-procd|sdf|9171|dock4
  -GOLD-   2272012383D 1   1.00000     0.00000
 Structure written by MMmdl.
 38 39  0  0  0  0  0  0  0  0  1 V2000
  153.5352  143.2469  163.3438 C   0  0  0  0  0  0  0  0  0  0  0  0
  153.0558  143.1935  161.9040 C   0  0  0  0  0  0  0  0  0  0  0  0
  152.2539  144.2629  161.4944 N   0  0  0  0  0  0  0  0  0  0  0  0
  151.8051  144.3050  160.2824 C   0  0  0  0  0  0  0  0  0  0  0  0
  152.1052  143.2994  159.3496 N   0  0  0  0  0  0  0  0  0  0  0  0
  151.5401  143.4715  158.0015 C   0  0  0  0  0  0  0  0  0  0  0  0
  150.6439  142.2818  157.5905 C   0  0  1  0  0  0  0  0  0  0  0  0
  149.2825  142.6604  157.6136 O   0  0  0  0  0  0  0  0  0  0  0  0
  150.9573  141.7485  156.1827 C   0  0  0  0  0  0  0  0  0  0  0  0
  150.2933  140.5072  155.9760 O   0  0  0  0  0  0  0  0  0  0  0  0
  149.2409  140.4686  155.0871 C   0  0  0  0  0  0  0  0  0  0  0  0
  148.5634  141.6819  154.8461 C   0  0  0  0  0  0  0  0  0  0  0  0
  147.4763  141.7360  153.9528 C   0  0  0  0  0  0  0  0  0  0  0  0
  147.0543  140.5704  153.2875 C   0  0  0  0  0  0  0  0  0  0  0  0
  147.7206  139.3527  153.5185 C   0  0  0  0  0  0  0  0  0  0  0  0
  148.8079  139.2987  154.4126 C   0  0  0  0  0  0  0  0  0  0  0  0
  152.8615  142.2104  159.6722 C   0  0  0  0  0  0  0  0  0  0  0  0
  153.0934  141.3185  158.8537 O   0  0  0  0  0  0  0  0  0  0  0  0
  153.3727  142.1806  161.0521 C   0  0  0  0  0  0  0  0  0  0  0  0
  154.2423  140.9916  161.4410 C   0  0  0  0  0  0  0  0  0  0  0  0
  154.6236  143.2935  163.3818 H   0  0  0  0  0  0  0  0  0  0  0  0
  153.2034  142.3638  163.8903 H   0  0  0  0  0  0  0  0  0  0  0  0
  153.1448  144.1241  163.8612 H   0  0  0  0  0  0  0  0  0  0  0  0
  151.1702  145.1128  159.9141 H   0  0  0  0  0  0  0  0  0  0  0  0
  150.9977  144.4142  157.9014 H   0  0  0  0  0  0  0  0  0  0  0  0
  152.3647  143.5643  157.2922 H   0  0  0  0  0  0  0  0  0  0  0  0
  150.7639  141.4557  158.2928 H   0  0  0  0  0  0  0  0  0  0  0  0
  149.1540  143.3504  156.9806 H   0  0  0  0  0  0  0  0  0  0  0  0
  150.5958  142.4723  155.4505 H   0  0  0  0  0  0  0  0  0  0  0  0
  152.0352  141.6470  156.0431 H   0  0  0  0  0  0  0  0  0  0  0  0
  148.8806  142.5817  155.3525 H   0  0  0  0  0  0  0  0  0  0  0  0
  146.9666  142.6721  153.7787 H   0  0  0  0  0  0  0  0  0  0  0  0
  146.2207  140.6100  152.6017 H   0  0  0  0  0  0  0  0  0  0  0  0
  147.3974  138.4572  153.0086 H   0  0  0  0  0  0  0  0  0  0  0  0
  149.2934  138.3465  154.5629 H   0  0  0  0  0  0  0  0  0  0  0  0
  153.6787  140.0639  161.3365 H   0  0  0  0  0  0  0  0  0  0  0  0
  154.6058  141.0419  162.4660 H   0  0  0  0  0  0  0  0  0  0  0  0
  155.1136  140.9334  160.7877 H   0  0  0  0  0  0  0  0  0  0  0  0
  1  2  1  0  0  0  0
  1 21  1  0  0  0  0
  1 22  1  0  0  0  0
  1 23  1  0  0  0  0
  2 19  2  0  0  0  0
  2  3  1  0  0  0  0
  3  4  2  0  0  0  0
  4  5  1  0  0  0  0
  4 24  1  0  0  0  0
  5  6  1  0  0  0  0
  5 17  1  0  0  0  0
  6  7  1  0  0  0  0
  6 25  1  0  0  0  0
  6 26  1  0  0  0  0
  7  8  1  0  0  0  0
  7  9  1  0  0  0  0
  7 27  1  0  0  0  0
  8 28  1  0  0  0  0
  9 10  1  0  0  0  0
  9 29  1  0  0  0  0
  9 30  1  0  0  0  0
 10 11  1  0  0  0  0
 11 16  1  0  0  0  0
 11 12  2  0  0  0  0
 12 13  1  0  0  0  0
 12 31  1  0  0  0  0
 13 14  2  0  0  0  0
 13 32  1  0  0  0  0
 14 15  1  0  0  0  0
 14 33  1  0  0  0  0
 15 16  2  0  0  0  0
 15 34  1  0  0  0  0
 16 35  1  0  0  0  0
 17 18  2  0  0  0  0
 17 19  1  0  0  0  0
 19 20  1  0  0  0  0
 20 36  1  0  0  0  0
 20 37  1  0  0  0  0
 20 38  1  0  0  0  0
M  END
> <s_m_source_file>
AV-unprocessed.smi

> <i_m_source_file_index>
2275

> <i_lp_mmshare_version>
43012

> <i_f3d_flags>
0

> <s_epik_input>
W0NIM11jMW5bY0hdbihjKD1PKWMxW0NIM10pW0NIMl1bQ0BIXShbT0hdKVtDSDJdT2MyW2NIXVtjSF1bY0hdW2NIXVtjSF0y

> <s_epik_cmdline>
J2VwaWtfcHl0aG9uJywgJy1waCcsICc3LjAnLCAnLXRuJywgJzgnLCAnLW1hJywgJzIwMCcsICctbWV0YWxfYmluZGluZycsICctaW1hZScsICc8aW5maWxlLm1hZT4nLCAnLW9tYWUnLCAnPG91dGZpbGUubWFlPic=

> <r_lp_tautomer_probability>
1

> <r_epik_Ionization_Penalty>
4.18311e-05

> <r_epik_Ionization_Penalty_Charging>
1.04093e-07

> <r_epik_Ionization_Penalty_Neutral>
4.1727e-05

> <r_epik_State_Penalty>
-0

> <r_epik_Charging_Adjusted_Penalty>
1.04093e-07

> <i_epik_Tot_Q>
0

> <i_epik_Tot_abs_Q>
0

> <r_epik_Metal_State_Penalty>
-0

> <b_epik_Metal_Only>
0

> <s_lp_Force_Field>
OPLS_2005

> <r_lp_Energy>
23.5562

> <b_lp_Chiralities_Consistent>
1

> <s_lp_Variant>
AV-unprocessed.smi:2275-2

> <Gold.Version>
5.8.1

> <Gold.Id.Protein>
6NUR|6NUR_protein|mol2

> <Gold.PLP.Fitness>
49.3740

> <Gold.PLP.PLP>
-49.4186

> <Gold.PLP.part.hbond>
-1.0000

> <Gold.PLP.part.metal>
0.0000

> <Gold.PLP.part.buried>
-4.1399

> <Gold.PLP.part.nonpolar>
-42.7359

> <Gold.PLP.part.repulsive>
0.1973

> <Gold.PLP.ligand.clash>
0.2667

> <Gold.PLP.ligand.torsion>
1.4237

> <Gold.PLP.Chemscore.Hbond>
1.0000

> <Gold.PLP.Chemscore.CHOScore>
0.0000

> <Gold.PLP.Chemscore.Metal>
0.0000

> <Gold.Chemscore.Hbonds>
donor molecule, donor type, donor heavy atom, donor atom, acceptor molecule, acceptor atom, score
      L1  H     8    28       P1  8028  1.00

> <Gold.PLP.Chemscore.Internal.Correction>
0.0694

> <Gold.Rescore>
     Score         DG    S(hbond)    S(metal)    S(lipo)     H(rot)  DE(clash)    DE(int)     intcor
     13.06     -15.64       0.94        0.00     112.25       2.38       0.24       2.33       ----

> <Gold.Chemscore.Fitness>
13.0640

> <Gold.Chemscore.DG>
-15.6387

> <Gold.Chemscore.ZeroCoef>
-5.4800

> <Gold.Chemscore.Hbond>
0.9357

> <Gold.Chemscore.Metal>
0.0000

> <Gold.Chemscore.Lipo>
112.2489

> <Gold.Chemscore.Internal_Hbond>
0.0000

> <Gold.Chemscore.DEClash>
0.2437

> <Gold.Chemscore.DEInternal>
2.3310

> <Gold.Chemscore.Rot>
2.3826

> <Gold.Chemscore.Internal.Correction>
   9.000000E+99

> <Gold.Chemscore.Hbonds>
donor molecule, donor type, donor heavy atom, donor atom, acceptor molecule, acceptor atom, score
      L1  H     8    28       P1  8028  0.85

> <Gold.Chemscore.Hbond.Weighted>
-3.1251

> <Gold.Chemscore.Metal.Weighted>
-0.0000

> <Gold.Chemscore.Lipo.Weighted>
-13.1331

> <Gold.Chemscore.Internal_Hbond.Weighted>
0.0000

> <Gold.Chemscore.DEClash.Weighted>
0.2437

> <Gold.Chemscore.DEInternal.Weighted>
2.3310

> <Gold.Chemscore.Rot.Weighted>
6.0996

> <Gold.Chemscore.Internal.Correction.Weighted>
   9.000000E+99

> <Gold.Protein.RotatedTorsions>
[ 6907 6896 6895 6894 ] final  -85.90 input  -60.11 | X-H torsion
[ 7974 7965 7964 7962 ] final   25.86 input  175.53 | X-H torsion
[ 8008 7997 7996 7995 ] final   36.37 input   59.86 | X-H torsion
[ 10167 10162 10161 10158 ] final   44.14 input  -65.29 | X-H torsion
[ 10718 10713 10712 10709 ] final -103.15 input   66.30 | X-H torsion
[ 10763 10752 10751 10750 ] final  -95.88 input  -60.55 | X-H torsion
[ 11005 11000 10999 10996 ] final   51.90 input  -57.11 | X-H torsion

> <Gold.Protein.ActiveResidues>
 VAL166  LYS551  ARG553  GLY616  TRP617  ASP618  TYR619  PRO620  LYS621  CYS622 
 ASP623  PHE694  ASN695  SER759  ASP760  ASP761  ALA762  ILE779  LEU786  VAL792 
 PHE793  MET794  SER795  GLU796  ALA797  LYS798  CYS799  TRP800  GLU811  SER814 

> <Gold.Protein.RotatedAtoms>
  150.6868  134.3134  159.4755 H   0  0  0  0  0  0  0  0  0  0  0  0  # atno 6907 bound_to 6896
  152.1017  134.9334  160.0578 H   0  0  0  0  0  0  0  0  0  0  0  0  # atno 6908 bound_to 6896
  152.0610  133.4027  159.4455 H   0  0  0  0  0  0  0  0  0  0  0  0  # atno 6909 bound_to 6896
  146.1867  139.7407  142.8861 H   0  0  0  0  0  0  0  0  0  0  0  0  # atno 7974 bound_to 7965
  155.1864  140.3304  155.4366 H   0  0  0  0  0  0  0  0  0  0  0  0  # atno 8008 bound_to 7997
  156.2458  140.1918  156.6909 H   0  0  0  0  0  0  0  0  0  0  0  0  # atno 8009 bound_to 7997
  154.6236  140.0592  156.9631 H   0  0  0  0  0  0  0  0  0  0  0  0  # atno 8010 bound_to 7997
  140.3373  144.2514  150.6160 H   0  0  0  0  0  0  0  0  0  0  0  0  # atno 10167 bound_to 10162
  156.0254  130.5453  150.7211 H   0  0  0  0  0  0  0  0  0  0  0  0  # atno 10718 bound_to 10713
  154.7189  135.5104  153.8780 H   0  0  0  0  0  0  0  0  0  0  0  0  # atno 10763 bound_to 10752
  153.0844  135.6641  153.9987 H   0  0  0  0  0  0  0  0  0  0  0  0  # atno 10764 bound_to 10752
  153.9814  135.3028  155.3399 H   0  0  0  0  0  0  0  0  0  0  0  0  # atno 10765 bound_to 10752
  140.0894  134.5230  155.8867 H   0  0  0  0  0  0  0  0  0  0  0  0  # atno 11005 bound_to 11000
  145.3917  141.0373  143.3120 LP  0  0  0  0  0  0  0  0  0  0  0  0  # atno 17320 bound_to 7965
  144.8410  139.5472  143.6900 LP  0  0  0  0  0  0  0  0  0  0  0  0  # atno 17321 bound_to 7965
  140.5341  143.2237  151.8191 LP  0  0  0  0  0  0  0  0  0  0  0  0  # atno 17342 bound_to 10162
  139.4846  144.4683  151.9457 LP  0  0  0  0  0  0  0  0  0  0  0  0  # atno 17343 bound_to 10162
  157.4826  131.0904  151.0519 LP  0  0  0  0  0  0  0  0  0  0  0  0  # atno 17370 bound_to 10713
  157.0948  130.5957  149.5447 LP  0  0  0  0  0  0  0  0  0  0  0  0  # atno 17371 bound_to 10713
  141.2073  133.6663  156.6297 LP  0  0  0  0  0  0  0  0  0  0  0  0  # atno 17394 bound_to 11000
  140.3374  134.7878  157.4372 LP  0  0  0  0  0  0  0  0  0  0  0  0  # atno 17395 bound_to 11000

$$$$
