AV-unprocessed.smi:2810|AV-procd|sdf|10828|dock3
  -GOLD-   2272015273D 1   1.00000     0.00000
 Structure written by MMmdl.
 39 40  0  0  0  0  0  0  0  0  1 V2000
  153.8735  140.6444  161.7105 C   0  0  0  0  0  0  0  0  0  0  0  0
  153.0463  141.0296  160.5026 C   0  0  0  0  0  0  0  0  0  0  0  0
  152.6706  140.0775  159.5322 C   0  0  0  0  0  0  0  0  0  0  0  0
  151.9005  140.5488  158.4452 C   0  0  0  0  0  0  0  0  0  0  0  0
  151.4836  139.6543  157.4362 N   0  0  0  0  0  0  0  0  0  0  0  0
  151.9023  140.1412  156.1224 C   0  0  0  0  0  0  0  0  0  0  0  0
  151.3291  139.2640  155.0013 C   0  0  0  0  0  0  0  0  0  0  0  0
  151.7276  137.9189  155.2184 O   0  0  0  0  0  0  0  0  0  0  0  0
  151.1944  137.4099  156.4341 C   0  0  0  0  0  0  0  0  0  0  0  0
  151.7204  138.2130  157.6484 C   0  0  2  0  0  0  0  0  0  0  0  0
  151.0978  137.5936  158.9188 C   0  0  0  0  0  0  0  0  0  0  0  0
  149.7660  137.5848  159.0401 N   0  0  0  0  0  0  0  0  0  0  0  0
  151.8263  137.1331  159.7951 O   0  0  0  0  0  0  0  0  0  0  0  0
  151.5423  141.8529  158.3673 N   0  0  0  0  0  0  0  0  0  0  0  0
  151.9558  142.6720  159.3390 C   0  0  0  0  0  0  0  0  0  0  0  0
  151.5619  144.1379  159.2158 C   0  0  0  0  0  0  0  0  0  0  0  0
  152.1315  144.7809  157.9417 C   0  0  0  0  0  0  0  0  0  0  0  0
  151.8982  144.9290  160.4897 C   0  0  0  0  0  0  0  0  0  0  0  0
  152.6888  142.3279  160.4023 N   0  0  0  0  0  0  0  0  0  0  0  0
  154.1970  139.6050  161.6511 H   0  0  0  0  0  0  0  0  0  0  0  0
  153.2904  140.7687  162.6232 H   0  0  0  0  0  0  0  0  0  0  0  0
  154.7616  141.2732  161.7803 H   0  0  0  0  0  0  0  0  0  0  0  0
  152.9624  139.0406  159.6137 H   0  0  0  0  0  0  0  0  0  0  0  0
  151.5770  141.1705  155.9661 H   0  0  0  0  0  0  0  0  0  0  0  0
  152.9925  140.1412  156.0697 H   0  0  0  0  0  0  0  0  0  0  0  0
  150.2410  139.3384  154.9595 H   0  0  0  0  0  0  0  0  0  0  0  0
  151.7088  139.5946  154.0344 H   0  0  0  0  0  0  0  0  0  0  0  0
  150.1034  137.4305  156.3893 H   0  0  0  0  0  0  0  0  0  0  0  0
  151.4840  136.3614  156.5157 H   0  0  0  0  0  0  0  0  0  0  0  0
  152.7995  138.0563  157.7020 H   0  0  0  0  0  0  0  0  0  0  0  0
  149.3397  137.1813  159.8616 H   0  0  0  0  0  0  0  0  0  0  0  0
  149.1927  137.9786  158.3083 H   0  0  0  0  0  0  0  0  0  0  0  0
  150.4757  144.1716  159.1140 H   0  0  0  0  0  0  0  0  0  0  0  0
  151.8148  144.2342  157.0530 H   0  0  0  0  0  0  0  0  0  0  0  0
  153.2218  144.7937  157.9544 H   0  0  0  0  0  0  0  0  0  0  0  0
  151.7897  145.8106  157.8355 H   0  0  0  0  0  0  0  0  0  0  0  0
  151.4193  144.4855  161.3631 H   0  0  0  0  0  0  0  0  0  0  0  0
  151.5553  145.9610  160.4129 H   0  0  0  0  0  0  0  0  0  0  0  0
  152.9729  144.9500  160.6741 H   0  0  0  0  0  0  0  0  0  0  0  0
  1  2  1  0  0  0  0
  1 20  1  0  0  0  0
  1 21  1  0  0  0  0
  1 22  1  0  0  0  0
  2 19  1  0  0  0  0
  2  3  2  0  0  0  0
  3  4  1  0  0  0  0
  3 23  1  0  0  0  0
  4  5  1  0  0  0  0
  4 14  2  0  0  0  0
  5 10  1  0  0  0  0
  5  6  1  0  0  0  0
  6  7  1  0  0  0  0
  6 24  1  0  0  0  0
  6 25  1  0  0  0  0
  7  8  1  0  0  0  0
  7 26  1  0  0  0  0
  7 27  1  0  0  0  0
  8  9  1  0  0  0  0
  9 10  1  0  0  0  0
  9 28  1  0  0  0  0
  9 29  1  0  0  0  0
 10 11  1  0  0  0  0
 10 30  1  0  0  0  0
 11 12  1  0  0  0  0
 11 13  2  0  0  0  0
 12 31  1  0  0  0  0
 12 32  1  0  0  0  0
 14 15  1  0  0  0  0
 15 16  1  0  0  0  0
 15 19  2  0  0  0  0
 16 17  1  0  0  0  0
 16 18  1  0  0  0  0
 16 33  1  0  0  0  0
 17 34  1  0  0  0  0
 17 35  1  0  0  0  0
 17 36  1  0  0  0  0
 18 37  1  0  0  0  0
 18 38  1  0  0  0  0
 18 39  1  0  0  0  0
M  END
> <s_m_source_file>
AV-unprocessed.smi

> <i_m_source_file_index>
2810

> <i_lp_mmshare_version>
43012

> <i_f3d_flags>
0

> <s_epik_input>
W0NIM11bQ0hdKFtDSDNdKWMobjEpbmMoW2NIXWMxW0NIM10pTjJbQ0gyXVtDSDJdT1tDSDJdW0NASF0yQyg9TylbTkgyXQ==

> <s_epik_cmdline>
J2VwaWtfcHl0aG9uJywgJy1waCcsICc3LjAnLCAnLXRuJywgJzgnLCAnLW1hJywgJzIwMCcsICctbWV0YWxfYmluZGluZycsICctaW1hZScsICc8aW5maWxlLm1hZT4nLCAnLW9tYWUnLCAnPG91dGZpbGUubWFlPic=

> <r_lp_tautomer_probability>
1

> <r_epik_Ionization_Penalty>
0.00607782

> <r_epik_Ionization_Penalty_Charging>
0

> <r_epik_Ionization_Penalty_Neutral>
0.00607782

> <r_epik_State_Penalty>
0.00441345

> <r_epik_Charging_Adjusted_Penalty>
0.00441345

> <i_epik_Tot_Q>
0

> <i_epik_Tot_abs_Q>
0

> <r_epik_Metal_State_Penalty>
-0

> <b_epik_Metal_Only>
0

> <s_lp_Force_Field>
OPLS_2005

> <r_lp_Energy>
6.30102

> <b_lp_Chiralities_Consistent>
1

> <s_lp_Variant>
AV-unprocessed.smi:2810-2

> <Gold.Version>
5.8.1

> <Gold.Id.Protein>
6NUR|6NUR_protein|mol2

> <Gold.PLP.Fitness>
39.7122

> <Gold.PLP.PLP>
-36.8340

> <Gold.PLP.part.hbond>
-1.0000

> <Gold.PLP.part.metal>
0.0000

> <Gold.PLP.part.buried>
-6.4467

> <Gold.PLP.part.nonpolar>
-29.2568

> <Gold.PLP.part.repulsive>
0.2699

> <Gold.PLP.ligand.clash>
0.0000

> <Gold.PLP.ligand.torsion>
0.1911

> <Gold.PLP.Chemscore.Hbond>
1.0000

> <Gold.PLP.Chemscore.CHOScore>
0.0000

> <Gold.PLP.Chemscore.Metal>
0.0000

> <Gold.Chemscore.Hbonds>
donor molecule, donor type, donor heavy atom, donor atom, acceptor molecule, acceptor atom, score
      P1  H  6896  6908       L1    13  1.00

> <Gold.PLP.Chemscore.Internal.Correction>
0.2604

> <Gold.Rescore>
     Score         DG    S(hbond)    S(metal)    S(lipo)     H(rot)  DE(clash)    DE(int)     intcor
     13.90     -14.36       0.99        0.00      85.03       1.71       0.12       0.34       ----

> <Gold.Chemscore.Fitness>
13.8993

> <Gold.Chemscore.DG>
-14.3647

> <Gold.Chemscore.ZeroCoef>
-5.4800

> <Gold.Chemscore.Hbond>
0.9935

> <Gold.Chemscore.Metal>
0.0000

> <Gold.Chemscore.Lipo>
85.0299

> <Gold.Chemscore.Internal_Hbond>
0.0000

> <Gold.Chemscore.DEClash>
0.1239

> <Gold.Chemscore.DEInternal>
0.3416

> <Gold.Chemscore.Rot>
1.7117

> <Gold.Chemscore.Internal.Correction>
   9.000000E+99

> <Gold.Chemscore.Hbonds>
donor molecule, donor type, donor heavy atom, donor atom, acceptor molecule, acceptor atom, score
      P1  H  6896  6908       L1    13  0.80

> <Gold.Chemscore.Hbond.Weighted>
-3.3182

> <Gold.Chemscore.Metal.Weighted>
-0.0000

> <Gold.Chemscore.Lipo.Weighted>
-9.9485

> <Gold.Chemscore.Internal_Hbond.Weighted>
0.0000

> <Gold.Chemscore.DEClash.Weighted>
0.1239

> <Gold.Chemscore.DEInternal.Weighted>
0.3416

> <Gold.Chemscore.Rot.Weighted>
4.3820

> <Gold.Chemscore.Internal.Correction.Weighted>
   9.000000E+99

> <Gold.Protein.RotatedTorsions>
[ 6907 6896 6895 6894 ] final -118.87 input  -60.11 | X-H torsion
[ 7974 7965 7964 7962 ] final -175.75 input  175.53 | X-H torsion
[ 8008 7997 7996 7995 ] final  -50.18 input   59.86 | X-H torsion
[ 10167 10162 10161 10158 ] final  112.78 input  -65.29 | X-H torsion
[ 10718 10713 10712 10709 ] final  122.92 input   66.30 | X-H torsion
[ 10763 10752 10751 10750 ] final  105.04 input  -60.55 | X-H torsion
[ 11005 11000 10999 10996 ] final  -20.50 input  -57.11 | X-H torsion

> <Gold.Protein.ActiveResidues>
 VAL166  LYS551  ARG553  GLY616  TRP617  ASP618  TYR619  PRO620  LYS621  CYS622 
 ASP623  PHE694  ASN695  SER759  ASP760  ASP761  ALA762  ILE779  LEU786  VAL792 
 PHE793  MET794  SER795  GLU796  ALA797  LYS798  CYS799  TRP800  GLU811  SER814 

> <Gold.Protein.RotatedAtoms>
  150.8256  133.8178  159.3119 H   0  0  0  0  0  0  0  0  0  0  0  0  # atno 6907 bound_to 6896
  151.5923  135.1051  160.0051 H   0  0  0  0  0  0  0  0  0  0  0  0  # atno 6908 bound_to 6896
  152.4341  133.7289  159.6632 H   0  0  0  0  0  0  0  0  0  0  0  0  # atno 6909 bound_to 6896
  144.7127  140.1274  143.6401 H   0  0  0  0  0  0  0  0  0  0  0  0  # atno 7974 bound_to 7965
  154.4057  140.1278  156.4624 H   0  0  0  0  0  0  0  0  0  0  0  0  # atno 8008 bound_to 7997
  155.7259  140.3492  155.5017 H   0  0  0  0  0  0  0  0  0  0  0  0  # atno 8009 bound_to 7997
  155.9171  140.1046  157.1225 H   0  0  0  0  0  0  0  0  0  0  0  0  # atno 8010 bound_to 7997
  139.6510  144.7128  151.2048 H   0  0  0  0  0  0  0  0  0  0  0  0  # atno 10167 bound_to 10162
  157.5705  131.1083  150.8376 H   0  0  0  0  0  0  0  0  0  0  0  0  # atno 10718 bound_to 10713
  153.3740  135.3923  155.1809 H   0  0  0  0  0  0  0  0  0  0  0  0  # atno 10763 bound_to 10752
  154.8698  135.3709  154.4941 H   0  0  0  0  0  0  0  0  0  0  0  0  # atno 10764 bound_to 10752
  153.5412  135.7084  153.5697 H   0  0  0  0  0  0  0  0  0  0  0  0  # atno 10765 bound_to 10752
  140.8471  133.7884  155.9924 H   0  0  0  0  0  0  0  0  0  0  0  0  # atno 11005 bound_to 11000
  145.9317  139.2610  143.1321 LP  0  0  0  0  0  0  0  0  0  0  0  0  # atno 17320 bound_to 7965
  145.9516  140.8904  143.0256 LP  0  0  0  0  0  0  0  0  0  0  0  0  # atno 17321 bound_to 7965
  140.7537  143.6150  150.8568 LP  0  0  0  0  0  0  0  0  0  0  0  0  # atno 17342 bound_to 10162
  139.9798  143.5964  152.2946 LP  0  0  0  0  0  0  0  0  0  0  0  0  # atno 17343 bound_to 10162
  156.8849  130.5192  149.5289 LP  0  0  0  0  0  0  0  0  0  0  0  0  # atno 17370 bound_to 10713
  156.0751  130.5775  150.9457 LP  0  0  0  0  0  0  0  0  0  0  0  0  # atno 17371 bound_to 10713
  140.8831  134.2586  157.5133 LP  0  0  0  0  0  0  0  0  0  0  0  0  # atno 17394 bound_to 11000
  139.8703  134.9625  156.4431 LP  0  0  0  0  0  0  0  0  0  0  0  0  # atno 17395 bound_to 11000

$$$$
