AV-unprocessed.smi:2181|AV-procd|sdf|8861|dock6
  -GOLD-   2272012 53D 1   1.00000     0.00000
 Structure written by MMmdl.
 38 39  0  0  0  0  0  0  0  0  1 V2000
  144.4565  140.8710  159.1031 C   0  0  0  0  0  0  0  0  0  0  0  0
  145.1703  141.9140  159.9148 C   0  0  0  0  0  0  0  0  0  0  0  0
  144.9331  141.9988  161.2130 N   0  0  0  0  0  0  0  0  0  0  0  0
  145.7424  143.0372  161.6841 O   0  0  0  0  0  0  0  0  0  0  0  0
  146.4448  143.5420  160.6382 C   0  0  0  0  0  0  0  0  0  0  0  0
  147.3823  144.6628  160.9369 C   0  0  0  0  0  0  0  0  0  0  0  0
  146.1298  142.8767  159.4855 C   0  0  0  0  0  0  0  0  0  0  0  0
  146.6723  143.1012  158.0975 C   0  0  0  0  0  0  0  0  0  0  0  0
  147.4556  141.8682  157.6491 C   0  0  0  0  0  0  0  0  0  0  0  0
  147.2550  140.7806  158.1893 O   0  0  0  0  0  0  0  0  0  0  0  0
  148.3391  142.0535  156.6561 N   0  0  0  0  0  0  0  0  0  0  0  0
  149.1632  141.0173  156.0359 C   0  0  2  0  0  0  0  0  0  0  0  0
  150.5919  141.0197  156.6386 C   0  0  0  0  0  0  0  0  0  0  0  0
  151.7088  140.4486  155.7399 C   0  0  0  0  0  0  0  0  0  0  0  0
  151.4566  139.0316  155.1853 C   0  0  0  0  0  0  0  0  0  0  0  0
  150.1402  138.8156  154.4006 C   0  0  0  0  0  0  0  0  0  0  0  0
  149.5837  140.0316  153.8083 N   0  0  0  0  0  0  0  0  0  0  0  0
  149.0938  141.0768  154.4972 C   0  0  0  0  0  0  0  0  0  0  0  0
  148.6251  142.0601  153.9245 O   0  0  0  0  0  0  0  0  0  0  0  0
  145.0065  139.9299  159.1118 H   0  0  0  0  0  0  0  0  0  0  0  0
  144.3492  141.1817  158.0640 H   0  0  0  0  0  0  0  0  0  0  0  0
  143.4568  140.6762  159.4926 H   0  0  0  0  0  0  0  0  0  0  0  0
  148.4168  144.3244  160.8745 H   0  0  0  0  0  0  0  0  0  0  0  0
  147.2153  145.0600  161.9385 H   0  0  0  0  0  0  0  0  0  0  0  0
  147.2496  145.4776  160.2252 H   0  0  0  0  0  0  0  0  0  0  0  0
  145.8732  143.3074  157.3846 H   0  0  0  0  0  0  0  0  0  0  0  0
  147.3340  143.9674  158.0641 H   0  0  0  0  0  0  0  0  0  0  0  0
  148.4289  142.9833  156.2728 H   0  0  0  0  0  0  0  0  0  0  0  0
  148.6978  140.0675  156.3031 H   0  0  0  0  0  0  0  0  0  0  0  0
  150.8729  142.0415  156.8972 H   0  0  0  0  0  0  0  0  0  0  0  0
  150.5765  140.4730  157.5823 H   0  0  0  0  0  0  0  0  0  0  0  0
  151.8907  141.1327  154.9098 H   0  0  0  0  0  0  0  0  0  0  0  0
  152.6409  140.4405  156.3058 H   0  0  0  0  0  0  0  0  0  0  0  0
  152.2915  138.7843  154.5287 H   0  0  0  0  0  0  0  0  0  0  0  0
  151.5038  138.3076  155.9995 H   0  0  0  0  0  0  0  0  0  0  0  0
  150.3077  138.0914  153.6029 H   0  0  0  0  0  0  0  0  0  0  0  0
  149.3903  138.3592  155.0475 H   0  0  0  0  0  0  0  0  0  0  0  0
  149.5531  140.0757  152.7998 H   0  0  0  0  0  0  0  0  0  0  0  0
  1  2  1  0  0  0  0
  1 20  1  0  0  0  0
  1 21  1  0  0  0  0
  1 22  1  0  0  0  0
  2  7  1  0  0  0  0
  2  3  2  0  0  0  0
  3  4  1  0  0  0  0
  4  5  1  0  0  0  0
  5  6  1  0  0  0  0
  5  7  2  0  0  0  0
  6 23  1  0  0  0  0
  6 24  1  0  0  0  0
  6 25  1  0  0  0  0
  7  8  1  0  0  0  0
  8  9  1  0  0  0  0
  8 26  1  0  0  0  0
  8 27  1  0  0  0  0
  9 10  2  0  0  0  0
  9 11  1  0  0  0  0
 11 12  1  0  0  0  0
 11 28  1  0  0  0  0
 12 18  1  0  0  0  0
 12 13  1  0  0  0  0
 12 29  1  0  0  0  0
 13 14  1  0  0  0  0
 13 30  1  0  0  0  0
 13 31  1  0  0  0  0
 14 15  1  0  0  0  0
 14 32  1  0  0  0  0
 14 33  1  0  0  0  0
 15 16  1  0  0  0  0
 15 34  1  0  0  0  0
 15 35  1  0  0  0  0
 16 17  1  0  0  0  0
 16 36  1  0  0  0  0
 16 37  1  0  0  0  0
 17 18  1  0  0  0  0
 17 38  1  0  0  0  0
 18 19  2  0  0  0  0
M  END
> <s_m_source_file>
AV-unprocessed.smi

> <i_m_source_file_index>
2181

> <i_lp_mmshare_version>
43012

> <i_f3d_flags>
0

> <s_epik_input>
W0NIM11jMW5vYyhbQ0gzXSljMVtDSDJdQyg9TylbTkhdW0NAQEhdMltDSDJdW0NIMl1bQ0gyXVtDSDJdW05IXUMyPU8=

> <s_epik_cmdline>
J2VwaWtfcHl0aG9uJywgJy1waCcsICc3LjAnLCAnLXRuJywgJzgnLCAnLW1hJywgJzIwMCcsICctbWV0YWxfYmluZGluZycsICctaW1hZScsICc8aW5maWxlLm1hZT4nLCAnLW9tYWUnLCAnPG91dGZpbGUubWFlPic=

> <r_lp_tautomer_probability>
1

> <r_epik_Ionization_Penalty>
5.91376e-08

> <r_epik_Ionization_Penalty_Charging>
0

> <r_epik_Ionization_Penalty_Neutral>
5.91376e-08

> <r_epik_State_Penalty>
-0

> <r_epik_Charging_Adjusted_Penalty>
0

> <i_epik_Tot_Q>
0

> <i_epik_Tot_abs_Q>
0

> <r_epik_Metal_State_Penalty>
-0

> <b_epik_Metal_Only>
0

> <s_lp_Force_Field>
OPLS_2005

> <r_lp_Energy>
8.47239

> <b_lp_Chiralities_Consistent>
1

> <s_lp_Variant>
AV-unprocessed.smi:2181-1

> <Gold.Version>
5.8.1

> <Gold.Id.Protein>
6NUR|6NUR_protein|mol2

> <Gold.PLP.Fitness>
36.0018

> <Gold.PLP.PLP>
-29.8058

> <Gold.PLP.part.hbond>
-4.4342

> <Gold.PLP.part.metal>
0.0000

> <Gold.PLP.part.buried>
-4.7050

> <Gold.PLP.part.nonpolar>
-20.7561

> <Gold.PLP.part.repulsive>
0.5011

> <Gold.PLP.ligand.clash>
0.0000

> <Gold.PLP.ligand.torsion>
0.5264

> <Gold.PLP.Chemscore.Hbond>
2.3988

> <Gold.PLP.Chemscore.CHOScore>
0.0000

> <Gold.PLP.Chemscore.Metal>
0.0000

> <Gold.Chemscore.Hbonds>
donor molecule, donor type, donor heavy atom, donor atom, acceptor molecule, acceptor atom, score
      L1  H    11    28       P1  8028  1.00
      L1  H    17    38       P1  7957  1.00
      P1  H  8011  8017       L1    19  0.38

> <Gold.PLP.Chemscore.Internal.Correction>
0.0523

> <Gold.Rescore>
     Score         DG    S(hbond)    S(metal)    S(lipo)     H(rot)  DE(clash)    DE(int)     intcor
     14.05     -15.70       2.57        0.00      46.79       1.49       0.06       1.60       ----

> <Gold.Chemscore.Fitness>
14.0504

> <Gold.Chemscore.DG>
-15.7045

> <Gold.Chemscore.ZeroCoef>
-5.4800

> <Gold.Chemscore.Hbond>
2.5679

> <Gold.Chemscore.Metal>
0.0000

> <Gold.Chemscore.Lipo>
46.7920

> <Gold.Chemscore.Internal_Hbond>
0.0000

> <Gold.Chemscore.DEClash>
0.0580

> <Gold.Chemscore.DEInternal>
1.5961

> <Gold.Chemscore.Rot>
1.4949

> <Gold.Chemscore.Internal.Correction>
   9.000000E+99

> <Gold.Chemscore.Hbonds>
donor molecule, donor type, donor heavy atom, donor atom, acceptor molecule, acceptor atom, score
      L1  H    11    28       P1  8028  0.88
      L1  H    17    38       P1  7957  1.00
      P1  H  8011  8017       L1    19  0.24

> <Gold.Chemscore.Hbond.Weighted>
-8.5767

> <Gold.Chemscore.Metal.Weighted>
-0.0000

> <Gold.Chemscore.Lipo.Weighted>
-5.4747

> <Gold.Chemscore.Internal_Hbond.Weighted>
0.0000

> <Gold.Chemscore.DEClash.Weighted>
0.0580

> <Gold.Chemscore.DEInternal.Weighted>
1.5961

> <Gold.Chemscore.Rot.Weighted>
3.8269

> <Gold.Chemscore.Internal.Correction.Weighted>
   9.000000E+99

> <Gold.Protein.RotatedTorsions>
[ 6907 6896 6895 6894 ] final   97.88 input  -60.11 | X-H torsion
[ 7974 7965 7964 7962 ] final   47.38 input  175.53 | X-H torsion
[ 8008 7997 7996 7995 ] final  133.21 input   59.86 | X-H torsion
[ 10167 10162 10161 10158 ] final  -17.52 input  -65.29 | X-H torsion
[ 10718 10713 10712 10709 ] final  -35.52 input   66.30 | X-H torsion
[ 10763 10752 10751 10750 ] final   46.98 input  -60.55 | X-H torsion
[ 11005 11000 10999 10996 ] final -131.06 input  -57.11 | X-H torsion

> <Gold.Protein.ActiveResidues>
 VAL166  LYS551  ARG553  GLY616  TRP617  ASP618  TYR619  PRO620  LYS621  CYS622 
 ASP623  PHE694  ASN695  SER759  ASP760  ASP761  ALA762  ILE779  LEU786  VAL792 
 PHE793  MET794  SER795  GLU796  ALA797  LYS798  CYS799  TRP800  GLU811  SER814 

> <Gold.Protein.RotatedAtoms>
  152.5417  134.0665  159.8174 H   0  0  0  0  0  0  0  0  0  0  0  0  # atno 6907 bound_to 6896
  151.0785  133.5401  159.2629 H   0  0  0  0  0  0  0  0  0  0  0  0  # atno 6908 bound_to 6896
  151.2237  135.0537  159.9014 H   0  0  0  0  0  0  0  0  0  0  0  0  # atno 6909 bound_to 6896
  146.0303  139.4756  142.9842 H   0  0  0  0  0  0  0  0  0  0  0  0  # atno 7974 bound_to 7965
  156.2990  140.2527  156.3215 H   0  0  0  0  0  0  0  0  0  0  0  0  # atno 8008 bound_to 7997
  154.9230  140.0400  157.2027 H   0  0  0  0  0  0  0  0  0  0  0  0  # atno 8009 bound_to 7997
  154.8292  140.2873  155.5738 H   0  0  0  0  0  0  0  0  0  0  0  0  # atno 8010 bound_to 7997
  140.7248  143.5008  150.9872 H   0  0  0  0  0  0  0  0  0  0  0  0  # atno 10167 bound_to 10162
  156.3377  130.4289  149.7815 H   0  0  0  0  0  0  0  0  0  0  0  0  # atno 10718 bound_to 10713
  152.9804  135.5991  154.3689 H   0  0  0  0  0  0  0  0  0  0  0  0  # atno 10763 bound_to 10752
  154.3364  135.2768  155.2447 H   0  0  0  0  0  0  0  0  0  0  0  0  # atno 10764 bound_to 10752
  154.4548  135.5980  153.6271 H   0  0  0  0  0  0  0  0  0  0  0  0  # atno 10765 bound_to 10752
  140.9292  134.1342  157.4249 H   0  0  0  0  0  0  0  0  0  0  0  0  # atno 11005 bound_to 11000
  145.7051  141.0124  143.1483 LP  0  0  0  0  0  0  0  0  0  0  0  0  # atno 17320 bound_to 7965
  144.7027  139.8690  143.7439 LP  0  0  0  0  0  0  0  0  0  0  0  0  # atno 17321 bound_to 7965
  139.8717  143.7184  152.3165 LP  0  0  0  0  0  0  0  0  0  0  0  0  # atno 17342 bound_to 10162
  139.7435  144.7553  151.0616 LP  0  0  0  0  0  0  0  0  0  0  0  0  # atno 17343 bound_to 10162
  156.5064  130.8152  151.3152 LP  0  0  0  0  0  0  0  0  0  0  0  0  # atno 17370 bound_to 10713
  157.7441  130.9928  150.2649 LP  0  0  0  0  0  0  0  0  0  0  0  0  # atno 17371 bound_to 10713
  139.8792  134.9999  156.5980 LP  0  0  0  0  0  0  0  0  0  0  0  0  # atno 17394 bound_to 11000
  140.7885  133.8601  155.8626 LP  0  0  0  0  0  0  0  0  0  0  0  0  # atno 17395 bound_to 11000

$$$$
