#       Name:                AV-unprocessed.smi:1436
#       Creating user name   scv26
#       Creation time:       Fri Mar 27 05:53:44 2020


#       File generated by GOLD software.
#

@<TRIPOS>MOLECULE
AV-unprocessed.smi:1436
    51    52     1
SMALL
NO_CHARGES


@<TRIPOS>ATOM
      1 ****        -1.1588   3.4142   1.4341 C.3            1 S1                 0.0000
      2 ****        -1.8106   2.2879   0.6844 C.2            1 S1                 0.0000
      3 ****        -2.3445   2.5137  -0.5039 N.2            1 S1                 0.0000
      4 ****        -2.8495   1.2843  -0.9376 O.3            1 S1                 0.0000
      5 ****        -2.5915   0.3537   0.0156 C.2            1 S1                 0.0000
      6 ****        -3.0365  -1.0404  -0.2702 C.3            1 S1                 0.0000
      7 ****        -1.9352   0.9230   1.0720 C.2            1 S1                 0.0000
      8 ****        -1.4368   0.2708   2.3360 C.3            1 S1                 0.0000
      9 ****         0.0079  -0.1685   2.1153 C.2            1 S1                 0.0000
     10 ****         0.9327   0.5808   2.4268 O.2            1 S1                 0.0000
     11 ****         0.1789  -1.3592   1.5194 N.am           1 S1                 0.0000
     12 ****         1.4449  -1.8932   1.0192 C.3            1 S1                 0.0000
     13 ****         1.6319  -3.3293   1.5267 C.3            1 S1                 0.0000
     14 ****         1.4863  -1.8204  -0.5245 C.3            1 S1                 0.0000
     15 ****         1.1361  -0.4782  -1.0589 N.4            1 S1                 1.0000
     16 ****         2.2087   0.5307  -0.8845 C.3            1 S1                 0.0000
     17 ****         1.7333   1.9015  -1.3929 C.3            1 S1                 0.0000
     18 ****         1.3563   1.7935  -2.7600 O.3            1 S1                 0.0000
     19 ****         0.2770   0.8858  -2.9449 C.3            1 S1                 0.0000
     20 ****         0.6887  -0.5189  -2.4710 C.3            1 S1                 0.0000
     21 ****        -0.0881   3.2401   1.5428 H              1 S1                 0.0000
     22 ****        -1.5817   3.5126   2.4340 H              1 S1                 0.0000
     23 ****        -1.2886   4.3698   0.9244 H              1 S1                 0.0000
     24 ****        -2.1783  -1.7032  -0.3816 H              1 S1                 0.0000
     25 ****        -3.6197  -1.0866  -1.1903 H              1 S1                 0.0000
     26 ****        -3.6571  -1.4217   0.5410 H              1 S1                 0.0000
     27 ****        -1.4783   0.9559   3.1836 H              1 S1                 0.0000
     28 ****        -2.0442  -0.5927   2.6111 H              1 S1                 0.0000
     29 ****        -0.6480  -1.9061   1.3260 H              1 S1                 0.0000
     30 ****         2.2759  -1.3083   1.4157 H              1 S1                 0.0000
     31 ****         2.5800  -3.7449   1.1842 H              1 S1                 0.0000
     32 ****         0.8346  -3.9850   1.1746 H              1 S1                 0.0000
     33 ****         1.6336  -3.3629   2.6169 H              1 S1                 0.0000
     34 ****         2.4627  -2.1282  -0.9013 H              1 S1                 0.0000
     35 ****         0.7680  -2.5437  -0.9142 H              1 S1                 0.0000
     36 ****         2.4899   0.6136   0.1645 H              1 S1                 0.0000
     37 ****         3.1003   0.2180  -1.4298 H              1 S1                 0.0000
     38 ****         0.8962   2.2697  -0.7975 H              1 S1                 0.0000
     39 ****         2.5349   2.6346  -1.3038 H              1 S1                 0.0000
     40 ****        -0.6022   1.2364  -2.4047 H              1 S1                 0.0000
     41 ****         0.0113   0.8630  -4.0019 H              1 S1                 0.0000
     42 ****         1.4931  -0.9058  -3.0987 H              1 S1                 0.0000
     43 ****        -0.1569  -1.2000  -2.5735 H              1 S1                 0.0000
     44 ****         0.3432  -0.1564  -0.5219 H              1 S1                 0.0000
     45 ****        -2.3799   3.3855  -0.9925 LP             1 S1                 0.0000
     46 ****        -2.4069   1.0211  -1.7948 LP             1 S1                 0.0000
     47 ****        -3.8366   1.3564  -1.0805 LP             1 S1                 0.0000
     48 ****         0.7375   1.4773   2.8244 LP             1 S1                 0.0000
     49 ****         1.8795   0.2933   2.2823 LP             1 S1                 0.0000
     50 ****         2.1427   1.4718  -3.2873 LP             1 S1                 0.0000
     51 ****         1.0797   2.6957  -3.0909 LP             1 S1                 0.0000
@<TRIPOS>BOND
    1    1    2 1     
    2    1   21 1     
    3    1   22 1     
    4    1   23 1     
    5    2    7 1     
    6    2    3 2     
    7    3    4 1     
    8    4    5 1     
    9    5    6 1     
   10    5    7 2     
   11    6   24 1     
   12    6   25 1     
   13    6   26 1     
   14    7    8 1     
   15    8    9 1     
   16    8   27 1     
   17    8   28 1     
   18    9   10 2     
   19    9   11 am    
   20   11   12 1     
   21   11   29 1     
   22   12   13 1     
   23   12   14 1     
   24   12   30 1     
   25   13   31 1     
   26   13   32 1     
   27   13   33 1     
   28   14   15 1     
   29   14   34 1     
   30   14   35 1     
   31   15   20 1     
   32   15   16 1     
   33   15   44 1     
   34   16   17 1     
   35   16   36 1     
   36   16   37 1     
   37   17   18 1     
   38   17   38 1     
   39   17   39 1     
   40   18   19 1     
   41   19   20 1     
   42   19   40 1     
   43   19   41 1     
   44   20   42 1     
   45   20   43 1     
   46    3   45 1     
   47    4   46 1     
   48    4   47 1     
   49   10   48 1     
   50   10   49 1     
   51   18   50 1     
   52   18   51 1     
@<TRIPOS>SUBSTRUCTURE
      1 S1             1
@<TRIPOS>SET
LONE_PAIRS      STATIC     ATOMS    <user>   **** ""
7 45 46 47 48 49 50 51
DONOR_HYDROGENS      STATIC     ATOMS    <user>   **** ""
2 29 44
ATOM$BLUE        STATIC     ATOMS    COLORGROUP SYSTEM
7 45 46 47 48 49 50 51
ATOM$RED        STATIC     ATOMS    COLORGROUP SYSTEM
2 29 44
