AV-unprocessed.smi:2706|AV-procd|sdf|10453|dock7
  -GOLD-   2272014493D 1   1.00000     0.00000
 Structure written by MMmdl.
 43 46  0  0  0  0  0  0  0  0  1 V2000
  151.9299  145.2750  160.5935 C   0  0  0  0  0  0  0  0  0  0  0  0
  151.7573  144.3562  159.4739 N   0  0  0  0  0  0  0  0  0  0  0  0
  150.9429  144.8761  158.3799 C   0  0  0  0  0  0  0  0  0  0  0  0
  152.3088  143.0737  159.4908 C   0  0  0  0  0  0  0  0  0  0  0  0
  153.0271  142.6377  160.5499 C   0  0  0  0  0  0  0  0  0  0  0  0
  153.5963  141.3059  160.5440 C   0  0  0  0  0  0  0  0  0  0  0  0
  153.4186  140.4752  159.4982 C   0  0  0  0  0  0  0  0  0  0  0  0
  152.6414  140.8886  158.3451 C   0  0  0  0  0  0  0  0  0  0  0  0
  152.4863  140.0794  157.3348 N   0  0  0  0  0  0  0  0  0  0  0  0
  151.6616  140.3631  156.2460 C   0  0  0  0  0  0  0  0  0  0  0  0
  151.7921  139.8102  155.1544 O   0  0  0  0  0  0  0  0  0  0  0  0
  150.6311  141.2001  156.4858 N   0  0  0  0  0  0  0  0  0  0  0  0
  149.6429  141.6067  155.5403 C   0  0  2  0  0  0  0  0  0  0  0  0
  148.1895  141.3949  155.9350 C   0  0  1  0  0  0  0  0  0  0  0  0
  146.9767  141.9919  155.2274 C   0  0  2  0  0  0  0  0  0  0  0  0
  145.9245  140.8747  155.0720 C   0  0  0  0  0  0  0  0  0  0  0  0
  146.5621  139.9620  153.9955 C   0  0  0  0  0  0  0  0  0  0  0  0
  147.8885  140.6869  153.6866 C   0  0  1  0  0  0  0  0  0  0  0  0
  147.4235  142.1415  153.7721 C   0  0  0  0  0  0  0  0  0  0  0  0
  148.8073  140.5133  154.8924 C   0  0  1  0  0  0  0  0  0  0  0  0
  152.1368  142.2016  158.4119 N   0  0  0  0  0  0  0  0  0  0  0  0
  151.2628  145.0014  161.4113 H   0  0  0  0  0  0  0  0  0  0  0  0
  151.7201  146.3074  160.3127 H   0  0  0  0  0  0  0  0  0  0  0  0
  152.9548  145.2440  160.9628 H   0  0  0  0  0  0  0  0  0  0  0  0
  151.5598  145.0434  157.4966 H   0  0  0  0  0  0  0  0  0  0  0  0
  150.4605  145.8195  158.6369 H   0  0  0  0  0  0  0  0  0  0  0  0
  150.1539  144.1693  158.1213 H   0  0  0  0  0  0  0  0  0  0  0  0
  153.1930  143.2595  161.4167 H   0  0  0  0  0  0  0  0  0  0  0  0
  154.1771  140.9748  161.3922 H   0  0  0  0  0  0  0  0  0  0  0  0
  153.8691  139.4945  159.5510 H   0  0  0  0  0  0  0  0  0  0  0  0
  150.5458  141.5791  157.4181 H   0  0  0  0  0  0  0  0  0  0  0  0
  149.8734  142.4886  154.9468 H   0  0  0  0  0  0  0  0  0  0  0  0
  147.9948  140.9549  156.9111 H   0  0  0  0  0  0  0  0  0  0  0  0
  146.6136  142.9022  155.7045 H   0  0  0  0  0  0  0  0  0  0  0  0
  145.7405  140.3474  156.0088 H   0  0  0  0  0  0  0  0  0  0  0  0
  144.9734  141.2781  154.7217 H   0  0  0  0  0  0  0  0  0  0  0  0
  146.7212  138.9443  154.3542 H   0  0  0  0  0  0  0  0  0  0  0  0
  145.9285  139.9102  153.1092 H   0  0  0  0  0  0  0  0  0  0  0  0
  148.3626  140.3988  152.7481 H   0  0  0  0  0  0  0  0  0  0  0  0
  146.6056  142.3776  153.0879 H   0  0  0  0  0  0  0  0  0  0  0  0
  148.2135  142.8756  153.6174 H   0  0  0  0  0  0  0  0  0  0  0  0
  149.0345  139.4847  155.1679 H   0  0  0  0  0  0  0  0  0  0  0  0
  151.6065  142.5762  157.6387 H   0  0  0  0  0  0  0  0  0  0  0  0
  1  2  1  0  0  0  0
  1 22  1  0  0  0  0
  1 23  1  0  0  0  0
  1 24  1  0  0  0  0
  2  3  1  0  0  0  0
  2  4  1  0  0  0  0
  3 25  1  0  0  0  0
  3 26  1  0  0  0  0
  3 27  1  0  0  0  0
  4 21  1  0  0  0  0
  4  5  2  0  0  0  0
  5  6  1  0  0  0  0
  5 28  1  0  0  0  0
  6  7  2  0  0  0  0
  6 29  1  0  0  0  0
  7  8  1  0  0  0  0
  7 30  1  0  0  0  0
  8  9  2  0  0  0  0
  8 21  1  0  0  0  0
  9 10  1  0  0  0  0
 10 11  2  0  0  0  0
 10 12  1  0  0  0  0
 12 13  1  0  0  0  0
 12 31  1  0  0  0  0
 13 20  1  0  0  0  0
 13 14  1  0  0  0  0
 13 32  1  0  0  0  0
 14 20  1  0  0  0  0
 14 15  1  0  0  0  0
 14 33  1  0  0  0  0
 15 19  1  0  0  0  0
 15 16  1  0  0  0  0
 15 34  1  0  0  0  0
 16 17  1  0  0  0  0
 16 35  1  0  0  0  0
 16 36  1  0  0  0  0
 17 18  1  0  0  0  0
 17 37  1  0  0  0  0
 17 38  1  0  0  0  0
 18 19  1  0  0  0  0
 18 20  1  0  0  0  0
 18 39  1  0  0  0  0
 19 40  1  0  0  0  0
 19 41  1  0  0  0  0
 20 42  1  0  0  0  0
 21 43  1  0  0  0  0
M  END
> <s_m_source_file>
AV-unprocessed.smi

> <i_m_source_file_index>
2706

> <i_lp_mmshare_version>
43012

> <i_f3d_flags>
0

> <s_epik_input>
W0NIM11OKFtDSDNdKWMxW2NIXVtjSF1bY0hdYyhuMSlbTkhdQyg9TylbTkhdW0NASF0yW0NAQEhdM1tDQEBIXShbQ0gyXTQpW0NIMl1bQ0gyXVtDQEBIXTRbQ0BIXTIz

> <s_epik_cmdline>
J2VwaWtfcHl0aG9uJywgJy1waCcsICc3LjAnLCAnLXRuJywgJzgnLCAnLW1hJywgJzIwMCcsICctbWV0YWxfYmluZGluZycsICctaW1hZScsICc8aW5maWxlLm1hZT4nLCAnLW9tYWUnLCAnPG91dGZpbGUubWFlPic=

> <r_lp_tautomer_probability>
0.999994

> <r_epik_Ionization_Penalty>
2.07242

> <r_epik_Ionization_Penalty_Charging>
2.07242

> <r_epik_Ionization_Penalty_Neutral>
9.73808e-07

> <r_epik_State_Penalty>
3.96009

> <r_epik_Charging_Adjusted_Penalty>
6.03251

> <i_epik_Tot_Q>
0

> <i_epik_Tot_abs_Q>
0

> <r_epik_Metal_State_Penalty>
3.98849

> <b_epik_Metal_Only>
1

> <s_lp_Force_Field>
OPLS_2005

> <r_lp_Energy>
89.4683

> <b_lp_Chiralities_Consistent>
1

> <s_lp_Variant>
AV-unprocessed.smi:2706-10

> <Gold.Version>
5.8.1

> <Gold.Id.Protein>
6NUR|6NUR_protein|mol2

> <Gold.PLP.Fitness>
49.9507

> <Gold.PLP.PLP>
-44.2242

> <Gold.PLP.part.hbond>
-2.0000

> <Gold.PLP.part.metal>
0.0000

> <Gold.PLP.part.buried>
-4.7705

> <Gold.PLP.part.nonpolar>
-38.0628

> <Gold.PLP.part.repulsive>
0.1658

> <Gold.PLP.ligand.clash>
0.0000

> <Gold.PLP.ligand.torsion>
0.1401

> <Gold.PLP.Chemscore.Hbond>
1.9920

> <Gold.PLP.Chemscore.CHOScore>
0.0000

> <Gold.PLP.Chemscore.Metal>
0.0000

> <Gold.Chemscore.Hbonds>
donor molecule, donor type, donor heavy atom, donor atom, acceptor molecule, acceptor atom, score
      P1  H  7989  7998       L1    11  0.99
      P1  H  7997  8010       L1     9  0.99

> <Gold.PLP.Chemscore.Internal.Correction>
0.0308

> <Gold.Rescore>
     Score         DG    S(hbond)    S(metal)    S(lipo)     H(rot)  DE(clash)    DE(int)     intcor
     15.74     -17.60       1.08        0.00      94.70       1.00       0.09       1.77       ----

> <Gold.Chemscore.Fitness>
15.7371

> <Gold.Chemscore.DG>
-17.5998

> <Gold.Chemscore.ZeroCoef>
-5.4800

> <Gold.Chemscore.Hbond>
1.0777

> <Gold.Chemscore.Metal>
0.0000

> <Gold.Chemscore.Lipo>
94.7041

> <Gold.Chemscore.Internal_Hbond>
0.0000

> <Gold.Chemscore.DEClash>
0.0895

> <Gold.Chemscore.DEInternal>
1.7732

> <Gold.Chemscore.Rot>
1.0000

> <Gold.Chemscore.Internal.Correction>
   9.000000E+99

> <Gold.Chemscore.Hbonds>
donor molecule, donor type, donor heavy atom, donor atom, acceptor molecule, acceptor atom, score
      P1  H  7989  7998       L1    11  0.90
      P1  H  7997  8010       L1     9  0.10

> <Gold.Chemscore.Hbond.Weighted>
-3.5995

> <Gold.Chemscore.Metal.Weighted>
-0.0000

> <Gold.Chemscore.Lipo.Weighted>
-11.0804

> <Gold.Chemscore.Internal_Hbond.Weighted>
0.0000

> <Gold.Chemscore.DEClash.Weighted>
0.0895

> <Gold.Chemscore.DEInternal.Weighted>
1.7732

> <Gold.Chemscore.Rot.Weighted>
2.5600

> <Gold.Chemscore.Internal.Correction.Weighted>
   9.000000E+99

> <Gold.Protein.RotatedTorsions>
[ 6907 6896 6895 6894 ] final    8.03 input  -60.11 | X-H torsion
[ 7974 7965 7964 7962 ] final -124.43 input  175.53 | X-H torsion
[ 8008 7997 7996 7995 ] final   68.87 input   59.86 | X-H torsion
[ 10167 10162 10161 10158 ] final   85.73 input  -65.29 | X-H torsion
[ 10718 10713 10712 10709 ] final  -10.22 input   66.30 | X-H torsion
[ 10763 10752 10751 10750 ] final  -66.37 input  -60.55 | X-H torsion
[ 11005 11000 10999 10996 ] final  100.21 input  -57.11 | X-H torsion

> <Gold.Protein.ActiveResidues>
 VAL166  LYS551  ARG553  GLY616  TRP617  ASP618  TYR619  PRO620  LYS621  CYS622 
 ASP623  PHE694  ASN695  SER759  ASP760  ASP761  ALA762  ILE779  LEU786  VAL792 
 PHE793  MET794  SER795  GLU796  ALA797  LYS798  CYS799  TRP800  GLU811  SER814 

> <Gold.Protein.RotatedAtoms>
  151.6994  135.0932  160.0247 H   0  0  0  0  0  0  0  0  0  0  0  0  # atno 6907 bound_to 6896
  152.3730  133.6439  159.6110 H   0  0  0  0  0  0  0  0  0  0  0  0  # atno 6908 bound_to 6896
  150.7687  133.9156  159.3424 H   0  0  0  0  0  0  0  0  0  0  0  0  # atno 6909 bound_to 6896
  145.0082  140.7882  143.4455 H   0  0  0  0  0  0  0  0  0  0  0  0  # atno 7974 bound_to 7965
  155.7149  140.3494  155.4990 H   0  0  0  0  0  0  0  0  0  0  0  0  # atno 8008 bound_to 7997
  155.9322  140.1086  157.1145 H   0  0  0  0  0  0  0  0  0  0  0  0  # atno 8009 bound_to 7997
  154.4087  140.1229  156.4804 H   0  0  0  0  0  0  0  0  0  0  0  0  # atno 8010 bound_to 7997
  139.8947  144.6365  150.8701 H   0  0  0  0  0  0  0  0  0  0  0  0  # atno 10167 bound_to 10162
  156.6767  130.5025  149.5983 H   0  0  0  0  0  0  0  0  0  0  0  0  # atno 10718 bound_to 10713
  154.3587  135.6120  153.5680 H   0  0  0  0  0  0  0  0  0  0  0  0  # atno 10763 bound_to 10752
  152.9794  135.5810  154.4658 H   0  0  0  0  0  0  0  0  0  0  0  0  # atno 10764 bound_to 10752
  154.4392  135.2849  155.1837 H   0  0  0  0  0  0  0  0  0  0  0  0  # atno 10765 bound_to 10752
  139.8771  134.9130  156.4721 H   0  0  0  0  0  0  0  0  0  0  0  0  # atno 11005 bound_to 11000
  145.2060  139.2228  143.5168 LP  0  0  0  0  0  0  0  0  0  0  0  0  # atno 17320 bound_to 7965
  146.3465  140.1888  142.8589 LP  0  0  0  0  0  0  0  0  0  0  0  0  # atno 17321 bound_to 7965
  140.7719  143.3482  151.2067 LP  0  0  0  0  0  0  0  0  0  0  0  0  # atno 17342 bound_to 10162
  139.7078  143.9426  152.2934 LP  0  0  0  0  0  0  0  0  0  0  0  0  # atno 17343 bound_to 10162
  156.1898  130.6552  151.1048 LP  0  0  0  0  0  0  0  0  0  0  0  0  # atno 17370 bound_to 10713
  157.7058  131.0757  150.6671 LP  0  0  0  0  0  0  0  0  0  0  0  0  # atno 17371 bound_to 10713
  140.8788  133.7933  155.9444 LP  0  0  0  0  0  0  0  0  0  0  0  0  # atno 17394 bound_to 11000
  140.8876  134.2535  157.5112 LP  0  0  0  0  0  0  0  0  0  0  0  0  # atno 17395 bound_to 11000

$$$$
