AV-unprocessed.smi:1543|AV-procd|sdf|6210|dock2
  -GOLD-   22720 6383D 1   1.00000     0.00000
 Structure written by MMmdl.
 49 50  0  0  0  0  0  0  0  0  2 V2000
  143.9419  132.3780  149.5816 C   0  0  0  0  0  0  0  0  0  0  0  0
  144.1709  132.4560  151.0951 C   0  0  2  0  0  0  0  0  0  0  0  0
  143.8428  133.8500  151.6622 C   0  0  0  0  0  0  0  0  0  0  0  0
  144.1382  133.9058  153.1217 N   0  3  2  0  0  0  0  0  0  0  0  0
  143.6852  135.1531  153.8378 C   0  0  0  0  0  0  0  0  0  0  0  0
  142.1378  135.1857  153.9101 C   0  0  0  0  0  0  0  0  0  0  0  0
  144.1817  135.1112  155.3053 C   0  0  0  0  0  0  0  0  0  0  0  0
  144.2035  136.4369  153.1216 C   0  0  0  0  0  0  0  0  0  0  0  0
  145.6411  136.6536  153.2807 N   0  0  0  0  0  0  0  0  0  0  0  0
  146.2085  137.5658  154.0831 C   0  0  0  0  0  0  0  0  0  0  0  0
  145.5650  138.3446  154.7859 O   0  0  0  0  0  0  0  0  0  0  0  0
  147.5492  137.5004  154.0204 N   0  0  0  0  0  0  0  0  0  0  0  0
  148.5066  138.3043  154.6963 C   0  0  0  0  0  0  0  0  0  0  0  0
  148.3415  138.8075  156.0097 C   0  0  0  0  0  0  0  0  0  0  0  0
  149.3579  139.6098  156.5628 C   0  0  0  0  0  0  0  0  0  0  0  0
  150.4972  139.8856  155.7823 C   0  0  0  0  0  0  0  0  0  0  0  0
  150.6617  139.4244  154.5247 N   0  0  0  0  0  0  0  0  0  0  0  0
  149.6826  138.6569  154.0005 C   0  0  0  0  0  0  0  0  0  0  0  0
  145.5532  133.4997  153.3565 C   0  0  0  0  0  0  0  0  0  0  0  0
  145.8298  132.1150  152.7416 C   0  0  2  0  0  0  0  0  0  0  0  0
  147.2931  131.6894  152.9074 C   0  0  0  0  0  0  0  0  0  0  0  0
  145.5373  132.1581  151.3512 O   0  0  0  0  0  0  0  0  0  0  0  0
  142.9013  132.5848  149.3302 H   0  0  0  0  0  0  0  0  0  0  0  0
  144.1831  131.3847  149.2023 H   0  0  0  0  0  0  0  0  0  0  0  0
  144.5648  133.0975  149.0497 H   0  0  0  0  0  0  0  0  0  0  0  0
  143.5422  131.7059  151.5780 H   0  0  0  0  0  0  0  0  0  0  0  0
  144.4236  134.6057  151.1327 H   0  0  0  0  0  0  0  0  0  0  0  0
  142.7926  134.0518  151.4607 H   0  0  0  0  0  0  0  0  0  0  0  0
  141.7817  135.9542  154.5969 H   0  0  0  0  0  0  0  0  0  0  0  0
  141.7351  134.2346  154.2602 H   0  0  0  0  0  0  0  0  0  0  0  0
  141.6823  135.4102  152.9458 H   0  0  0  0  0  0  0  0  0  0  0  0
  143.7043  135.8774  155.9170 H   0  0  0  0  0  0  0  0  0  0  0  0
  145.2542  135.2865  155.3857 H   0  0  0  0  0  0  0  0  0  0  0  0
  143.9616  134.1508  155.7730 H   0  0  0  0  0  0  0  0  0  0  0  0
  143.9519  136.4234  152.0609 H   0  0  0  0  0  0  0  0  0  0  0  0
  143.7168  137.3222  153.5293 H   0  0  0  0  0  0  0  0  0  0  0  0
  146.2506  136.0544  152.7434 H   0  0  0  0  0  0  0  0  0  0  0  0
  147.9329  136.7513  153.4627 H   0  0  0  0  0  0  0  0  0  0  0  0
  147.4574  138.6093  156.5951 H   0  0  0  0  0  0  0  0  0  0  0  0
  149.2636  140.0084  157.5620 H   0  0  0  0  0  0  0  0  0  0  0  0
  151.2945  140.4980  156.1766 H   0  0  0  0  0  0  0  0  0  0  0  0
  149.8468  138.3094  152.9909 H   0  0  0  0  0  0  0  0  0  0  0  0
  146.2323  134.2321  152.9195 H   0  0  0  0  0  0  0  0  0  0  0  0
  145.7810  133.4440  154.4191 H   0  0  0  0  0  0  0  0  0  0  0  0
  145.1960  131.3662  153.2207 H   0  0  0  0  0  0  0  0  0  0  0  0
  147.5682  131.6293  153.9607 H   0  0  0  0  0  0  0  0  0  0  0  0
  147.9687  132.3965  152.4252 H   0  0  0  0  0  0  0  0  0  0  0  0
  147.4661  130.7087  152.4636 H   0  0  0  0  0  0  0  0  0  0  0  0
  143.5830  133.1666  153.5288 H   0  0  0  0  0  0  0  0  0  0  0  0
  1  2  1  0  0  0  0
  1 23  1  0  0  0  0
  1 24  1  0  0  0  0
  1 25  1  0  0  0  0
  2 22  1  0  0  0  0
  2  3  1  0  0  0  0
  2 26  1  0  0  0  0
  3  4  1  0  0  0  0
  3 27  1  0  0  0  0
  3 28  1  0  0  0  0
  4  5  1  0  0  0  0
  4 19  1  0  0  0  0
  4 49  1  0  0  0  0
  5  6  1  0  0  0  0
  5  7  1  0  0  0  0
  5  8  1  0  0  0  0
  6 29  1  0  0  0  0
  6 30  1  0  0  0  0
  6 31  1  0  0  0  0
  7 32  1  0  0  0  0
  7 33  1  0  0  0  0
  7 34  1  0  0  0  0
  8  9  1  0  0  0  0
  8 35  1  0  0  0  0
  8 36  1  0  0  0  0
  9 10  1  0  0  0  0
  9 37  1  0  0  0  0
 10 11  2  0  0  0  0
 10 12  1  0  0  0  0
 12 13  1  0  0  0  0
 12 38  1  0  0  0  0
 13 18  1  0  0  0  0
 13 14  2  0  0  0  0
 14 15  1  0  0  0  0
 14 39  1  0  0  0  0
 15 16  2  0  0  0  0
 15 40  1  0  0  0  0
 16 17  1  0  0  0  0
 16 41  1  0  0  0  0
 17 18  2  0  0  0  0
 18 42  1  0  0  0  0
 19 20  1  0  0  0  0
 19 43  1  0  0  0  0
 19 44  1  0  0  0  0
 20 21  1  0  0  0  0
 20 22  1  0  0  0  0
 20 45  1  0  0  0  0
 21 46  1  0  0  0  0
 21 47  1  0  0  0  0
 21 48  1  0  0  0  0
M  CHG  1   4   1
M  END
> <s_m_source_file>
AV-unprocessed.smi

> <i_m_source_file_index>
1543

> <i_lp_mmshare_version>
43012

> <i_f3d_flags>
0

> <s_epik_input>
W0NIM11bQ0BASF0xW0NIMl1OKFtDSDJdW0NASF0oTzEpW0NIM10pQyhbQ0gzXSkoW0NIM10pW0NIMl1bTkhdQyg9TylbTkhdYzJbY0hdW2NIXVtjSF1uW2NIXTI=

> <s_epik_cmdline>
J2VwaWtfcHl0aG9uJywgJy1waCcsICc3LjAnLCAnLXRuJywgJzgnLCAnLW1hJywgJzIwMCcsICctbWV0YWxfYmluZGluZycsICctaW1hZScsICc8aW5maWxlLm1hZT4nLCAnLW9tYWUnLCAnPG91dGZpbGUubWFlPic=

> <r_epik_Ionization_Penalty>
0.60676

> <r_epik_Ionization_Penalty_Charging>
0.602531

> <r_epik_Ionization_Penalty_Neutral>
0.00422967

> <r_epik_State_Penalty>
0.607492

> <r_epik_Charging_Adjusted_Penalty>
1.21002

> <i_epik_Tot_Q>
1

> <i_epik_Tot_abs_Q>
1

> <r_epik_Metal_State_Penalty>
0.604589

> <b_epik_Metal_Only>
0

> <s_lp_Force_Field>
OPLS_2005

> <r_lp_Energy>
27.1707

> <b_lp_Chiralities_Consistent>
1

> <s_lp_Variant>
AV-unprocessed.smi:1543-6

> <Gold.Version>
5.8.1

> <Gold.Id.Protein>
6NUR|6NUR_protein|mol2

> <Gold.PLP.Fitness>
42.0457

> <Gold.PLP.PLP>
-26.3197

> <Gold.PLP.part.hbond>
-2.9480

> <Gold.PLP.part.metal>
0.0000

> <Gold.PLP.part.buried>
-5.0613

> <Gold.PLP.part.nonpolar>
-20.3588

> <Gold.PLP.part.repulsive>
0.2935

> <Gold.PLP.ligand.clash>
0.0000

> <Gold.PLP.ligand.torsion>
0.7272

> <Gold.PLP.Chemscore.Hbond>
3.8935

> <Gold.PLP.Chemscore.CHOScore>
1.7976

> <Gold.PLP.Chemscore.Metal>
0.0000

> <Gold.Chemscore.Hbonds>
donor molecule, donor type, donor heavy atom, donor atom, acceptor molecule, acceptor atom, score
      L1  H     4    49       P1 10957  1.72
      L1  H    12    38       P1  7948  0.94
      P1  H  7989  7998       L1    17  1.00
      L1  C    18    42       P1  7948  1.00
      L1  C    18    42       P1  7957  0.75

> <Gold.PLP.Chemscore.Internal.Correction>
0.1073

> <Gold.Rescore>
     Score         DG    S(hbond)    S(metal)    S(lipo)     H(rot)  DE(clash)    DE(int)     intcor
     17.41     -18.93       2.77        0.00      67.98       1.46       0.23       1.29       ----

> <Gold.Chemscore.Fitness>
17.4111

> <Gold.Chemscore.DG>
-18.9339

> <Gold.Chemscore.ZeroCoef>
-5.4800

> <Gold.Chemscore.Hbond>
2.7683

> <Gold.Chemscore.Metal>
0.0000

> <Gold.Chemscore.Lipo>
67.9802

> <Gold.Chemscore.Internal_Hbond>
0.0000

> <Gold.Chemscore.DEClash>
0.2292

> <Gold.Chemscore.DEInternal>
1.2936

> <Gold.Chemscore.Rot>
1.4632

> <Gold.Chemscore.Internal.Correction>
   9.000000E+99

> <Gold.Chemscore.Hbonds>
donor molecule, donor type, donor heavy atom, donor atom, acceptor molecule, acceptor atom, score
      L1  H     4    49       P1 10957  0.79
      L1  H    12    38       P1  7948  0.89
      P1  H  7989  7998       L1    17  0.57

> <Gold.Chemscore.Hbond.Weighted>
-9.2461

> <Gold.Chemscore.Metal.Weighted>
-0.0000

> <Gold.Chemscore.Lipo.Weighted>
-7.9537

> <Gold.Chemscore.Internal_Hbond.Weighted>
0.0000

> <Gold.Chemscore.DEClash.Weighted>
0.2292

> <Gold.Chemscore.DEInternal.Weighted>
1.2936

> <Gold.Chemscore.Rot.Weighted>
3.7459

> <Gold.Chemscore.Internal.Correction.Weighted>
   9.000000E+99

> <Gold.Protein.RotatedTorsions>
[ 6907 6896 6895 6894 ] final   30.09 input  -60.11 | X-H torsion
[ 7974 7965 7964 7962 ] final  -75.32 input  175.53 | X-H torsion
[ 8008 7997 7996 7995 ] final -177.58 input   59.86 | X-H torsion
[ 10167 10162 10161 10158 ] final  -30.09 input  -65.29 | X-H torsion
[ 10718 10713 10712 10709 ] final   87.85 input   66.30 | X-H torsion
[ 10763 10752 10751 10750 ] final  154.05 input  -60.55 | X-H torsion
[ 11005 11000 10999 10996 ] final -175.24 input  -57.11 | X-H torsion

> <Gold.Protein.ActiveResidues>
 VAL166  LYS551  ARG553  GLY616  TRP617  ASP618  TYR619  PRO620  LYS621  CYS622 
 ASP623  PHE694  ASN695  SER759  ASP760  ASP761  ALA762  ILE779  LEU786  VAL792 
 PHE793  MET794  SER795  GLU796  ALA797  LYS798  CYS799  TRP800  GLU811  SER814 

> <Gold.Protein.RotatedAtoms>
  152.0410  134.9711  160.0573 H   0  0  0  0  0  0  0  0  0  0  0  0  # atno 6907 bound_to 6896
  152.1150  133.4317  159.4657 H   0  0  0  0  0  0  0  0  0  0  0  0  # atno 6908 bound_to 6896
  150.6845  134.2521  159.4558 H   0  0  0  0  0  0  0  0  0  0  0  0  # atno 6909 bound_to 6896
  145.6275  140.9346  143.1105 H   0  0  0  0  0  0  0  0  0  0  0  0  # atno 7974 bound_to 7965
  156.0087  140.1236  157.0475 H   0  0  0  0  0  0  0  0  0  0  0  0  # atno 8008 bound_to 7997
  154.4268  140.1092  156.5868 H   0  0  0  0  0  0  0  0  0  0  0  0  # atno 8009 bound_to 7997
  155.6110  140.3471  155.4625 H   0  0  0  0  0  0  0  0  0  0  0  0  # atno 8010 bound_to 7997
  140.7253  143.3876  151.1487 H   0  0  0  0  0  0  0  0  0  0  0  0  # atno 10167 bound_to 10162
  157.6944  131.0271  150.3185 H   0  0  0  0  0  0  0  0  0  0  0  0  # atno 10718 bound_to 10713
  154.1460  135.2818  155.3148 H   0  0  0  0  0  0  0  0  0  0  0  0  # atno 10763 bound_to 10752
  154.6252  135.5454  153.7622 H   0  0  0  0  0  0  0  0  0  0  0  0  # atno 10764 bound_to 10752
  153.0235  135.6449  154.1606 H   0  0  0  0  0  0  0  0  0  0  0  0  # atno 10765 bound_to 10752
  140.4655  134.6215  157.4860 H   0  0  0  0  0  0  0  0  0  0  0  0  # atno 11005 bound_to 11000
  144.7206  139.8042  143.7383 LP  0  0  0  0  0  0  0  0  0  0  0  0  # atno 17320 bound_to 7965
  146.1383  139.4433  143.0125 LP  0  0  0  0  0  0  0  0  0  0  0  0  # atno 17321 bound_to 7965
  139.7476  143.8828  152.3068 LP  0  0  0  0  0  0  0  0  0  0  0  0  # atno 17342 bound_to 10162
  139.8670  144.7088  150.9032 LP  0  0  0  0  0  0  0  0  0  0  0  0  # atno 17343 bound_to 10162
  156.3676  130.3858  149.7201 LP  0  0  0  0  0  0  0  0  0  0  0  0  # atno 17370 bound_to 10713
  156.4626  130.7959  151.2979 LP  0  0  0  0  0  0  0  0  0  0  0  0  # atno 17371 bound_to 10713
  139.9918  134.6973  155.9676 LP  0  0  0  0  0  0  0  0  0  0  0  0  # atno 17394 bound_to 11000
  141.1601  133.6539  156.4292 LP  0  0  0  0  0  0  0  0  0  0  0  0  # atno 17395 bound_to 11000

$$$$
