AV-unprocessed.smi:3150|AV-procd|sdf|12012|dock8
  -GOLD-   2272017423D 1   1.00000     0.00000
 Structure written by MMmdl.
 32 33  0  0  0  0  0  0  0  0  2 V2000
  153.7505  137.9599  154.6516 C   0  0  0  0  0  0  0  0  0  0  0  0
  152.2171  137.9775  154.7092 C   0  0  1  0  0  0  0  0  0  0  0  0
  151.7964  136.8519  155.4765 O   0  0  0  0  0  0  0  0  0  0  0  0
  150.4124  136.8311  155.8036 C   0  0  0  0  0  0  0  0  0  0  0  0
  150.0593  135.4599  156.3376 C   0  0  0  0  0  0  0  0  0  0  0  0
  149.5072  134.3977  155.4142 C   0  0  0  0  0  0  0  0  0  0  0  0
  148.6150  135.0287  156.4526 C   0  0  0  0  0  0  0  0  0  0  0  0
  151.7125  139.2833  155.3465 C   0  0  0  0  0  0  0  0  0  0  0  0
  150.8157  139.9105  154.7756 O   0  0  0  0  0  0  0  0  0  0  0  0
  152.3814  139.5750  156.5324 N   0  0  0  0  0  0  0  0  0  0  0  0
  152.1894  140.6683  157.2192 C   0  0  0  0  0  0  0  0  0  0  0  0
  151.2862  141.6744  156.8339 N   0  0  0  0  0  0  0  0  0  0  0  0
  151.0907  142.8291  157.5616 C   0  0  0  0  0  0  0  0  0  0  0  0
  151.7574  143.0617  158.6934 C   0  0  0  0  0  0  0  0  0  0  0  0
  152.7065  142.0732  159.1621 C   0  0  0  0  0  0  0  0  0  0  0  0
  152.9473  140.8832  158.4653 C   0  0  0  0  0  0  0  0  0  0  0  0
  153.7788  140.0569  158.9076 O   0  5  0  0  0  0  0  0  0  0  0  0
  154.1339  138.7965  154.0662 H   0  0  0  0  0  0  0  0  0  0  0  0
  154.1093  137.0414  154.1864 H   0  0  0  0  0  0  0  0  0  0  0  0
  154.1889  138.0186  155.6485 H   0  0  0  0  0  0  0  0  0  0  0  0
  151.8331  137.8777  153.6916 H   0  0  0  0  0  0  0  0  0  0  0  0
  150.1635  137.5863  156.5505 H   0  0  0  0  0  0  0  0  0  0  0  0
  149.8115  137.0297  154.9152 H   0  0  0  0  0  0  0  0  0  0  0  0
  150.7287  135.1070  157.1198 H   0  0  0  0  0  0  0  0  0  0  0  0
  149.3356  134.6683  154.3740 H   0  0  0  0  0  0  0  0  0  0  0  0
  149.8272  133.3713  155.5821 H   0  0  0  0  0  0  0  0  0  0  0  0
  148.3393  134.4248  157.3147 H   0  0  0  0  0  0  0  0  0  0  0  0
  147.8514  135.7226  156.1064 H   0  0  0  0  0  0  0  0  0  0  0  0
  150.3673  143.5124  157.1423 H   0  0  0  0  0  0  0  0  0  0  0  0
  151.5928  143.9718  159.2511 H   0  0  0  0  0  0  0  0  0  0  0  0
  153.2404  142.2723  160.0803 H   0  0  0  0  0  0  0  0  0  0  0  0
  150.7401  141.5809  155.9903 H   0  0  0  0  0  0  0  0  0  0  0  0
  1  2  1  0  0  0  0
  1 18  1  0  0  0  0
  1 19  1  0  0  0  0
  1 20  1  0  0  0  0
  2  3  1  0  0  0  0
  2  8  1  0  0  0  0
  2 21  1  0  0  0  0
  3  4  1  0  0  0  0
  4  5  1  0  0  0  0
  4 22  1  0  0  0  0
  4 23  1  0  0  0  0
  5  7  1  0  0  0  0
  5  6  1  0  0  0  0
  5 24  1  0  0  0  0
  6  7  1  0  0  0  0
  6 25  1  0  0  0  0
  6 26  1  0  0  0  0
  7 27  1  0  0  0  0
  7 28  1  0  0  0  0
  8  9  2  0  0  0  0
  8 10  1  0  0  0  0
 10 11  2  0  0  0  0
 11 16  1  0  0  0  0
 11 12  1  0  0  0  0
 12 32  1  0  0  0  0
 12 13  1  0  0  0  0
 13 29  1  0  0  0  0
 13 14  2  0  0  0  0
 14 30  1  0  0  0  0
 14 15  1  0  0  0  0
 15 16  2  0  0  0  0
 15 31  1  0  0  0  0
 16 17  1  0  0  0  0
M  CHG  1  17  -1
M  END
> <s_m_source_file>
AV-unprocessed.smi

> <i_m_source_file_index>
3150

> <i_lp_mmshare_version>
43012

> <i_f3d_flags>
0

> <s_epik_input>
W0NIMl0xW0NIMl1bQ0hdMVtDSDJdT1tDQEBIXShbQ0gzXSlDKD1PKVtOSF1jMm5bY0hdW2NIXVtjSF1jMltPSF0=

> <s_epik_cmdline>
J2VwaWtfcHl0aG9uJywgJy1waCcsICc3LjAnLCAnLXRuJywgJzgnLCAnLW1hJywgJzIwMCcsICctbWV0YWxfYmluZGluZycsICctaW1hZScsICc8aW5maWxlLm1hZT4nLCAnLW9tYWUnLCAnPG91dGZpbGUubWFlPic=

> <r_epik_Ionization_Penalty>
0.784632

> <r_epik_Ionization_Penalty_Charging>
0.784632

> <r_epik_Ionization_Penalty_Neutral>
7.02258e-13

> <r_epik_State_Penalty>
1.43154

> <r_epik_Charging_Adjusted_Penalty>
2.21617

> <i_epik_Tot_Q>
-1

> <i_epik_Tot_abs_Q>
1

> <r_epik_Metal_State_Penalty>
1.39244

> <b_epik_Metal_Only>
0

> <s_lp_Force_Field>
OPLS_2005

> <r_lp_Energy>
45.381

> <b_lp_Chiralities_Consistent>
1

> <s_lp_Variant>
AV-unprocessed.smi:3150-6

> <Gold.Version>
5.8.1

> <Gold.Id.Protein>
6NUR|6NUR_protein|mol2

> <Gold.PLP.Fitness>
42.0154

> <Gold.PLP.PLP>
-28.0887

> <Gold.PLP.part.hbond>
-3.8962

> <Gold.PLP.part.metal>
0.0000

> <Gold.PLP.part.buried>
-3.1857

> <Gold.PLP.part.nonpolar>
-20.8927

> <Gold.PLP.part.repulsive>
0.2290

> <Gold.PLP.ligand.clash>
0.0000

> <Gold.PLP.ligand.torsion>
0.6082

> <Gold.PLP.Chemscore.Hbond>
3.8600

> <Gold.PLP.Chemscore.CHOScore>
1.0000

> <Gold.PLP.Chemscore.Metal>
0.0000

> <Gold.Chemscore.Hbonds>
donor molecule, donor type, donor heavy atom, donor atom, acceptor molecule, acceptor atom, score
      P1  H  7989  7998       L1     9  1.00
      P1  H  7997  8008       L1    17  1.20
      P1  H 10752 10765       L1     3  0.80
      L1  C    13    29       P1  8028  1.00

> <Gold.PLP.Chemscore.Internal.Correction>
0.5631

> <Gold.Rescore>
     Score         DG    S(hbond)    S(metal)    S(lipo)     H(rot)  DE(clash)    DE(int)     intcor
     14.28     -14.84       1.51        0.00      72.69       1.64       0.10       0.45       ----

> <Gold.Chemscore.Fitness>
14.2846

> <Gold.Chemscore.DG>
-14.8362

> <Gold.Chemscore.ZeroCoef>
-5.4800

> <Gold.Chemscore.Hbond>
1.5111

> <Gold.Chemscore.Metal>
0.0000

> <Gold.Chemscore.Lipo>
72.6864

> <Gold.Chemscore.Internal_Hbond>
0.0000

> <Gold.Chemscore.DEClash>
0.1002

> <Gold.Chemscore.DEInternal>
0.4514

> <Gold.Chemscore.Rot>
1.6387

> <Gold.Chemscore.Internal.Correction>
   9.000000E+99

> <Gold.Chemscore.Hbonds>
donor molecule, donor type, donor heavy atom, donor atom, acceptor molecule, acceptor atom, score
      P1  H  7989  7998       L1     9  0.55
      P1  H  7997  8008       L1    17  0.04
      P1  H 10752 10765       L1     3  0.12

> <Gold.Chemscore.Hbond.Weighted>
-5.0469

> <Gold.Chemscore.Metal.Weighted>
-0.0000

> <Gold.Chemscore.Lipo.Weighted>
-8.5043

> <Gold.Chemscore.Internal_Hbond.Weighted>
0.0000

> <Gold.Chemscore.DEClash.Weighted>
0.1002

> <Gold.Chemscore.DEInternal.Weighted>
0.4514

> <Gold.Chemscore.Rot.Weighted>
4.1950

> <Gold.Chemscore.Internal.Correction.Weighted>
   9.000000E+99

> <Gold.Protein.RotatedTorsions>
[ 6907 6896 6895 6894 ] final  112.74 input  -60.11 | X-H torsion
[ 7974 7965 7964 7962 ] final   70.19 input  175.53 | X-H torsion
[ 8008 7997 7996 7995 ] final -100.81 input   59.86 | X-H torsion
[ 10167 10162 10161 10158 ] final  167.21 input  -65.29 | X-H torsion
[ 10718 10713 10712 10709 ] final   59.47 input   66.30 | X-H torsion
[ 10763 10752 10751 10750 ] final -178.48 input  -60.55 | X-H torsion
[ 11005 11000 10999 10996 ] final -119.59 input  -57.11 | X-H torsion

> <Gold.Protein.ActiveResidues>
 VAL166  LYS551  ARG553  GLY616  TRP617  ASP618  TYR619  PRO620  LYS621  CYS622 
 ASP623  PHE694  ASN695  SER759  ASP760  ASP761  ALA762  ILE779  LEU786  VAL792 
 PHE793  MET794  SER795  GLU796  ALA797  LYS798  CYS799  TRP800  GLU811  SER814 

> <Gold.Protein.RotatedAtoms>
  152.4899  133.8473  159.7183 H   0  0  0  0  0  0  0  0  0  0  0  0  # atno 6907 bound_to 6896
  150.9020  133.7097  159.2883 H   0  0  0  0  0  0  0  0  0  0  0  0  # atno 6908 bound_to 6896
  151.4536  135.1036  159.9757 H   0  0  0  0  0  0  0  0  0  0  0  0  # atno 6909 bound_to 6896
  145.7812  139.2888  143.1265 H   0  0  0  0  0  0  0  0  0  0  0  0  # atno 7974 bound_to 7965
  154.8338  140.0438  157.1495 H   0  0  0  0  0  0  0  0  0  0  0  0  # atno 8008 bound_to 7997
  154.9122  140.3015  155.5240 H   0  0  0  0  0  0  0  0  0  0  0  0  # atno 8009 bound_to 7997
  156.2988  140.2356  156.4163 H   0  0  0  0  0  0  0  0  0  0  0  0  # atno 8010 bound_to 7997
  139.4940  144.3945  151.9479 H   0  0  0  0  0  0  0  0  0  0  0  0  # atno 10167 bound_to 10162
  157.5678  130.8884  149.9216 H   0  0  0  0  0  0  0  0  0  0  0  0  # atno 10718 bound_to 10713
  154.5471  135.2810  155.1042 H   0  0  0  0  0  0  0  0  0  0  0  0  # atno 10763 bound_to 10752
  154.2502  135.6341  153.5241 H   0  0  0  0  0  0  0  0  0  0  0  0  # atno 10764 bound_to 10752
  152.9993  135.5581  154.6027 H   0  0  0  0  0  0  0  0  0  0  0  0  # atno 10765 bound_to 10752
  141.0204  134.0132  157.3290 H   0  0  0  0  0  0  0  0  0  0  0  0  # atno 11005 bound_to 11000
  146.0072  140.8467  142.9989 LP  0  0  0  0  0  0  0  0  0  0  0  0  # atno 17320 bound_to 7965
  144.6796  140.2438  143.7340 LP  0  0  0  0  0  0  0  0  0  0  0  0  # atno 17321 bound_to 7965
  140.3383  144.3234  150.5972 LP  0  0  0  0  0  0  0  0  0  0  0  0  # atno 17342 bound_to 10162
  140.5587  143.2195  151.7803 LP  0  0  0  0  0  0  0  0  0  0  0  0  # atno 17343 bound_to 10162
  156.0725  130.3683  150.0746 LP  0  0  0  0  0  0  0  0  0  0  0  0  # atno 17370 bound_to 10713
  156.8903  130.9586  151.3589 LP  0  0  0  0  0  0  0  0  0  0  0  0  # atno 17371 bound_to 10713
  139.9143  135.0195  156.7817 LP  0  0  0  0  0  0  0  0  0  0  0  0  # atno 17394 bound_to 11000
  140.6582  133.9669  155.7791 LP  0  0  0  0  0  0  0  0  0  0  0  0  # atno 17395 bound_to 11000

$$$$
