AV-unprocessed.smi:3219|AV-procd|sdf|12295|dock2
  -GOLD-   2272018133D 1   1.00000     0.00000
 Structure written by MMmdl.
 41 42  0  0  0  0  0  0  0  0  2 V2000
  153.2342  141.7952  160.6151 C   0  0  0  0  0  0  0  0  0  0  0  0
  152.3523  142.0806  159.4421 C   0  0  0  0  0  0  0  0  0  0  0  0
  151.5801  143.1721  159.1441 C   0  0  0  0  0  0  0  0  0  0  0  0
  151.3823  144.4444  159.9268 C   0  0  0  0  0  0  0  0  0  0  0  0
  150.3069  145.3471  159.3038 C   0  0  0  0  0  0  0  0  0  0  0  0
  148.9735  144.7148  159.3520 N   0  3  0  0  0  0  0  0  0  0  0  0
  148.2546  144.9154  160.6253 C   0  0  0  0  0  0  0  0  0  0  0  0
  146.7817  144.4811  160.5162 C   0  0  2  0  0  0  0  0  0  0  0  0
  145.9103  145.5589  159.8282 C   0  0  0  0  0  0  0  0  0  0  0  0
  144.4228  145.2874  159.9668 C   0  0  0  0  0  0  0  0  0  0  0  0
  143.9096  144.4076  160.8425 C   0  0  0  0  0  0  0  0  0  0  0  0
  144.7595  143.5905  161.7970 C   0  0  0  0  0  0  0  0  0  0  0  0
  146.1999  144.1262  161.8984 C   0  0  0  0  0  0  0  0  0  0  0  0
  150.9872  142.8339  157.8951 C   0  0  0  0  0  0  0  0  0  0  0  0
  151.3601  141.6461  157.4545 N   0  0  0  0  0  0  0  0  0  0  0  0
  152.1956  141.1801  158.4050 N   0  0  0  0  0  0  0  0  0  0  0  0
  152.7968  139.8705  158.2429 C   0  0  0  0  0  0  0  0  0  0  0  0
  153.3156  142.6609  161.2717 H   0  0  0  0  0  0  0  0  0  0  0  0
  154.2404  141.5299  160.2899 H   0  0  0  0  0  0  0  0  0  0  0  0
  152.8391  140.9661  161.2023 H   0  0  0  0  0  0  0  0  0  0  0  0
  151.0904  144.2124  160.9515 H   0  0  0  0  0  0  0  0  0  0  0  0
  152.3159  145.0009  160.0138 H   0  0  0  0  0  0  0  0  0  0  0  0
  150.2748  146.3042  159.8263 H   0  0  0  0  0  0  0  0  0  0  0  0
  150.5625  145.5578  158.2646 H   0  0  0  0  0  0  0  0  0  0  0  0
  148.4112  145.0936  158.6034 H   0  0  0  0  0  0  0  0  0  0  0  0
  148.7566  144.3321  161.3986 H   0  0  0  0  0  0  0  0  0  0  0  0
  148.3201  145.9629  160.9230 H   0  0  0  0  0  0  0  0  0  0  0  0
  146.7430  143.5742  159.9100 H   0  0  0  0  0  0  0  0  0  0  0  0
  146.1080  146.5427  160.2555 H   0  0  0  0  0  0  0  0  0  0  0  0
  146.1558  145.6186  158.7673 H   0  0  0  0  0  0  0  0  0  0  0  0
  143.7625  145.8524  159.3251 H   0  0  0  0  0  0  0  0  0  0  0  0
  142.8417  144.2494  160.8831 H   0  0  0  0  0  0  0  0  0  0  0  0
  144.2939  143.5900  162.7829 H   0  0  0  0  0  0  0  0  0  0  0  0
  144.7635  142.5577  161.4473 H   0  0  0  0  0  0  0  0  0  0  0  0
  146.8259  143.3874  162.4004 H   0  0  0  0  0  0  0  0  0  0  0  0
  146.2100  145.0153  162.5305 H   0  0  0  0  0  0  0  0  0  0  0  0
  150.3021  143.4169  157.2972 H   0  0  0  0  0  0  0  0  0  0  0  0
  152.5473  139.2442  159.0997 H   0  0  0  0  0  0  0  0  0  0  0  0
  153.8803  139.9700  158.1766 H   0  0  0  0  0  0  0  0  0  0  0  0
  152.4310  139.3868  157.3360 H   0  0  0  0  0  0  0  0  0  0  0  0
  149.0865  143.7227  159.2002 H   0  0  0  0  0  0  0  0  0  0  0  0
  1  2  1  0  0  0  0
  1 18  1  0  0  0  0
  1 19  1  0  0  0  0
  1 20  1  0  0  0  0
  2 16  1  0  0  0  0
  2  3  2  0  0  0  0
  3  4  1  0  0  0  0
  3 14  1  0  0  0  0
  4  5  1  0  0  0  0
  4 21  1  0  0  0  0
  4 22  1  0  0  0  0
  5  6  1  0  0  0  0
  5 23  1  0  0  0  0
  5 24  1  0  0  0  0
  6  7  1  0  0  0  0
  6 25  1  0  0  0  0
  6 41  1  0  0  0  0
  7  8  1  0  0  0  0
  7 26  1  0  0  0  0
  7 27  1  0  0  0  0
  8 13  1  0  0  0  0
  8  9  1  0  0  0  0
  8 28  1  0  0  0  0
  9 10  1  0  0  0  0
  9 29  1  0  0  0  0
  9 30  1  0  0  0  0
 10 11  2  0  0  0  0
 10 31  1  0  0  0  0
 11 12  1  0  0  0  0
 11 32  1  0  0  0  0
 12 13  1  0  0  0  0
 12 33  1  0  0  0  0
 12 34  1  0  0  0  0
 13 35  1  0  0  0  0
 13 36  1  0  0  0  0
 14 15  2  0  0  0  0
 14 37  1  0  0  0  0
 15 16  1  0  0  0  0
 16 17  1  0  0  0  0
 17 38  1  0  0  0  0
 17 39  1  0  0  0  0
 17 40  1  0  0  0  0
M  CHG  1   6   1
M  END
> <s_m_source_file>
AV-unprocessed.smi

> <i_m_source_file_index>
3219

> <i_lp_mmshare_version>
43012

> <i_f3d_flags>
0

> <s_epik_input>
W0NIM11uMW5bY0hdYyhjMVtDSDNdKVtDSDJdW0NIMl1bTkhdW0NIMl1bQ0BASF0yW0NIMl1bQ0hdPVtDSF1bQ0gyXVtDSDJdMg==

> <s_epik_cmdline>
J2VwaWtfcHl0aG9uJywgJy1waCcsICc3LjAnLCAnLXRuJywgJzgnLCAnLW1hJywgJzIwMCcsICctbWV0YWxfYmluZGluZycsICctaW1hZScsICc8aW5maWxlLm1hZT4nLCAnLW9tYWUnLCAnPG91dGZpbGUubWFlPic=

> <r_lp_tautomer_probability>
1

> <r_epik_Ionization_Penalty>
0.000661401

> <r_epik_Ionization_Penalty_Charging>
0.00057791

> <r_epik_Ionization_Penalty_Neutral>
8.34914e-05

> <r_epik_State_Penalty>
-0

> <r_epik_Charging_Adjusted_Penalty>
0.00057791

> <i_epik_Tot_Q>
1

> <i_epik_Tot_abs_Q>
1

> <r_epik_Metal_State_Penalty>
-0

> <b_epik_Metal_Only>
0

> <s_lp_Force_Field>
OPLS_2005

> <r_lp_Energy>
9.86252

> <b_lp_Chiralities_Consistent>
1

> <s_lp_Variant>
AV-unprocessed.smi:3219-1

> <Gold.Version>
5.8.1

> <Gold.Id.Protein>
6NUR|6NUR_protein|mol2

> <Gold.PLP.Fitness>
44.1937

> <Gold.PLP.PLP>
-36.2052

> <Gold.PLP.part.hbond>
-1.0000

> <Gold.PLP.part.metal>
0.0000

> <Gold.PLP.part.buried>
-4.6145

> <Gold.PLP.part.nonpolar>
-30.3390

> <Gold.PLP.part.repulsive>
0.2090

> <Gold.PLP.ligand.clash>
0.0000

> <Gold.PLP.ligand.torsion>
0.4361

> <Gold.PLP.Chemscore.Hbond>
2.0000

> <Gold.PLP.Chemscore.CHOScore>
0.9471

> <Gold.PLP.Chemscore.Metal>
0.0000

> <Gold.Chemscore.Hbonds>
donor molecule, donor type, donor heavy atom, donor atom, acceptor molecule, acceptor atom, score
      L1  H     6    25       P1  8029  2.00
      L1  C    14    37       P1  8028  1.00

> <Gold.PLP.Chemscore.Internal.Correction>
0.0194

> <Gold.Rescore>
     Score         DG    S(hbond)    S(metal)    S(lipo)     H(rot)  DE(clash)    DE(int)     intcor
     16.87     -17.20       1.00        0.00     103.60       1.46       0.00       0.33       ----

> <Gold.Chemscore.Fitness>
16.8656

> <Gold.Chemscore.DG>
-17.1969

> <Gold.Chemscore.ZeroCoef>
-5.4800

> <Gold.Chemscore.Hbond>
0.9978

> <Gold.Chemscore.Metal>
0.0000

> <Gold.Chemscore.Lipo>
103.5972

> <Gold.Chemscore.Internal_Hbond>
0.0000

> <Gold.Chemscore.DEClash>
0.0000

> <Gold.Chemscore.DEInternal>
0.3313

> <Gold.Chemscore.Rot>
1.4597

> <Gold.Chemscore.Internal.Correction>
   9.000000E+99

> <Gold.Chemscore.Hbonds>
donor molecule, donor type, donor heavy atom, donor atom, acceptor molecule, acceptor atom, score
      L1  H     6    25       P1  8029  0.99

> <Gold.Chemscore.Hbond.Weighted>
-3.3327

> <Gold.Chemscore.Metal.Weighted>
-0.0000

> <Gold.Chemscore.Lipo.Weighted>
-12.1209

> <Gold.Chemscore.Internal_Hbond.Weighted>
0.0000

> <Gold.Chemscore.DEClash.Weighted>
0.0000

> <Gold.Chemscore.DEInternal.Weighted>
0.3313

> <Gold.Chemscore.Rot.Weighted>
3.7368

> <Gold.Chemscore.Internal.Correction.Weighted>
   9.000000E+99

> <Gold.Protein.RotatedTorsions>
[ 6907 6896 6895 6894 ] final   16.55 input  -60.11 | X-H torsion
[ 7974 7965 7964 7962 ] final  -88.53 input  175.53 | X-H torsion
[ 8008 7997 7996 7995 ] final   14.83 input   59.86 | X-H torsion
[ 10167 10162 10161 10158 ] final  -70.38 input  -65.29 | X-H torsion
[ 10718 10713 10712 10709 ] final -138.07 input   66.30 | X-H torsion
[ 10763 10752 10751 10750 ] final  110.64 input  -60.55 | X-H torsion
[ 11005 11000 10999 10996 ] final   27.78 input  -57.11 | X-H torsion

> <Gold.Protein.ActiveResidues>
 VAL166  LYS551  ARG553  GLY616  TRP617  ASP618  TYR619  PRO620  LYS621  CYS622 
 ASP623  PHE694  ASN695  SER759  ASP760  ASP761  ALA762  ILE779  LEU786  VAL792 
 PHE793  MET794  SER795  GLU796  ALA797  LYS798  CYS799  TRP800  GLU811  SER814 

> <Gold.Protein.RotatedAtoms>
  151.8357  135.0607  160.0441 H   0  0  0  0  0  0  0  0  0  0  0  0  # atno 6907 bound_to 6896
  152.2847  133.5499  159.5528 H   0  0  0  0  0  0  0  0  0  0  0  0  # atno 6908 bound_to 6896
  150.7204  134.0431  159.3814 H   0  0  0  0  0  0  0  0  0  0  0  0  # atno 6909 bound_to 6896
  145.4520  140.9560  143.2017 H   0  0  0  0  0  0  0  0  0  0  0  0  # atno 7974 bound_to 7965
  154.8540  140.2934  155.5581 H   0  0  0  0  0  0  0  0  0  0  0  0  # atno 8008 bound_to 7997
  156.3017  140.2490  156.3435 H   0  0  0  0  0  0  0  0  0  0  0  0  # atno 8009 bound_to 7997
  154.8991  140.0392  157.1872 H   0  0  0  0  0  0  0  0  0  0  0  0  # atno 8010 bound_to 7997
  140.5357  143.2318  151.7181 H   0  0  0  0  0  0  0  0  0  0  0  0  # atno 10167 bound_to 10162
  156.2952  130.7398  151.1434 H   0  0  0  0  0  0  0  0  0  0  0  0  # atno 10718 bound_to 10713
  153.4519  135.3742  155.2288 H   0  0  0  0  0  0  0  0  0  0  0  0  # atno 10763 bound_to 10752
  154.8756  135.3887  154.4029 H   0  0  0  0  0  0  0  0  0  0  0  0  # atno 10764 bound_to 10752
  153.4589  135.7086  153.6126 H   0  0  0  0  0  0  0  0  0  0  0  0  # atno 10765 bound_to 10752
  140.3227  134.2526  155.7714 H   0  0  0  0  0  0  0  0  0  0  0  0  # atno 11005 bound_to 11000
  144.8056  139.6058  143.7052 LP  0  0  0  0  0  0  0  0  0  0  0  0  # atno 17320 bound_to 7965
  146.2499  139.6177  142.9434 LP  0  0  0  0  0  0  0  0  0  0  0  0  # atno 17321 bound_to 7965
  139.4970  144.4046  152.0145 LP  0  0  0  0  0  0  0  0  0  0  0  0  # atno 17342 bound_to 10162
  140.3152  144.3492  150.6023 LP  0  0  0  0  0  0  0  0  0  0  0  0  # atno 17343 bound_to 10162
  157.7353  131.0573  150.5475 LP  0  0  0  0  0  0  0  0  0  0  0  0  # atno 17370 bound_to 10713
  156.5596  130.4252  149.6069 LP  0  0  0  0  0  0  0  0  0  0  0  0  # atno 17371 bound_to 10713
  141.2083  133.7782  157.0069 LP  0  0  0  0  0  0  0  0  0  0  0  0  # atno 17394 bound_to 11000
  140.0928  134.9582  157.1803 LP  0  0  0  0  0  0  0  0  0  0  0  0  # atno 17395 bound_to 11000

$$$$
