AV-unprocessed.smi:2035|AV-procd|sdf|8271|dock6
  -GOLD-   2272010543D 1   1.00000     0.00000
 Structure written by MMmdl.
 35 36  0  0  0  0  0  0  0  0  2 V2000
  152.9643  140.3623  159.9147 O   0  0  0  0  0  0  0  0  0  0  0  0
  153.6581  141.2438  160.4215 C   0  0  0  0  0  0  0  0  0  0  0  0
  153.4090  142.5627  160.3491 N   0  0  0  0  0  0  0  0  0  0  0  0
  152.3264  143.2170  159.7018 C   0  0  0  0  0  0  0  0  0  0  0  0
  152.2529  144.6238  159.8044 C   0  0  0  0  0  0  0  0  0  0  0  0
  151.2009  145.3131  159.1673 C   0  0  0  0  0  0  0  0  0  0  0  0
  150.2807  144.6269  158.4560 N   0  3  0  0  0  0  0  0  0  0  0  0
  150.3194  143.2845  158.3149 C   0  0  0  0  0  0  0  0  0  0  0  0
  151.3475  142.5411  158.9299 C   0  0  0  0  0  0  0  0  0  0  0  0
  154.7587  140.9961  161.1461 N   0  0  0  0  0  0  0  0  0  0  0  0
  155.3059  139.6718  161.4415 C   0  0  2  0  0  0  0  0  0  0  0  0
  156.4837  139.7805  162.4444 C   0  0  0  0  0  0  0  0  0  0  0  0
  157.5152  138.6337  162.4072 C   0  0  0  0  0  0  0  0  0  0  0  0
  156.9332  137.2127  162.5492 C   0  0  0  0  0  0  0  0  0  0  0  0
  155.8310  136.8093  161.5407 C   0  0  0  0  0  0  0  0  0  0  0  0
  155.8573  137.5582  160.2848 N   0  0  0  0  0  0  0  0  0  0  0  0
  155.6024  138.8720  160.1582 C   0  0  0  0  0  0  0  0  0  0  0  0
  155.6242  139.4277  159.0607 O   0  0  0  0  0  0  0  0  0  0  0  0
  154.0198  143.1593  160.8878 H   0  0  0  0  0  0  0  0  0  0  0  0
  152.9898  145.1727  160.3730 H   0  0  0  0  0  0  0  0  0  0  0  0
  151.0696  146.3848  159.2045 H   0  0  0  0  0  0  0  0  0  0  0  0
  149.5353  142.8480  157.7134 H   0  0  0  0  0  0  0  0  0  0  0  0
  151.3727  141.4710  158.7895 H   0  0  0  0  0  0  0  0  0  0  0  0
  155.2701  141.7816  161.5219 H   0  0  0  0  0  0  0  0  0  0  0  0
  154.5058  139.1206  161.9373 H   0  0  0  0  0  0  0  0  0  0  0  0
  157.0248  140.7109  162.2661 H   0  0  0  0  0  0  0  0  0  0  0  0
  156.0800  139.8663  163.4540 H   0  0  0  0  0  0  0  0  0  0  0  0
  158.0923  138.6959  161.4837 H   0  0  0  0  0  0  0  0  0  0  0  0
  158.2420  138.7941  163.2040 H   0  0  0  0  0  0  0  0  0  0  0  0
  157.7606  136.5088  162.4527 H   0  0  0  0  0  0  0  0  0  0  0  0
  156.5520  137.0746  163.5614 H   0  0  0  0  0  0  0  0  0  0  0  0
  155.9210  135.7476  161.3099 H   0  0  0  0  0  0  0  0  0  0  0  0
  154.8477  136.9188  161.9993 H   0  0  0  0  0  0  0  0  0  0  0  0
  156.0674  137.0359  159.4463 H   0  0  0  0  0  0  0  0  0  0  0  0
  149.5276  145.1445  158.0017 H   0  0  0  0  0  0  0  0  0  0  0  0
  1  2  2  0  0  0  0
  2  3  1  0  0  0  0
  2 10  1  0  0  0  0
  3  4  1  0  0  0  0
  3 19  1  0  0  0  0
  4  9  1  0  0  0  0
  4  5  2  0  0  0  0
  5  6  1  0  0  0  0
  5 20  1  0  0  0  0
  6  7  2  0  0  0  0
  6 21  1  0  0  0  0
  7  8  1  0  0  0  0
  7 35  1  0  0  0  0
  8  9  2  0  0  0  0
  8 22  1  0  0  0  0
  9 23  1  0  0  0  0
 10 11  1  0  0  0  0
 10 24  1  0  0  0  0
 11 17  1  0  0  0  0
 11 12  1  0  0  0  0
 11 25  1  0  0  0  0
 12 13  1  0  0  0  0
 12 26  1  0  0  0  0
 12 27  1  0  0  0  0
 13 14  1  0  0  0  0
 13 28  1  0  0  0  0
 13 29  1  0  0  0  0
 14 15  1  0  0  0  0
 14 30  1  0  0  0  0
 14 31  1  0  0  0  0
 15 16  1  0  0  0  0
 15 32  1  0  0  0  0
 15 33  1  0  0  0  0
 16 17  1  0  0  0  0
 16 34  1  0  0  0  0
 17 18  2  0  0  0  0
M  CHG  1   7   1
M  END
> <s_m_source_file>
AV-unprocessed.smi

> <i_m_source_file_index>
2035

> <i_lp_mmshare_version>
43012

> <i_f3d_flags>
0

> <s_epik_input>
W2NIXTFbY0hdbltjSF1bY0hdYzFbTkhdQyg9TylbTkhdW0NAQEhdMltDSDJdW0NIMl1bQ0gyXVtDSDJdW05IXUMyPU8=

> <s_epik_cmdline>
J2VwaWtfcHl0aG9uJywgJy1waCcsICc3LjAnLCAnLXRuJywgJzgnLCAnLW1hJywgJzIwMCcsICctbWV0YWxfYmluZGluZycsICctaW1hZScsICc8aW5maWxlLm1hZT4nLCAnLW9tYWUnLCAnPG91dGZpbGUubWFlPic=

> <r_epik_Ionization_Penalty>
1.10339

> <r_epik_Ionization_Penalty_Charging>
1.10337

> <r_epik_Ionization_Penalty_Neutral>
1.85869e-05

> <r_epik_State_Penalty>
1.16071

> <r_epik_Charging_Adjusted_Penalty>
2.26408

> <i_epik_Tot_Q>
1

> <i_epik_Tot_abs_Q>
1

> <r_epik_Metal_State_Penalty>
1.24751

> <b_epik_Metal_Only>
0

> <s_lp_Force_Field>
OPLS_2005

> <r_lp_Energy>
25.3939

> <b_lp_Chiralities_Consistent>
1

> <s_lp_Variant>
AV-unprocessed.smi:2035-3

> <Gold.Version>
5.8.1

> <Gold.Id.Protein>
6NUR|6NUR_protein|mol2

> <Gold.PLP.Fitness>
36.2180

> <Gold.PLP.PLP>
-27.2281

> <Gold.PLP.part.hbond>
-3.6777

> <Gold.PLP.part.metal>
0.0000

> <Gold.PLP.part.buried>
-4.8778

> <Gold.PLP.part.nonpolar>
-20.0270

> <Gold.PLP.part.repulsive>
0.2165

> <Gold.PLP.ligand.clash>
0.0000

> <Gold.PLP.ligand.torsion>
0.0312

> <Gold.PLP.Chemscore.Hbond>
3.0000

> <Gold.PLP.Chemscore.CHOScore>
0.0000

> <Gold.PLP.Chemscore.Metal>
0.0000

> <Gold.Chemscore.Hbonds>
donor molecule, donor type, donor heavy atom, donor atom, acceptor molecule, acceptor atom, score
      L1  H     7    35       P1  8029  1.80
      P1  H  7997  8009       L1    18  1.00

> <Gold.PLP.Chemscore.Internal.Correction>
0.0523

> <Gold.Rescore>
     Score         DG    S(hbond)    S(metal)    S(lipo)     H(rot)  DE(clash)    DE(int)     intcor
     15.84     -17.24       1.91        0.00      67.78       1.00       0.01       1.39       ----

> <Gold.Chemscore.Fitness>
15.8386

> <Gold.Chemscore.DG>
-17.2407

> <Gold.Chemscore.ZeroCoef>
-5.4800

> <Gold.Chemscore.Hbond>
1.9134

> <Gold.Chemscore.Metal>
0.0000

> <Gold.Chemscore.Lipo>
67.7774

> <Gold.Chemscore.Internal_Hbond>
0.0000

> <Gold.Chemscore.DEClash>
0.0086

> <Gold.Chemscore.DEInternal>
1.3935

> <Gold.Chemscore.Rot>
1.0000

> <Gold.Chemscore.Internal.Correction>
   9.000000E+99

> <Gold.Chemscore.Hbonds>
donor molecule, donor type, donor heavy atom, donor atom, acceptor molecule, acceptor atom, score
      L1  H     7    35       P1  8029  0.18
      P1  H  7997  8009       L1    18  1.00

> <Gold.Chemscore.Hbond.Weighted>
-6.3908

> <Gold.Chemscore.Metal.Weighted>
-0.0000

> <Gold.Chemscore.Lipo.Weighted>
-7.9300

> <Gold.Chemscore.Internal_Hbond.Weighted>
0.0000

> <Gold.Chemscore.DEClash.Weighted>
0.0086

> <Gold.Chemscore.DEInternal.Weighted>
1.3935

> <Gold.Chemscore.Rot.Weighted>
2.5600

> <Gold.Chemscore.Internal.Correction.Weighted>
   9.000000E+99

> <Gold.Protein.RotatedTorsions>
[ 6907 6896 6895 6894 ] final  -97.58 input  -60.11 | X-H torsion
[ 7974 7965 7964 7962 ] final   86.66 input  175.53 | X-H torsion
[ 8008 7997 7996 7995 ] final   91.07 input   59.86 | X-H torsion
[ 10167 10162 10161 10158 ] final  172.20 input  -65.29 | X-H torsion
[ 10718 10713 10712 10709 ] final   58.47 input   66.30 | X-H torsion
[ 10763 10752 10751 10750 ] final    0.01 input  -60.55 | X-H torsion
[ 11005 11000 10999 10996 ] final  110.02 input  -57.11 | X-H torsion

> <Gold.Protein.ActiveResidues>
 VAL166  LYS551  ARG553  GLY616  TRP617  ASP618  TYR619  PRO620  LYS621  CYS622 
 ASP623  PHE694  ASN695  SER759  ASP760  ASP761  ALA762  ILE779  LEU786  VAL792 
 PHE793  MET794  SER795  GLU796  ALA797  LYS798  CYS799  TRP800  GLU811  SER814 

> <Gold.Protein.RotatedAtoms>
  150.7020  134.1327  159.4075 H   0  0  0  0  0  0  0  0  0  0  0  0  # atno 6907 bound_to 6896
  151.9312  135.0253  160.0538 H   0  0  0  0  0  0  0  0  0  0  0  0  # atno 6908 bound_to 6896
  152.2174  133.4922  159.5180 H   0  0  0  0  0  0  0  0  0  0  0  0  # atno 6909 bound_to 6896
  145.5693  139.2312  143.2415 H   0  0  0  0  0  0  0  0  0  0  0  0  # atno 7974 bound_to 7965
  156.0195  140.3342  155.7024 H   0  0  0  0  0  0  0  0  0  0  0  0  # atno 8008 bound_to 7997
  155.6043  140.0659  157.2742 H   0  0  0  0  0  0  0  0  0  0  0  0  # atno 8009 bound_to 7997
  154.4310  140.1805  156.1194 H   0  0  0  0  0  0  0  0  0  0  0  0  # atno 8010 bound_to 7997
  139.5069  144.3401  152.0026 H   0  0  0  0  0  0  0  0  0  0  0  0  # atno 10167 bound_to 10162
  157.5599  130.8827  149.9094 H   0  0  0  0  0  0  0  0  0  0  0  0  # atno 10718 bound_to 10713
  153.3261  135.6972  153.6988 H   0  0  0  0  0  0  0  0  0  0  0  0  # atno 10763 bound_to 10752
  153.5809  135.3498  155.2875 H   0  0  0  0  0  0  0  0  0  0  0  0  # atno 10764 bound_to 10752
  154.8608  135.4295  154.2438 H   0  0  0  0  0  0  0  0  0  0  0  0  # atno 10765 bound_to 10752
  139.8873  134.9473  156.6214 H   0  0  0  0  0  0  0  0  0  0  0  0  # atno 11005 bound_to 11000
  146.1796  140.6518  142.9195 LP  0  0  0  0  0  0  0  0  0  0  0  0  # atno 17320 bound_to 7965
  144.7445  140.5032  143.6845 LP  0  0  0  0  0  0  0  0  0  0  0  0  # atno 17321 bound_to 7965
  140.2839  144.3829  150.6110 LP  0  0  0  0  0  0  0  0  0  0  0  0  # atno 17342 bound_to 10162
  140.5997  143.2167  151.7095 LP  0  0  0  0  0  0  0  0  0  0  0  0  # atno 17343 bound_to 10162
  156.0653  130.3693  150.0893 LP  0  0  0  0  0  0  0  0  0  0  0  0  # atno 17370 bound_to 10713
  156.9058  130.9635  151.3570 LP  0  0  0  0  0  0  0  0  0  0  0  0  # atno 17371 bound_to 10713
  140.7736  133.8718  155.8511 LP  0  0  0  0  0  0  0  0  0  0  0  0  # atno 17394 bound_to 11000
  140.9821  134.1392  157.4485 LP  0  0  0  0  0  0  0  0  0  0  0  0  # atno 17395 bound_to 11000

$$$$
