#       Name:                AV-unprocessed.smi:1599
#       Creating user name   scv26
#       Creation time:       Fri Mar 27 07:06:42 2020


#       File generated by GOLD software.
#

@<TRIPOS>MOLECULE
AV-unprocessed.smi:1599
    46    47     1
SMALL
NO_CHARGES


@<TRIPOS>ATOM
      1 ****        -3.0486  -2.1324  -2.0529 C.3            1 S1                 0.0000
      2 ****        -2.3885  -1.3363  -0.9177 C.3            1 S1                 0.0000
      3 ****        -0.9439  -1.3096  -1.1429 N.am           1 S1                 0.0000
      4 ****        -0.1484  -0.2374  -1.0171 C.2            1 S1                 0.0000
      5 ****        -0.5508   0.8782  -0.6867 O.2            1 S1                 0.0000
      6 ****         1.1300  -0.5458  -1.2899 N.am           1 S1                 0.0000
      7 ****         2.2524   0.3189  -1.2400 C.2            1 S1                 0.0000
      8 ****         3.5901  -0.0722  -1.5072 C.2            1 S1                 0.0000
      9 ****         4.4227   0.9497  -1.3786 N.2            1 S1                 0.0000
     10 ****         3.6394   2.0017  -1.0307 N.pl3          1 S1                 0.0000
     11 ****         4.2411   3.3037  -0.8008 C.3            1 S1                 0.0000
     12 ****         4.6187   3.4961   0.6699 C.2            1 S1                 0.0000
     13 ****         3.6223   3.6922   1.5383 N.am           1 S1                 0.0000
     14 ****         5.7973   3.4770   1.0178 O.2            1 S1                 0.0000
     15 ****         2.3066   1.6504  -0.9395 C.2            1 S1                 0.0000
     16 ****        -2.7107  -1.9383   0.4662 C.3            1 S1                 0.0000
     17 ****        -2.1014  -1.1962   1.6577 C.3            1 S1                 0.0000
     18 ****        -3.0167  -1.6237   2.7814 C.3            1 S1                 0.0000
     19 ****        -4.3754  -1.6335   2.0879 C.3            1 S1                 0.0000
     20 ****        -4.1148  -1.9063   0.7129 O.3            1 S1                 0.0000
     21 ****        -4.1333  -2.1501  -1.9437 H              1 S1                 0.0000
     22 ****        -2.7000  -3.1656  -2.0696 H              1 S1                 0.0000
     23 ****        -2.8260  -1.6895  -3.0243 H              1 S1                 0.0000
     24 ****        -2.7874  -0.3210  -0.9547 H              1 S1                 0.0000
     25 ****        -0.5170  -2.1827  -1.4162 H              1 S1                 0.0000
     26 ****         1.3224  -1.5022  -1.5487 H              1 S1                 0.0000
     27 ****         3.9776  -1.0420  -1.7824 H              1 S1                 0.0000
     28 ****         5.1252   3.4093  -1.4316 H              1 S1                 0.0000
     29 ****         3.5365   4.0777  -1.1075 H              1 S1                 0.0000
     30 ****         3.8241   3.8289   2.5181 H              1 S1                 0.0000
     31 ****         2.6680   3.7079   1.2084 H              1 S1                 0.0000
     32 ****         1.5434   2.3662  -0.6726 H              1 S1                 0.0000
     33 ****        -2.3939  -2.9822   0.5025 H              1 S1                 0.0000
     34 ****        -1.0572  -1.4550   1.8351 H              1 S1                 0.0000
     35 ****        -2.1679  -0.1166   1.5147 H              1 S1                 0.0000
     36 ****        -2.7562  -2.6295   3.1134 H              1 S1                 0.0000
     37 ****        -2.9817  -0.9575   3.6438 H              1 S1                 0.0000
     38 ****        -5.0541  -2.3699   2.5186 H              1 S1                 0.0000
     39 ****        -4.8485  -0.6536   2.1604 H              1 S1                 0.0000
     40 ****        -1.5215   1.0230  -0.4948 LP             1 S1                 0.0000
     41 ****         0.0930   1.6396  -0.6102 LP             1 S1                 0.0000
     42 ****         5.4141   0.9467  -1.5095 LP             1 S1                 0.0000
     43 ****         6.5170   3.3351   0.3382 LP             1 S1                 0.0000
     44 ****         6.0366   3.6034   1.9805 LP             1 S1                 0.0000
     45 ****        -4.5112  -2.7923   0.4726 LP             1 S1                 0.0000
     46 ****        -4.5312  -1.1914   0.1511 LP             1 S1                 0.0000
@<TRIPOS>BOND
    1    1    2 1     
    2    1   21 1     
    3    1   22 1     
    4    1   23 1     
    5    2    3 1     
    6    2   16 1     
    7    2   24 1     
    8    3    4 am    
    9    3   25 1     
   10    4    5 2     
   11    4    6 am    
   12    6    7 1     
   13    6   26 1     
   14    7   15 2     
   15    7    8 1     
   16    8    9 2     
   17    8   27 1     
   18    9   10 1     
   19   10   11 1     
   20   10   15 1     
   21   11   12 1     
   22   11   28 1     
   23   11   29 1     
   24   12   13 am    
   25   12   14 2     
   26   13   30 1     
   27   13   31 1     
   28   15   32 1     
   29   16   20 1     
   30   16   17 1     
   31   16   33 1     
   32   17   18 1     
   33   17   34 1     
   34   17   35 1     
   35   18   19 1     
   36   18   36 1     
   37   18   37 1     
   38   19   20 1     
   39   19   38 1     
   40   19   39 1     
   41    5   40 1     
   42    5   41 1     
   43    9   42 1     
   44   14   43 1     
   45   14   44 1     
   46   20   45 1     
   47   20   46 1     
@<TRIPOS>SUBSTRUCTURE
      1 S1             1
@<TRIPOS>SET
LONE_PAIRS      STATIC     ATOMS    <user>   **** ""
7 40 41 42 43 44 45 46
DONOR_HYDROGENS      STATIC     ATOMS    <user>   **** ""
4 25 26 30 31
ATOM$BLUE        STATIC     ATOMS    COLORGROUP SYSTEM
7 40 41 42 43 44 45 46
ATOM$RED        STATIC     ATOMS    COLORGROUP SYSTEM
4 25 26 30 31
