AV-unprocessed.smi:3163|AV-procd|sdf|12073|dock3
  -GOLD-   2272017503D 1   1.00000     0.00000
 Structure written by MMmdl.
 36 37  0  0  0  0  0  0  0  0  2 V2000
  143.8565  132.8794  150.8765 C   0  0  0  0  0  0  0  0  0  0  0  0
  143.5203  134.2981  151.1184 N   0  3  1  0  0  0  0  0  0  0  0  0
  143.0077  134.5762  152.4773 C   0  0  0  0  0  0  0  0  0  0  0  0
  143.4613  135.9980  152.7983 C   0  0  0  0  0  0  0  0  0  0  0  0
  144.8302  136.0712  152.1268 C   0  0  2  0  0  0  0  0  0  0  0  0
  145.3397  137.5093  151.9110 C   0  0  0  0  0  0  0  0  0  0  0  0
  146.7271  137.6758  152.3349 N   0  0  0  0  0  0  0  0  0  0  0  0
  147.1949  138.6750  153.0976 C   0  0  0  0  0  0  0  0  0  0  0  0
  146.4936  139.6043  153.4957 O   0  0  0  0  0  0  0  0  0  0  0  0
  148.5087  138.5234  153.3419 N   0  0  0  0  0  0  0  0  0  0  0  0
  149.3821  139.3331  154.1206 C   0  0  0  0  0  0  0  0  0  0  0  0
  150.6221  138.7743  154.4950 C   0  0  0  0  0  0  0  0  0  0  0  0
  151.5077  139.5426  155.2767 C   0  0  0  0  0  0  0  0  0  0  0  0
  151.2312  140.7948  155.6959 N   0  0  0  0  0  0  0  0  0  0  0  0
  150.0411  141.3259  155.3456 C   0  0  0  0  0  0  0  0  0  0  0  0
  149.0842  140.6440  154.5672 C   0  0  0  0  0  0  0  0  0  0  0  0
  144.6263  135.2457  150.8460 C   0  0  0  0  0  0  0  0  0  0  0  0
  144.6643  132.5495  151.5313 H   0  0  0  0  0  0  0  0  0  0  0  0
  144.1714  132.7333  149.8427 H   0  0  0  0  0  0  0  0  0  0  0  0
  142.9872  132.2461  151.0566 H   0  0  0  0  0  0  0  0  0  0  0  0
  141.9248  134.4591  152.5287 H   0  0  0  0  0  0  0  0  0  0  0  0
  143.4542  133.8844  153.1938 H   0  0  0  0  0  0  0  0  0  0  0  0
  142.7771  136.7185  152.3470 H   0  0  0  0  0  0  0  0  0  0  0  0
  143.5022  136.1959  153.8698 H   0  0  0  0  0  0  0  0  0  0  0  0
  145.5386  135.5391  152.7644 H   0  0  0  0  0  0  0  0  0  0  0  0
  145.2145  137.8114  150.8695 H   0  0  0  0  0  0  0  0  0  0  0  0
  144.7343  138.1989  152.5000 H   0  0  0  0  0  0  0  0  0  0  0  0
  147.3759  136.9566  152.0489 H   0  0  0  0  0  0  0  0  0  0  0  0
  148.9484  137.7308  152.8976 H   0  0  0  0  0  0  0  0  0  0  0  0
  150.8958  137.7746  154.1903 H   0  0  0  0  0  0  0  0  0  0  0  0
  152.4637  139.1381  155.5754 H   0  0  0  0  0  0  0  0  0  0  0  0
  149.8408  142.3256  155.7014 H   0  0  0  0  0  0  0  0  0  0  0  0
  148.1519  141.1380  154.3457 H   0  0  0  0  0  0  0  0  0  0  0  0
  145.5475  134.7459  150.5418 H   0  0  0  0  0  0  0  0  0  0  0  0
  144.3110  135.8832  150.0197 H   0  0  0  0  0  0  0  0  0  0  0  0
  142.7806  134.5417  150.4750 H   0  0  0  0  0  0  0  0  0  0  0  0
  1  2  1  0  0  0  0
  1 18  1  0  0  0  0
  1 19  1  0  0  0  0
  1 20  1  0  0  0  0
  2 17  1  0  0  0  0
  2  3  1  0  0  0  0
  2 36  1  0  0  0  0
  3  4  1  0  0  0  0
  3 21  1  0  0  0  0
  3 22  1  0  0  0  0
  4  5  1  0  0  0  0
  4 23  1  0  0  0  0
  4 24  1  0  0  0  0
  5  6  1  0  0  0  0
  5 17  1  0  0  0  0
  5 25  1  0  0  0  0
  6  7  1  0  0  0  0
  6 26  1  0  0  0  0
  6 27  1  0  0  0  0
  7  8  1  0  0  0  0
  7 28  1  0  0  0  0
  8  9  2  0  0  0  0
  8 10  1  0  0  0  0
 10 11  1  0  0  0  0
 10 29  1  0  0  0  0
 11 16  1  0  0  0  0
 11 12  2  0  0  0  0
 12 13  1  0  0  0  0
 12 30  1  0  0  0  0
 13 14  2  0  0  0  0
 13 31  1  0  0  0  0
 14 15  1  0  0  0  0
 15 16  2  0  0  0  0
 15 32  1  0  0  0  0
 16 33  1  0  0  0  0
 17 34  1  0  0  0  0
 17 35  1  0  0  0  0
M  CHG  1   2   1
M  END
> <s_m_source_file>
AV-unprocessed.smi

> <i_m_source_file_index>
3163

> <i_lp_mmshare_version>
43012

> <i_f3d_flags>
0

> <s_epik_input>
W0NIM11OMVtDSDJdW0NIMl1bQ0BIXShbQ0gyXTEpW0NIMl1bTkhdQyg9TylbTkhdYzJbY0hdW2NIXW5bY0hdW2NIXTI=

> <s_epik_cmdline>
J2VwaWtfcHl0aG9uJywgJy1waCcsICc3LjAnLCAnLXRuJywgJzgnLCAnLW1hJywgJzIwMCcsICctbWV0YWxfYmluZGluZycsICctaW1hZScsICc8aW5maWxlLm1hZT4nLCAnLW9tYWUnLCAnPG91dGZpbGUubWFlPic=

> <r_epik_Ionization_Penalty>
0.103936

> <r_epik_Ionization_Penalty_Charging>
0.0012301

> <r_epik_Ionization_Penalty_Neutral>
0.102706

> <r_epik_State_Penalty>
0.0926275

> <r_epik_Charging_Adjusted_Penalty>
0.0938576

> <i_epik_Tot_Q>
1

> <i_epik_Tot_abs_Q>
1

> <r_epik_Metal_State_Penalty>
0.0788376

> <b_epik_Metal_Only>
0

> <s_lp_Force_Field>
OPLS_2005

> <r_lp_Energy>
32.204

> <b_lp_Chiralities_Consistent>
1

> <s_lp_Variant>
AV-unprocessed.smi:3163-3

> <Gold.Version>
5.8.1

> <Gold.Id.Protein>
6NUR|6NUR_protein|mol2

> <Gold.PLP.Fitness>
46.2332

> <Gold.PLP.PLP>
-32.8311

> <Gold.PLP.part.hbond>
-5.0000

> <Gold.PLP.part.metal>
0.0000

> <Gold.PLP.part.buried>
-0.0071

> <Gold.PLP.part.nonpolar>
-28.7339

> <Gold.PLP.part.repulsive>
0.5785

> <Gold.PLP.ligand.clash>
0.0000

> <Gold.PLP.ligand.torsion>
0.7998

> <Gold.PLP.Chemscore.Hbond>
4.0000

> <Gold.PLP.Chemscore.CHOScore>
1.0000

> <Gold.PLP.Chemscore.Metal>
0.0000

> <Gold.Chemscore.Hbonds>
donor molecule, donor type, donor heavy atom, donor atom, acceptor molecule, acceptor atom, score
      L1  H     2    36       P1 10186  2.00
      L1  H     7    28       P1  7948  1.00
      L1  H    10    29       P1  7948  1.00
      L1  C    15    32       P1  8028  0.88

> <Gold.PLP.Chemscore.Internal.Correction>
0.0017

> <Gold.Rescore>
     Score         DG    S(hbond)    S(metal)    S(lipo)     H(rot)  DE(clash)    DE(int)     intcor
     16.65     -19.73       2.82        0.00      68.79       1.26       1.23       1.86       ----

> <Gold.Chemscore.Fitness>
16.6452

> <Gold.Chemscore.DG>
-19.7314

> <Gold.Chemscore.ZeroCoef>
-5.4800

> <Gold.Chemscore.Hbond>
2.8199

> <Gold.Chemscore.Metal>
0.0000

> <Gold.Chemscore.Lipo>
68.7867

> <Gold.Chemscore.Internal_Hbond>
0.0000

> <Gold.Chemscore.DEClash>
1.2269

> <Gold.Chemscore.DEInternal>
1.8593

> <Gold.Chemscore.Rot>
1.2559

> <Gold.Chemscore.Internal.Correction>
   9.000000E+99

> <Gold.Chemscore.Hbonds>
donor molecule, donor type, donor heavy atom, donor atom, acceptor molecule, acceptor atom, score
      L1  H     2    36       P1 10186  0.43
      L1  H     7    28       P1  7948  0.99
      L1  H    10    29       P1  7948  0.98

> <Gold.Chemscore.Hbond.Weighted>
-9.4184

> <Gold.Chemscore.Metal.Weighted>
-0.0000

> <Gold.Chemscore.Lipo.Weighted>
-8.0480

> <Gold.Chemscore.Internal_Hbond.Weighted>
0.0000

> <Gold.Chemscore.DEClash.Weighted>
1.2269

> <Gold.Chemscore.DEInternal.Weighted>
1.8593

> <Gold.Chemscore.Rot.Weighted>
3.2151

> <Gold.Chemscore.Internal.Correction.Weighted>
   9.000000E+99

> <Gold.Protein.RotatedTorsions>
[ 6907 6896 6895 6894 ] final  -96.88 input  -60.11 | X-H torsion
[ 7974 7965 7964 7962 ] final -140.68 input  175.53 | X-H torsion
[ 8008 7997 7996 7995 ] final  142.25 input   59.86 | X-H torsion
[ 10167 10162 10161 10158 ] final  163.60 input  -65.29 | X-H torsion
[ 10718 10713 10712 10709 ] final   11.40 input   66.30 | X-H torsion
[ 10763 10752 10751 10750 ] final   12.61 input  -60.55 | X-H torsion
[ 11005 11000 10999 10996 ] final  158.02 input  -57.11 | X-H torsion

> <Gold.Protein.ActiveResidues>
 VAL166  LYS551  ARG553  GLY616  TRP617  ASP618  TYR619  PRO620  LYS621  CYS622 
 ASP623  PHE694  ASN695  SER759  ASP760  ASP761  ALA762  ILE779  LEU786  VAL792 
 PHE793  MET794  SER795  GLU796  ALA797  LYS798  CYS799  TRP800  GLU811  SER814 

> <Gold.Protein.RotatedAtoms>
  150.7001  134.1434  159.4113 H   0  0  0  0  0  0  0  0  0  0  0  0  # atno 6907 bound_to 6896
  151.9418  135.0207  160.0545 H   0  0  0  0  0  0  0  0  0  0  0  0  # atno 6908 bound_to 6896
  152.2087  133.4859  159.5135 H   0  0  0  0  0  0  0  0  0  0  0  0  # atno 6909 bound_to 6896
  144.8578  140.6171  143.5348 H   0  0  0  0  0  0  0  0  0  0  0  0  # atno 7974 bound_to 7965
  156.2952  140.2293  156.4698 H   0  0  0  0  0  0  0  0  0  0  0  0  # atno 8008 bound_to 7997
  154.7946  140.0452  157.1247 H   0  0  0  0  0  0  0  0  0  0  0  0  # atno 8009 bound_to 7997
  154.9605  140.3054  155.5036 H   0  0  0  0  0  0  0  0  0  0  0  0  # atno 8010 bound_to 7997
  139.4876  144.4321  151.9058 H   0  0  0  0  0  0  0  0  0  0  0  0  # atno 10167 bound_to 10162
  156.9950  130.6057  149.5690 H   0  0  0  0  0  0  0  0  0  0  0  0  # atno 10718 bound_to 10713
  153.1805  135.6827  153.8485 H   0  0  0  0  0  0  0  0  0  0  0  0  # atno 10763 bound_to 10752
  153.7818  135.3181  155.3368 H   0  0  0  0  0  0  0  0  0  0  0  0  # atno 10764 bound_to 10752
  154.8056  135.4750  154.0479 H   0  0  0  0  0  0  0  0  0  0  0  0  # atno 10765 bound_to 10752
  140.1825  134.8466  157.2819 H   0  0  0  0  0  0  0  0  0  0  0  0  # atno 11005 bound_to 11000
  145.4372  139.1540  143.3990 LP  0  0  0  0  0  0  0  0  0  0  0  0  # atno 17320 bound_to 7965
  146.2837  140.4491  142.8766 LP  0  0  0  0  0  0  0  0  0  0  0  0  # atno 17321 bound_to 7965
  140.3769  144.2785  150.5913 LP  0  0  0  0  0  0  0  0  0  0  0  0  # atno 17342 bound_to 10162
  140.5269  143.2252  151.8301 LP  0  0  0  0  0  0  0  0  0  0  0  0  # atno 17343 bound_to 10162
  156.0193  130.5287  150.8227 LP  0  0  0  0  0  0  0  0  0  0  0  0  # atno 17370 bound_to 10713
  157.5431  131.0941  150.9799 LP  0  0  0  0  0  0  0  0  0  0  0  0  # atno 17371 bound_to 10713
  140.2251  134.3976  155.7547 LP  0  0  0  0  0  0  0  0  0  0  0  0  # atno 17394 bound_to 11000
  141.2223  133.7186  156.8553 LP  0  0  0  0  0  0  0  0  0  0  0  0  # atno 17395 bound_to 11000

$$$$
