AV-unprocessed.smi:21|AV-procd|sdf|129|dock5
  -GOLD-   2262015313D 1   1.00000     0.00000
 Structure written by MMmdl.
 62 65  0  0  0  0  0  0  0  0  2 V2000
  147.0740  136.8544  162.4389 C   0  0  0  0  0  0  0  0  0  0  0  0
  147.8997  137.2160  161.3438 O   0  0  0  0  0  0  0  0  0  0  0  0
  147.6083  136.4971  160.1548 C   0  0  1  0  0  0  0  0  0  0  0  0
  148.6350  136.8123  159.0755 C   0  0  0  0  0  0  0  0  0  0  0  0
  148.5301  135.6036  158.1429 C   0  0  1  0  0  0  0  0  0  0  0  0
  149.7969  135.3779  157.2886 C   0  0  0  0  0  0  0  0  0  0  0  0
  149.9614  136.3583  156.2162 N   0  0  0  0  0  0  0  0  0  0  0  0
  148.7667  136.7511  155.4817 C   0  0  0  0  0  0  0  0  0  0  0  0
  150.8216  137.3893  156.4010 C   0  0  0  0  0  0  0  0  0  0  0  0
  152.1456  137.1079  156.3074 N   0  0  0  0  0  0  0  0  0  0  0  0
  153.0535  138.0684  156.5036 C   0  0  0  0  0  0  0  0  0  0  0  0
  152.8567  139.3545  156.7992 N   0  0  0  0  0  0  0  0  0  0  0  0
  151.5271  139.6459  156.8800 C   0  0  0  0  0  0  0  0  0  0  0  0
  150.4494  138.7354  156.6896 C   0  0  0  0  0  0  0  0  0  0  0  0
  149.2390  139.4044  156.8405 N   0  0  0  0  0  0  0  0  0  0  0  0
  149.5814  140.6329  157.1156 C   0  0  0  0  0  0  0  0  0  0  0  0
  150.9367  140.8616  157.1724 N   0  0  0  0  0  0  0  0  0  0  0  0
  151.5978  142.1179  157.4739 C   0  0  0  0  0  0  0  0  0  0  0  0
  151.2715  142.6602  158.8873 C   0  0  2  0  0  0  0  0  0  0  0  0
  150.4915  144.0008  158.8588 C   0  0  0  0  0  0  0  0  0  0  0  0
  149.1266  143.8105  158.5437 O   0  0  0  0  0  0  0  0  0  0  0  0
  152.5650  142.7220  159.7397 C   0  0  1  0  0  0  0  0  0  0  0  0
  152.3733  143.0132  161.2249 C   0  0  0  0  0  0  0  0  0  0  0  0
  153.5741  142.3186  161.8509 C   0  0  0  0  0  0  0  0  0  0  0  0
  153.6719  141.1260  161.0915 O   0  0  0  0  0  0  0  0  0  0  0  0
  153.4277  141.4471  159.7267 C   0  0  0  0  0  0  0  0  0  0  0  0
  148.2615  134.4516  159.0345 N   0  3  2  0  0  0  0  0  0  0  0  0
  147.4146  133.4028  158.4250 C   0  0  0  0  0  0  0  0  0  0  0  0
  147.7369  134.9764  160.3179 C   0  0  0  0  0  0  0  0  0  0  0  0
  146.6159  136.7528  159.7781 H   0  0  0  0  0  0  0  0  0  0  0  0
  147.6506  135.7446  157.5127 H   0  0  0  0  0  0  0  0  0  0  0  0
  147.3406  137.4543  163.3089 H   0  0  0  0  0  0  0  0  0  0  0  0
  147.1987  135.8046  162.7067 H   0  0  0  0  0  0  0  0  0  0  0  0
  146.0218  137.0363  162.2165 H   0  0  0  0  0  0  0  0  0  0  0  0
  148.4389  137.7576  158.5682 H   0  0  0  0  0  0  0  0  0  0  0  0
  149.6326  136.8668  159.5144 H   0  0  0  0  0  0  0  0  0  0  0  0
  150.6736  135.4232  157.9359 H   0  0  0  0  0  0  0  0  0  0  0  0
  149.8010  134.3754  156.8619 H   0  0  0  0  0  0  0  0  0  0  0  0
  149.0217  137.0988  154.4802 H   0  0  0  0  0  0  0  0  0  0  0  0
  148.2404  137.5529  156.0011 H   0  0  0  0  0  0  0  0  0  0  0  0
  148.0818  135.9095  155.3753 H   0  0  0  0  0  0  0  0  0  0  0  0
  154.0855  137.7617  156.4158 H   0  0  0  0  0  0  0  0  0  0  0  0
  148.8512  141.4075  157.2989 H   0  0  0  0  0  0  0  0  0  0  0  0
  152.6716  141.9594  157.3678 H   0  0  0  0  0  0  0  0  0  0  0  0
  151.3175  142.8474  156.7133 H   0  0  0  0  0  0  0  0  0  0  0  0
  150.6337  141.9231  159.3785 H   0  0  0  0  0  0  0  0  0  0  0  0
  150.5266  144.4985  159.8272 H   0  0  0  0  0  0  0  0  0  0  0  0
  150.9297  144.6917  158.1384 H   0  0  0  0  0  0  0  0  0  0  0  0
  148.7969  144.6059  158.1541 H   0  0  0  0  0  0  0  0  0  0  0  0
  153.1942  143.5164  159.3340 H   0  0  0  0  0  0  0  0  0  0  0  0
  152.3393  144.0798  161.4486 H   0  0  0  0  0  0  0  0  0  0  0  0
  151.4597  142.5606  161.6088 H   0  0  0  0  0  0  0  0  0  0  0  0
  154.4814  142.9112  161.7257 H   0  0  0  0  0  0  0  0  0  0  0  0
  153.4374  142.1119  162.9126 H   0  0  0  0  0  0  0  0  0  0  0  0
  152.9554  140.6049  159.2216 H   0  0  0  0  0  0  0  0  0  0  0  0
  154.3775  141.6358  159.2248 H   0  0  0  0  0  0  0  0  0  0  0  0
  146.4227  133.7878  158.1841 H   0  0  0  0  0  0  0  0  0  0  0  0
  147.2991  132.5615  159.1090 H   0  0  0  0  0  0  0  0  0  0  0  0
  147.8677  133.0275  157.5072 H   0  0  0  0  0  0  0  0  0  0  0  0
  148.4649  134.7368  161.0938 H   0  0  0  0  0  0  0  0  0  0  0  0
  146.7879  134.5229  160.6080 H   0  0  0  0  0  0  0  0  0  0  0  0
  149.1555  134.0318  159.2466 H   0  0  0  0  0  0  0  0  0  0  0  0
  1  2  1  0  0  0  0
  1 32  1  0  0  0  0
  1 33  1  0  0  0  0
  1 34  1  0  0  0  0
  2  3  1  0  0  0  0
  3 30  1  0  0  0  0
  3 29  1  0  0  0  0
  3  4  1  0  0  0  0
  4  5  1  0  0  0  0
  4 35  1  0  0  0  0
  4 36  1  0  0  0  0
  5 31  1  0  0  0  0
  5  6  1  0  0  0  0
  5 27  1  0  0  0  0
  6  7  1  0  0  0  0
  6 37  1  0  0  0  0
  6 38  1  0  0  0  0
  7  8  1  0  0  0  0
  7  9  1  0  0  0  0
  8 39  1  0  0  0  0
  8 40  1  0  0  0  0
  8 41  1  0  0  0  0
  9 14  1  0  0  0  0
  9 10  2  0  0  0  0
 10 11  1  0  0  0  0
 11 12  2  0  0  0  0
 11 42  1  0  0  0  0
 12 13  1  0  0  0  0
 13 17  1  0  0  0  0
 13 14  2  0  0  0  0
 14 15  1  0  0  0  0
 15 16  2  0  0  0  0
 16 17  1  0  0  0  0
 16 43  1  0  0  0  0
 17 18  1  0  0  0  0
 18 19  1  0  0  0  0
 18 44  1  0  0  0  0
 18 45  1  0  0  0  0
 19 20  1  0  0  0  0
 19 22  1  0  0  0  0
 19 46  1  0  0  0  0
 20 21  1  0  0  0  0
 20 47  1  0  0  0  0
 20 48  1  0  0  0  0
 21 49  1  0  0  0  0
 22 26  1  0  0  0  0
 22 23  1  0  0  0  0
 22 50  1  0  0  0  0
 23 24  1  0  0  0  0
 23 51  1  0  0  0  0
 23 52  1  0  0  0  0
 24 25  1  0  0  0  0
 24 53  1  0  0  0  0
 24 54  1  0  0  0  0
 25 26  1  0  0  0  0
 26 55  1  0  0  0  0
 26 56  1  0  0  0  0
 27 28  1  0  0  0  0
 27 29  1  0  0  0  0
 27 62  1  0  0  0  0
 28 57  1  0  0  0  0
 28 58  1  0  0  0  0
 28 59  1  0  0  0  0
 29 60  1  0  0  0  0
 29 61  1  0  0  0  0
M  CHG  1  27   1
M  END
> <s_m_source_file>
AV-unprocessed.smi

> <i_m_source_file_index>
21

> <i_lp_mmshare_version>
43012

> <i_f3d_flags>
0

> <s_epik_input>
W0NIM11PW0NASF0xW0NIMl1bQ0BIXShOKFtDSDNdKVtDSDJdMSlbQ0gyXU4oW0NIM10pYyhuW2NIXW4yKWMoYzIzKW5bY0hdbjNbQ0gyXVtDQEhdKFtDSDJdW09IXSlbQ0BASF00W0NIMl1bQ0gyXU9bQ0gyXTQ=

> <s_epik_cmdline>
J2VwaWtfcHl0aG9uJywgJy1waCcsICc3LjAnLCAnLXRuJywgJzgnLCAnLW1hJywgJzIwMCcsICctbWV0YWxfYmluZGluZycsICctaW1hZScsICc8aW5maWxlLm1hZT4nLCAnLW9tYWUnLCAnPG91dGZpbGUubWFlPic=

> <r_lp_tautomer_probability>
1

> <r_epik_Ionization_Penalty>
0.0157465

> <r_epik_Ionization_Penalty_Charging>
0.015354

> <r_epik_Ionization_Penalty_Neutral>
0.000392529

> <r_epik_State_Penalty>
0.0120612

> <r_epik_Charging_Adjusted_Penalty>
0.0274152

> <i_epik_Tot_Q>
1

> <i_epik_Tot_abs_Q>
1

> <r_epik_Metal_State_Penalty>
0.0121253

> <b_epik_Metal_Only>
0

> <s_lp_Force_Field>
OPLS_2005

> <r_lp_Energy>
59.3761

> <b_lp_Chiralities_Consistent>
1

> <s_lp_Variant>
AV-unprocessed.smi:21-9

> <Gold.Version>
5.8.1

> <Gold.Id.Protein>
6NUR|6NUR_protein|mol2

> <Gold.PLP.Fitness>
52.0143

> <Gold.PLP.PLP>
-42.4312

> <Gold.PLP.part.hbond>
-5.4581

> <Gold.PLP.part.metal>
0.0000

> <Gold.PLP.part.buried>
-6.1959

> <Gold.PLP.part.nonpolar>
-29.9316

> <Gold.PLP.part.repulsive>
0.1251

> <Gold.PLP.ligand.clash>
0.0000

> <Gold.PLP.ligand.torsion>
1.9540

> <Gold.PLP.Chemscore.Hbond>
4.1809

> <Gold.PLP.Chemscore.CHOScore>
0.0000

> <Gold.PLP.Chemscore.Metal>
0.0000

> <Gold.Chemscore.Hbonds>
donor molecule, donor type, donor heavy atom, donor atom, acceptor molecule, acceptor atom, score
      L1  H    21    49       P1  8029  1.00
      P1  H  6931  6943       L1     2  1.00
      P1  H  6934  6947       L1     2  0.72
      P1  H  7997  8008       L1    12  1.00
      P1  H 10752 10764       L1    10  0.37

> <Gold.PLP.Chemscore.Internal.Correction>
0.9483

> <Gold.Rescore>
     Score         DG    S(hbond)    S(metal)    S(lipo)     H(rot)  DE(clash)    DE(int)     intcor
     14.12     -17.42       2.41        0.00     106.34       3.35       0.05       3.24       ----

> <Gold.Chemscore.Fitness>
14.1190

> <Gold.Chemscore.DG>
-17.4154

> <Gold.Chemscore.ZeroCoef>
-5.4800

> <Gold.Chemscore.Hbond>
2.4125

> <Gold.Chemscore.Metal>
0.0000

> <Gold.Chemscore.Lipo>
106.3352

> <Gold.Chemscore.Internal_Hbond>
0.0000

> <Gold.Chemscore.DEClash>
0.0529

> <Gold.Chemscore.DEInternal>
3.2434

> <Gold.Chemscore.Rot>
3.3452

> <Gold.Chemscore.Internal.Correction>
   9.000000E+99

> <Gold.Chemscore.Hbonds>
donor molecule, donor type, donor heavy atom, donor atom, acceptor molecule, acceptor atom, score
      L1  H    21    49       P1  8029  0.35
      P1  H  6931  6943       L1     2  0.58
      P1  H  6934  6947       L1     2  0.08
      P1  H  7997  8008       L1    12  0.50
      P1  H 10752 10764       L1    10  0.21

> <Gold.Chemscore.Hbond.Weighted>
-8.0578

> <Gold.Chemscore.Metal.Weighted>
-0.0000

> <Gold.Chemscore.Lipo.Weighted>
-12.4412

> <Gold.Chemscore.Internal_Hbond.Weighted>
0.0000

> <Gold.Chemscore.DEClash.Weighted>
0.0529

> <Gold.Chemscore.DEInternal.Weighted>
3.2434

> <Gold.Chemscore.Rot.Weighted>
8.5636

> <Gold.Chemscore.Internal.Correction.Weighted>
   9.000000E+99

> <Gold.Protein.RotatedTorsions>
[ 6907 6896 6895 6894 ] final -148.76 input  -60.11 | X-H torsion
[ 7974 7965 7964 7962 ] final  -81.25 input  175.53 | X-H torsion
[ 8008 7997 7996 7995 ] final  -55.45 input   59.86 | X-H torsion
[ 10167 10162 10161 10158 ] final   42.33 input  -65.29 | X-H torsion
[ 10718 10713 10712 10709 ] final  154.39 input   66.30 | X-H torsion
[ 10763 10752 10751 10750 ] final  -33.94 input  -60.55 | X-H torsion
[ 11005 11000 10999 10996 ] final  156.93 input  -57.11 | X-H torsion

> <Gold.Protein.ActiveResidues>
 VAL166  LYS551  ARG553  GLY616  TRP617  ASP618  TYR619  PRO620  LYS621  CYS622 
 ASP623  PHE694  ASN695  SER759  ASP760  ASP761  ALA762  ILE779  LEU786  VAL792 
 PHE793  MET794  SER795  GLU796  ALA797  LYS798  CYS799  TRP800  GLU811  SER814 

> <Gold.Protein.RotatedAtoms>
  151.1745  133.4763  159.2593 H   0  0  0  0  0  0  0  0  0  0  0  0  # atno 6907 bound_to 6896
  151.1322  135.0136  159.8597 H   0  0  0  0  0  0  0  0  0  0  0  0  # atno 6908 bound_to 6896
  152.5460  134.1647  159.8625 H   0  0  0  0  0  0  0  0  0  0  0  0  # atno 6909 bound_to 6896
  145.5491  140.9499  143.1509 H   0  0  0  0  0  0  0  0  0  0  0  0  # atno 7974 bound_to 7965
  154.4195  140.1152  156.5478 H   0  0  0  0  0  0  0  0  0  0  0  0  # atno 8008 bound_to 7997
  155.6441  140.3496  155.4706 H   0  0  0  0  0  0  0  0  0  0  0  0  # atno 8009 bound_to 7997
  155.9846  140.1167  157.0684 H   0  0  0  0  0  0  0  0  0  0  0  0  # atno 8010 bound_to 7997
  140.3554  144.2297  150.6142 H   0  0  0  0  0  0  0  0  0  0  0  0  # atno 10167 bound_to 10162
  157.2322  131.0741  151.1846 H   0  0  0  0  0  0  0  0  0  0  0  0  # atno 10718 bound_to 10713
  153.8385  135.6860  153.4806 H   0  0  0  0  0  0  0  0  0  0  0  0  # atno 10763 bound_to 10752
  153.1468  135.4634  154.9576 H   0  0  0  0  0  0  0  0  0  0  0  0  # atno 10764 bound_to 10752
  154.7855  135.3283  154.7841 H   0  0  0  0  0  0  0  0  0  0  0  0  # atno 10765 bound_to 10752
  140.1721  134.8536  157.2703 H   0  0  0  0  0  0  0  0  0  0  0  0  # atno 11005 bound_to 11000
  144.7538  139.7126  143.7262 LP  0  0  0  0  0  0  0  0  0  0  0  0  # atno 17320 bound_to 7965
  146.1929  139.5179  142.9793 LP  0  0  0  0  0  0  0  0  0  0  0  0  # atno 17321 bound_to 7965
  140.5178  143.2273  151.8435 LP  0  0  0  0  0  0  0  0  0  0  0  0  # atno 17342 bound_to 10162
  139.4821  144.4873  151.9231 LP  0  0  0  0  0  0  0  0  0  0  0  0  # atno 17343 bound_to 10162
  157.3466  130.7060  149.6414 LP  0  0  0  0  0  0  0  0  0  0  0  0  # atno 17370 bound_to 10713
  155.9675  130.4264  150.4699 LP  0  0  0  0  0  0  0  0  0  0  0  0  # atno 17371 bound_to 10713
  140.2365  134.3846  155.7499 LP  0  0  0  0  0  0  0  0  0  0  0  0  # atno 17394 bound_to 11000
  141.2218  133.7242  156.8723 LP  0  0  0  0  0  0  0  0  0  0  0  0  # atno 17395 bound_to 11000

$$$$
