#       Name:                AV-unprocessed.smi:15
#       Creating user name   scv26
#       Creation time:       Thu Mar 26 15:20:51 2020


#       File generated by GOLD software.
#

@<TRIPOS>MOLECULE
AV-unprocessed.smi:15
    63    66     1
SMALL
NO_CHARGES


@<TRIPOS>ATOM
      1 ****        -2.5691  -3.3164  -1.5854 C.3            1 S1                 0.0000
      2 ****        -2.9761  -1.9558  -0.9975 C.3            1 S1                 0.0000
      3 ****        -2.1591  -0.8442  -1.4848 N.3            1 S1                 0.0000
      4 ****        -2.6583   0.5033  -1.2228 C.3            1 S1                 0.0000
      5 ****        -3.7478   0.9229  -2.2216 C.3            1 S1                 0.0000
      6 ****        -3.2444   1.1160  -3.6526 C.3            1 S1                 0.0000
      7 ****        -4.1910   2.1554  -4.2353 C.3            1 S1                 0.0000
      8 ****        -4.9684   2.6771  -3.0241 C.3            1 S1                 0.0000
      9 ****        -4.2418   2.2117  -1.8962 O.3            1 S1                 0.0000
     10 ****        -0.8398  -0.9568  -1.2187 C.ar           1 S1                 0.0000
     11 ****        -0.0019  -1.1009  -2.2743 N.ar           1 S1                 0.0000
     12 ****         1.3143  -1.2118  -2.0692 C.ar           1 S1                 0.0000
     13 ****         1.9841  -1.1955  -0.9143 N.ar           1 S1                 0.0000
     14 ****         1.1413  -1.0427   0.1473 C.ar           1 S1                 0.0000
     15 ****        -0.2747  -0.9195   0.0863 C.ar           1 S1                 0.0000
     16 ****        -0.7962  -0.7810   1.3664 N.2            1 S1                 0.0000
     17 ****         0.2531  -0.8206   2.1414 C.2            1 S1                 0.0000
     18 ****         1.4593  -0.9637   1.4920 N.pl3          1 S1                 0.0000
     19 ****         2.7777  -1.0243   2.1054 C.3            1 S1                 0.0000
     20 ****         3.4565   0.3641   2.2425 C.3            1 S1                 0.0000
     21 ****         3.6466   0.8897   0.9397 O.3            1 S1                 0.0000
     22 ****         2.6273   1.3717   3.0366 C.3            1 S1                 0.0000
     23 ****         3.6826   2.2694   3.6639 C.3            1 S1                 0.0000
     24 ****         4.6920   1.3425   4.0210 O.3            1 S1                 0.0000
     25 ****         4.8328   0.3942   2.9668 C.3            1 S1                 0.0000
     26 ****         5.3250  -0.9251   3.5821 C.3            1 S1                 0.0000
     27 ****        -3.2436  -4.1002  -1.2407 H              1 S1                 0.0000
     28 ****        -1.5593  -3.6013  -1.2885 H              1 S1                 0.0000
     29 ****        -2.6084  -3.3003  -2.6749 H              1 S1                 0.0000
     30 ****        -4.0188  -1.7649  -1.2501 H              1 S1                 0.0000
     31 ****        -2.9313  -1.9955   0.0912 H              1 S1                 0.0000
     32 ****        -3.0621   0.5354  -0.2102 H              1 S1                 0.0000
     33 ****        -1.8448   1.2309  -1.2514 H              1 S1                 0.0000
     34 ****        -4.5848   0.2230  -2.2070 H              1 S1                 0.0000
     35 ****        -2.2282   1.5129  -3.6466 H              1 S1                 0.0000
     36 ****        -3.2344   0.1842  -4.2186 H              1 S1                 0.0000
     37 ****        -3.6295   2.9542  -4.7208 H              1 S1                 0.0000
     38 ****        -4.8660   1.7226  -4.9745 H              1 S1                 0.0000
     39 ****        -5.0577   3.7636  -3.0180 H              1 S1                 0.0000
     40 ****        -5.9733   2.2529  -3.0021 H              1 S1                 0.0000
     41 ****         1.9170  -1.3290  -2.9577 H              1 S1                 0.0000
     42 ****         0.1756  -0.7375   3.2157 H              1 S1                 0.0000
     43 ****         2.6608  -1.4897   3.0845 H              1 S1                 0.0000
     44 ****         3.3998  -1.6981   1.5147 H              1 S1                 0.0000
     45 ****         2.8116   0.9050   0.4972 H              1 S1                 0.0000
     46 ****         1.8988   1.9184   2.4360 H              1 S1                 0.0000
     47 ****         2.0846   0.8642   3.8351 H              1 S1                 0.0000
     48 ****         4.0742   2.9855   2.9398 H              1 S1                 0.0000
     49 ****         3.3118   2.8164   4.5308 H              1 S1                 0.0000
     50 ****         5.6072   0.7677   2.2938 H              1 S1                 0.0000
     51 ****         5.4599  -1.6936   2.8212 H              1 S1                 0.0000
     52 ****         4.6295  -1.3026   4.3319 H              1 S1                 0.0000
     53 ****         6.2872  -0.7823   4.0745 H              1 S1                 0.0000
     54 ****        -2.2659  -0.9548  -2.4729 LP             1 S1                 0.0000
     55 ****        -3.4816   2.8306  -1.6986 LP             1 S1                 0.0000
     56 ****        -4.8433   2.1574  -1.0992 LP             1 S1                 0.0000
     57 ****        -0.3677  -1.1242  -3.2047 LP             1 S1                 0.0000
     58 ****         2.9772  -1.2841  -0.8374 LP             1 S1                 0.0000
     59 ****        -1.7543  -0.6754   1.6326 LP             1 S1                 0.0000
     60 ****         4.2862   0.3117   0.4329 LP             1 S1                 0.0000
     61 ****         4.0129   1.8182   1.0008 LP             1 S1                 0.0000
     62 ****         4.4340   0.8721   4.8649 LP             1 S1                 0.0000
     63 ****         5.5577   1.8237   4.1589 LP             1 S1                 0.0000
@<TRIPOS>BOND
    1    1    2 1     
    2    1   27 1     
    3    1   28 1     
    4    1   29 1     
    5    2    3 1     
    6    2   30 1     
    7    2   31 1     
    8    3    4 1     
    9    3   10 1     
   10    4    5 1     
   11    4   32 1     
   12    4   33 1     
   13    5    9 1     
   14    5    6 1     
   15    5   34 1     
   16    6    7 1     
   17    6   35 1     
   18    6   36 1     
   19    7    8 1     
   20    7   37 1     
   21    7   38 1     
   22    8    9 1     
   23    8   39 1     
   24    8   40 1     
   25   10   15 ar    
   26   10   11 ar    
   27   11   12 ar    
   28   12   13 ar    
   29   12   41 1     
   30   13   14 ar    
   31   14   18 1     
   32   14   15 ar    
   33   15   16 1     
   34   16   17 2     
   35   17   18 1     
   36   17   42 1     
   37   18   19 1     
   38   19   20 1     
   39   19   43 1     
   40   19   44 1     
   41   20   25 1     
   42   20   21 1     
   43   20   22 1     
   44   21   45 1     
   45   22   23 1     
   46   22   46 1     
   47   22   47 1     
   48   23   24 1     
   49   23   48 1     
   50   23   49 1     
   51   24   25 1     
   52   25   26 1     
   53   25   50 1     
   54   26   51 1     
   55   26   52 1     
   56   26   53 1     
   57    3   54 1     
   58    9   55 1     
   59    9   56 1     
   60   11   57 1     
   61   13   58 1     
   62   16   59 1     
   63   21   60 1     
   64   21   61 1     
   65   24   62 1     
   66   24   63 1     
@<TRIPOS>SUBSTRUCTURE
      1 S1             1
@<TRIPOS>SET
LONE_PAIRS      STATIC     ATOMS    <user>   **** ""
10 54 55 56 57 58 59 60 61 62 63
DONOR_HYDROGENS      STATIC     ATOMS    <user>   **** ""
1 45
ATOM$BLUE        STATIC     ATOMS    COLORGROUP SYSTEM
10 54 55 56 57 58 59 60 61 62 63
ATOM$RED        STATIC     ATOMS    COLORGROUP SYSTEM
1 45
