#       Name:                AV-unprocessed.smi:276
#       Creating user name   scv26
#       Creation time:       Thu Mar 26 21:34:41 2020


#       File generated by GOLD software.
#

@<TRIPOS>MOLECULE
AV-unprocessed.smi:276
    67    71     1
SMALL
NO_CHARGES


@<TRIPOS>ATOM
      1 ****        -5.7416  -2.0688   3.3356 C.3            1 S1                 0.0000
      2 ****        -5.6915  -0.8038   2.6983 O.3            1 S1                 0.0000
      3 ****        -4.9152  -0.8136   1.5102 C.3            1 S1                 0.0000
      4 ****        -4.9692   0.5312   0.7801 C.3            1 S1                 0.0000
      5 ****        -3.4982   0.3017   0.4115 C.3            1 S1                 0.0000
      6 ****        -2.7107   1.5369   0.3972 N.3            1 S1                 0.0000
      7 ****        -3.0891   2.5245  -0.6055 C.3            1 S1                 0.0000
      8 ****        -1.3667   1.3884   0.4185 C.ar           1 S1                 0.0000
      9 ****        -0.6746   2.1905   1.2659 N.ar           1 S1                 0.0000
     10 ****         0.6557   2.0938   1.3442 C.ar           1 S1                 0.0000
     11 ****         1.4751   1.2841   0.6707 N.ar           1 S1                 0.0000
     12 ****         0.7841   0.4928  -0.1988 C.ar           1 S1                 0.0000
     13 ****        -0.6259   0.4816  -0.3934 C.ar           1 S1                 0.0000
     14 ****        -0.9578  -0.4457  -1.3749 N.2            1 S1                 0.0000
     15 ****         0.1873  -0.9617  -1.7288 C.2            1 S1                 0.0000
     16 ****         1.2851  -0.4543  -1.0728 N.pl3          1 S1                 0.0000
     17 ****         2.6728  -0.8341  -1.2675 C.3            1 S1                 0.0000
     18 ****         3.4404   0.1780  -2.1404 C.3            1 S1                 0.0000
     19 ****         2.8358   0.2426  -3.4184 O.3            1 S1                 0.0000
     20 ****         4.9230  -0.2023  -2.3081 C.3            1 S1                 0.0000
     21 ****         5.7510   0.8070  -3.1035 C.3            1 S1                 0.0000
     22 ****         7.1711   0.5489  -2.6280 C.3            1 S1                 0.0000
     23 ****         6.9884  -0.1923  -1.3004 C.3            1 S1                 0.0000
     24 ****         5.5882  -0.1903  -1.0542 O.3            1 S1                 0.0000
     25 ****        -3.3999  -0.5745   1.6891 C.3            1 S1                 0.0000
     26 ****        -2.4239  -1.7558   1.7780 C.3            1 S1                 0.0000
     27 ****        -1.6431  -1.0019   2.8596 C.3            1 S1                 0.0000
     28 ****        -2.8344  -0.0524   3.0258 C.3            1 S1                 0.0000
     29 ****        -6.3632  -2.0032   4.2284 H              1 S1                 0.0000
     30 ****        -4.7504  -2.4016   3.6434 H              1 S1                 0.0000
     31 ****        -6.1755  -2.8237   2.6787 H              1 S1                 0.0000
     32 ****        -5.1446  -1.6439   0.8383 H              1 S1                 0.0000
     33 ****        -5.6533   0.5640  -0.0680 H              1 S1                 0.0000
     34 ****        -5.1218   1.3749   1.4562 H              1 S1                 0.0000
     35 ****        -3.4203  -0.2904  -0.5014 H              1 S1                 0.0000
     36 ****        -2.9420   2.1288  -1.6113 H              1 S1                 0.0000
     37 ****        -2.4989   3.4367  -0.5046 H              1 S1                 0.0000
     38 ****        -4.1384   2.7994  -0.4987 H              1 S1                 0.0000
     39 ****         1.1319   2.7601   2.0484 H              1 S1                 0.0000
     40 ****         0.2636  -1.7268  -2.4876 H              1 S1                 0.0000
     41 ****         3.1395  -0.9177  -0.2854 H              1 S1                 0.0000
     42 ****         2.7054  -1.8290  -1.7137 H              1 S1                 0.0000
     43 ****         3.3730   1.1679  -1.6870 H              1 S1                 0.0000
     44 ****         2.8973  -0.6092  -3.8229 H              1 S1                 0.0000
     45 ****         5.0188  -1.1962  -2.7501 H              1 S1                 0.0000
     46 ****         5.6376   0.6920  -4.1819 H              1 S1                 0.0000
     47 ****         5.4581   1.8246  -2.8408 H              1 S1                 0.0000
     48 ****         7.7164  -0.0733  -3.3386 H              1 S1                 0.0000
     49 ****         7.7227   1.4814  -2.5043 H              1 S1                 0.0000
     50 ****         7.3391  -1.2218  -1.3839 H              1 S1                 0.0000
     51 ****         7.5253   0.2840  -0.4798 H              1 S1                 0.0000
     52 ****        -2.8919  -2.6657   2.1548 H              1 S1                 0.0000
     53 ****        -1.8574  -1.9487   0.8674 H              1 S1                 0.0000
     54 ****        -1.4164  -1.5955   3.7456 H              1 S1                 0.0000
     55 ****        -0.7523  -0.5073   2.4721 H              1 S1                 0.0000
     56 ****        -2.5717   1.0047   3.0466 H              1 S1                 0.0000
     57 ****        -3.4469  -0.3156   3.8883 H              1 S1                 0.0000
     58 ****        -5.2937  -0.1420   3.3338 LP             1 S1                 0.0000
     59 ****        -6.6240  -0.5256   2.4678 LP             1 S1                 0.0000
     60 ****        -2.9750   1.9070   1.2878 LP             1 S1                 0.0000
     61 ****        -1.1609   2.8553   1.8330 LP             1 S1                 0.0000
     62 ****         2.4679   1.2606   0.7884 LP             1 S1                 0.0000
     63 ****        -1.8666  -0.6667  -1.7288 LP             1 S1                 0.0000
     64 ****         3.3102   0.9187  -3.9821 LP             1 S1                 0.0000
     65 ****         1.8748   0.5026  -3.3241 LP             1 S1                 0.0000
     66 ****         5.3349  -1.0019  -0.5277 LP             1 S1                 0.0000
     67 ****         5.3345   0.6310  -0.5432 LP             1 S1                 0.0000
@<TRIPOS>BOND
    1    1    2 1     
    2    1   29 1     
    3    1   30 1     
    4    1   31 1     
    5    2    3 1     
    6    3   25 1     
    7    3    4 1     
    8    3   32 1     
    9    4    5 1     
   10    4   33 1     
   11    4   34 1     
   12    5    6 1     
   13    5   25 1     
   14    5   35 1     
   15    6    7 1     
   16    6    8 1     
   17    7   36 1     
   18    7   37 1     
   19    7   38 1     
   20    8   13 ar    
   21    8    9 ar    
   22    9   10 ar    
   23   10   11 ar    
   24   10   39 1     
   25   11   12 ar    
   26   12   16 1     
   27   12   13 ar    
   28   13   14 1     
   29   14   15 2     
   30   15   16 1     
   31   15   40 1     
   32   16   17 1     
   33   17   18 1     
   34   17   41 1     
   35   17   42 1     
   36   18   19 1     
   37   18   20 1     
   38   18   43 1     
   39   19   44 1     
   40   20   24 1     
   41   20   21 1     
   42   20   45 1     
   43   21   22 1     
   44   21   46 1     
   45   21   47 1     
   46   22   23 1     
   47   22   48 1     
   48   22   49 1     
   49   23   24 1     
   50   23   50 1     
   51   23   51 1     
   52   25   28 1     
   53   25   26 1     
   54   26   27 1     
   55   26   52 1     
   56   26   53 1     
   57   27   28 1     
   58   27   54 1     
   59   27   55 1     
   60   28   56 1     
   61   28   57 1     
   62    2   58 1     
   63    2   59 1     
   64    6   60 1     
   65    9   61 1     
   66   11   62 1     
   67   14   63 1     
   68   19   64 1     
   69   19   65 1     
   70   24   66 1     
   71   24   67 1     
@<TRIPOS>SUBSTRUCTURE
      1 S1             1
@<TRIPOS>SET
LONE_PAIRS      STATIC     ATOMS    <user>   **** ""
10 58 59 60 61 62 63 64 65 66 67
DONOR_HYDROGENS      STATIC     ATOMS    <user>   **** ""
1 44
ATOM$BLUE        STATIC     ATOMS    COLORGROUP SYSTEM
10 58 59 60 61 62 63 64 65 66 67
ATOM$RED        STATIC     ATOMS    COLORGROUP SYSTEM
1 44
