AV-unprocessed.smi:1948|AV-procd|sdf|7876|dock6
  -GOLD-   2272010 23D 1   1.00000     0.00000
 Structure written by MMmdl.
 29 30  0  0  0  0  0  0  0  0  2 V2000
  153.7569  139.3020  158.3728 O   0  0  0  0  0  0  0  0  0  0  0  0
  152.6227  139.3945  157.8974 C   0  0  0  0  0  0  0  0  0  0  0  0
  151.9286  138.4080  157.2850 N   0  5  0  0  0  0  0  0  0  0  0  0
  151.3555  138.6312  156.0907 C   0  0  0  0  0  0  0  0  0  0  0  0
  151.1699  139.8686  155.6032 N   0  0  0  0  0  0  0  0  0  0  0  0
  150.5667  139.8782  154.3528 N   0  0  0  0  0  0  0  0  0  0  0  0
  150.3182  138.6410  153.9239 C   0  0  0  0  0  0  0  0  0  0  0  0
  150.8028  137.3522  155.0056 S   0  0  0  0  0  0  0  0  0  0  0  0
  151.9621  140.5599  157.9615 N   0  0  0  0  0  0  0  0  0  0  0  0
  152.4576  141.7998  158.5538 C   0  0  2  0  0  0  0  0  0  0  0  0
  152.5089  141.6880  160.0908 C   0  0  0  0  0  0  0  0  0  0  0  0
  152.9701  143.0062  160.7371 C   0  0  0  0  0  0  0  0  0  0  0  0
  152.1142  144.2078  160.2936 C   0  0  2  0  0  0  0  0  0  0  0  0
  150.8208  144.1193  160.8583 O   0  0  0  0  0  0  0  0  0  0  0  0
  152.0153  144.2980  158.7592 C   0  0  0  0  0  0  0  0  0  0  0  0
  151.5574  142.9727  158.1250 C   0  0  0  0  0  0  0  0  0  0  0  0
  149.8508  138.4860  152.9631 H   0  0  0  0  0  0  0  0  0  0  0  0
  151.0356  140.5869  157.5617 H   0  0  0  0  0  0  0  0  0  0  0  0
  153.4647  141.9939  158.1791 H   0  0  0  0  0  0  0  0  0  0  0  0
  151.5241  141.4175  160.4745 H   0  0  0  0  0  0  0  0  0  0  0  0
  153.1833  140.8839  160.3871 H   0  0  0  0  0  0  0  0  0  0  0  0
  152.9615  142.9144  161.8238 H   0  0  0  0  0  0  0  0  0  0  0  0
  154.0084  143.1888  160.4573 H   0  0  0  0  0  0  0  0  0  0  0  0
  152.5637  145.1250  160.6754 H   0  0  0  0  0  0  0  0  0  0  0  0
  150.1957  144.4481  160.2306 H   0  0  0  0  0  0  0  0  0  0  0  0
  151.3410  145.1050  158.4703 H   0  0  0  0  0  0  0  0  0  0  0  0
  152.9938  144.5615  158.3556 H   0  0  0  0  0  0  0  0  0  0  0  0
  151.5616  143.0678  157.0386 H   0  0  0  0  0  0  0  0  0  0  0  0
  150.5242  142.7701  158.4112 H   0  0  0  0  0  0  0  0  0  0  0  0
  1  2  2  0  0  0  0
  2  3  1  0  0  0  0
  2  9  1  0  0  0  0
  3  4  1  0  0  0  0
  4  8  1  0  0  0  0
  4  5  2  0  0  0  0
  5  6  1  0  0  0  0
  6  7  2  0  0  0  0
  7  8  1  0  0  0  0
  7 17  1  0  0  0  0
  9 10  1  0  0  0  0
  9 18  1  0  0  0  0
 10 16  1  0  0  0  0
 10 11  1  0  0  0  0
 10 19  1  0  0  0  0
 11 12  1  0  0  0  0
 11 20  1  0  0  0  0
 11 21  1  0  0  0  0
 12 13  1  0  0  0  0
 12 22  1  0  0  0  0
 12 23  1  0  0  0  0
 13 14  1  0  0  0  0
 13 15  1  0  0  0  0
 13 24  1  0  0  0  0
 14 25  1  0  0  0  0
 15 16  1  0  0  0  0
 15 26  1  0  0  0  0
 15 27  1  0  0  0  0
 16 28  1  0  0  0  0
 16 29  1  0  0  0  0
M  CHG  1   3  -1
M  END
> <s_m_source_file>
AV-unprocessed.smi

> <i_m_source_file_index>
1948

> <i_lp_mmshare_version>
43012

> <i_f3d_flags>
0

> <s_epik_input>
czFbY0hdbm5jMVtOSF1DKD1PKVtOSF1bQ0BASF0yW0NIMl1bQ0gyXVtDQEBIXShbT0hdKVtDSDJdW0NIMl0y

> <s_epik_cmdline>
J2VwaWtfcHl0aG9uJywgJy1waCcsICc3LjAnLCAnLXRuJywgJzgnLCAnLW1hJywgJzIwMCcsICctbWV0YWxfYmluZGluZycsICctaW1hZScsICc8aW5maWxlLm1hZT4nLCAnLW9tYWUnLCAnPG91dGZpbGUubWFlPic=

> <r_lp_tautomer_probability>
1

> <r_epik_Ionization_Penalty>
4.52057

> <r_epik_Ionization_Penalty_Charging>
4.4725

> <r_epik_Ionization_Penalty_Neutral>
0.048076

> <r_epik_State_Penalty>
4.47218

> <r_epik_Charging_Adjusted_Penalty>
8.94468

> <i_epik_Tot_Q>
-1

> <i_epik_Tot_abs_Q>
1

> <r_epik_Metal_State_Penalty>
0.805713

> <b_epik_Metal_Only>
1

> <s_lp_Force_Field>
OPLS_2005

> <r_lp_Energy>
8.18749

> <b_lp_Chiralities_Consistent>
1

> <s_lp_Variant>
AV-unprocessed.smi:1948-4

> <Gold.Version>
5.8.1

> <Gold.Id.Protein>
6NUR|6NUR_protein|mol2

> <Gold.PLP.Fitness>
40.8551

> <Gold.PLP.PLP>
-30.6206

> <Gold.PLP.part.hbond>
-2.5410

> <Gold.PLP.part.metal>
0.0000

> <Gold.PLP.part.buried>
-5.2017

> <Gold.PLP.part.nonpolar>
-23.1092

> <Gold.PLP.part.repulsive>
0.2127

> <Gold.PLP.ligand.clash>
0.0000

> <Gold.PLP.ligand.torsion>
0.6344

> <Gold.PLP.Chemscore.Hbond>
2.0000

> <Gold.PLP.Chemscore.CHOScore>
1.8322

> <Gold.PLP.Chemscore.Metal>
0.0000

> <Gold.Chemscore.Hbonds>
donor molecule, donor type, donor heavy atom, donor atom, acceptor molecule, acceptor atom, score
      P1  H  7989  7998       L1     6  1.00
      P1  H  7997  8010       L1     1  1.00
      L1  C     7    17       P1  7948  0.78
      L1  C     7    17       P1  7957  0.98

> <Gold.PLP.Chemscore.Internal.Correction>
0.0069

> <Gold.Rescore>
     Score         DG    S(hbond)    S(metal)    S(lipo)     H(rot)  DE(clash)    DE(int)     intcor
     14.58     -15.26       1.27        0.00      80.84       1.53       0.02       0.66       ----

> <Gold.Chemscore.Fitness>
14.5759

> <Gold.Chemscore.DG>
-15.2576

> <Gold.Chemscore.ZeroCoef>
-5.4800

> <Gold.Chemscore.Hbond>
1.2713

> <Gold.Chemscore.Metal>
0.0000

> <Gold.Chemscore.Lipo>
80.8358

> <Gold.Chemscore.Internal_Hbond>
0.0000

> <Gold.Chemscore.DEClash>
0.0189

> <Gold.Chemscore.DEInternal>
0.6628

> <Gold.Chemscore.Rot>
1.5337

> <Gold.Chemscore.Internal.Correction>
   9.000000E+99

> <Gold.Chemscore.Hbonds>
donor molecule, donor type, donor heavy atom, donor atom, acceptor molecule, acceptor atom, score
      P1  H  7989  7998       L1     6  0.29
      P1  H  7997  8010       L1     1  0.55

> <Gold.Chemscore.Hbond.Weighted>
-4.2460

> <Gold.Chemscore.Metal.Weighted>
-0.0000

> <Gold.Chemscore.Lipo.Weighted>
-9.4578

> <Gold.Chemscore.Internal_Hbond.Weighted>
0.0000

> <Gold.Chemscore.DEClash.Weighted>
0.0189

> <Gold.Chemscore.DEInternal.Weighted>
0.6628

> <Gold.Chemscore.Rot.Weighted>
3.9262

> <Gold.Chemscore.Internal.Correction.Weighted>
   9.000000E+99

> <Gold.Protein.RotatedTorsions>
[ 6907 6896 6895 6894 ] final  -45.37 input  -60.11 | X-H torsion
[ 7974 7965 7964 7962 ] final  100.33 input  175.53 | X-H torsion
[ 8008 7997 7996 7995 ] final   17.85 input   59.86 | X-H torsion
[ 10167 10162 10161 10158 ] final  -15.09 input  -65.29 | X-H torsion
[ 10718 10713 10712 10709 ] final   -7.64 input   66.30 | X-H torsion
[ 10763 10752 10751 10750 ] final -105.11 input  -60.55 | X-H torsion
[ 11005 11000 10999 10996 ] final  169.36 input  -57.11 | X-H torsion

> <Gold.Protein.ActiveResidues>
 VAL166  LYS551  ARG553  GLY616  TRP617  ASP618  TYR619  PRO620  LYS621  CYS622 
 ASP623  PHE694  ASN695  SER759  ASP760  ASP761  ALA762  ILE779  LEU786  VAL792 
 PHE793  MET794  SER795  GLU796  ALA797  LYS798  CYS799  TRP800  GLU811  SER814 

> <Gold.Protein.RotatedAtoms>
  150.9227  134.8644  159.7499 H   0  0  0  0  0  0  0  0  0  0  0  0  # atno 6907 bound_to 6896
  152.5000  134.4195  159.9485 H   0  0  0  0  0  0  0  0  0  0  0  0  # atno 6908 bound_to 6896
  151.4228  133.3653  159.2793 H   0  0  0  0  0  0  0  0  0  0  0  0  # atno 6909 bound_to 6896
  145.3870  139.2369  143.3372 H   0  0  0  0  0  0  0  0  0  0  0  0  # atno 7974 bound_to 7965
  154.8974  140.2995  155.5336 H   0  0  0  0  0  0  0  0  0  0  0  0  # atno 8008 bound_to 7997
  156.3019  140.2413  156.3932 H   0  0  0  0  0  0  0  0  0  0  0  0  # atno 8009 bound_to 7997
  154.8556  140.0407  157.1621 H   0  0  0  0  0  0  0  0  0  0  0  0  # atno 8010 bound_to 7997
  140.7212  143.5254  150.9583 H   0  0  0  0  0  0  0  0  0  0  0  0  # atno 10167 bound_to 10162
  156.7143  130.5131  149.5884 H   0  0  0  0  0  0  0  0  0  0  0  0  # atno 10718 bound_to 10713
  154.7924  135.4761  154.0083 H   0  0  0  0  0  0  0  0  0  0  0  0  # atno 10763 bound_to 10752
  153.1651  135.6815  153.8694 H   0  0  0  0  0  0  0  0  0  0  0  0  # atno 10764 bound_to 10752
  153.8295  135.3193  155.3395 H   0  0  0  0  0  0  0  0  0  0  0  0  # atno 10765 bound_to 10752
  140.2969  134.7627  157.3884 H   0  0  0  0  0  0  0  0  0  0  0  0  # atno 11005 bound_to 11000
  146.2815  140.4546  142.8774 LP  0  0  0  0  0  0  0  0  0  0  0  0  # atno 17320 bound_to 7965
  144.8467  140.6940  143.6194 LP  0  0  0  0  0  0  0  0  0  0  0  0  # atno 17321 bound_to 7965
  139.8973  143.6879  152.3136 LP  0  0  0  0  0  0  0  0  0  0  0  0  # atno 17342 bound_to 10162
  139.7216  144.7601  151.0946 LP  0  0  0  0  0  0  0  0  0  0  0  0  # atno 17343 bound_to 10162
  156.1639  130.6392  151.0753 LP  0  0  0  0  0  0  0  0  0  0  0  0  # atno 17370 bound_to 10713
  157.6924  131.0805  150.7070 LP  0  0  0  0  0  0  0  0  0  0  0  0  # atno 17371 bound_to 10713
  140.1144  134.5302  155.8237 LP  0  0  0  0  0  0  0  0  0  0  0  0  # atno 17394 bound_to 11000
  141.2135  133.6735  156.6750 LP  0  0  0  0  0  0  0  0  0  0  0  0  # atno 17395 bound_to 11000

$$$$
