AV-unprocessed.smi:1406|AV-procd|sdf|5723|dock9
  -GOLD-   22720 5353D 1   1.00000     0.00000
 Structure written by MMmdl.
 41 43  0  0  0  0  0  0  0  0  2 V2000
  150.3525  137.5296  154.6148 C   0  0  0  0  0  0  0  0  0  0  0  0
  150.7905  139.0082  154.6039 C   0  0  2  0  0  0  0  0  0  0  0  0
  151.6379  139.3948  155.8276 C   0  0  0  0  0  0  0  0  0  0  0  0
  152.8446  139.6147  155.7191 O   0  0  0  0  0  0  0  0  0  0  0  0
  150.9863  139.4713  156.9984 N   0  0  0  0  0  0  0  0  0  0  0  0
  151.6100  139.7663  158.2827 C   0  0  1  0  0  0  0  0  0  0  0  0
  152.8410  138.9211  158.5958 C   0  0  0  0  0  0  0  0  0  0  0  0
  153.5369  139.7582  159.6709 C   0  0  0  0  0  0  0  0  0  0  0  0
  153.2672  141.1721  159.3220 N   0  3  2  0  0  0  0  0  0  0  0  0
  153.1136  142.0817  160.4834 C   0  0  0  0  0  0  0  0  0  0  0  0
  152.8431  143.5226  160.0109 C   0  0  0  0  0  0  0  0  0  0  0  0
  151.6920  143.6189  158.9868 C   0  0  0  0  0  0  0  0  0  0  0  0
  151.0690  142.2495  158.6733 C   0  0  0  0  0  0  0  0  0  0  0  0
  152.1521  141.2015  158.3339 C   0  0  2  0  0  0  0  0  0  0  0  0
  149.6546  139.9128  154.4693 N   0  0  0  0  0  0  0  0  0  0  0  0
  148.3527  139.6440  154.3472 C   0  0  0  0  0  0  0  0  0  0  0  0
  147.5933  140.7188  154.1893 N   0  0  0  0  0  0  0  0  0  0  0  0
  148.5573  141.6862  154.2215 C   0  0  0  0  0  0  0  0  0  0  0  0
  149.8097  141.2571  154.3756 N   0  0  0  0  0  0  0  0  0  0  0  0
  151.2153  136.8637  154.6513 H   0  0  0  0  0  0  0  0  0  0  0  0
  149.7909  137.2849  153.7129 H   0  0  0  0  0  0  0  0  0  0  0  0
  149.7184  137.2964  155.4713 H   0  0  0  0  0  0  0  0  0  0  0  0
  151.4199  139.1512  153.7241 H   0  0  0  0  0  0  0  0  0  0  0  0
  149.9949  139.2798  157.0024 H   0  0  0  0  0  0  0  0  0  0  0  0
  150.8800  139.6281  159.0835 H   0  0  0  0  0  0  0  0  0  0  0  0
  152.5929  137.9155  158.9374 H   0  0  0  0  0  0  0  0  0  0  0  0
  153.4797  138.8343  157.7152 H   0  0  0  0  0  0  0  0  0  0  0  0
  153.1012  139.5258  160.6442 H   0  0  0  0  0  0  0  0  0  0  0  0
  154.6070  139.5585  159.7290 H   0  0  0  0  0  0  0  0  0  0  0  0
  152.2971  141.7352  161.1192 H   0  0  0  0  0  0  0  0  0  0  0  0
  154.0189  142.0510  161.0907 H   0  0  0  0  0  0  0  0  0  0  0  0
  152.6275  144.1547  160.8730 H   0  0  0  0  0  0  0  0  0  0  0  0
  153.7511  143.9285  159.5632 H   0  0  0  0  0  0  0  0  0  0  0  0
  150.9212  144.2991  159.3506 H   0  0  0  0  0  0  0  0  0  0  0  0
  152.0711  144.0594  158.0638 H   0  0  0  0  0  0  0  0  0  0  0  0
  150.4849  141.9192  159.5335 H   0  0  0  0  0  0  0  0  0  0  0  0
  150.3619  142.3393  157.8477 H   0  0  0  0  0  0  0  0  0  0  0  0
  152.6074  141.4546  157.3748 H   0  0  0  0  0  0  0  0  0  0  0  0
  147.9526  138.6410  154.3659 H   0  0  0  0  0  0  0  0  0  0  0  0
  148.3304  142.7372  154.1198 H   0  0  0  0  0  0  0  0  0  0  0  0
  154.0781  141.4991  158.8163 H   0  0  0  0  0  0  0  0  0  0  0  0
  1  2  1  0  0  0  0
  1 20  1  0  0  0  0
  1 21  1  0  0  0  0
  1 22  1  0  0  0  0
  2  3  1  0  0  0  0
  2 15  1  0  0  0  0
  2 23  1  0  0  0  0
  3  4  2  0  0  0  0
  3  5  1  0  0  0  0
  5  6  1  0  0  0  0
  5 24  1  0  0  0  0
  6 14  1  0  0  0  0
  6  7  1  0  0  0  0
  6 25  1  0  0  0  0
  7  8  1  0  0  0  0
  7 26  1  0  0  0  0
  7 27  1  0  0  0  0
  8  9  1  0  0  0  0
  8 28  1  0  0  0  0
  8 29  1  0  0  0  0
  9 14  1  0  0  0  0
  9 10  1  0  0  0  0
  9 41  1  0  0  0  0
 10 11  1  0  0  0  0
 10 30  1  0  0  0  0
 10 31  1  0  0  0  0
 11 12  1  0  0  0  0
 11 32  1  0  0  0  0
 11 33  1  0  0  0  0
 12 13  1  0  0  0  0
 12 34  1  0  0  0  0
 12 35  1  0  0  0  0
 13 14  1  0  0  0  0
 13 36  1  0  0  0  0
 13 37  1  0  0  0  0
 14 38  1  0  0  0  0
 15 19  1  0  0  0  0
 15 16  1  0  0  0  0
 16 17  2  0  0  0  0
 16 39  1  0  0  0  0
 17 18  1  0  0  0  0
 18 19  2  0  0  0  0
 18 40  1  0  0  0  0
M  CHG  1   9   1
M  END
> <s_m_source_file>
AV-unprocessed.smi

> <i_m_source_file_index>
1406

> <i_lp_mmshare_version>
43012

> <i_f3d_flags>
0

> <s_epik_input>
bjFbY0hdbltjSF1uMVtDQEhdKFtDSDNdKUMoPU8pW05IXVtDQEhdKFtDSDJdW0NIMl0yKVtDQEBIXShOMjMpW0NIMl1bQ0gyXVtDSDJdW0NIMl0z

> <s_epik_cmdline>
J2VwaWtfcHl0aG9uJywgJy1waCcsICc3LjAnLCAnLXRuJywgJzgnLCAnLW1hJywgJzIwMCcsICctbWV0YWxfYmluZGluZycsICctaW1hZScsICc8aW5maWxlLm1hZT4nLCAnLW9tYWUnLCAnPG91dGZpbGUubWFlPic=

> <r_lp_tautomer_probability>
1

> <r_epik_Ionization_Penalty>
0.00197066

> <r_epik_Ionization_Penalty_Charging>
0.00196223

> <r_epik_Ionization_Penalty_Neutral>
8.43107e-06

> <r_epik_State_Penalty>
0.00133866

> <r_epik_Charging_Adjusted_Penalty>
0.00330089

> <i_epik_Tot_Q>
1

> <i_epik_Tot_abs_Q>
1

> <r_epik_Metal_State_Penalty>
-0

> <b_epik_Metal_Only>
0

> <s_lp_Force_Field>
OPLS_2005

> <r_lp_Energy>
45.2549

> <b_lp_Chiralities_Consistent>
1

> <s_lp_Variant>
AV-unprocessed.smi:1406-15

> <Gold.Version>
5.8.1

> <Gold.Id.Protein>
6NUR|6NUR_protein|mol2

> <Gold.PLP.Fitness>
43.3813

> <Gold.PLP.PLP>
-37.2301

> <Gold.PLP.part.hbond>
-2.6932

> <Gold.PLP.part.metal>
0.0000

> <Gold.PLP.part.buried>
-3.5465

> <Gold.PLP.part.nonpolar>
-32.1166

> <Gold.PLP.part.repulsive>
0.4214

> <Gold.PLP.ligand.clash>
0.0000

> <Gold.PLP.ligand.torsion>
0.2601

> <Gold.PLP.Chemscore.Hbond>
1.1900

> <Gold.PLP.Chemscore.CHOScore>
0.9979

> <Gold.PLP.Chemscore.Metal>
0.0000

> <Gold.Chemscore.Hbonds>
donor molecule, donor type, donor heavy atom, donor atom, acceptor molecule, acceptor atom, score
      P1  H  7989  7998       L1    19  0.17
      P1  H  7997  8008       L1     4  1.00
      L1  C    18    40       P1  8028  0.98

> <Gold.PLP.Chemscore.Internal.Correction>
0.1077

> <Gold.Rescore>
     Score         DG    S(hbond)    S(metal)    S(lipo)     H(rot)  DE(clash)    DE(int)     intcor
     15.70     -17.14       1.90        0.00      86.68       1.89       0.03       1.42       ----

> <Gold.Chemscore.Fitness>
15.6968

> <Gold.Chemscore.DG>
-17.1422

> <Gold.Chemscore.ZeroCoef>
-5.4800

> <Gold.Chemscore.Hbond>
1.9011

> <Gold.Chemscore.Metal>
0.0000

> <Gold.Chemscore.Lipo>
86.6830

> <Gold.Chemscore.Internal_Hbond>
0.0000

> <Gold.Chemscore.DEClash>
0.0288

> <Gold.Chemscore.DEInternal>
1.4165

> <Gold.Chemscore.Rot>
1.8865

> <Gold.Chemscore.Internal.Correction>
   9.000000E+99

> <Gold.Chemscore.Hbonds>
donor molecule, donor type, donor heavy atom, donor atom, acceptor molecule, acceptor atom, score
      P1  H  7997  8008       L1     4  1.00

> <Gold.Chemscore.Hbond.Weighted>
-6.3498

> <Gold.Chemscore.Metal.Weighted>
-0.0000

> <Gold.Chemscore.Lipo.Weighted>
-10.1419

> <Gold.Chemscore.Internal_Hbond.Weighted>
0.0000

> <Gold.Chemscore.DEClash.Weighted>
0.0288

> <Gold.Chemscore.DEInternal.Weighted>
1.4165

> <Gold.Chemscore.Rot.Weighted>
4.8295

> <Gold.Chemscore.Internal.Correction.Weighted>
   9.000000E+99

> <Gold.Protein.RotatedTorsions>
[ 6907 6896 6895 6894 ] final  -74.37 input  -60.11 | X-H torsion
[ 7974 7965 7964 7962 ] final   32.63 input  175.53 | X-H torsion
[ 8008 7997 7996 7995 ] final  -41.03 input   59.86 | X-H torsion
[ 10167 10162 10161 10158 ] final  172.51 input  -65.29 | X-H torsion
[ 10718 10713 10712 10709 ] final  160.93 input   66.30 | X-H torsion
[ 10763 10752 10751 10750 ] final  -94.72 input  -60.55 | X-H torsion
[ 11005 11000 10999 10996 ] final   85.76 input  -57.11 | X-H torsion

> <Gold.Protein.ActiveResidues>
 VAL166  LYS551  ARG553  GLY616  TRP617  ASP618  TYR619  PRO620  LYS621  CYS622 
 ASP623  PHE694  ASN695  SER759  ASP760  ASP761  ALA762  ILE779  LEU786  VAL792 
 PHE793  MET794  SER795  GLU796  ALA797  LYS798  CYS799  TRP800  GLU811  SER814 

> <Gold.Protein.RotatedAtoms>
  150.7096  134.4880  159.5501 H   0  0  0  0  0  0  0  0  0  0  0  0  # atno 6907 bound_to 6896
  152.2503  134.8136  160.0456 H   0  0  0  0  0  0  0  0  0  0  0  0  # atno 6908 bound_to 6896
  151.8886  133.3476  159.3827 H   0  0  0  0  0  0  0  0  0  0  0  0  # atno 6909 bound_to 6896
  146.1474  139.6501  142.9122 H   0  0  0  0  0  0  0  0  0  0  0  0  # atno 7974 bound_to 7965
  154.4007  140.1510  156.3123 H   0  0  0  0  0  0  0  0  0  0  0  0  # atno 8008 bound_to 7997
  155.8604  140.3453  155.5731 H   0  0  0  0  0  0  0  0  0  0  0  0  # atno 8009 bound_to 7997
  155.7886  140.0853  157.2011 H   0  0  0  0  0  0  0  0  0  0  0  0  # atno 8010 bound_to 7997
  139.5079  144.3366  152.0060 H   0  0  0  0  0  0  0  0  0  0  0  0  # atno 10167 bound_to 10162
  157.1436  131.0546  151.2315 H   0  0  0  0  0  0  0  0  0  0  0  0  # atno 10718 bound_to 10713
  154.7082  135.5147  153.8626 H   0  0  0  0  0  0  0  0  0  0  0  0  # atno 10763 bound_to 10752
  153.0758  135.6616  154.0157 H   0  0  0  0  0  0  0  0  0  0  0  0  # atno 10764 bound_to 10752
  154.0004  135.3011  155.3383 H   0  0  0  0  0  0  0  0  0  0  0  0  # atno 10765 bound_to 10752
  139.8962  134.8309  156.2627 H   0  0  0  0  0  0  0  0  0  0  0  0  # atno 11005 bound_to 11000
  145.4905  141.0438  143.2595 LP  0  0  0  0  0  0  0  0  0  0  0  0  # atno 17320 bound_to 7965
  144.7862  139.6421  143.7133 LP  0  0  0  0  0  0  0  0  0  0  0  0  # atno 17321 bound_to 7965
  140.2804  144.3865  150.6121 LP  0  0  0  0  0  0  0  0  0  0  0  0  # atno 17342 bound_to 10162
  140.6022  143.2167  151.7050 LP  0  0  0  0  0  0  0  0  0  0  0  0  # atno 17343 bound_to 10162
  157.4285  130.7477  149.6970 LP  0  0  0  0  0  0  0  0  0  0  0  0  # atno 17370 bound_to 10713
  155.9784  130.4052  150.3652 LP  0  0  0  0  0  0  0  0  0  0  0  0  # atno 17371 bound_to 10713
  141.0152  133.7073  156.1177 LP  0  0  0  0  0  0  0  0  0  0  0  0  # atno 17394 bound_to 11000
  140.7312  134.4253  157.5565 LP  0  0  0  0  0  0  0  0  0  0  0  0  # atno 17395 bound_to 11000

$$$$
