AV-unprocessed.smi:3104|AV-procd|sdf|11818|dock2
  -GOLD-   2272017193D 1   1.00000     0.00000
 Structure written by MMmdl.
 37 38  0  0  0  0  0  0  0  0  2 V2000
  152.1852  145.3222  159.3634 C   0  0  0  0  0  0  0  0  0  0  0  0
  151.8382  144.0044  158.7334 C   0  0  0  0  0  0  0  0  0  0  0  0
  151.9923  142.7020  159.2869 C   0  0  0  0  0  0  0  0  0  0  0  0
  151.5869  141.7449  158.4687 N   0  0  0  0  0  0  0  0  0  0  0  0
  151.1572  142.3972  157.3673 N   0  0  0  0  0  0  0  0  0  0  0  0
  150.6390  141.6397  156.2350 C   0  0  1  0  0  0  0  0  0  0  0  0
  151.5945  140.4784  155.9048 C   0  0  0  0  0  0  0  0  0  0  0  0
  149.1769  141.1763  156.4716 C   0  0  1  0  0  0  0  0  0  0  0  0
  149.0503  140.1017  157.5669 C   0  0  0  0  0  0  0  0  0  0  0  0
  148.3235  142.3295  156.8357 N   0  3  0  0  0  0  0  0  0  0  0  0
  146.8791  142.0331  156.9107 C   0  0  0  0  0  0  0  0  0  0  0  0
  146.2755  141.9124  155.5275 C   0  0  0  0  0  0  0  0  0  0  0  0
  146.7338  140.8156  154.5943 C   0  0  0  0  0  0  0  0  0  0  0  0
  147.0840  142.2522  154.2961 C   0  0  0  0  0  0  0  0  0  0  0  0
  151.3015  143.7638  157.5008 C   0  0  0  0  0  0  0  0  0  0  0  0
  152.5899  145.1977  160.3681 H   0  0  0  0  0  0  0  0  0  0  0  0
  151.3118  145.9694  159.4474 H   0  0  0  0  0  0  0  0  0  0  0  0
  152.9320  145.8624  158.7813 H   0  0  0  0  0  0  0  0  0  0  0  0
  152.3853  142.4255  160.2544 H   0  0  0  0  0  0  0  0  0  0  0  0
  150.6385  142.3103  155.3731 H   0  0  0  0  0  0  0  0  0  0  0  0
  151.3156  139.9819  154.9754 H   0  0  0  0  0  0  0  0  0  0  0  0
  151.5998  139.7268  156.6948 H   0  0  0  0  0  0  0  0  0  0  0  0
  152.6169  140.8372  155.7812 H   0  0  0  0  0  0  0  0  0  0  0  0
  148.8010  140.7317  155.5482 H   0  0  0  0  0  0  0  0  0  0  0  0
  149.5730  139.1836  157.2979 H   0  0  0  0  0  0  0  0  0  0  0  0
  148.0061  139.8352  157.7339 H   0  0  0  0  0  0  0  0  0  0  0  0
  149.4598  140.4522  158.5151 H   0  0  0  0  0  0  0  0  0  0  0  0
  148.6194  142.6703  157.7394 H   0  0  0  0  0  0  0  0  0  0  0  0
  146.7094  141.1098  157.4660 H   0  0  0  0  0  0  0  0  0  0  0  0
  146.3743  142.8362  157.4487 H   0  0  0  0  0  0  0  0  0  0  0  0
  145.2111  142.1374  155.4882 H   0  0  0  0  0  0  0  0  0  0  0  0
  147.5362  140.1629  154.9331 H   0  0  0  0  0  0  0  0  0  0  0  0
  145.9816  140.3420  153.9665 H   0  0  0  0  0  0  0  0  0  0  0  0
  146.5646  142.7353  153.4710 H   0  0  0  0  0  0  0  0  0  0  0  0
  148.1202  142.5550  154.4347 H   0  0  0  0  0  0  0  0  0  0  0  0
  151.0129  144.4468  156.7154 H   0  0  0  0  0  0  0  0  0  0  0  0
  148.4709  143.0610  156.1549 H   0  0  0  0  0  0  0  0  0  0  0  0
  1  2  1  0  0  0  0
  1 16  1  0  0  0  0
  1 17  1  0  0  0  0
  1 18  1  0  0  0  0
  2 15  2  0  0  0  0
  2  3  1  0  0  0  0
  3  4  2  0  0  0  0
  3 19  1  0  0  0  0
  4  5  1  0  0  0  0
  5  6  1  0  0  0  0
  5 15  1  0  0  0  0
  6  7  1  0  0  0  0
  6  8  1  0  0  0  0
  6 20  1  0  0  0  0
  7 21  1  0  0  0  0
  7 22  1  0  0  0  0
  7 23  1  0  0  0  0
  8  9  1  0  0  0  0
  8 10  1  0  0  0  0
  8 24  1  0  0  0  0
  9 25  1  0  0  0  0
  9 26  1  0  0  0  0
  9 27  1  0  0  0  0
 10 11  1  0  0  0  0
 10 28  1  0  0  0  0
 10 37  1  0  0  0  0
 11 12  1  0  0  0  0
 11 29  1  0  0  0  0
 11 30  1  0  0  0  0
 12 14  1  0  0  0  0
 12 13  1  0  0  0  0
 12 31  1  0  0  0  0
 13 14  1  0  0  0  0
 13 32  1  0  0  0  0
 13 33  1  0  0  0  0
 14 34  1  0  0  0  0
 14 35  1  0  0  0  0
 15 36  1  0  0  0  0
M  CHG  1  10   1
M  END
> <s_m_source_file>
AV-unprocessed.smi

> <i_m_source_file_index>
3104

> <i_lp_mmshare_version>
43012

> <i_f3d_flags>
0

> <s_epik_input>
W0NIM11jMVtjSF1ubihbY0hdMSlbQ0BIXShbQ0gzXSlbQ0BIXShbQ0gzXSlbTkhdW0NIMl1bQ0hdMltDSDJdW0NIMl0y

> <s_epik_cmdline>
J2VwaWtfcHl0aG9uJywgJy1waCcsICc3LjAnLCAnLXRuJywgJzgnLCAnLW1hJywgJzIwMCcsICctbWV0YWxfYmluZGluZycsICctaW1hZScsICc8aW5maWxlLm1hZT4nLCAnLW9tYWUnLCAnPG91dGZpbGUubWFlPic=

> <r_lp_tautomer_probability>
1

> <r_epik_Ionization_Penalty>
0.00120445

> <r_epik_Ionization_Penalty_Charging>
0.00118273

> <r_epik_Ionization_Penalty_Neutral>
2.17265e-05

> <r_epik_State_Penalty>
-0

> <r_epik_Charging_Adjusted_Penalty>
0.00118273

> <i_epik_Tot_Q>
1

> <i_epik_Tot_abs_Q>
1

> <r_epik_Metal_State_Penalty>
-0

> <b_epik_Metal_Only>
0

> <s_lp_Force_Field>
OPLS_2005

> <r_lp_Energy>
22.3414

> <b_lp_Chiralities_Consistent>
1

> <s_lp_Variant>
AV-unprocessed.smi:3104-4

> <Gold.Version>
5.8.1

> <Gold.Id.Protein>
6NUR|6NUR_protein|mol2

> <Gold.PLP.Fitness>
40.8996

> <Gold.PLP.PLP>
-33.0122

> <Gold.PLP.part.hbond>
-1.0000

> <Gold.PLP.part.metal>
0.0000

> <Gold.PLP.part.buried>
-3.4950

> <Gold.PLP.part.nonpolar>
-28.6754

> <Gold.PLP.part.repulsive>
0.0065

> <Gold.PLP.ligand.clash>
0.0000

> <Gold.PLP.ligand.torsion>
0.8735

> <Gold.PLP.Chemscore.Hbond>
2.0000

> <Gold.PLP.Chemscore.CHOScore>
0.9890

> <Gold.PLP.Chemscore.Metal>
0.0000

> <Gold.Chemscore.Hbonds>
donor molecule, donor type, donor heavy atom, donor atom, acceptor molecule, acceptor atom, score
      L1  H    10    37       P1  8028  2.00
      L1  C    15    36       P1  8028  1.00

> <Gold.PLP.Chemscore.Internal.Correction>
0.6673

> <Gold.Rescore>
     Score         DG    S(hbond)    S(metal)    S(lipo)     H(rot)  DE(clash)    DE(int)     intcor
     14.20     -15.03       0.96        0.00      86.98       1.49       0.08       0.75       ----

> <Gold.Chemscore.Fitness>
14.2042

> <Gold.Chemscore.DG>
-15.0345

> <Gold.Chemscore.ZeroCoef>
-5.4800

> <Gold.Chemscore.Hbond>
0.9574

> <Gold.Chemscore.Metal>
0.0000

> <Gold.Chemscore.Lipo>
86.9830

> <Gold.Chemscore.Internal_Hbond>
0.0000

> <Gold.Chemscore.DEClash>
0.0754

> <Gold.Chemscore.DEInternal>
0.7548

> <Gold.Chemscore.Rot>
1.4923

> <Gold.Chemscore.Internal.Correction>
   9.000000E+99

> <Gold.Chemscore.Hbonds>
donor molecule, donor type, donor heavy atom, donor atom, acceptor molecule, acceptor atom, score
      L1  H    10    37       P1  8028  0.90

> <Gold.Chemscore.Hbond.Weighted>
-3.1978

> <Gold.Chemscore.Metal.Weighted>
-0.0000

> <Gold.Chemscore.Lipo.Weighted>
-10.1770

> <Gold.Chemscore.Internal_Hbond.Weighted>
0.0000

> <Gold.Chemscore.DEClash.Weighted>
0.0754

> <Gold.Chemscore.DEInternal.Weighted>
0.7548

> <Gold.Chemscore.Rot.Weighted>
3.8204

> <Gold.Chemscore.Internal.Correction.Weighted>
   9.000000E+99

> <Gold.Protein.RotatedTorsions>
[ 6907 6896 6895 6894 ] final   98.67 input  -60.11 | X-H torsion
[ 7974 7965 7964 7962 ] final   68.90 input  175.53 | X-H torsion
[ 8008 7997 7996 7995 ] final  131.45 input   59.86 | X-H torsion
[ 10167 10162 10161 10158 ] final  149.02 input  -65.29 | X-H torsion
[ 10718 10713 10712 10709 ] final  -47.27 input   66.30 | X-H torsion
[ 10763 10752 10751 10750 ] final  121.21 input  -60.55 | X-H torsion
[ 11005 11000 10999 10996 ] final  172.85 input  -57.11 | X-H torsion

> <Gold.Protein.ActiveResidues>
 VAL166  LYS551  ARG553  GLY616  TRP617  ASP618  TYR619  PRO620  LYS621  CYS622 
 ASP623  PHE694  ASN695  SER759  ASP760  ASP761  ALA762  ILE779  LEU786  VAL792 
 PHE793  MET794  SER795  GLU796  ALA797  LYS798  CYS799  TRP800  GLU811  SER814 

> <Gold.Protein.RotatedAtoms>
  152.5405  134.0545  159.8124 H   0  0  0  0  0  0  0  0  0  0  0  0  # atno 6907 bound_to 6896
  151.0681  133.5481  159.2636 H   0  0  0  0  0  0  0  0  0  0  0  0  # atno 6908 bound_to 6896
  151.2354  135.0578  159.9058 H   0  0  0  0  0  0  0  0  0  0  0  0  # atno 6909 bound_to 6896
  145.7970  139.2963  143.1177 H   0  0  0  0  0  0  0  0  0  0  0  0  # atno 7974 bound_to 7965
  156.2970  140.2571  156.2928 H   0  0  0  0  0  0  0  0  0  0  0  0  # atno 8008 bound_to 7997
  154.9493  140.0394  157.2155 H   0  0  0  0  0  0  0  0  0  0  0  0  # atno 8009 bound_to 7997
  154.8051  140.2835  155.5898 H   0  0  0  0  0  0  0  0  0  0  0  0  # atno 8010 bound_to 7997
  139.4867  144.5634  151.7189 H   0  0  0  0  0  0  0  0  0  0  0  0  # atno 10167 bound_to 10162
  156.2101  130.4160  149.9126 H   0  0  0  0  0  0  0  0  0  0  0  0  # atno 10718 bound_to 10713
  153.6106  135.3431  155.2977 H   0  0  0  0  0  0  0  0  0  0  0  0  # atno 10763 bound_to 10752
  154.8619  135.4249  154.2314 H   0  0  0  0  0  0  0  0  0  0  0  0  # atno 10764 bound_to 10752
  153.3164  135.7035  153.7142 H   0  0  0  0  0  0  0  0  0  0  0  0  # atno 10765 bound_to 10752
  140.3341  134.7332  157.4155 H   0  0  0  0  0  0  0  0  0  0  0  0  # atno 11005 bound_to 11000
  145.9917  140.8596  143.0063 LP  0  0  0  0  0  0  0  0  0  0  0  0  # atno 17320 bound_to 7965
  144.6774  140.2226  143.7364 LP  0  0  0  0  0  0  0  0  0  0  0  0  # atno 17321 bound_to 7965
  140.5208  144.0881  150.6022 LP  0  0  0  0  0  0  0  0  0  0  0  0  # atno 17342 bound_to 10162
  140.3839  143.2788  152.0139 LP  0  0  0  0  0  0  0  0  0  0  0  0  # atno 17343 bound_to 10162
  156.6807  130.8857  151.3575 LP  0  0  0  0  0  0  0  0  0  0  0  0  # atno 17370 bound_to 10713
  157.7034  130.9357  150.0854 LP  0  0  0  0  0  0  0  0  0  0  0  0  # atno 17371 bound_to 10713
  140.0836  134.5697  155.8515 LP  0  0  0  0  0  0  0  0  0  0  0  0  # atno 17394 bound_to 11000
  141.2056  133.6648  156.6189 LP  0  0  0  0  0  0  0  0  0  0  0  0  # atno 17395 bound_to 11000

$$$$
