AV-unprocessed.smi:268|AV-procd|sdf|2040|dock2
  -GOLD-   2262021253D 1   1.00000     0.00000
 Structure written by MMmdl.
 50 53  0  0  0  0  0  0  0  0  1 V2000
  152.1385  145.1915  159.2031 C   0  0  0  0  0  0  0  0  0  0  0  0
  151.5164  143.8003  159.3434 C   0  0  0  0  0  0  0  0  0  0  0  0
  152.0611  142.9510  158.3473 O   0  0  0  0  0  0  0  0  0  0  0  0
  151.6169  141.6098  158.4685 C   0  0  2  0  0  0  0  0  0  0  0  0
  152.1997  140.6561  157.4171 C   0  0  0  0  0  0  0  0  0  0  0  0
  150.7821  140.1068  157.1700 C   0  0  1  0  0  0  0  0  0  0  0  0
  150.5027  138.8866  157.9383 N   0  0  0  0  0  0  0  0  0  0  0  0
  151.3750  137.7373  157.7110 C   0  0  0  0  0  0  0  0  0  0  0  0
  149.2060  138.5223  158.1159 C   0  0  0  0  0  0  0  0  0  0  0  0
  148.2070  139.2471  157.5438 N   0  0  0  0  0  0  0  0  0  0  0  0
  146.9313  138.8857  157.7090 C   0  0  0  0  0  0  0  0  0  0  0  0
  146.4391  137.8512  158.3932 N   0  0  0  0  0  0  0  0  0  0  0  0
  147.4362  137.1177  158.9656 C   0  0  0  0  0  0  0  0  0  0  0  0
  148.8325  137.3780  158.8749 C   0  0  0  0  0  0  0  0  0  0  0  0
  149.5401  136.4177  159.5877 N   0  0  0  0  0  0  0  0  0  0  0  0
  148.6152  135.6340  160.0711 C   0  0  0  0  0  0  0  0  0  0  0  0
  147.3221  135.9868  159.7561 N   0  0  0  0  0  0  0  0  0  0  0  0
  146.1057  135.3001  160.1634 C   0  0  0  0  0  0  0  0  0  0  0  0
  145.8820  135.2826  161.6871 C   0  0  0  0  0  0  0  0  0  0  0  0
  145.8246  136.7385  162.1938 C   0  0  0  0  0  0  0  0  0  0  0  0
  147.0315  137.4387  161.9665 O   0  0  0  0  0  0  0  0  0  0  0  0
  144.7578  134.3517  162.1640 C   0  0  0  0  0  0  0  0  0  0  0  0
  145.6315  133.6744  163.0943 O   0  0  0  0  0  0  0  0  0  0  0  0
  146.7724  134.3244  162.4915 C   0  0  0  0  0  0  0  0  0  0  0  0
  150.2420  141.3936  157.8292 C   0  0  0  0  0  0  0  0  0  0  0  0
  151.7399  145.8740  159.9538 H   0  0  0  0  0  0  0  0  0  0  0  0
  151.9305  145.6160  158.2206 H   0  0  0  0  0  0  0  0  0  0  0  0
  153.2207  145.1502  159.3288 H   0  0  0  0  0  0  0  0  0  0  0  0
  151.7220  143.4006  160.3373 H   0  0  0  0  0  0  0  0  0  0  0  0
  150.4333  143.8643  159.2304 H   0  0  0  0  0  0  0  0  0  0  0  0
  151.6614  141.2104  159.4837 H   0  0  0  0  0  0  0  0  0  0  0  0
  152.5957  141.1818  156.5468 H   0  0  0  0  0  0  0  0  0  0  0  0
  152.9273  139.9477  157.8143 H   0  0  0  0  0  0  0  0  0  0  0  0
  150.5350  140.0269  156.1105 H   0  0  0  0  0  0  0  0  0  0  0  0
  151.9014  137.4829  158.6314 H   0  0  0  0  0  0  0  0  0  0  0  0
  152.1210  137.9544  156.9460 H   0  0  0  0  0  0  0  0  0  0  0  0
  150.8205  136.8567  157.3811 H   0  0  0  0  0  0  0  0  0  0  0  0
  146.2010  139.5159  157.2234 H   0  0  0  0  0  0  0  0  0  0  0  0
  148.8553  134.7729  160.6773 H   0  0  0  0  0  0  0  0  0  0  0  0
  145.2590  135.7667  159.6583 H   0  0  0  0  0  0  0  0  0  0  0  0
  146.1558  134.2830  159.7724 H   0  0  0  0  0  0  0  0  0  0  0  0
  145.0322  137.2979  161.6967 H   0  0  0  0  0  0  0  0  0  0  0  0
  145.6118  136.7694  163.2628 H   0  0  0  0  0  0  0  0  0  0  0  0
  147.7062  137.0598  162.5090 H   0  0  0  0  0  0  0  0  0  0  0  0
  143.9294  134.8599  162.6587 H   0  0  0  0  0  0  0  0  0  0  0  0
  144.3869  133.6737  161.3938 H   0  0  0  0  0  0  0  0  0  0  0  0
  147.3489  133.6300  161.8794 H   0  0  0  0  0  0  0  0  0  0  0  0
  147.4117  134.8168  163.2251 H   0  0  0  0  0  0  0  0  0  0  0  0
  149.4338  141.2673  158.5501 H   0  0  0  0  0  0  0  0  0  0  0  0
  149.9953  142.1607  157.0934 H   0  0  0  0  0  0  0  0  0  0  0  0
  1  2  1  0  0  0  0
  1 26  1  0  0  0  0
  1 27  1  0  0  0  0
  1 28  1  0  0  0  0
  2  3  1  0  0  0  0
  2 29  1  0  0  0  0
  2 30  1  0  0  0  0
  3  4  1  0  0  0  0
  4 25  1  0  0  0  0
  4  5  1  0  0  0  0
  4 31  1  0  0  0  0
  5  6  1  0  0  0  0
  5 32  1  0  0  0  0
  5 33  1  0  0  0  0
  6  7  1  0  0  0  0
  6 25  1  0  0  0  0
  6 34  1  0  0  0  0
  7  8  1  0  0  0  0
  7  9  1  0  0  0  0
  8 35  1  0  0  0  0
  8 36  1  0  0  0  0
  8 37  1  0  0  0  0
  9 14  1  0  0  0  0
  9 10  2  0  0  0  0
 10 11  1  0  0  0  0
 11 12  2  0  0  0  0
 11 38  1  0  0  0  0
 12 13  1  0  0  0  0
 13 17  1  0  0  0  0
 13 14  2  0  0  0  0
 14 15  1  0  0  0  0
 15 16  2  0  0  0  0
 16 17  1  0  0  0  0
 16 39  1  0  0  0  0
 17 18  1  0  0  0  0
 18 19  1  0  0  0  0
 18 40  1  0  0  0  0
 18 41  1  0  0  0  0
 19 24  1  0  0  0  0
 19 20  1  0  0  0  0
 19 22  1  0  0  0  0
 20 21  1  0  0  0  0
 20 42  1  0  0  0  0
 20 43  1  0  0  0  0
 21 44  1  0  0  0  0
 22 23  1  0  0  0  0
 22 45  1  0  0  0  0
 22 46  1  0  0  0  0
 23 24  1  0  0  0  0
 24 47  1  0  0  0  0
 24 48  1  0  0  0  0
 25 49  1  0  0  0  0
 25 50  1  0  0  0  0
M  END
> <s_m_source_file>
AV-unprocessed.smi

> <i_m_source_file_index>
268

> <i_lp_mmshare_version>
43012

> <i_f3d_flags>
0

> <s_epik_input>
W0NIM11bQ0gyXU9bQ0BASF0xW0NIMl1bQ0BIXShbQ0gyXTEpTihbQ0gzXSljKG5bY0hdbjIpYyhjMjMpbltjSF1uM1tDSDJdQzQoW0NIMl1bT0hdKVtDSDJdT1tDSDJdNA==

> <s_epik_cmdline>
J2VwaWtfcHl0aG9uJywgJy1waCcsICc3LjAnLCAnLXRuJywgJzgnLCAnLW1hJywgJzIwMCcsICctbWV0YWxfYmluZGluZycsICctaW1hZScsICc8aW5maWxlLm1hZT4nLCAnLW9tYWUnLCAnPG91dGZpbGUubWFlPic=

> <r_lp_tautomer_probability>
1

> <r_epik_Ionization_Penalty>
0.00205824

> <r_epik_Ionization_Penalty_Charging>
0

> <r_epik_Ionization_Penalty_Neutral>
0.00205824

> <r_epik_State_Penalty>
0.00125218

> <r_epik_Charging_Adjusted_Penalty>
0.00125218

> <i_epik_Tot_Q>
0

> <i_epik_Tot_abs_Q>
0

> <r_epik_Metal_State_Penalty>
-0

> <b_epik_Metal_Only>
0

> <s_lp_Force_Field>
OPLS_2005

> <r_lp_Energy>
42.2334

> <b_lp_Chiralities_Consistent>
1

> <s_lp_Variant>
AV-unprocessed.smi:268-1

> <Gold.Version>
5.8.1

> <Gold.Id.Protein>
6NUR|6NUR_protein|mol2

> <Gold.PLP.Fitness>
40.2266

> <Gold.PLP.PLP>
-36.0579

> <Gold.PLP.part.hbond>
-3.9390

> <Gold.PLP.part.metal>
0.0000

> <Gold.PLP.part.buried>
-5.8828

> <Gold.PLP.part.nonpolar>
-25.1906

> <Gold.PLP.part.repulsive>
0.0857

> <Gold.PLP.ligand.clash>
0.0000

> <Gold.PLP.ligand.torsion>
0.7647

> <Gold.PLP.Chemscore.Hbond>
1.4261

> <Gold.PLP.Chemscore.CHOScore>
0.0000

> <Gold.PLP.Chemscore.Metal>
0.0000

> <Gold.Chemscore.Hbonds>
donor molecule, donor type, donor heavy atom, donor atom, acceptor molecule, acceptor atom, score
      P1  H  6896  6909       L1    15  0.66
      P1  H  6934  6947       L1    21  0.77

> <Gold.PLP.Chemscore.Internal.Correction>
1.4198

> <Gold.Rescore>
     Score         DG    S(hbond)    S(metal)    S(lipo)     H(rot)  DE(clash)    DE(int)     intcor
      7.59      -9.80       0.98        0.00      77.96       3.15       0.04       2.17       ----

> <Gold.Chemscore.Fitness>
7.5880

> <Gold.Chemscore.DG>
-9.7980

> <Gold.Chemscore.ZeroCoef>
-5.4800

> <Gold.Chemscore.Hbond>
0.9795

> <Gold.Chemscore.Metal>
0.0000

> <Gold.Chemscore.Lipo>
77.9587

> <Gold.Chemscore.Internal_Hbond>
0.0000

> <Gold.Chemscore.DEClash>
0.0402

> <Gold.Chemscore.DEInternal>
2.1698

> <Gold.Chemscore.Rot>
3.1542

> <Gold.Chemscore.Internal.Correction>
   9.000000E+99

> <Gold.Chemscore.Hbonds>
donor molecule, donor type, donor heavy atom, donor atom, acceptor molecule, acceptor atom, score
      P1  H  6896  6909       L1    15  0.07
      P1  H  6934  6947       L1    21  0.75

> <Gold.Chemscore.Hbond.Weighted>
-3.2717

> <Gold.Chemscore.Metal.Weighted>
-0.0000

> <Gold.Chemscore.Lipo.Weighted>
-9.1212

> <Gold.Chemscore.Internal_Hbond.Weighted>
0.0000

> <Gold.Chemscore.DEClash.Weighted>
0.0402

> <Gold.Chemscore.DEInternal.Weighted>
2.1698

> <Gold.Chemscore.Rot.Weighted>
8.0748

> <Gold.Chemscore.Internal.Correction.Weighted>
   9.000000E+99

> <Gold.Protein.RotatedTorsions>
[ 6907 6896 6895 6894 ] final   88.44 input  -60.11 | X-H torsion
[ 7974 7965 7964 7962 ] final   22.05 input  175.53 | X-H torsion
[ 8008 7997 7996 7995 ] final   67.94 input   59.86 | X-H torsion
[ 10167 10162 10161 10158 ] final -120.91 input  -65.29 | X-H torsion
[ 10718 10713 10712 10709 ] final   92.04 input   66.30 | X-H torsion
[ 10763 10752 10751 10750 ] final  -17.99 input  -60.55 | X-H torsion
[ 11005 11000 10999 10996 ] final -133.35 input  -57.11 | X-H torsion

> <Gold.Protein.ActiveResidues>
 VAL166  LYS551  ARG553  GLY616  TRP617  ASP618  TYR619  PRO620  LYS621  CYS622 
 ASP623  PHE694  ASN695  SER759  ASP760  ASP761  ALA762  ILE779  LEU786  VAL792 
 PHE793  MET794  SER795  GLU796  ALA797  LYS798  CYS799  TRP800  GLU811  SER814 

> <Gold.Protein.RotatedAtoms>
  152.5425  134.2121  159.8753 H   0  0  0  0  0  0  0  0  0  0  0  0  # atno 6907 bound_to 6896
  151.2103  133.4553  159.2605 H   0  0  0  0  0  0  0  0  0  0  0  0  # atno 6908 bound_to 6896
  151.0903  134.9925  159.8455 H   0  0  0  0  0  0  0  0  0  0  0  0  # atno 6909 bound_to 6896
  146.2045  139.7940  142.8736 H   0  0  0  0  0  0  0  0  0  0  0  0  # atno 7974 bound_to 7965
  155.7007  140.3495  155.4932 H   0  0  0  0  0  0  0  0  0  0  0  0  # atno 8008 bound_to 7997
  155.9443  140.1107  157.1052 H   0  0  0  0  0  0  0  0  0  0  0  0  # atno 8009 bound_to 7997
  154.4109  140.1206  156.4955 H   0  0  0  0  0  0  0  0  0  0  0  0  # atno 8010 bound_to 7997
  140.0307  143.5251  152.2177 H   0  0  0  0  0  0  0  0  0  0  0  0  # atno 10167 bound_to 10162
  157.6959  131.0429  150.3822 H   0  0  0  0  0  0  0  0  0  0  0  0  # atno 10718 bound_to 10713
  153.5824  135.7004  153.5457 H   0  0  0  0  0  0  0  0  0  0  0  0  # atno 10763 bound_to 10752
  153.3249  135.4063  155.1447 H   0  0  0  0  0  0  0  0  0  0  0  0  # atno 10764 bound_to 10752
  154.8615  135.3704  154.5352 H   0  0  0  0  0  0  0  0  0  0  0  0  # atno 10765 bound_to 10752
  140.9089  134.1594  157.4405 H   0  0  0  0  0  0  0  0  0  0  0  0  # atno 11005 bound_to 11000
  145.3366  141.0278  143.3416 LP  0  0  0  0  0  0  0  0  0  0  0  0  # atno 17320 bound_to 7965
  144.8761  139.4969  143.6745 LP  0  0  0  0  0  0  0  0  0  0  0  0  # atno 17321 bound_to 7965
  139.6078  144.7601  151.3022 LP  0  0  0  0  0  0  0  0  0  0  0  0  # atno 17342 bound_to 10162
  140.7303  143.6883  150.7943 LP  0  0  0  0  0  0  0  0  0  0  0  0  # atno 17343 bound_to 10162
  156.4234  130.3957  149.6809 LP  0  0  0  0  0  0  0  0  0  0  0  0  # atno 17370 bound_to 10713
  156.4052  130.7694  151.2705 LP  0  0  0  0  0  0  0  0  0  0  0  0  # atno 17371 bound_to 10713
  139.8754  134.9928  156.5612 LP  0  0  0  0  0  0  0  0  0  0  0  0  # atno 17394 bound_to 11000
  140.8136  133.8410  155.8832 LP  0  0  0  0  0  0  0  0  0  0  0  0  # atno 17395 bound_to 11000

$$$$
