AV-unprocessed.smi:1121|AV-procd|sdf|4826|dock2
  -GOLD-   22720 3383D 1   1.00000     0.00000
 Structure written by MMmdl.
 46 48  0  0  0  0  0  0  0  0  1 V2000
  149.1610  137.3002  156.1714 O   0  0  0  0  0  0  0  0  0  0  0  0
  149.0346  136.9914  154.9864 C   0  0  0  0  0  0  0  0  0  0  0  0
  148.6603  137.8262  154.0032 N   0  0  0  0  0  0  0  0  0  0  0  0
  148.3858  139.2206  154.0912 C   0  0  0  0  0  0  0  0  0  0  0  0
  147.3152  139.8266  153.3902 C   0  0  0  0  0  0  0  0  0  0  0  0
  147.1318  141.2175  153.4861 C   0  0  0  0  0  0  0  0  0  0  0  0
  148.0337  141.9570  154.2710 C   0  0  0  0  0  0  0  0  0  0  0  0
  149.0664  141.3973  154.9332 N   0  0  0  0  0  0  0  0  0  0  0  0
  149.2489  140.0566  154.8500 C   0  0  0  0  0  0  0  0  0  0  0  0
  150.3260  139.5030  155.5712 N   0  0  0  0  0  0  0  0  0  0  0  0
  151.3880  138.8627  154.8017 C   0  0  0  0  0  0  0  0  0  0  0  0
  152.3471  138.1223  155.7494 C   0  0  0  0  0  0  0  0  0  0  0  0
  152.8535  139.0318  156.7224 O   0  0  0  0  0  0  0  0  0  0  0  0
  151.8162  139.5975  157.5190 C   0  0  0  0  0  0  0  0  0  0  0  0
  150.8387  140.3752  156.6215 C   0  0  0  0  0  0  0  0  0  0  0  0
  149.2800  135.7630  154.5088 N   0  0  0  0  0  0  0  0  0  0  0  0
  149.7289  134.6226  155.3020 C   0  0  0  0  0  0  0  0  0  0  0  0
  149.6831  133.3257  154.4663 C   0  0  0  0  0  0  0  0  0  0  0  0
  150.0719  132.0989  155.3070 C   0  0  0  0  0  0  0  0  0  0  0  0
  149.1918  131.9792  156.5609 C   0  0  0  0  0  0  0  0  0  0  0  0
  149.2442  133.2661  157.3988 C   0  0  0  0  0  0  0  0  0  0  0  0
  148.8498  134.4928  156.5605 C   0  0  0  0  0  0  0  0  0  0  0  0
  148.6855  137.4500  153.0665 H   0  0  0  0  0  0  0  0  0  0  0  0
  146.6459  139.2531  152.7675 H   0  0  0  0  0  0  0  0  0  0  0  0
  146.3236  141.7064  152.9627 H   0  0  0  0  0  0  0  0  0  0  0  0
  147.9264  143.0275  154.3657 H   0  0  0  0  0  0  0  0  0  0  0  0
  150.9575  138.1637  154.0835 H   0  0  0  0  0  0  0  0  0  0  0  0
  151.9389  139.6151  154.2355 H   0  0  0  0  0  0  0  0  0  0  0  0
  151.8419  137.2902  156.2427 H   0  0  0  0  0  0  0  0  0  0  0  0
  153.1810  137.7014  155.1878 H   0  0  0  0  0  0  0  0  0  0  0  0
  151.2957  138.8117  158.0687 H   0  0  0  0  0  0  0  0  0  0  0  0
  152.2589  140.2639  158.2591 H   0  0  0  0  0  0  0  0  0  0  0  0
  151.3477  141.2237  156.1628 H   0  0  0  0  0  0  0  0  0  0  0  0
  150.0264  140.7814  157.2244 H   0  0  0  0  0  0  0  0  0  0  0  0
  149.1509  135.6043  153.5204 H   0  0  0  0  0  0  0  0  0  0  0  0
  150.7573  134.7990  155.6241 H   0  0  0  0  0  0  0  0  0  0  0  0
  148.6803  133.1826  154.0611 H   0  0  0  0  0  0  0  0  0  0  0  0
  150.3526  133.4044  153.6091 H   0  0  0  0  0  0  0  0  0  0  0  0
  149.9865  131.1936  154.7053 H   0  0  0  0  0  0  0  0  0  0  0  0
  151.1190  132.1762  155.6021 H   0  0  0  0  0  0  0  0  0  0  0  0
  148.1613  131.7755  156.2669 H   0  0  0  0  0  0  0  0  0  0  0  0
  149.5161  131.1297  157.1626 H   0  0  0  0  0  0  0  0  0  0  0  0
  148.5816  133.1762  158.2601 H   0  0  0  0  0  0  0  0  0  0  0  0
  150.2508  133.4034  157.7958 H   0  0  0  0  0  0  0  0  0  0  0  0
  148.9315  135.3941  157.1692 H   0  0  0  0  0  0  0  0  0  0  0  0
  147.8009  134.4090  156.2724 H   0  0  0  0  0  0  0  0  0  0  0  0
  1  2  2  0  0  0  0
  2  3  1  0  0  0  0
  2 16  1  0  0  0  0
  3  4  1  0  0  0  0
  3 23  1  0  0  0  0
  4  9  1  0  0  0  0
  4  5  2  0  0  0  0
  5  6  1  0  0  0  0
  5 24  1  0  0  0  0
  6  7  2  0  0  0  0
  6 25  1  0  0  0  0
  7  8  1  0  0  0  0
  7 26  1  0  0  0  0
  8  9  2  0  0  0  0
  9 10  1  0  0  0  0
 10 15  1  0  0  0  0
 10 11  1  0  0  0  0
 11 12  1  0  0  0  0
 11 27  1  0  0  0  0
 11 28  1  0  0  0  0
 12 13  1  0  0  0  0
 12 29  1  0  0  0  0
 12 30  1  0  0  0  0
 13 14  1  0  0  0  0
 14 15  1  0  0  0  0
 14 31  1  0  0  0  0
 14 32  1  0  0  0  0
 15 33  1  0  0  0  0
 15 34  1  0  0  0  0
 16 17  1  0  0  0  0
 16 35  1  0  0  0  0
 17 22  1  0  0  0  0
 17 18  1  0  0  0  0
 17 36  1  0  0  0  0
 18 19  1  0  0  0  0
 18 37  1  0  0  0  0
 18 38  1  0  0  0  0
 19 20  1  0  0  0  0
 19 39  1  0  0  0  0
 19 40  1  0  0  0  0
 20 21  1  0  0  0  0
 20 41  1  0  0  0  0
 20 42  1  0  0  0  0
 21 22  1  0  0  0  0
 21 43  1  0  0  0  0
 21 44  1  0  0  0  0
 22 45  1  0  0  0  0
 22 46  1  0  0  0  0
M  END
> <s_m_source_file>
AV-unprocessed.smi

> <i_m_source_file_index>
1121

> <i_lp_mmshare_version>
43012

> <i_f3d_flags>
0

> <s_epik_input>
W0NIMl0xW0NIMl1bQ0gyXVtDSDJdW0NIMl1bQ0hdMVtOSF1DKD1PKVtOSF1jMltjSF1bY0hdW2NIXW5jMk4zW0NIMl1bQ0gyXU9bQ0gyXVtDSDJdMw==

> <s_epik_cmdline>
J2VwaWtfcHl0aG9uJywgJy1waCcsICc3LjAnLCAnLXRuJywgJzgnLCAnLW1hJywgJzIwMCcsICctbWV0YWxfYmluZGluZycsICctaW1hZScsICc8aW5maWxlLm1hZT4nLCAnLW9tYWUnLCAnPG91dGZpbGUubWFlPic=

> <r_lp_tautomer_probability>
1

> <r_epik_Ionization_Penalty>
0.00218153

> <r_epik_Ionization_Penalty_Charging>
0

> <r_epik_Ionization_Penalty_Neutral>
0.00218153

> <r_epik_State_Penalty>
0.00146907

> <r_epik_Charging_Adjusted_Penalty>
0.00146907

> <i_epik_Tot_Q>
0

> <i_epik_Tot_abs_Q>
0

> <r_epik_Metal_State_Penalty>
-0

> <b_epik_Metal_Only>
0

> <s_lp_Force_Field>
OPLS_2005

> <r_lp_Energy>
26.2081

> <b_lp_Chiralities_Consistent>
1

> <s_lp_Variant>
AV-unprocessed.smi:1121-1

> <Gold.Version>
5.8.1

> <Gold.Id.Protein>
6NUR|6NUR_protein|mol2

> <Gold.PLP.Fitness>
43.2714

> <Gold.PLP.PLP>
-32.4696

> <Gold.PLP.part.hbond>
-3.0000

> <Gold.PLP.part.metal>
0.0000

> <Gold.PLP.part.buried>
-3.2431

> <Gold.PLP.part.nonpolar>
-26.3093

> <Gold.PLP.part.repulsive>
0.2181

> <Gold.PLP.ligand.clash>
0.0000

> <Gold.PLP.ligand.torsion>
0.7060

> <Gold.PLP.Chemscore.Hbond>
3.0000

> <Gold.PLP.Chemscore.CHOScore>
1.0000

> <Gold.PLP.Chemscore.Metal>
0.0000

> <Gold.Chemscore.Hbonds>
donor molecule, donor type, donor heavy atom, donor atom, acceptor molecule, acceptor atom, score
      L1  H     3    23       P1  7948  1.00
      L1  H    16    35       P1  7948  1.00
      P1  H  7997  8008       L1    13  1.00
      L1  C     7    26       P1  8028  1.00

> <Gold.PLP.Chemscore.Internal.Correction>
0.2138

> <Gold.Rescore>
     Score         DG    S(hbond)    S(metal)    S(lipo)     H(rot)  DE(clash)    DE(int)     intcor
     14.69     -20.62       2.75        0.00      76.73       1.18       0.03       5.90       ----

> <Gold.Chemscore.Fitness>
14.6920

> <Gold.Chemscore.DG>
-20.6224

> <Gold.Chemscore.ZeroCoef>
-5.4800

> <Gold.Chemscore.Hbond>
2.7536

> <Gold.Chemscore.Metal>
0.0000

> <Gold.Chemscore.Lipo>
76.7293

> <Gold.Chemscore.Internal_Hbond>
0.0000

> <Gold.Chemscore.DEClash>
0.0331

> <Gold.Chemscore.DEInternal>
5.8972

> <Gold.Chemscore.Rot>
1.1844

> <Gold.Chemscore.Internal.Correction>
   9.000000E+99

> <Gold.Chemscore.Hbonds>
donor molecule, donor type, donor heavy atom, donor atom, acceptor molecule, acceptor atom, score
      L1  H     3    23       P1  7948  0.99
      L1  H    16    35       P1  7948  0.58
      P1  H  7997  8008       L1    13  0.85

> <Gold.Chemscore.Hbond.Weighted>
-9.1971

> <Gold.Chemscore.Metal.Weighted>
-0.0000

> <Gold.Chemscore.Lipo.Weighted>
-8.9773

> <Gold.Chemscore.Internal_Hbond.Weighted>
0.0000

> <Gold.Chemscore.DEClash.Weighted>
0.0331

> <Gold.Chemscore.DEInternal.Weighted>
5.8972

> <Gold.Chemscore.Rot.Weighted>
3.0321

> <Gold.Chemscore.Internal.Correction.Weighted>
   9.000000E+99

> <Gold.Protein.RotatedTorsions>
[ 6907 6896 6895 6894 ] final -138.06 input  -60.11 | X-H torsion
[ 7974 7965 7964 7962 ] final   73.34 input  175.53 | X-H torsion
[ 8008 7997 7996 7995 ] final  -65.71 input   59.86 | X-H torsion
[ 10167 10162 10161 10158 ] final  -93.63 input  -65.29 | X-H torsion
[ 10718 10713 10712 10709 ] final   84.08 input   66.30 | X-H torsion
[ 10763 10752 10751 10750 ] final  -20.77 input  -60.55 | X-H torsion
[ 11005 11000 10999 10996 ] final  -53.27 input  -57.11 | X-H torsion

> <Gold.Protein.ActiveResidues>
 VAL166  LYS551  ARG553  GLY616  TRP617  ASP618  TYR619  PRO620  LYS621  CYS622 
 ASP623  PHE694  ASN695  SER759  ASP760  ASP761  ALA762  ILE779  LEU786  VAL792 
 PHE793  MET794  SER795  GLU796  ALA797  LYS798  CYS799  TRP800  GLU811  SER814 

> <Gold.Protein.RotatedAtoms>
  151.0303  133.5796  159.2661 H   0  0  0  0  0  0  0  0  0  0  0  0  # atno 6907 bound_to 6896
  151.2881  135.0733  159.9204 H   0  0  0  0  0  0  0  0  0  0  0  0  # atno 6908 bound_to 6896
  152.5343  134.0006  159.7947 H   0  0  0  0  0  0  0  0  0  0  0  0  # atno 6909 bound_to 6896
  145.7421  139.2725  143.1480 H   0  0  0  0  0  0  0  0  0  0  0  0  # atno 7974 bound_to 7965
  154.4689  140.0927  156.7092 H   0  0  0  0  0  0  0  0  0  0  0  0  # atno 8008 bound_to 7997
  155.4780  140.3466  155.4317 H   0  0  0  0  0  0  0  0  0  0  0  0  # atno 8009 bound_to 7997
  156.1004  140.1421  156.9463 H   0  0  0  0  0  0  0  0  0  0  0  0  # atno 8010 bound_to 7997
  140.3227  143.3040  152.0028 H   0  0  0  0  0  0  0  0  0  0  0  0  # atno 10167 bound_to 10162
  157.6891  131.0118  150.2619 H   0  0  0  0  0  0  0  0  0  0  0  0  # atno 10718 bound_to 10713
  153.6257  135.6991  153.5294 H   0  0  0  0  0  0  0  0  0  0  0  0  # atno 10763 bound_to 10752
  153.2901  135.4159  155.1158 H   0  0  0  0  0  0  0  0  0  0  0  0  # atno 10764 bound_to 10752
  154.8533  135.3623  154.5798 H   0  0  0  0  0  0  0  0  0  0  0  0  # atno 10765 bound_to 10752
  141.0967  133.6623  156.4147 H   0  0  0  0  0  0  0  0  0  0  0  0  # atno 11005 bound_to 11000
  146.0438  140.8138  142.9815 LP  0  0  0  0  0  0  0  0  0  0  0  0  # atno 17320 bound_to 7965
  144.6868  140.2950  143.7272 LP  0  0  0  0  0  0  0  0  0  0  0  0  # atno 17321 bound_to 7965
  139.4871  144.6298  151.7093 LP  0  0  0  0  0  0  0  0  0  0  0  0  # atno 17342 bound_to 10162
  140.5469  144.0489  150.6110 LP  0  0  0  0  0  0  0  0  0  0  0  0  # atno 17343 bound_to 10162
  156.3197  130.3784  149.7587 LP  0  0  0  0  0  0  0  0  0  0  0  0  # atno 17370 bound_to 10713
  156.5161  130.8194  151.3186 LP  0  0  0  0  0  0  0  0  0  0  0  0  # atno 17371 bound_to 10713
  140.5122  134.6384  157.5288 LP  0  0  0  0  0  0  0  0  0  0  0  0  # atno 17394 bound_to 11000
  139.9806  134.7143  155.9866 LP  0  0  0  0  0  0  0  0  0  0  0  0  # atno 17395 bound_to 11000

$$$$
