#       Name:                AV-unprocessed.smi:3330
#       Creating user name   scv26
#       Creation time:       Fri Mar 27 19:18:47 2020


#       File generated by GOLD software.
#

@<TRIPOS>MOLECULE
AV-unprocessed.smi:3330
    44    45     1
SMALL
NO_CHARGES


@<TRIPOS>ATOM
      1 ****        -1.7063  -1.3051   2.6223 C.3            1 S1                 0.0000
      2 ****        -1.2720  -0.6080   1.3182 C.3            1 S1                 0.0000
      3 ****         0.1852  -0.6374   1.2295 N.3            1 S1                 0.0000
      4 ****         0.8031   0.4260   2.0084 C.3            1 S1                 0.0000
      5 ****         2.2880   0.5517   1.6261 C.3            1 S1                 0.0000
      6 ****         2.4643   1.1942   0.3167 N.am           1 S1                 0.0000
      7 ****         2.6550   0.5351  -0.8307 C.2            1 S1                 0.0000
      8 ****         2.7073  -0.6827  -1.0052 O.2            1 S1                 0.0000
      9 ****         2.7892   1.5627  -1.9302 C.3            1 S1                 0.0000
     10 ****         2.6211   2.8060  -1.2136 N.pl3          1 S1                -1.0000
     11 ****         2.4349   2.5231   0.0971 C.2            1 S1                 0.0000
     12 ****         2.2560   3.3346   1.0050 O.2            1 S1                 0.0000
     13 ****        -1.8553  -1.2813   0.0457 C.3            1 S1                 0.0000
     14 ****        -3.3949  -1.2678   0.0111 C.3            1 S1                 0.0000
     15 ****        -1.3326  -0.6727  -1.1744 N.pl3          1 S1                 0.0000
     16 ****        -0.6128  -1.2758  -2.1852 C.2            1 S1                 0.0000
     17 ****        -0.3318  -0.3171  -3.1155 C.2            1 S1                 0.0000
     18 ****        -0.9267   0.8588  -2.5794 C.2            1 S1                 0.0000
     19 ****        -1.5306   0.6422  -1.4228 N.2            1 S1                 0.0000
     20 ****        -2.7850  -1.2489   2.7644 H              1 S1                 0.0000
     21 ****        -1.2549  -0.8422   3.4994 H              1 S1                 0.0000
     22 ****        -1.4248  -2.3585   2.6217 H              1 S1                 0.0000
     23 ****        -1.6107   0.4291   1.3369 H              1 S1                 0.0000
     24 ****         0.4434  -0.4972   0.2624 H              1 S1                 0.0000
     25 ****         0.2960   1.3768   1.8387 H              1 S1                 0.0000
     26 ****         0.7122   0.1961   3.0699 H              1 S1                 0.0000
     27 ****         2.8014   1.1482   2.3817 H              1 S1                 0.0000
     28 ****         2.7751  -0.4247   1.6511 H              1 S1                 0.0000
     29 ****         3.7657   1.4696  -2.4064 H              1 S1                 0.0000
     30 ****         2.0271   1.3985  -2.6919 H              1 S1                 0.0000
     31 ****        -1.5381  -2.3255   0.0380 H              1 S1                 0.0000
     32 ****        -3.8216  -1.8657   0.8156 H              1 S1                 0.0000
     33 ****        -3.7674  -1.6832  -0.9258 H              1 S1                 0.0000
     34 ****        -3.7869  -0.2544   0.1035 H              1 S1                 0.0000
     35 ****        -0.3576  -2.3248  -2.1559 H              1 S1                 0.0000
     36 ****         0.2222  -0.4352  -4.0347 H              1 S1                 0.0000
     37 ****        -0.9366   1.8564  -2.9930 H              1 S1                 0.0000
     38 ****         0.4997  -1.5169   1.5866 LP             1 S1                 0.0000
     39 ****         2.6005  -1.3041  -0.2290 LP             1 S1                 0.0000
     40 ****         2.8565  -1.0503  -1.9231 LP             1 S1                 0.0000
     41 ****         2.6392   3.7206  -1.6174 LP             1 S1                 0.0000
     42 ****         2.1263   3.0144   1.9435 LP             1 S1                 0.0000
     43 ****         2.2403   4.3141   0.8043 LP             1 S1                 0.0000
     44 ****        -2.0239   1.3034  -0.8576 LP             1 S1                 0.0000
@<TRIPOS>BOND
    1    1    2 1     
    2    1   20 1     
    3    1   21 1     
    4    1   22 1     
    5    2    3 1     
    6    2   13 1     
    7    2   23 1     
    8    3    4 1     
    9    3   24 1     
   10    4    5 1     
   11    4   25 1     
   12    4   26 1     
   13    5    6 1     
   14    5   27 1     
   15    5   28 1     
   16    6   11 am    
   17    6    7 am    
   18    7    8 2     
   19    7    9 1     
   20    9   10 1     
   21    9   29 1     
   22    9   30 1     
   23   10   11 1     
   24   11   12 2     
   25   13   14 1     
   26   13   15 1     
   27   13   31 1     
   28   14   32 1     
   29   14   33 1     
   30   14   34 1     
   31   15   19 1     
   32   15   16 1     
   33   16   17 2     
   34   16   35 1     
   35   17   18 1     
   36   17   36 1     
   37   18   19 2     
   38   18   37 1     
   39    3   38 1     
   40    8   39 1     
   41    8   40 1     
   42   10   41 1     
   43   12   42 1     
   44   12   43 1     
   45   19   44 1     
@<TRIPOS>SUBSTRUCTURE
      1 S1             1
@<TRIPOS>SET
LONE_PAIRS      STATIC     ATOMS    <user>   **** ""
7 38 39 40 41 42 43 44
DONOR_HYDROGENS      STATIC     ATOMS    <user>   **** ""
1 24
ATOM$BLUE        STATIC     ATOMS    COLORGROUP SYSTEM
7 38 39 40 41 42 43 44
ATOM$RED        STATIC     ATOMS    COLORGROUP SYSTEM
1 24
