#       Name:                AV-unprocessed.smi:3158
#       Creating user name   scv26
#       Creation time:       Fri Mar 27 17:47:29 2020


#       File generated by GOLD software.
#

@<TRIPOS>MOLECULE
AV-unprocessed.smi:3158
    43    43     1
SMALL
NO_CHARGES


@<TRIPOS>ATOM
      1 ****        -2.5494   0.6517  -1.2772 C.3            1 S1                 0.0000
      2 ****        -2.5745   1.8339  -0.2971 C.3            1 S1                 0.0000
      3 ****        -2.1999   1.4493   1.1467 C.3            1 S1                 0.0000
      4 ****        -2.3191   2.6477   2.1015 C.3            1 S1                 0.0000
      5 ****        -0.8439   0.9085   1.1833 N.am           1 S1                 0.0000
      6 ****        -0.3731   0.0246   2.0777 C.2            1 S1                 0.0000
      7 ****        -1.0473  -0.4142   3.0104 O.2            1 S1                 0.0000
      8 ****         1.0768  -0.4322   1.8615 C.3            1 S1                 0.0000
      9 ****         1.6340  -1.2029   3.0762 C.3            1 S1                 0.0000
     10 ****         1.1573  -1.2327   0.6309 N.3            1 S1                 0.0000
     11 ****         2.5044  -1.3135   0.0808 C.3            1 S1                 0.0000
     12 ****         2.4692  -2.0059  -1.2925 C.3            1 S1                 0.0000
     13 ****         1.7428  -1.2326  -2.2851 N.pl3          1 S1                 0.0000
     14 ****         0.4849  -1.4653  -2.8004 C.2            1 S1                 0.0000
     15 ****         0.2226  -0.4698  -3.6976 C.2            1 S1                 0.0000
     16 ****         1.3964   0.3336  -3.6630 C.2            1 S1                 0.0000
     17 ****         2.3056  -0.1269  -2.8189 N.2            1 S1                 0.0000
     18 ****        -2.8554   0.9684  -2.2744 H              1 S1                 0.0000
     19 ****        -3.2275  -0.1392  -0.9562 H              1 S1                 0.0000
     20 ****        -1.5510   0.2226  -1.3614 H              1 S1                 0.0000
     21 ****        -1.9017   2.6131  -0.6581 H              1 S1                 0.0000
     22 ****        -3.5742   2.2701  -0.3038 H              1 S1                 0.0000
     23 ****        -2.8983   0.6780   1.4774 H              1 S1                 0.0000
     24 ****        -3.3300   3.0558   2.0927 H              1 S1                 0.0000
     25 ****        -1.6343   3.4488   1.8215 H              1 S1                 0.0000
     26 ****        -2.0924   2.3592   3.1285 H              1 S1                 0.0000
     27 ****        -0.2171   1.2082   0.4502 H              1 S1                 0.0000
     28 ****         1.6637   0.4792   1.7337 H              1 S1                 0.0000
     29 ****         1.5089  -0.6325   3.9977 H              1 S1                 0.0000
     30 ****         2.7008  -1.3990   2.9713 H              1 S1                 0.0000
     31 ****         1.1323  -2.1625   3.2079 H              1 S1                 0.0000
     32 ****         0.7776  -2.1595   0.7610 H              1 S1                 0.0000
     33 ****         2.9376  -0.3169  -0.0163 H              1 S1                 0.0000
     34 ****         3.1452  -1.8807   0.7557 H              1 S1                 0.0000
     35 ****         3.4858  -2.1597  -1.6568 H              1 S1                 0.0000
     36 ****         2.0148  -2.9946  -1.2133 H              1 S1                 0.0000
     37 ****        -0.1142  -2.3069  -2.4854 H              1 S1                 0.0000
     38 ****        -0.6723  -0.3346  -4.2866 H              1 S1                 0.0000
     39 ****         1.6136   1.2312  -4.2230 H              1 S1                 0.0000
     40 ****        -1.9935  -0.1130   3.1285 LP             1 S1                 0.0000
     41 ****        -0.6485  -1.0718   3.6496 LP             1 S1                 0.0000
     42 ****         0.5961  -0.7454  -0.0380 LP             1 S1                 0.0000
     43 ****         3.2072   0.2575  -2.6207 LP             1 S1                 0.0000
@<TRIPOS>BOND
    1    1    2 1     
    2    1   18 1     
    3    1   19 1     
    4    1   20 1     
    5    2    3 1     
    6    2   21 1     
    7    2   22 1     
    8    3    4 1     
    9    3    5 1     
   10    3   23 1     
   11    4   24 1     
   12    4   25 1     
   13    4   26 1     
   14    5    6 am    
   15    5   27 1     
   16    6    7 2     
   17    6    8 1     
   18    8    9 1     
   19    8   10 1     
   20    8   28 1     
   21    9   29 1     
   22    9   30 1     
   23    9   31 1     
   24   10   11 1     
   25   10   32 1     
   26   11   12 1     
   27   11   33 1     
   28   11   34 1     
   29   12   13 1     
   30   12   35 1     
   31   12   36 1     
   32   13   17 1     
   33   13   14 1     
   34   14   15 2     
   35   14   37 1     
   36   15   16 1     
   37   15   38 1     
   38   16   17 2     
   39   16   39 1     
   40    7   40 1     
   41    7   41 1     
   42   10   42 1     
   43   17   43 1     
@<TRIPOS>SUBSTRUCTURE
      1 S1             1
@<TRIPOS>SET
LONE_PAIRS      STATIC     ATOMS    <user>   **** ""
4 40 41 42 43
DONOR_HYDROGENS      STATIC     ATOMS    <user>   **** ""
2 27 32
ATOM$BLUE        STATIC     ATOMS    COLORGROUP SYSTEM
4 40 41 42 43
ATOM$RED        STATIC     ATOMS    COLORGROUP SYSTEM
2 27 32
