AV-unprocessed.smi:101|AV-procd|sdf|923|dock2
  -GOLD-   2262017433D 1   1.00000     0.00000
 Structure written by MMmdl.
 44 46  0  0  0  0  0  0  0  0  1 V2000
  145.0531  137.8777  156.1500 C   0  0  0  0  0  0  0  0  0  0  0  0
  146.0921  137.0091  156.8392 C   0  0  0  0  0  0  0  0  0  0  0  0
  147.4190  137.1108  156.5714 C   0  0  0  0  0  0  0  0  0  0  0  0
  148.3900  136.3283  157.1810 N   0  0  0  0  0  0  0  0  0  0  0  0
  149.8524  136.5092  156.8353 C   0  0  2  0  0  0  0  0  0  0  0  0
  150.1546  137.8630  156.9506 O   0  0  0  0  0  0  0  0  0  0  0  0
  151.1156  138.2054  155.9654 C   0  0  2  0  0  0  0  0  0  0  0  0
  151.0646  139.7138  155.6991 C   0  0  0  0  0  0  0  0  0  0  0  0
  151.0830  140.4040  156.9376 O   0  0  0  0  0  0  0  0  0  0  0  0
  152.1264  140.2559  157.7765 C   0  0  0  0  0  0  0  0  0  0  0  0
  152.9312  139.3250  157.7061 O   0  0  0  0  0  0  0  0  0  0  0  0
  152.2061  141.3374  158.8006 C   0  0  0  0  0  0  0  0  0  0  0  0
  152.9943  141.1378  159.9582 C   0  0  0  0  0  0  0  0  0  0  0  0
  153.0899  142.1405  160.9426 C   0  0  0  0  0  0  0  0  0  0  0  0
  152.3992  143.3556  160.7813 C   0  0  0  0  0  0  0  0  0  0  0  0
  151.6117  143.5665  159.6343 C   0  0  0  0  0  0  0  0  0  0  0  0
  151.5144  142.5649  158.6489 C   0  0  0  0  0  0  0  0  0  0  0  0
  150.7024  137.3563  154.7604 C   0  0  1  0  0  0  0  0  0  0  0  0
  151.8177  137.1132  153.9258 O   0  0  0  0  0  0  0  0  0  0  0  0
  150.2052  136.0619  155.3972 C   0  0  2  0  0  0  0  0  0  0  0  0
  149.1180  135.5278  154.6626 O   0  0  0  0  0  0  0  0  0  0  0  0
  148.0039  135.3553  158.1257 C   0  0  0  0  0  0  0  0  0  0  0  0
  148.8044  134.6080  158.6865 O   0  0  0  0  0  0  0  0  0  0  0  0
  146.6423  135.2542  158.4054 N   0  0  0  0  0  0  0  0  0  0  0  0
  145.6325  136.0261  157.8247 C   0  0  0  0  0  0  0  0  0  0  0  0
  144.4624  135.8438  158.1566 O   0  0  0  0  0  0  0  0  0  0  0  0
  146.3602  134.5614  159.0836 H   0  0  0  0  0  0  0  0  0  0  0  0
  145.5086  138.5608  155.4324 H   0  0  0  0  0  0  0  0  0  0  0  0
  144.5098  138.4755  156.8826 H   0  0  0  0  0  0  0  0  0  0  0  0
  144.3347  137.2583  155.6116 H   0  0  0  0  0  0  0  0  0  0  0  0
  147.7381  137.8356  155.8357 H   0  0  0  0  0  0  0  0  0  0  0  0
  150.4389  135.9821  157.5895 H   0  0  0  0  0  0  0  0  0  0  0  0
  152.1033  137.9031  156.3197 H   0  0  0  0  0  0  0  0  0  0  0  0
  151.9325  140.0184  155.1126 H   0  0  0  0  0  0  0  0  0  0  0  0
  150.1719  139.9689  155.1260 H   0  0  0  0  0  0  0  0  0  0  0  0
  153.5343  140.2131  160.1041 H   0  0  0  0  0  0  0  0  0  0  0  0
  153.6945  141.9765  161.8224 H   0  0  0  0  0  0  0  0  0  0  0  0
  152.4731  144.1245  161.5361 H   0  0  0  0  0  0  0  0  0  0  0  0
  151.0807  144.4990  159.5096 H   0  0  0  0  0  0  0  0  0  0  0  0
  150.9020  142.7598  157.7806 H   0  0  0  0  0  0  0  0  0  0  0  0
  149.9037  137.8514  154.2050 H   0  0  0  0  0  0  0  0  0  0  0  0
  151.5150  137.0223  153.0352 H   0  0  0  0  0  0  0  0  0  0  0  0
  151.0000  135.3176  155.4674 H   0  0  0  0  0  0  0  0  0  0  0  0
  149.1657  135.8559  153.7775 H   0  0  0  0  0  0  0  0  0  0  0  0
  1  2  1  0  0  0  0
  1 28  1  0  0  0  0
  1 29  1  0  0  0  0
  1 30  1  0  0  0  0
  2 25  1  0  0  0  0
  2  3  2  0  0  0  0
  3  4  1  0  0  0  0
  3 31  1  0  0  0  0
  4  5  1  0  0  0  0
  4 22  1  0  0  0  0
  5 20  1  0  0  0  0
  5  6  1  0  0  0  0
  5 32  1  0  0  0  0
  6  7  1  0  0  0  0
  7  8  1  0  0  0  0
  7 18  1  0  0  0  0
  7 33  1  0  0  0  0
  8  9  1  0  0  0  0
  8 34  1  0  0  0  0
  8 35  1  0  0  0  0
  9 10  1  0  0  0  0
 10 11  2  0  0  0  0
 10 12  1  0  0  0  0
 12 17  1  0  0  0  0
 12 13  2  0  0  0  0
 13 14  1  0  0  0  0
 13 36  1  0  0  0  0
 14 15  2  0  0  0  0
 14 37  1  0  0  0  0
 15 16  1  0  0  0  0
 15 38  1  0  0  0  0
 16 17  2  0  0  0  0
 16 39  1  0  0  0  0
 17 40  1  0  0  0  0
 18 19  1  0  0  0  0
 18 20  1  0  0  0  0
 18 41  1  0  0  0  0
 19 42  1  0  0  0  0
 20 21  1  0  0  0  0
 20 43  1  0  0  0  0
 21 44  1  0  0  0  0
 22 23  2  0  0  0  0
 22 24  1  0  0  0  0
 24 27  1  0  0  0  0
 24 25  1  0  0  0  0
 25 26  2  0  0  0  0
M  END
> <s_m_source_file>
AV-unprocessed.smi

> <i_m_source_file_index>
101

> <i_lp_mmshare_version>
43012

> <i_f3d_flags>
0

> <s_epik_input>
Tz1jMVtuSF1jKD1PKW4oW2NIXWMxW0NIM10pW0NAQEhdMk9bQ0BIXShbQ0BASF0oW09IXSlbQ0BIXTJbT0hdKVtDSDJdT0MoPU8pYzNbY0hdW2NIXVtjSF1bY0hdW2NIXTM=

> <s_epik_cmdline>
J2VwaWtfcHl0aG9uJywgJy1waCcsICc3LjAnLCAnLXRuJywgJzgnLCAnLW1hJywgJzIwMCcsICctbWV0YWxfYmluZGluZycsICctaW1hZScsICc8aW5maWxlLm1hZT4nLCAnLW9tYWUnLCAnPG91dGZpbGUubWFlPic=

> <r_lp_tautomer_probability>
0.999537

> <r_epik_Ionization_Penalty>
0.00263537

> <r_epik_Ionization_Penalty_Charging>
0.00263428

> <r_epik_Ionization_Penalty_Neutral>
1.09111e-06

> <r_epik_State_Penalty>
0.00183335

> <r_epik_Charging_Adjusted_Penalty>
0.00446763

> <i_epik_Tot_Q>
0

> <i_epik_Tot_abs_Q>
0

> <r_epik_Metal_State_Penalty>
1.00528

> <b_epik_Metal_Only>
0

> <s_epik_Chemistry_Notes>
This compound has an ester and may undergo hydrolysis at high or low pH. This compound contains an acetal/aminal-like group ( X-CH(R)-Y where X, Y are N, S, or O) that may be acid/base labile, releasing an aldehyde.

> <s_lp_Force_Field>
OPLS_2005

> <r_lp_Energy>
35.5527

> <b_lp_Chiralities_Consistent>
1

> <s_lp_Variant>
AV-unprocessed.smi:101-11

> <Gold.Version>
5.8.1

> <Gold.Id.Protein>
6NUR|6NUR_protein|mol2

> <Gold.PLP.Fitness>
49.2968

> <Gold.PLP.PLP>
-35.1588

> <Gold.PLP.part.hbond>
-5.0000

> <Gold.PLP.part.metal>
0.0000

> <Gold.PLP.part.buried>
-5.5417

> <Gold.PLP.part.nonpolar>
-25.3008

> <Gold.PLP.part.repulsive>
0.0057

> <Gold.PLP.ligand.clash>
0.0000

> <Gold.PLP.ligand.torsion>
0.6319

> <Gold.PLP.Chemscore.Hbond>
5.0000

> <Gold.PLP.Chemscore.CHOScore>
0.0000

> <Gold.PLP.Chemscore.Metal>
0.0000

> <Gold.Chemscore.Hbonds>
donor molecule, donor type, donor heavy atom, donor atom, acceptor molecule, acceptor atom, score
      L1  H    19    42       P1  7949  1.00
      L1  H    21    44       P1  7948  1.00
      P1  H  6896  6907       L1    23  1.00
      P1  H  7997  8009       L1    11  1.00
      P1  H 10752 10763       L1    19  1.00

> <Gold.PLP.Chemscore.Internal.Correction>
0.4019

> <Gold.Rescore>
     Score         DG    S(hbond)    S(metal)    S(lipo)     H(rot)  DE(clash)    DE(int)     intcor
     18.55     -20.75       4.18        0.00      83.75       3.32       0.00       2.20       ----

> <Gold.Chemscore.Fitness>
18.5464

> <Gold.Chemscore.DG>
-20.7462

> <Gold.Chemscore.ZeroCoef>
-5.4800

> <Gold.Chemscore.Hbond>
4.1795

> <Gold.Chemscore.Metal>
0.0000

> <Gold.Chemscore.Lipo>
83.7494

> <Gold.Chemscore.Internal_Hbond>
0.0000

> <Gold.Chemscore.DEClash>
0.0021

> <Gold.Chemscore.DEInternal>
2.1977

> <Gold.Chemscore.Rot>
3.3172

> <Gold.Chemscore.Internal.Correction>
   9.000000E+99

> <Gold.Chemscore.Hbonds>
donor molecule, donor type, donor heavy atom, donor atom, acceptor molecule, acceptor atom, score
      L1  H    19    42       P1  7949  0.89
      L1  H    21    44       P1  7948  0.81
      P1  H  6896  6907       L1    23  0.94
      P1  H  7997  8009       L1    11  0.60
      P1  H 10752 10763       L1    19  0.34

> <Gold.Chemscore.Hbond.Weighted>
-13.9596

> <Gold.Chemscore.Metal.Weighted>
-0.0000

> <Gold.Chemscore.Lipo.Weighted>
-9.7987

> <Gold.Chemscore.Internal_Hbond.Weighted>
0.0000

> <Gold.Chemscore.DEClash.Weighted>
0.0021

> <Gold.Chemscore.DEInternal.Weighted>
2.1977

> <Gold.Chemscore.Rot.Weighted>
8.4920

> <Gold.Chemscore.Internal.Correction.Weighted>
   9.000000E+99

> <Gold.Protein.RotatedTorsions>
[ 6907 6896 6895 6894 ] final  -75.78 input  -60.11 | X-H torsion
[ 7974 7965 7964 7962 ] final -151.66 input  175.53 | X-H torsion
[ 8008 7997 7996 7995 ] final  160.09 input   59.86 | X-H torsion
[ 10167 10162 10161 10158 ] final -144.81 input  -65.29 | X-H torsion
[ 10718 10713 10712 10709 ] final  141.72 input   66.30 | X-H torsion
[ 10763 10752 10751 10750 ] final   29.15 input  -60.55 | X-H torsion
[ 11005 11000 10999 10996 ] final -103.80 input  -57.11 | X-H torsion

> <Gold.Protein.ActiveResidues>
 VAL166  LYS551  ARG553  GLY616  TRP617  ASP618  TYR619  PRO620  LYS621  CYS622 
 ASP623  PHE694  ASN695  SER759  ASP760  ASP761  ALA762  ILE779  LEU786  VAL792 
 PHE793  MET794  SER795  GLU796  ALA797  LYS798  CYS799  TRP800  GLU811  SER814 

> <Gold.Protein.RotatedAtoms>
  150.7048  134.4669  159.5406 H   0  0  0  0  0  0  0  0  0  0  0  0  # atno 6907 bound_to 6896
  152.2333  134.8298  160.0479 H   0  0  0  0  0  0  0  0  0  0  0  0  # atno 6908 bound_to 6896
  151.9106  133.3525  159.3899 H   0  0  0  0  0  0  0  0  0  0  0  0  # atno 6909 bound_to 6896
  144.7837  140.4767  143.5821 H   0  0  0  0  0  0  0  0  0  0  0  0  # atno 7974 bound_to 7965
  156.2196  140.1813  156.7509 H   0  0  0  0  0  0  0  0  0  0  0  0  # atno 8008 bound_to 7997
  154.5844  140.0661  156.9179 H   0  0  0  0  0  0  0  0  0  0  0  0  # atno 8009 bound_to 7997
  155.2445  140.3324  155.4291 H   0  0  0  0  0  0  0  0  0  0  0  0  # atno 8010 bound_to 7997
  139.7864  143.8027  152.2645 H   0  0  0  0  0  0  0  0  0  0  0  0  # atno 10167 bound_to 10162
  157.3887  131.1002  151.0668 H   0  0  0  0  0  0  0  0  0  0  0  0  # atno 10718 bound_to 10713
  153.0448  135.6496  154.0847 H   0  0  0  0  0  0  0  0  0  0  0  0  # atno 10763 bound_to 10752
  154.0547  135.2893  155.3336 H   0  0  0  0  0  0  0  0  0  0  0  0  # atno 10764 bound_to 10752
  154.6697  135.5361  153.8188 H   0  0  0  0  0  0  0  0  0  0  0  0  # atno 10765 bound_to 10752
  141.1129  133.8670  157.1531 H   0  0  0  0  0  0  0  0  0  0  0  0  # atno 11005 bound_to 11000
  145.5980  139.1501  143.3145 LP  0  0  0  0  0  0  0  0  0  0  0  0  # atno 17320 bound_to 7965
  146.2058  140.6102  142.9081 LP  0  0  0  0  0  0  0  0  0  0  0  0  # atno 17321 bound_to 7965
  139.8106  144.7337  150.9703 LP  0  0  0  0  0  0  0  0  0  0  0  0  # atno 17342 bound_to 10162
  140.7819  143.4255  151.0775 LP  0  0  0  0  0  0  0  0  0  0  0  0  # atno 17343 bound_to 10162
  157.1709  130.6267  149.5640 LP  0  0  0  0  0  0  0  0  0  0  0  0  # atno 17370 bound_to 10713
  155.9793  130.4785  150.6707 LP  0  0  0  0  0  0  0  0  0  0  0  0  # atno 17371 bound_to 10713
  140.0034  135.0018  157.0239 LP  0  0  0  0  0  0  0  0  0  0  0  0  # atno 17394 bound_to 11000
  140.4725  134.1372  155.7205 LP  0  0  0  0  0  0  0  0  0  0  0  0  # atno 17395 bound_to 11000

$$$$
