AV-unprocessed.smi:2079|AV-procd|sdf|8481|dock2
  -GOLD-   2272011183D 1   1.00000     0.00000
 Structure written by MMmdl.
 41 42  0  0  0  0  0  0  0  0  3 V2000
  149.1307  140.7193  154.3330 C   0  0  0  0  0  0  0  0  0  0  0  0
  150.0725  139.5840  154.5461 C   0  0  0  0  0  0  0  0  0  0  0  0
  149.8883  138.2368  154.6772 C   0  0  0  0  0  0  0  0  0  0  0  0
  151.2102  137.7440  154.8524 C   0  0  0  0  0  0  0  0  0  0  0  0
  151.5557  136.4611  155.0396 N   0  5  0  0  0  0  0  0  0  0  0  0
  150.6229  135.5502  155.3976 C   0  0  0  0  0  0  0  0  0  0  0  0
  150.4188  135.1172  156.5342 O   0  0  0  0  0  0  0  0  0  0  0  0
  149.8818  135.1080  154.3718 N   0  0  0  0  0  0  0  0  0  0  0  0
  148.8111  134.1229  154.4576 C   0  0  0  0  0  0  0  0  0  0  0  0
  147.4269  134.7912  154.3536 C   0  0  0  0  0  0  0  0  0  0  0  0
  146.8650  134.7704  152.9763 N   0  3  2  0  0  0  0  0  0  0  0  0
  145.6032  135.5529  152.8781 C   0  0  0  0  0  0  0  0  0  0  0  0
  145.1530  135.7113  151.4170 C   0  0  0  0  0  0  0  0  0  0  0  0
  145.0053  134.3478  150.7333 C   0  0  0  0  0  0  0  0  0  0  0  0
  146.3127  133.5547  150.8652 C   0  0  0  0  0  0  0  0  0  0  0  0
  146.7689  133.4210  152.3339 C   0  0  2  0  0  0  0  0  0  0  0  0
  145.9008  132.4186  153.1247 C   0  0  0  0  0  0  0  0  0  0  0  0
  152.1149  138.7084  154.8433 N   0  0  0  0  0  0  0  0  0  0  0  0
  151.3939  139.8913  154.6418 O   0  0  0  0  0  0  0  0  0  0  0  0
  148.6471  140.9985  155.2690 H   0  0  0  0  0  0  0  0  0  0  0  0
  148.3544  140.4477  153.6177 H   0  0  0  0  0  0  0  0  0  0  0  0
  149.6530  141.5951  153.9473 H   0  0  0  0  0  0  0  0  0  0  0  0
  148.9581  137.6899  154.6501 H   0  0  0  0  0  0  0  0  0  0  0  0
  150.0795  135.4926  153.4591 H   0  0  0  0  0  0  0  0  0  0  0  0
  148.9349  133.3638  153.6835 H   0  0  0  0  0  0  0  0  0  0  0  0
  148.9286  133.6185  155.4156 H   0  0  0  0  0  0  0  0  0  0  0  0
  146.7278  134.3412  155.0587 H   0  0  0  0  0  0  0  0  0  0  0  0
  147.5267  135.8335  154.6593 H   0  0  0  0  0  0  0  0  0  0  0  0
  144.8202  135.0774  153.4696 H   0  0  0  0  0  0  0  0  0  0  0  0
  145.7538  136.5444  153.3068 H   0  0  0  0  0  0  0  0  0  0  0  0
  144.2078  136.2536  151.3744 H   0  0  0  0  0  0  0  0  0  0  0  0
  145.8808  136.3158  150.8739 H   0  0  0  0  0  0  0  0  0  0  0  0
  144.1806  133.7929  151.1819 H   0  0  0  0  0  0  0  0  0  0  0  0
  144.7520  134.4816  149.6813 H   0  0  0  0  0  0  0  0  0  0  0  0
  146.1996  132.5694  150.4118 H   0  0  0  0  0  0  0  0  0  0  0  0
  147.0920  134.0605  150.2935 H   0  0  0  0  0  0  0  0  0  0  0  0
  147.7735  133.0020  152.2891 H   0  0  0  0  0  0  0  0  0  0  0  0
  145.8483  131.4623  152.6037 H   0  0  0  0  0  0  0  0  0  0  0  0
  144.8782  132.7700  153.2588 H   0  0  0  0  0  0  0  0  0  0  0  0
  146.3155  132.2138  154.1114 H   0  0  0  0  0  0  0  0  0  0  0  0
  147.5322  135.2825  152.4170 H   0  0  0  0  0  0  0  0  0  0  0  0
  1  2  1  0  0  0  0
  1 20  1  0  0  0  0
  1 21  1  0  0  0  0
  1 22  1  0  0  0  0
  2 19  1  0  0  0  0
  2  3  2  0  0  0  0
  3  4  1  0  0  0  0
  3 23  1  0  0  0  0
  4  5  1  0  0  0  0
  4 18  2  0  0  0  0
  5  6  1  0  0  0  0
  6  7  2  0  0  0  0
  6  8  1  0  0  0  0
  8  9  1  0  0  0  0
  8 24  1  0  0  0  0
  9 10  1  0  0  0  0
  9 25  1  0  0  0  0
  9 26  1  0  0  0  0
 10 11  1  0  0  0  0
 10 27  1  0  0  0  0
 10 28  1  0  0  0  0
 11 16  1  0  0  0  0
 11 12  1  0  0  0  0
 11 41  1  0  0  0  0
 12 13  1  0  0  0  0
 12 29  1  0  0  0  0
 12 30  1  0  0  0  0
 13 14  1  0  0  0  0
 13 31  1  0  0  0  0
 13 32  1  0  0  0  0
 14 15  1  0  0  0  0
 14 33  1  0  0  0  0
 14 34  1  0  0  0  0
 15 16  1  0  0  0  0
 15 35  1  0  0  0  0
 15 36  1  0  0  0  0
 16 17  1  0  0  0  0
 16 37  1  0  0  0  0
 17 38  1  0  0  0  0
 17 39  1  0  0  0  0
 17 40  1  0  0  0  0
 18 19  1  0  0  0  0
M  CHG  1   5  -1
M  CHG  1  11   1
M  END
> <s_m_source_file>
AV-unprocessed.smi

> <i_m_source_file_index>
2079

> <i_lp_mmshare_version>
43012

> <i_f3d_flags>
0

> <s_epik_input>
W0NIM11jMVtjSF1jKG5vMSlbTkhdQyg9TylbTkhdW0NIMl1bQ0gyXU4yW0NIMl1bQ0gyXVtDSDJdW0NIMl1bQ0BIXTJbQ0gzXQ==

> <s_epik_cmdline>
J2VwaWtfcHl0aG9uJywgJy1waCcsICc3LjAnLCAnLXRuJywgJzgnLCAnLW1hJywgJzIwMCcsICctbWV0YWxfYmluZGluZycsICctaW1hZScsICc8aW5maWxlLm1hZT4nLCAnLW9tYWUnLCAnPG91dGZpbGUubWFlPic=

> <r_epik_Ionization_Penalty>
6.22371

> <r_epik_Ionization_Penalty_Charging>
6.22362

> <r_epik_Ionization_Penalty_Neutral>
9.40454e-05

> <r_epik_State_Penalty>
6.22363

> <r_epik_Charging_Adjusted_Penalty>
12.4472

> <i_epik_Tot_Q>
0

> <i_epik_Tot_abs_Q>
2

> <r_epik_Metal_State_Penalty>
2.16675

> <b_epik_Metal_Only>
1

> <s_lp_Force_Field>
OPLS_2005

> <r_lp_Energy>
7.26358

> <b_lp_Chiralities_Consistent>
1

> <s_lp_Variant>
AV-unprocessed.smi:2079-7

> <Gold.Version>
5.8.1

> <Gold.Id.Protein>
6NUR|6NUR_protein|mol2

> <Gold.PLP.Fitness>
45.8641

> <Gold.PLP.PLP>
-32.7296

> <Gold.PLP.part.hbond>
-4.3420

> <Gold.PLP.part.metal>
0.0000

> <Gold.PLP.part.buried>
-4.7394

> <Gold.PLP.part.nonpolar>
-23.8283

> <Gold.PLP.part.repulsive>
0.2887

> <Gold.PLP.ligand.clash>
0.0000

> <Gold.PLP.ligand.torsion>
1.1467

> <Gold.PLP.Chemscore.Hbond>
5.1094

> <Gold.PLP.Chemscore.CHOScore>
0.0000

> <Gold.PLP.Chemscore.Metal>
0.0000

> <Gold.Chemscore.Hbonds>
donor molecule, donor type, donor heavy atom, donor atom, acceptor molecule, acceptor atom, score
      L1  H     8    24       P1  7948  0.11
      L1  H    11    41       P1  7948  2.00
      P1  H  7989  7998       L1    19  0.98
      P1  H 10752 10763       L1     5  2.00

> <Gold.PLP.Chemscore.Internal.Correction>
0.0996

> <Gold.Rescore>
     Score         DG    S(hbond)    S(metal)    S(lipo)     H(rot)  DE(clash)    DE(int)     intcor
     16.10     -17.26       2.69        0.00      57.65       1.54       0.00       1.16       ----

> <Gold.Chemscore.Fitness>
16.1013

> <Gold.Chemscore.DG>
-17.2640

> <Gold.Chemscore.ZeroCoef>
-5.4800

> <Gold.Chemscore.Hbond>
2.6897

> <Gold.Chemscore.Metal>
0.0000

> <Gold.Chemscore.Lipo>
57.6508

> <Gold.Chemscore.Internal_Hbond>
0.0000

> <Gold.Chemscore.DEClash>
0.0000

> <Gold.Chemscore.DEInternal>
1.1627

> <Gold.Chemscore.Rot>
1.5409

> <Gold.Chemscore.Internal.Correction>
   9.000000E+99

> <Gold.Chemscore.Hbonds>
donor molecule, donor type, donor heavy atom, donor atom, acceptor molecule, acceptor atom, score
      L1  H    11    41       P1  7948  1.00
      P1  H  7989  7998       L1    19  0.45
      P1  H 10752 10763       L1     5  0.65

> <Gold.Chemscore.Hbond.Weighted>
-8.9835

> <Gold.Chemscore.Metal.Weighted>
-0.0000

> <Gold.Chemscore.Lipo.Weighted>
-6.7451

> <Gold.Chemscore.Internal_Hbond.Weighted>
0.0000

> <Gold.Chemscore.DEClash.Weighted>
0.0000

> <Gold.Chemscore.DEInternal.Weighted>
1.1627

> <Gold.Chemscore.Rot.Weighted>
3.9446

> <Gold.Chemscore.Internal.Correction.Weighted>
   9.000000E+99

> <Gold.Protein.RotatedTorsions>
[ 6907 6896 6895 6894 ] final  -54.05 input  -60.11 | X-H torsion
[ 7974 7965 7964 7962 ] final    0.40 input  175.53 | X-H torsion
[ 8008 7997 7996 7995 ] final   64.19 input   59.86 | X-H torsion
[ 10167 10162 10161 10158 ] final   62.60 input  -65.29 | X-H torsion
[ 10718 10713 10712 10709 ] final  -30.08 input   66.30 | X-H torsion
[ 10763 10752 10751 10750 ] final   51.16 input  -60.55 | X-H torsion
[ 11005 11000 10999 10996 ] final -121.93 input  -57.11 | X-H torsion

> <Gold.Protein.ActiveResidues>
 VAL166  LYS551  ARG553  GLY616  TRP617  ASP618  TYR619  PRO620  LYS621  CYS622 
 ASP623  PHE694  ASN695  SER759  ASP760  ASP761  ALA762  ILE779  LEU786  VAL792 
 PHE793  MET794  SER795  GLU796  ALA797  LYS798  CYS799  TRP800  GLU811  SER814 

> <Gold.Protein.RotatedAtoms>
  150.8372  134.7650  159.6902 H   0  0  0  0  0  0  0  0  0  0  0  0  # atno 6907 bound_to 6896
  152.4466  134.5478  159.9867 H   0  0  0  0  0  0  0  0  0  0  0  0  # atno 6908 bound_to 6896
  151.5625  133.3363  159.3010 H   0  0  0  0  0  0  0  0  0  0  0  0  # atno 6909 bound_to 6896
  146.2434  140.1143  142.8342 H   0  0  0  0  0  0  0  0  0  0  0  0  # atno 7974 bound_to 7965
  155.6421  140.3497  155.4718 H   0  0  0  0  0  0  0  0  0  0  0  0  # atno 8008 bound_to 7997
  155.9918  140.1195  157.0655 H   0  0  0  0  0  0  0  0  0  0  0  0  # atno 8009 bound_to 7997
  154.4221  140.1118  156.5561 H   0  0  0  0  0  0  0  0  0  0  0  0  # atno 8010 bound_to 7997
  140.1421  144.4543  150.6805 H   0  0  0  0  0  0  0  0  0  0  0  0  # atno 10167 bound_to 10162
  156.4044  130.4396  149.7298 H   0  0  0  0  0  0  0  0  0  0  0  0  # atno 10718 bound_to 10713
  152.9785  135.5855  154.4370 H   0  0  0  0  0  0  0  0  0  0  0  0  # atno 10763 bound_to 10752
  154.3976  135.2768  155.2118 H   0  0  0  0  0  0  0  0  0  0  0  0  # atno 10764 bound_to 10752
  154.3963  135.6114  153.5926 H   0  0  0  0  0  0  0  0  0  0  0  0  # atno 10765 bound_to 10752
  141.0033  134.0371  157.3509 H   0  0  0  0  0  0  0  0  0  0  0  0  # atno 11005 bound_to 11000
  145.0460  140.8982  143.5024 LP  0  0  0  0  0  0  0  0  0  0  0  0  # atno 17320 bound_to 7965
  145.1233  139.2679  143.5577 LP  0  0  0  0  0  0  0  0  0  0  0  0  # atno 17321 bound_to 7965
  140.6754  143.2303  151.5521 LP  0  0  0  0  0  0  0  0  0  0  0  0  # atno 17342 bound_to 10162
  139.5467  144.2503  152.1455 LP  0  0  0  0  0  0  0  0  0  0  0  0  # atno 17343 bound_to 10162
  156.4302  130.7811  151.2831 LP  0  0  0  0  0  0  0  0  0  0  0  0  # atno 17370 bound_to 10713
  157.7505  131.0156  150.3512 LP  0  0  0  0  0  0  0  0  0  0  0  0  # atno 17371 bound_to 10713
  139.9050  135.0177  156.7445 LP  0  0  0  0  0  0  0  0  0  0  0  0  # atno 17394 bound_to 11000
  140.6853  133.9438  155.7934 LP  0  0  0  0  0  0  0  0  0  0  0  0  # atno 17395 bound_to 11000

$$$$
