AV-unprocessed.smi:821|AV-procd|sdf|3840|dock3
  -GOLD-   22720 1283D 1   1.00000     0.00000
 Structure written by MMmdl.
 45 46  0  0  0  0  0  0  0  0  2 V2000
  150.8324  138.2430  154.2854 C   0  0  0  0  0  0  0  0  0  0  0  0
  149.8438  139.1863  154.9836 C   0  0  2  0  0  0  0  0  0  0  0  0
  148.7251  139.6512  154.0222 C   0  0  0  0  0  0  0  0  0  0  0  0
  147.8355  138.5497  153.5694 N   0  3  0  0  0  0  0  0  0  0  0  0
  147.2363  137.7962  154.6964 C   0  0  0  0  0  0  0  0  0  0  0  0
  146.3764  136.6321  154.1727 C   0  0  0  0  0  0  0  0  0  0  0  0
  145.3875  137.1244  153.2766 O   0  0  0  0  0  0  0  0  0  0  0  0
  145.9618  137.7755  152.1502 C   0  0  0  0  0  0  0  0  0  0  0  0
  146.7796  138.9873  152.6247 C   0  0  0  0  0  0  0  0  0  0  0  0
  150.5696  140.3344  155.5272 N   0  0  0  0  0  0  0  0  0  0  0  0
  150.7747  140.5906  156.8289 C   0  0  0  0  0  0  0  0  0  0  0  0
  150.4301  139.8307  157.7340 O   0  0  0  0  0  0  0  0  0  0  0  0
  151.4594  141.9237  157.1573 C   0  0  0  0  0  0  0  0  0  0  0  0
  152.0653  141.9256  158.5005 N   0  0  0  0  0  0  0  0  0  0  0  0
  151.7389  142.9975  159.3499 C   0  0  0  0  0  0  0  0  0  0  0  0
  152.2465  143.0976  160.5858 C   0  0  0  0  0  0  0  0  0  0  0  0
  153.1517  142.0692  161.0379 C   0  0  0  0  0  0  0  0  0  0  0  0
  153.4880  141.0276  160.2425 C   0  0  0  0  0  0  0  0  0  0  0  0
  154.4444  139.9307  160.7051 C   0  0  0  0  0  0  0  0  0  0  0  0
  153.8727  138.7301  160.6040 F   0  0  0  0  0  0  0  0  0  0  0  0
  155.5470  139.9303  159.9551 F   0  0  0  0  0  0  0  0  0  0  0  0
  154.8145  140.0994  161.9753 F   0  0  0  0  0  0  0  0  0  0  0  0
  152.9177  140.9239  158.8841 C   0  0  0  0  0  0  0  0  0  0  0  0
  153.1936  139.9953  158.1216 O   0  0  0  0  0  0  0  0  0  0  0  0
  150.3216  137.3656  153.8878 H   0  0  0  0  0  0  0  0  0  0  0  0
  151.5965  137.8913  154.9795 H   0  0  0  0  0  0  0  0  0  0  0  0
  151.3391  138.7371  153.4555 H   0  0  0  0  0  0  0  0  0  0  0  0
  149.3901  138.6178  155.7965 H   0  0  0  0  0  0  0  0  0  0  0  0
  148.1177  140.3909  154.5463 H   0  0  0  0  0  0  0  0  0  0  0  0
  149.1485  140.1638  153.1570 H   0  0  0  0  0  0  0  0  0  0  0  0
  148.0233  137.4059  155.3428 H   0  0  0  0  0  0  0  0  0  0  0  0
  146.6266  138.4688  155.3019 H   0  0  0  0  0  0  0  0  0  0  0  0
  146.9928  135.8835  153.6750 H   0  0  0  0  0  0  0  0  0  0  0  0
  145.8804  136.1295  155.0030 H   0  0  0  0  0  0  0  0  0  0  0  0
  146.5865  137.0803  151.5867 H   0  0  0  0  0  0  0  0  0  0  0  0
  145.1625  138.0986  151.4834 H   0  0  0  0  0  0  0  0  0  0  0  0
  146.1258  139.7116  153.1129 H   0  0  0  0  0  0  0  0  0  0  0  0
  147.2178  139.4870  151.7622 H   0  0  0  0  0  0  0  0  0  0  0  0
  150.9073  141.0119  154.8584 H   0  0  0  0  0  0  0  0  0  0  0  0
  152.2051  142.1199  156.3860 H   0  0  0  0  0  0  0  0  0  0  0  0
  150.7415  142.7430  157.0801 H   0  0  0  0  0  0  0  0  0  0  0  0
  151.0608  143.7292  158.9352 H   0  0  0  0  0  0  0  0  0  0  0  0
  151.9881  143.9288  161.2255 H   0  0  0  0  0  0  0  0  0  0  0  0
  153.5630  142.1497  162.0329 H   0  0  0  0  0  0  0  0  0  0  0  0
  148.4222  137.8941  153.0723 H   0  0  0  0  0  0  0  0  0  0  0  0
  1  2  1  0  0  0  0
  1 25  1  0  0  0  0
  1 26  1  0  0  0  0
  1 27  1  0  0  0  0
  2  3  1  0  0  0  0
  2 10  1  0  0  0  0
  2 28  1  0  0  0  0
  3  4  1  0  0  0  0
  3 29  1  0  0  0  0
  3 30  1  0  0  0  0
  4  9  1  0  0  0  0
  4  5  1  0  0  0  0
  4 45  1  0  0  0  0
  5  6  1  0  0  0  0
  5 31  1  0  0  0  0
  5 32  1  0  0  0  0
  6  7  1  0  0  0  0
  6 33  1  0  0  0  0
  6 34  1  0  0  0  0
  7  8  1  0  0  0  0
  8  9  1  0  0  0  0
  8 35  1  0  0  0  0
  8 36  1  0  0  0  0
  9 37  1  0  0  0  0
  9 38  1  0  0  0  0
 10 11  1  0  0  0  0
 10 39  1  0  0  0  0
 11 12  2  0  0  0  0
 11 13  1  0  0  0  0
 13 14  1  0  0  0  0
 13 40  1  0  0  0  0
 13 41  1  0  0  0  0
 14 23  1  0  0  0  0
 14 15  1  0  0  0  0
 15 16  2  0  0  0  0
 15 42  1  0  0  0  0
 16 17  1  0  0  0  0
 16 43  1  0  0  0  0
 17 18  2  0  0  0  0
 17 44  1  0  0  0  0
 18 19  1  0  0  0  0
 18 23  1  0  0  0  0
 19 20  1  0  0  0  0
 19 21  1  0  0  0  0
 19 22  1  0  0  0  0
 23 24  2  0  0  0  0
M  CHG  1   4   1
M  END
> <s_m_source_file>
AV-unprocessed.smi

> <i_m_source_file_index>
821

> <i_lp_mmshare_version>
43012

> <i_f3d_flags>
0

> <s_epik_input>
W0NIMl0xW0NIMl1PW0NIMl1bQ0gyXU4xW0NIMl1bQ0BASF0oW0NIM10pW05IXUMoPU8pW0NIMl1uMltjSF1bY0hdW2NIXWMoQyhGKShGKUYpYzI9Tw==

> <s_epik_cmdline>
J2VwaWtfcHl0aG9uJywgJy1waCcsICc3LjAnLCAnLXRuJywgJzgnLCAnLW1hJywgJzIwMCcsICctbWV0YWxfYmluZGluZycsICctaW1hZScsICc8aW5maWxlLm1hZT4nLCAnLW9tYWUnLCAnPG91dGZpbGUubWFlPic=

> <r_lp_tautomer_probability>
1

> <r_epik_Ionization_Penalty>
0.656654

> <r_epik_Ionization_Penalty_Charging>
0.656653

> <r_epik_Ionization_Penalty_Neutral>
9.12373e-08

> <r_epik_State_Penalty>
0.675641

> <r_epik_Charging_Adjusted_Penalty>
1.33229

> <i_epik_Tot_Q>
1

> <i_epik_Tot_abs_Q>
1

> <r_epik_Metal_State_Penalty>
0.675695

> <b_epik_Metal_Only>
0

> <s_lp_Force_Field>
OPLS_2005

> <r_lp_Energy>
29.4747

> <b_lp_Chiralities_Consistent>
1

> <s_lp_Variant>
AV-unprocessed.smi:821-3

> <Gold.Version>
5.8.1

> <Gold.Id.Protein>
6NUR|6NUR_protein|mol2

> <Gold.PLP.Fitness>
50.1584

> <Gold.PLP.PLP>
-41.9812

> <Gold.PLP.part.hbond>
-2.0000

> <Gold.PLP.part.metal>
0.0000

> <Gold.PLP.part.buried>
-3.4274

> <Gold.PLP.part.nonpolar>
-37.4194

> <Gold.PLP.part.repulsive>
0.2821

> <Gold.PLP.ligand.clash>
0.2542

> <Gold.PLP.ligand.torsion>
0.4974

> <Gold.PLP.Chemscore.Hbond>
3.0000

> <Gold.PLP.Chemscore.CHOScore>
0.0000

> <Gold.PLP.Chemscore.Metal>
0.0000

> <Gold.Chemscore.Hbonds>
donor molecule, donor type, donor heavy atom, donor atom, acceptor molecule, acceptor atom, score
      L1  H     4    45       P1  7948  1.62
      P1  H  7997  8009       L1    24  1.00

> <Gold.PLP.Chemscore.Internal.Correction>
0.4261

> <Gold.Rescore>
     Score         DG    S(hbond)    S(metal)    S(lipo)     H(rot)  DE(clash)    DE(int)     intcor
     13.49     -16.89       1.94        0.00      89.63       2.17       0.10       3.30       ----

> <Gold.Chemscore.Fitness>
13.4918

> <Gold.Chemscore.DG>
-16.8871

> <Gold.Chemscore.ZeroCoef>
-5.4800

> <Gold.Chemscore.Hbond>
1.9401

> <Gold.Chemscore.Metal>
0.0000

> <Gold.Chemscore.Lipo>
89.6272

> <Gold.Chemscore.Internal_Hbond>
0.0000

> <Gold.Chemscore.DEClash>
0.0974

> <Gold.Chemscore.DEInternal>
3.2980

> <Gold.Chemscore.Rot>
2.1716

> <Gold.Chemscore.Internal.Correction>
   9.000000E+99

> <Gold.Chemscore.Hbonds>
donor molecule, donor type, donor heavy atom, donor atom, acceptor molecule, acceptor atom, score
      L1  H     4    45       P1  7948  0.78
      P1  H  7997  8009       L1    24  0.95

> <Gold.Chemscore.Hbond.Weighted>
-6.4799

> <Gold.Chemscore.Metal.Weighted>
-0.0000

> <Gold.Chemscore.Lipo.Weighted>
-10.4864

> <Gold.Chemscore.Internal_Hbond.Weighted>
0.0000

> <Gold.Chemscore.DEClash.Weighted>
0.0974

> <Gold.Chemscore.DEInternal.Weighted>
3.2980

> <Gold.Chemscore.Rot.Weighted>
5.5592

> <Gold.Chemscore.Internal.Correction.Weighted>
   9.000000E+99

> <Gold.Protein.RotatedTorsions>
[ 6907 6896 6895 6894 ] final  120.89 input  -60.11 | X-H torsion
[ 7974 7965 7964 7962 ] final    9.01 input  175.53 | X-H torsion
[ 8008 7997 7996 7995 ] final  148.46 input   59.86 | X-H torsion
[ 10167 10162 10161 10158 ] final   16.53 input  -65.29 | X-H torsion
[ 10718 10713 10712 10709 ] final   -7.88 input   66.30 | X-H torsion
[ 10763 10752 10751 10750 ] final  -48.15 input  -60.55 | X-H torsion
[ 11005 11000 10999 10996 ] final  123.98 input  -57.11 | X-H torsion

> <Gold.Protein.ActiveResidues>
 VAL166  LYS551  ARG553  GLY616  TRP617  ASP618  TYR619  PRO620  LYS621  CYS622 
 ASP623  PHE694  ASN695  SER759  ASP760  ASP761  ALA762  ILE779  LEU786  VAL792 
 PHE793  MET794  SER795  GLU796  ALA797  LYS798  CYS799  TRP800  GLU811  SER814 

> <Gold.Protein.RotatedAtoms>
  152.4364  133.7368  159.6617 H   0  0  0  0  0  0  0  0  0  0  0  0  # atno 6907 bound_to 6896
  150.8248  133.8180  159.3129 H   0  0  0  0  0  0  0  0  0  0  0  0  # atno 6908 bound_to 6896
  151.5852  135.1059  160.0078 H   0  0  0  0  0  0  0  0  0  0  0  0  # atno 6909 bound_to 6896
  146.2409  139.9848  142.8432 H   0  0  0  0  0  0  0  0  0  0  0  0  # atno 7974 bound_to 7965
  156.2790  140.2128  156.5702 H   0  0  0  0  0  0  0  0  0  0  0  0  # atno 8008 bound_to 7997
  154.7142  140.0509  157.0601 H   0  0  0  0  0  0  0  0  0  0  0  0  # atno 8009 bound_to 7997
  155.0565  140.3162  155.4677 H   0  0  0  0  0  0  0  0  0  0  0  0  # atno 8010 bound_to 7997
  140.5791  143.9016  150.6774 H   0  0  0  0  0  0  0  0  0  0  0  0  # atno 10167 bound_to 10162
  156.7107  130.5121  149.5893 H   0  0  0  0  0  0  0  0  0  0  0  0  # atno 10718 bound_to 10713
  154.0730  135.6602  153.4827 H   0  0  0  0  0  0  0  0  0  0  0  0  # atno 10763 bound_to 10752
  153.0384  135.5162  154.7548 H   0  0  0  0  0  0  0  0  0  0  0  0  # atno 10764 bound_to 10752
  154.6620  135.3016  154.9822 H   0  0  0  0  0  0  0  0  0  0  0  0  # atno 10765 bound_to 10752
  139.9337  134.9640  156.8341 H   0  0  0  0  0  0  0  0  0  0  0  0  # atno 11005 bound_to 11000
  145.1558  140.9647  143.4406 LP  0  0  0  0  0  0  0  0  0  0  0  0  # atno 17320 bound_to 7965
  145.0162  139.3465  143.6095 LP  0  0  0  0  0  0  0  0  0  0  0  0  # atno 17321 bound_to 7965
  140.2511  143.3593  152.1405 LP  0  0  0  0  0  0  0  0  0  0  0  0  # atno 17342 bound_to 10162
  139.5159  144.6970  151.5602 LP  0  0  0  0  0  0  0  0  0  0  0  0  # atno 17343 bound_to 10162
  156.1663  130.6407  151.0782 LP  0  0  0  0  0  0  0  0  0  0  0  0  # atno 17370 bound_to 10713
  157.6937  131.0801  150.7032 LP  0  0  0  0  0  0  0  0  0  0  0  0  # atno 17371 bound_to 10713
  140.6132  134.0063  155.7586 LP  0  0  0  0  0  0  0  0  0  0  0  0  # atno 17394 bound_to 11000
  141.0940  133.9872  157.3190 LP  0  0  0  0  0  0  0  0  0  0  0  0  # atno 17395 bound_to 11000

$$$$
