#       Name:                AV-unprocessed.smi:2460
#       Creating user name   scv26
#       Creation time:       Fri Mar 27 13:35:32 2020


#       File generated by GOLD software.
#

@<TRIPOS>MOLECULE
AV-unprocessed.smi:2460
    52    54     1
SMALL
NO_CHARGES


@<TRIPOS>ATOM
      1 ****        -4.3967  -2.8789   2.4463 C.3            1 S1                 0.0000
      2 ****        -4.0369  -1.5261   1.8129 C.3            1 S1                 0.0000
      3 ****        -5.1147  -0.4713   2.1160 C.3            1 S1                 0.0000
      4 ****        -2.6374  -1.0469   2.2179 C.3            1 S1                 0.0000
      5 ****        -2.1248  -0.3725   0.9605 C.3            1 S1                 0.0000
      6 ****        -0.6640  -0.3344   0.9307 N.am           1 S1                 0.0000
      7 ****         0.0722   0.5532   0.2488 C.2            1 S1                 0.0000
      8 ****        -0.4100   1.4664  -0.4202 O.2            1 S1                 0.0000
      9 ****         1.3848   0.3177   0.4102 N.am           1 S1                 0.0000
     10 ****         2.4817   0.9938  -0.1877 C.ar           1 S1                 0.0000
     11 ****         2.4052   1.8084  -1.3446 C.ar           1 S1                 0.0000
     12 ****         3.4996   2.4044  -1.8660 N.ar           1 S1                 0.0000
     13 ****         4.6637   2.1802  -1.2506 C.ar           1 S1                 0.0000
     14 ****         5.8640   2.8807  -1.8071 C.3            1 S1                 0.0000
     15 ****         6.2604   2.7057  -3.2589 C.3            1 S1                 0.0000
     16 ****         7.1132   2.1066  -2.1757 C.3            1 S1                 0.0000
     17 ****         4.8560   1.4357  -0.1580 N.ar           1 S1                 0.0000
     18 ****         3.7681   0.8347   0.3688 C.ar           1 S1                 0.0000
     19 ****        -2.7548  -1.2342  -0.1562 C.3            1 S1                 0.0000
     20 ****        -3.0791  -0.4180  -1.4173 C.3            1 S1                 0.0000
     21 ****        -1.9459  -2.4977  -0.5179 C.3            1 S1                 0.0000
     22 ****        -3.9896  -1.6879   0.3960 O.3            1 S1                 0.0000
     23 ****        -4.4268  -2.8093   3.5340 H              1 S1                 0.0000
     24 ****        -3.6690  -3.6466   2.1812 H              1 S1                 0.0000
     25 ****        -5.3738  -3.2246   2.1074 H              1 S1                 0.0000
     26 ****        -5.1958  -0.2869   3.1874 H              1 S1                 0.0000
     27 ****        -6.0931  -0.7966   1.7610 H              1 S1                 0.0000
     28 ****        -4.8910   0.4796   1.6320 H              1 S1                 0.0000
     29 ****        -2.6444  -0.3823   3.0827 H              1 S1                 0.0000
     30 ****        -2.0039  -1.8995   2.4683 H              1 S1                 0.0000
     31 ****        -2.5309   0.6408   0.9300 H              1 S1                 0.0000
     32 ****        -0.1815  -1.0467   1.4586 H              1 S1                 0.0000
     33 ****         1.6290  -0.4158   1.0595 H              1 S1                 0.0000
     34 ****         1.4842   1.9810  -1.8787 H              1 S1                 0.0000
     35 ****         5.9884   3.8657  -1.3616 H              1 S1                 0.0000
     36 ****         5.6721   2.0217  -3.8677 H              1 S1                 0.0000
     37 ****         6.6484   3.5781  -3.7806 H              1 S1                 0.0000
     38 ****         8.0724   2.5777  -1.9713 H              1 S1                 0.0000
     39 ****         7.0920   1.0243  -2.0636 H              1 S1                 0.0000
     40 ****         3.9277   0.2243   1.2455 H              1 S1                 0.0000
     41 ****        -2.1719  -0.0545  -1.8999 H              1 S1                 0.0000
     42 ****        -3.7005   0.4464  -1.1811 H              1 S1                 0.0000
     43 ****        -3.6211  -1.0209  -2.1464 H              1 S1                 0.0000
     44 ****        -0.9952  -2.2456  -0.9886 H              1 S1                 0.0000
     45 ****        -2.4979  -3.1246  -1.2188 H              1 S1                 0.0000
     46 ****        -1.7327  -3.1057   0.3613 H              1 S1                 0.0000
     47 ****        -1.4025   1.5755  -0.4755 LP             1 S1                 0.0000
     48 ****         0.1906   2.0995  -0.9085 LP             1 S1                 0.0000
     49 ****         3.4409   2.9873  -2.6764 LP             1 S1                 0.0000
     50 ****         5.7627   1.3288   0.2501 LP             1 S1                 0.0000
     51 ****        -4.7371  -1.1647  -0.0132 LP             1 S1                 0.0000
     52 ****        -4.1030  -2.6573   0.1784 LP             1 S1                 0.0000
@<TRIPOS>BOND
    1    1    2 1     
    2    1   23 1     
    3    1   24 1     
    4    1   25 1     
    5    2   22 1     
    6    2    3 1     
    7    2    4 1     
    8    3   26 1     
    9    3   27 1     
   10    3   28 1     
   11    4    5 1     
   12    4   29 1     
   13    4   30 1     
   14    5    6 1     
   15    5   19 1     
   16    5   31 1     
   17    6    7 am    
   18    6   32 1     
   19    7    8 2     
   20    7    9 am    
   21    9   10 1     
   22    9   33 1     
   23   10   18 ar    
   24   10   11 ar    
   25   11   12 ar    
   26   11   34 1     
   27   12   13 ar    
   28   13   14 1     
   29   13   17 ar    
   30   14   16 1     
   31   14   15 1     
   32   14   35 1     
   33   15   16 1     
   34   15   36 1     
   35   15   37 1     
   36   16   38 1     
   37   16   39 1     
   38   17   18 ar    
   39   18   40 1     
   40   19   20 1     
   41   19   21 1     
   42   19   22 1     
   43   20   41 1     
   44   20   42 1     
   45   20   43 1     
   46   21   44 1     
   47   21   45 1     
   48   21   46 1     
   49    8   47 1     
   50    8   48 1     
   51   12   49 1     
   52   17   50 1     
   53   22   51 1     
   54   22   52 1     
@<TRIPOS>SUBSTRUCTURE
      1 S1             1
@<TRIPOS>SET
LONE_PAIRS      STATIC     ATOMS    <user>   **** ""
6 47 48 49 50 51 52
DONOR_HYDROGENS      STATIC     ATOMS    <user>   **** ""
2 32 33
ATOM$BLUE        STATIC     ATOMS    COLORGROUP SYSTEM
6 47 48 49 50 51 52
ATOM$RED        STATIC     ATOMS    COLORGROUP SYSTEM
2 32 33
