#       Name:                AV-unprocessed.smi:686
#       Creating user name   scv26
#       Creation time:       Fri Mar 27 00:31:51 2020


#       File generated by GOLD software.
#

@<TRIPOS>MOLECULE
AV-unprocessed.smi:686
    45    46     1
SMALL
NO_CHARGES


@<TRIPOS>ATOM
      1 ****        -0.3839   0.5152   3.6809 C.3            1 S1                 0.0000
      2 ****        -1.0843   0.5539   2.3121 C.3            1 S1                 0.0000
      3 ****        -1.2825  -0.8067   1.6490 C.3            1 S1                 0.0000
      4 ****        -1.6299  -0.5025   0.2435 N.4            1 S1                 1.0000
      5 ****        -1.3959  -1.6100  -0.7264 C.3            1 S1                 0.0000
      6 ****        -1.8611  -1.2247  -2.1441 C.3            1 S1                 0.0000
      7 ****        -2.1047  -2.9058  -0.2887 C.3            1 S1                 0.0000
      8 ****        -0.9794   0.7907  -0.0927 C.3            1 S1                 0.0000
      9 ****        -0.4032   1.3767   1.2115 C.3            1 S1                 0.0000
     10 ****         1.0559   1.2122   1.2512 N.3            1 S1                 0.0000
     11 ****         2.0624   2.3288   0.3991 S.o2           1 S1                 0.0000
     12 ****         1.2498   2.9677  -0.6484 O.2            1 S1                 0.0000
     13 ****         2.7494   3.1461   1.4100 O.2            1 S1                 0.0000
     14 ****         3.2989   1.2136  -0.3969 C.3            1 S1                 0.0000
     15 ****         2.6587   0.4473  -1.5202 C.2            1 S1                 0.0000
     16 ****         2.4291   0.8630  -2.8611 C.2            1 S1                 0.0000
     17 ****         1.8185  -0.2170  -3.4302 C.2            1 S1                 0.0000
     18 ****         1.6825  -1.2177  -2.5241 O.3            1 S1                 0.0000
     19 ****         2.2257  -0.7857  -1.3087 N.2            1 S1                 0.0000
     20 ****         0.5925   0.0331   3.6272 H              1 S1                 0.0000
     21 ****        -0.9809  -0.0408   4.4041 H              1 S1                 0.0000
     22 ****        -0.2409   1.5216   4.0750 H              1 S1                 0.0000
     23 ****        -2.0748   0.9856   2.4671 H              1 S1                 0.0000
     24 ****        -0.3527  -1.3776   1.6835 H              1 S1                 0.0000
     25 ****        -2.0607  -1.3918   2.1401 H              1 S1                 0.0000
     26 ****        -0.3249  -1.8105  -0.7586 H              1 S1                 0.0000
     27 ****        -1.7105  -2.0504  -2.8405 H              1 S1                 0.0000
     28 ****        -1.3107  -0.3738  -2.5449 H              1 S1                 0.0000
     29 ****        -2.9219  -0.9719  -2.1575 H              1 S1                 0.0000
     30 ****        -1.9657  -3.6954  -1.0281 H              1 S1                 0.0000
     31 ****        -3.1778  -2.7508  -0.1700 H              1 S1                 0.0000
     32 ****        -1.7141  -3.2876   0.6547 H              1 S1                 0.0000
     33 ****        -0.2021   0.6696  -0.8471 H              1 S1                 0.0000
     34 ****        -1.7330   1.4563  -0.5147 H              1 S1                 0.0000
     35 ****        -0.6397   2.4363   1.3193 H              1 S1                 0.0000
     36 ****         1.3983   1.0458   2.1976 H              1 S1                 0.0000
     37 ****         4.1120   1.8327  -0.7760 H              1 S1                 0.0000
     38 ****         3.7172   0.5536   0.3637 H              1 S1                 0.0000
     39 ****         2.6704   1.8060  -3.3296 H              1 S1                 0.0000
     40 ****         1.4385  -0.4184  -4.4210 H              1 S1                 0.0000
     41 ****        -2.6226  -0.3167   0.2412 H              1 S1                 0.0000
     42 ****         1.1596   0.3916   0.6891 LP             1 S1                 0.0000
     43 ****         2.1698  -2.0308  -2.8425 LP             1 S1                 0.0000
     44 ****         0.7139  -1.4355  -2.4034 LP             1 S1                 0.0000
     45 ****         2.2764  -1.3031  -0.4545 LP             1 S1                 0.0000
@<TRIPOS>BOND
    1    1    2 1     
    2    1   20 1     
    3    1   21 1     
    4    1   22 1     
    5    2    9 1     
    6    2    3 1     
    7    2   23 1     
    8    3    4 1     
    9    3   24 1     
   10    3   25 1     
   11    4    5 1     
   12    4    8 1     
   13    4   41 1     
   14    5    6 1     
   15    5    7 1     
   16    5   26 1     
   17    6   27 1     
   18    6   28 1     
   19    6   29 1     
   20    7   30 1     
   21    7   31 1     
   22    7   32 1     
   23    8    9 1     
   24    8   33 1     
   25    8   34 1     
   26    9   10 1     
   27    9   35 1     
   28   10   11 1     
   29   10   36 1     
   30   11   12 2     
   31   11   13 2     
   32   11   14 1     
   33   14   15 1     
   34   14   37 1     
   35   14   38 1     
   36   15   19 2     
   37   15   16 1     
   38   16   17 2     
   39   16   39 1     
   40   17   18 1     
   41   17   40 1     
   42   18   19 1     
   43   10   42 1     
   44   18   43 1     
   45   18   44 1     
   46   19   45 1     
@<TRIPOS>SUBSTRUCTURE
      1 S1             1
@<TRIPOS>SET
LONE_PAIRS      STATIC     ATOMS    <user>   **** ""
6 42 12 13 43 44 45
DONOR_HYDROGENS      STATIC     ATOMS    <user>   **** ""
2 41 36
ATOM$BLUE        STATIC     ATOMS    COLORGROUP SYSTEM
6 42 12 13 43 44 45
ATOM$RED        STATIC     ATOMS    COLORGROUP SYSTEM
2 41 36
