AV-unprocessed.smi:1540|AV-procd|sdf|6199|dock6
  -GOLD-   22720 6363D 1   1.00000     0.00000
 Structure written by MMmdl.
 33 33  0  0  0  0  0  0  0  0  1 V2000
  146.9046  138.8961  152.7676 C   0  0  0  0  0  0  0  0  0  0  0  0
  146.9260  138.1015  153.8482 C   0  0  0  0  0  0  0  0  0  0  0  0
  148.1340  137.8905  154.7337 C   0  0  0  0  0  0  0  0  0  0  0  0
  148.5168  139.1171  155.3442 O   0  0  0  0  0  0  0  0  0  0  0  0
  149.4333  139.9155  154.5989 C   0  0  1  0  0  0  0  0  0  0  0  0
  148.6599  141.1281  154.0596 C   0  0  0  0  0  0  0  0  0  0  0  0
  150.6134  140.3489  155.4846 C   0  0  0  0  0  0  0  0  0  0  0  0
  151.7642  140.0982  155.1270 O   0  0  0  0  0  0  0  0  0  0  0  0
  150.2779  141.0219  156.6030 N   0  0  0  0  0  0  0  0  0  0  0  0
  151.1040  141.5478  157.6102 C   0  0  0  0  0  0  0  0  0  0  0  0
  150.9236  142.7516  158.2139 C   0  0  0  0  0  0  0  0  0  0  0  0
  151.8273  143.2424  159.2413 C   0  0  0  0  0  0  0  0  0  0  0  0
  151.5699  144.5541  159.9667 C   0  0  0  0  0  0  0  0  0  0  0  0
  152.0183  144.5100  161.2220 F   0  0  0  0  0  0  0  0  0  0  0  0
  152.1940  145.5489  159.3377 F   0  0  0  0  0  0  0  0  0  0  0  0
  150.2673  144.8357  159.9972 F   0  0  0  0  0  0  0  0  0  0  0  0
  152.8538  142.4373  159.5721 C   0  0  0  0  0  0  0  0  0  0  0  0
  153.0588  141.2085  158.9405 N   0  0  0  0  0  0  0  0  0  0  0  0
  152.2538  140.7052  157.9780 C   0  0  0  0  0  0  0  0  0  0  0  0
  152.5014  139.6121  157.4697 O   0  0  0  0  0  0  0  0  0  0  0  0
  153.8618  140.6704  159.2326 H   0  0  0  0  0  0  0  0  0  0  0  0
  147.7803  139.4484  152.4589 H   0  0  0  0  0  0  0  0  0  0  0  0
  146.0075  139.0036  152.1758 H   0  0  0  0  0  0  0  0  0  0  0  0
  146.0313  137.5639  154.1263 H   0  0  0  0  0  0  0  0  0  0  0  0
  147.9054  137.1322  155.4839 H   0  0  0  0  0  0  0  0  0  0  0  0
  148.9481  137.5083  154.1164 H   0  0  0  0  0  0  0  0  0  0  0  0
  149.8014  139.3415  153.7461 H   0  0  0  0  0  0  0  0  0  0  0  0
  149.3129  141.7984  153.4994 H   0  0  0  0  0  0  0  0  0  0  0  0
  148.1999  141.7020  154.8650 H   0  0  0  0  0  0  0  0  0  0  0  0
  147.8626  140.8092  153.3880 H   0  0  0  0  0  0  0  0  0  0  0  0
  149.2947  141.2184  156.7238 H   0  0  0  0  0  0  0  0  0  0  0  0
  150.1093  143.3983  157.9313 H   0  0  0  0  0  0  0  0  0  0  0  0
  153.5831  142.6635  160.3360 H   0  0  0  0  0  0  0  0  0  0  0  0
  1  2  2  0  0  0  0
  1 22  1  0  0  0  0
  1 23  1  0  0  0  0
  2  3  1  0  0  0  0
  2 24  1  0  0  0  0
  3  4  1  0  0  0  0
  3 25  1  0  0  0  0
  3 26  1  0  0  0  0
  4  5  1  0  0  0  0
  5  6  1  0  0  0  0
  5  7  1  0  0  0  0
  5 27  1  0  0  0  0
  6 28  1  0  0  0  0
  6 29  1  0  0  0  0
  6 30  1  0  0  0  0
  7  8  2  0  0  0  0
  7  9  1  0  0  0  0
  9 10  1  0  0  0  0
  9 31  1  0  0  0  0
 10 19  1  0  0  0  0
 10 11  2  0  0  0  0
 11 12  1  0  0  0  0
 11 32  1  0  0  0  0
 12 13  1  0  0  0  0
 12 17  2  0  0  0  0
 13 14  1  0  0  0  0
 13 15  1  0  0  0  0
 13 16  1  0  0  0  0
 17 18  1  0  0  0  0
 17 33  1  0  0  0  0
 18 21  1  0  0  0  0
 18 19  1  0  0  0  0
 19 20  2  0  0  0  0
M  END
> <s_m_source_file>
AV-unprocessed.smi

> <i_m_source_file_index>
1540

> <i_lp_mmshare_version>
43012

> <i_f3d_flags>
0

> <s_epik_input>
W0NIMl09W0NIXVtDSDJdT1tDQEhdKFtDSDNdKUMoPU8pW05IXWMxW2NIXWMoQyhGKShGKUYpW2NIXVtuSF1jMT1P

> <s_epik_cmdline>
J2VwaWtfcHl0aG9uJywgJy1waCcsICc3LjAnLCAnLXRuJywgJzgnLCAnLW1hJywgJzIwMCcsICctbWV0YWxfYmluZGluZycsICctaW1hZScsICc8aW5maWxlLm1hZT4nLCAnLW9tYWUnLCAnPG91dGZpbGUubWFlPic=

> <r_lp_tautomer_probability>
0.999

> <r_epik_Ionization_Penalty>
0.0086731

> <r_epik_Ionization_Penalty_Charging>
0.00867296

> <r_epik_Ionization_Penalty_Neutral>
1.3954e-07

> <r_epik_State_Penalty>
0.00654787

> <r_epik_Charging_Adjusted_Penalty>
0.0152208

> <i_epik_Tot_Q>
0

> <i_epik_Tot_abs_Q>
0

> <r_epik_Metal_State_Penalty>
0.320056

> <b_epik_Metal_Only>
0

> <s_lp_Force_Field>
OPLS_2005

> <r_lp_Energy>
18.3286

> <b_lp_Chiralities_Consistent>
1

> <s_lp_Variant>
AV-unprocessed.smi:1540-2

> <Gold.Version>
5.8.1

> <Gold.Id.Protein>
6NUR|6NUR_protein|mol2

> <Gold.PLP.Fitness>
41.5145

> <Gold.PLP.PLP>
-40.5662

> <Gold.PLP.part.hbond>
-2.0000

> <Gold.PLP.part.metal>
0.0000

> <Gold.PLP.part.buried>
-3.9998

> <Gold.PLP.part.nonpolar>
-34.7948

> <Gold.PLP.part.repulsive>
0.2230

> <Gold.PLP.ligand.clash>
0.0000

> <Gold.PLP.ligand.torsion>
2.3170

> <Gold.PLP.Chemscore.Hbond>
1.8223

> <Gold.PLP.Chemscore.CHOScore>
0.0000

> <Gold.PLP.Chemscore.Metal>
0.0000

> <Gold.Chemscore.Hbonds>
donor molecule, donor type, donor heavy atom, donor atom, acceptor molecule, acceptor atom, score
      P1  H  7989  7998       L1     8  0.79
      P1  H  7997  8008       L1    20  0.60

> <Gold.PLP.Chemscore.Internal.Correction>
0.1156

> <Gold.Rescore>
     Score         DG    S(hbond)    S(metal)    S(lipo)     H(rot)  DE(clash)    DE(int)     intcor
      6.86     -14.00       1.54        0.00      68.39       1.81       0.41       6.73       ----

> <Gold.Chemscore.Fitness>
6.8568

> <Gold.Chemscore.DG>
-13.9953

> <Gold.Chemscore.ZeroCoef>
-5.4800

> <Gold.Chemscore.Hbond>
1.5398

> <Gold.Chemscore.Metal>
0.0000

> <Gold.Chemscore.Lipo>
68.3913

> <Gold.Chemscore.Internal_Hbond>
0.0000

> <Gold.Chemscore.DEClash>
0.4050

> <Gold.Chemscore.DEInternal>
6.7334

> <Gold.Chemscore.Rot>
1.8084

> <Gold.Chemscore.Internal.Correction>
   9.000000E+99

> <Gold.Chemscore.Hbonds>
donor molecule, donor type, donor heavy atom, donor atom, acceptor molecule, acceptor atom, score
      P1  H  7989  7998       L1     8  0.13
      P1  H  7997  8008       L1    20  0.09

> <Gold.Chemscore.Hbond.Weighted>
-5.1430

> <Gold.Chemscore.Metal.Weighted>
-0.0000

> <Gold.Chemscore.Lipo.Weighted>
-8.0018

> <Gold.Chemscore.Internal_Hbond.Weighted>
0.0000

> <Gold.Chemscore.DEClash.Weighted>
0.4050

> <Gold.Chemscore.DEInternal.Weighted>
6.7334

> <Gold.Chemscore.Rot.Weighted>
4.6296

> <Gold.Chemscore.Internal.Correction.Weighted>
   9.000000E+99

> <Gold.Protein.RotatedTorsions>
[ 6907 6896 6895 6894 ] final  -17.27 input  -60.11 | X-H torsion
[ 7974 7965 7964 7962 ] final  141.12 input  175.53 | X-H torsion
[ 8008 7997 7996 7995 ] final  -79.19 input   59.86 | X-H torsion
[ 10167 10162 10161 10158 ] final -122.54 input  -65.29 | X-H torsion
[ 10718 10713 10712 10709 ] final   65.67 input   66.30 | X-H torsion
[ 10763 10752 10751 10750 ] final  -19.86 input  -60.55 | X-H torsion
[ 11005 11000 10999 10996 ] final -104.60 input  -57.11 | X-H torsion

> <Gold.Protein.ActiveResidues>
 VAL166  LYS551  ARG553  GLY616  TRP617  ASP618  TYR619  PRO620  LYS621  CYS622 
 ASP623  PHE694  ASN695  SER759  ASP760  ASP761  ALA762  ILE779  LEU786  VAL792 
 PHE793  MET794  SER795  GLU796  ALA797  LYS798  CYS799  TRP800  GLU811  SER814 

> <Gold.Protein.RotatedAtoms>
  151.2960  135.0755  159.9220 H   0  0  0  0  0  0  0  0  0  0  0  0  # atno 6907 bound_to 6896
  152.5307  133.9883  159.7849 H   0  0  0  0  0  0  0  0  0  0  0  0  # atno 6908 bound_to 6896
  151.0161  133.5869  159.2707 H   0  0  0  0  0  0  0  0  0  0  0  0  # atno 6909 bound_to 6896
  144.9125  139.5274  143.5702 H   0  0  0  0  0  0  0  0  0  0  0  0  # atno 7974 bound_to 7965
  154.5761  140.0682  156.9036 H   0  0  0  0  0  0  0  0  0  0  0  0  # atno 8008 bound_to 7997
  155.2546  140.3354  155.4260 H   0  0  0  0  0  0  0  0  0  0  0  0  # atno 8009 bound_to 7997
  156.2155  140.1776  156.7583 H   0  0  0  0  0  0  0  0  0  0  0  0  # atno 8010 bound_to 7997
  140.0131  143.5421  152.2254 H   0  0  0  0  0  0  0  0  0  0  0  0  # atno 10167 bound_to 10162
  157.6121  130.9227  150.0008 H   0  0  0  0  0  0  0  0  0  0  0  0  # atno 10718 bound_to 10713
  153.6114  135.6996  153.5345 H   0  0  0  0  0  0  0  0  0  0  0  0  # atno 10763 bound_to 10752
  153.3013  135.4128  155.1255 H   0  0  0  0  0  0  0  0  0  0  0  0  # atno 10764 bound_to 10752
  154.8562  135.3649  154.5652 H   0  0  0  0  0  0  0  0  0  0  0  0  # atno 10765 bound_to 10752
  141.1093  133.8737  157.1631 H   0  0  0  0  0  0  0  0  0  0  0  0  # atno 11005 bound_to 11000
  146.3165  139.7941  142.8979 LP  0  0  0  0  0  0  0  0  0  0  0  0  # atno 17320 bound_to 7965
  145.3431  141.0292  143.3381 LP  0  0  0  0  0  0  0  0  0  0  0  0  # atno 17321 bound_to 7965
  139.6191  144.7625  151.2780 LP  0  0  0  0  0  0  0  0  0  0  0  0  # atno 17342 bound_to 10162
  140.7373  143.6682  150.8105 LP  0  0  0  0  0  0  0  0  0  0  0  0  # atno 17343 bound_to 10162
  156.1227  130.3645  149.9860 LP  0  0  0  0  0  0  0  0  0  0  0  0  # atno 17370 bound_to 10713
  156.7937  130.9265  151.3646 LP  0  0  0  0  0  0  0  0  0  0  0  0  # atno 17371 bound_to 10713
  139.9978  135.0040  157.0122 LP  0  0  0  0  0  0  0  0  0  0  0  0  # atno 17394 bound_to 11000
  140.4819  134.1281  155.7218 LP  0  0  0  0  0  0  0  0  0  0  0  0  # atno 17395 bound_to 11000

$$$$
