AV-unprocessed.smi:240|AV-procd|sdf|1838|dock8
  -GOLD-   2262020453D 1   1.00000     0.00000
 Structure written by MMmdl.
 55 59  0  0  0  0  0  0  0  0  1 V2000
  149.8323  140.2402  154.1208 O   0  0  0  0  0  0  0  0  0  0  0  0
  148.8200  139.9357  155.0629 C   0  0  2  0  0  0  0  0  0  0  0  0
  147.6907  140.9606  154.9120 C   0  0  0  0  0  0  0  0  0  0  0  0
  148.0257  142.1083  155.8718 C   0  0  0  0  0  0  0  0  0  0  0  0
  149.2481  141.6502  156.6758 C   0  0  0  0  0  0  0  0  0  0  0  0
  149.3246  140.1210  156.5119 C   0  0  2  0  0  0  0  0  0  0  0  0
  150.7018  139.4763  156.8894 C   0  0  1  0  0  0  0  0  0  0  0  0
  151.6491  140.5362  157.5120 C   0  0  0  0  0  0  0  0  0  0  0  0
  152.8902  139.9594  157.8993 O   0  0  0  0  0  0  0  0  0  0  0  0
  152.7192  138.9634  158.8953 C   0  0  0  0  0  0  0  0  0  0  0  0
  151.8658  137.8353  158.3080 C   0  0  0  0  0  0  0  0  0  0  0  0
  150.5851  138.3570  157.8404 N   0  0  0  0  0  0  0  0  0  0  0  0
  149.7608  137.3412  157.5070 C   0  0  0  0  0  0  0  0  0  0  0  0
  149.3545  137.2748  156.2156 N   0  0  0  0  0  0  0  0  0  0  0  0
  148.5465  136.2860  155.8213 C   0  0  0  0  0  0  0  0  0  0  0  0
  148.0362  135.2862  156.5437 N   0  0  0  0  0  0  0  0  0  0  0  0
  148.4304  135.3616  157.8475 C   0  0  0  0  0  0  0  0  0  0  0  0
  149.2856  136.3494  158.4109 C   0  0  0  0  0  0  0  0  0  0  0  0
  149.4757  136.0981  159.7639 N   0  0  0  0  0  0  0  0  0  0  0  0
  148.7758  135.0196  159.9868 C   0  0  0  0  0  0  0  0  0  0  0  0
  148.1042  134.5170  158.8946 N   0  0  0  0  0  0  0  0  0  0  0  0
  147.2578  133.3334  158.8594 C   0  0  0  0  0  0  0  0  0  0  0  0
  147.4158  132.3988  160.0867 C   0  0  2  0  0  0  0  0  0  0  0  0
  148.7757  132.0290  160.2211 O   0  0  0  0  0  0  0  0  0  0  0  0
  146.5577  131.1321  160.0287 C   0  0  0  0  0  0  0  0  0  0  0  0
  145.3724  131.4768  160.9186 C   0  0  0  0  0  0  0  0  0  0  0  0
  145.9854  132.2041  161.9674 O   0  0  0  0  0  0  0  0  0  0  0  0
  146.9386  133.0835  161.3841 C   0  0  0  0  0  0  0  0  0  0  0  0
  149.4333  140.3313  153.2685 H   0  0  0  0  0  0  0  0  0  0  0  0
  148.4434  138.9336  154.8654 H   0  0  0  0  0  0  0  0  0  0  0  0
  147.5608  141.2990  153.8831 H   0  0  0  0  0  0  0  0  0  0  0  0
  146.7482  140.5053  155.2186 H   0  0  0  0  0  0  0  0  0  0  0  0
  148.2403  143.0318  155.3330 H   0  0  0  0  0  0  0  0  0  0  0  0
  147.1797  142.3039  156.5316 H   0  0  0  0  0  0  0  0  0  0  0  0
  150.1437  142.1123  156.2576 H   0  0  0  0  0  0  0  0  0  0  0  0
  149.1772  141.9565  157.7199 H   0  0  0  0  0  0  0  0  0  0  0  0
  148.5698  139.7012  157.1796 H   0  0  0  0  0  0  0  0  0  0  0  0
  151.1854  139.1069  155.9847 H   0  0  0  0  0  0  0  0  0  0  0  0
  151.8794  141.3227  156.7939 H   0  0  0  0  0  0  0  0  0  0  0  0
  151.1824  141.0189  158.3726 H   0  0  0  0  0  0  0  0  0  0  0  0
  153.6964  138.5829  159.1924 H   0  0  0  0  0  0  0  0  0  0  0  0
  152.2537  139.3884  159.7862 H   0  0  0  0  0  0  0  0  0  0  0  0
  152.4015  137.3670  157.4815 H   0  0  0  0  0  0  0  0  0  0  0  0
  151.7039  137.0659  159.0647 H   0  0  0  0  0  0  0  0  0  0  0  0
  148.2709  136.2958  154.7770 H   0  0  0  0  0  0  0  0  0  0  0  0
  148.7266  134.5601  160.9634 H   0  0  0  0  0  0  0  0  0  0  0  0
  146.2212  133.6619  158.7717 H   0  0  0  0  0  0  0  0  0  0  0  0
  147.4807  132.7870  157.9419 H   0  0  0  0  0  0  0  0  0  0  0  0
  149.0660  131.6518  159.4047 H   0  0  0  0  0  0  0  0  0  0  0  0
  146.2535  130.8354  159.0265 H   0  0  0  0  0  0  0  0  0  0  0  0
  147.0876  130.2854  160.4688 H   0  0  0  0  0  0  0  0  0  0  0  0
  144.6561  132.1109  160.3934 H   0  0  0  0  0  0  0  0  0  0  0  0
  144.8507  130.5944  161.2896 H   0  0  0  0  0  0  0  0  0  0  0  0
  147.7465  133.2896  162.0875 H   0  0  0  0  0  0  0  0  0  0  0  0
  146.4434  134.0320  161.1713 H   0  0  0  0  0  0  0  0  0  0  0  0
  1  2  1  0  0  0  0
  1 29  1  0  0  0  0
  2  6  1  0  0  0  0
  2  3  1  0  0  0  0
  2 30  1  0  0  0  0
  3  4  1  0  0  0  0
  3 31  1  0  0  0  0
  3 32  1  0  0  0  0
  4  5  1  0  0  0  0
  4 33  1  0  0  0  0
  4 34  1  0  0  0  0
  5  6  1  0  0  0  0
  5 35  1  0  0  0  0
  5 36  1  0  0  0  0
  6  7  1  0  0  0  0
  6 37  1  0  0  0  0
  7 12  1  0  0  0  0
  7  8  1  0  0  0  0
  7 38  1  0  0  0  0
  8  9  1  0  0  0  0
  8 39  1  0  0  0  0
  8 40  1  0  0  0  0
  9 10  1  0  0  0  0
 10 11  1  0  0  0  0
 10 41  1  0  0  0  0
 10 42  1  0  0  0  0
 11 12  1  0  0  0  0
 11 43  1  0  0  0  0
 11 44  1  0  0  0  0
 12 13  1  0  0  0  0
 13 18  1  0  0  0  0
 13 14  2  0  0  0  0
 14 15  1  0  0  0  0
 15 16  2  0  0  0  0
 15 45  1  0  0  0  0
 16 17  1  0  0  0  0
 17 21  1  0  0  0  0
 17 18  2  0  0  0  0
 18 19  1  0  0  0  0
 19 20  2  0  0  0  0
 20 21  1  0  0  0  0
 20 46  1  0  0  0  0
 21 22  1  0  0  0  0
 22 23  1  0  0  0  0
 22 47  1  0  0  0  0
 22 48  1  0  0  0  0
 23 28  1  0  0  0  0
 23 24  1  0  0  0  0
 23 25  1  0  0  0  0
 24 49  1  0  0  0  0
 25 26  1  0  0  0  0
 25 50  1  0  0  0  0
 25 51  1  0  0  0  0
 26 27  1  0  0  0  0
 26 52  1  0  0  0  0
 26 53  1  0  0  0  0
 27 28  1  0  0  0  0
 28 54  1  0  0  0  0
 28 55  1  0  0  0  0
M  END
> <s_m_source_file>
AV-unprocessed.smi

> <i_m_source_file_index>
240

> <i_lp_mmshare_version>
43012

> <i_f3d_flags>
0

> <s_epik_input>
W09IXVtDQEBIXTFbQ0gyXVtDSDJdW0NIMl1bQ0BIXTFbQ0BASF0yW0NIMl1PW0NIMl1bQ0gyXU4yYyhuW2NIXW4zKWMoYzM0KW5bY0hdbjRbQ0gyXVtDQEBdNShbT0hdKVtDSDJdW0NIMl1PW0NIMl01

> <s_epik_cmdline>
J2VwaWtfcHl0aG9uJywgJy1waCcsICc3LjAnLCAnLXRuJywgJzgnLCAnLW1hJywgJzIwMCcsICctbWV0YWxfYmluZGluZycsICctaW1hZScsICc8aW5maWxlLm1hZT4nLCAnLW9tYWUnLCAnPG91dGZpbGUubWFlPic=

> <r_lp_tautomer_probability>
1

> <r_epik_Ionization_Penalty>
0.000130618

> <r_epik_Ionization_Penalty_Charging>
0

> <r_epik_Ionization_Penalty_Neutral>
0.000130618

> <r_epik_State_Penalty>
-0

> <r_epik_Charging_Adjusted_Penalty>
0

> <i_epik_Tot_Q>
0

> <i_epik_Tot_abs_Q>
0

> <r_epik_Metal_State_Penalty>
-0

> <b_epik_Metal_Only>
0

> <s_lp_Force_Field>
OPLS_2005

> <r_lp_Energy>
64.4166

> <b_lp_Chiralities_Consistent>
1

> <s_lp_Variant>
AV-unprocessed.smi:240-15

> <Gold.Version>
5.8.1

> <Gold.Id.Protein>
6NUR|6NUR_protein|mol2

> <Gold.PLP.Fitness>
43.8972

> <Gold.PLP.PLP>
-37.0299

> <Gold.PLP.part.hbond>
-4.7754

> <Gold.PLP.part.metal>
0.0000

> <Gold.PLP.part.buried>
-2.1236

> <Gold.PLP.part.nonpolar>
-28.6395

> <Gold.PLP.part.repulsive>
0.0633

> <Gold.PLP.ligand.clash>
0.0088

> <Gold.PLP.ligand.torsion>
1.8575

> <Gold.PLP.Chemscore.Hbond>
3.4164

> <Gold.PLP.Chemscore.CHOScore>
0.0000

> <Gold.PLP.Chemscore.Metal>
0.0000

> <Gold.Chemscore.Hbonds>
donor molecule, donor type, donor heavy atom, donor atom, acceptor molecule, acceptor atom, score
      L1  H     1    29       P1  7957  0.71
      P1  H  6896  6909       L1    19  0.45
      P1  H  7989  7998       L1     1  0.54
      P1  H  7997  8008       L1     9  0.98

> <Gold.PLP.Chemscore.Internal.Correction>
0.3419

> <Gold.Rescore>
     Score         DG    S(hbond)    S(metal)    S(lipo)     H(rot)  DE(clash)    DE(int)     intcor
      9.95     -14.56       2.23        0.00      79.62       3.00       0.04       4.57       ----

> <Gold.Chemscore.Fitness>
9.9511

> <Gold.Chemscore.DG>
-14.5597

> <Gold.Chemscore.ZeroCoef>
-5.4800

> <Gold.Chemscore.Hbond>
2.2319

> <Gold.Chemscore.Metal>
0.0000

> <Gold.Chemscore.Lipo>
79.6175

> <Gold.Chemscore.Internal_Hbond>
0.0000

> <Gold.Chemscore.DEClash>
0.0392

> <Gold.Chemscore.DEInternal>
4.5694

> <Gold.Chemscore.Rot>
3.0039

> <Gold.Chemscore.Internal.Correction>
   9.000000E+99

> <Gold.Chemscore.Hbonds>
donor molecule, donor type, donor heavy atom, donor atom, acceptor molecule, acceptor atom, score
      L1  H     1    29       P1  7957  0.66
      P1  H  6896  6909       L1    19  0.01
      P1  H  7989  7998       L1     1  0.04
      P1  H  7997  8008       L1     9  0.86

> <Gold.Chemscore.Hbond.Weighted>
-7.4544

> <Gold.Chemscore.Metal.Weighted>
-0.0000

> <Gold.Chemscore.Lipo.Weighted>
-9.3152

> <Gold.Chemscore.Internal_Hbond.Weighted>
0.0000

> <Gold.Chemscore.DEClash.Weighted>
0.0392

> <Gold.Chemscore.DEInternal.Weighted>
4.5694

> <Gold.Chemscore.Rot.Weighted>
7.6899

> <Gold.Chemscore.Internal.Correction.Weighted>
   9.000000E+99

> <Gold.Protein.RotatedTorsions>
[ 6907 6896 6895 6894 ] final   93.40 input  -60.11 | X-H torsion
[ 7974 7965 7964 7962 ] final  -52.80 input  175.53 | X-H torsion
[ 8008 7997 7996 7995 ] final  -90.14 input   59.86 | X-H torsion
[ 10167 10162 10161 10158 ] final -155.12 input  -65.29 | X-H torsion
[ 10718 10713 10712 10709 ] final   29.52 input   66.30 | X-H torsion
[ 10763 10752 10751 10750 ] final  160.87 input  -60.55 | X-H torsion
[ 11005 11000 10999 10996 ] final  101.77 input  -57.11 | X-H torsion

> <Gold.Protein.ActiveResidues>
 VAL166  LYS551  ARG553  GLY616  TRP617  ASP618  TYR619  PRO620  LYS621  CYS622 
 ASP623  PHE694  ASN695  SER759  ASP760  ASP761  ALA762  ILE779  LEU786  VAL792 
 PHE793  MET794  SER795  GLU796  ALA797  LYS798  CYS799  TRP800  GLU811  SER814 

> <Gold.Protein.RotatedAtoms>
  152.5452  134.1354  159.8456 H   0  0  0  0  0  0  0  0  0  0  0  0  # atno 6907 bound_to 6896
  151.1395  133.4974  159.2604 H   0  0  0  0  0  0  0  0  0  0  0  0  # atno 6908 bound_to 6896
  151.1588  135.0273  159.8756 H   0  0  0  0  0  0  0  0  0  0  0  0  # atno 6909 bound_to 6896
  145.9040  140.7971  142.9729 H   0  0  0  0  0  0  0  0  0  0  0  0  # atno 7974 bound_to 7965
  154.6950  140.0534  157.0401 H   0  0  0  0  0  0  0  0  0  0  0  0  # atno 8008 bound_to 7997
  155.0764  140.3205  155.4596 H   0  0  0  0  0  0  0  0  0  0  0  0  # atno 8009 bound_to 7997
  156.2741  140.2072  156.5892 H   0  0  0  0  0  0  0  0  0  0  0  0  # atno 8010 bound_to 7997
  139.6957  143.9346  152.2406 H   0  0  0  0  0  0  0  0  0  0  0  0  # atno 10167 bound_to 10162
  157.2477  130.7100  149.6390 H   0  0  0  0  0  0  0  0  0  0  0  0  # atno 10718 bound_to 10713
  154.2541  135.2770  155.2805 H   0  0  0  0  0  0  0  0  0  0  0  0  # atno 10763 bound_to 10752
  154.5440  135.5694  153.6867 H   0  0  0  0  0  0  0  0  0  0  0  0  # atno 10764 bound_to 10752
  152.9975  135.6258  154.2689 H   0  0  0  0  0  0  0  0  0  0  0  0  # atno 10765 bound_to 10752
  139.8774  134.9197  156.4957 H   0  0  0  0  0  0  0  0  0  0  0  0  # atno 11005 bound_to 11000
  144.6738  140.1721  143.7413 LP  0  0  0  0  0  0  0  0  0  0  0  0  # atno 17320 bound_to 7965
  145.8756  139.2295  143.1635 LP  0  0  0  0  0  0  0  0  0  0  0  0  # atno 17321 bound_to 7965
  139.9174  144.6820  150.8497 LP  0  0  0  0  0  0  0  0  0  0  0  0  # atno 17342 bound_to 10162
  140.7696  143.3399  151.2230 LP  0  0  0  0  0  0  0  0  0  0  0  0  # atno 17343 bound_to 10162
  155.9667  130.4438  150.5434 LP  0  0  0  0  0  0  0  0  0  0  0  0  # atno 17370 bound_to 10713
  157.3311  131.0700  151.1860 LP  0  0  0  0  0  0  0  0  0  0  0  0  # atno 17371 bound_to 10713
  140.8626  133.8048  155.9281 LP  0  0  0  0  0  0  0  0  0  0  0  0  # atno 17394 bound_to 11000
  140.9034  134.2350  157.5028 LP  0  0  0  0  0  0  0  0  0  0  0  0  # atno 17395 bound_to 11000

$$$$
