#       Name:                AV-unprocessed.smi:1261
#       Creating user name   scv26
#       Creation time:       Fri Mar 27 04:42:04 2020


#       File generated by GOLD software.
#

@<TRIPOS>MOLECULE
AV-unprocessed.smi:1261
    56    57     1
SMALL
NO_CHARGES


@<TRIPOS>ATOM
      1 ****        -1.3469   4.2630   0.0369 C.3            1 S1                 0.0000
      2 ****        -2.2642   3.4944  -0.9304 C.3            1 S1                 0.0000
      3 ****        -3.7507   3.5672  -0.5346 C.3            1 S1                 0.0000
      4 ****        -4.0602   2.6785   0.6833 C.3            1 S1                 0.0000
      5 ****        -5.5560   2.7057   1.0294 C.3            1 S1                 0.0000
      6 ****        -3.5668   1.2405   0.4329 C.3            1 S1                 0.0000
      7 ****        -2.1194   1.2125   0.0982 N.4            1 S1                 1.0000
      8 ****        -1.5896  -0.1723   0.0144 C.3            1 S1                 0.0000
      9 ****        -0.0689  -0.2358   0.2365 C.3            1 S1                 0.0000
     10 ****         0.4552  -1.6809   0.2550 C.3            1 S1                 0.0000
     11 ****         1.8947  -1.7280   0.4784 N.am           1 S1                 0.0000
     12 ****         2.8298  -1.5234  -0.4617 C.2            1 S1                 0.0000
     13 ****         2.5657  -1.2477  -1.6324 O.2            1 S1                 0.0000
     14 ****         4.2873  -1.6318  -0.0018 C.3            1 S1                 0.0000
     15 ****         4.7826  -3.0118  -0.0755 N.am           1 S1                 0.0000
     16 ****         4.7040  -3.7302   1.1942 N.pl3          1 S1                -1.0000
     17 ****         5.1091  -5.0267   1.2481 C.2            1 S1                 0.0000
     18 ****         5.0598  -5.6978   2.2763 O.2            1 S1                 0.0000
     19 ****         5.6219  -5.6344   0.0314 C.2            1 S1                 0.0000
     20 ****         5.6926  -4.9444  -1.1240 C.2            1 S1                 0.0000
     21 ****         5.2599  -3.5562  -1.2311 C.2            1 S1                 0.0000
     22 ****         5.3184  -2.9224  -2.2847 O.2            1 S1                 0.0000
     23 ****        -1.8226   2.0285  -1.1101 C.3            1 S1                 0.0000
     24 ****        -1.3431   3.8232   1.0341 H              1 S1                 0.0000
     25 ****        -1.6623   5.3023   0.1335 H              1 S1                 0.0000
     26 ****        -0.3178   4.2669  -0.3233 H              1 S1                 0.0000
     27 ****        -2.1649   3.9859  -1.8993 H              1 S1                 0.0000
     28 ****        -4.0377   4.6003  -0.3348 H              1 S1                 0.0000
     29 ****        -4.3590   3.2419  -1.3799 H              1 S1                 0.0000
     30 ****        -3.5234   3.0757   1.5457 H              1 S1                 0.0000
     31 ****        -6.1609   2.3143   0.2107 H              1 S1                 0.0000
     32 ****        -5.8933   3.7220   1.2352 H              1 S1                 0.0000
     33 ****        -5.7658   2.1047   1.9147 H              1 S1                 0.0000
     34 ****        -3.7452   0.6429   1.3279 H              1 S1                 0.0000
     35 ****        -4.1353   0.7772  -0.3755 H              1 S1                 0.0000
     36 ****        -2.0638  -0.7836   0.7835 H              1 S1                 0.0000
     37 ****        -1.8616  -0.6180  -0.9437 H              1 S1                 0.0000
     38 ****         0.4492   0.3201  -0.5446 H              1 S1                 0.0000
     39 ****         0.1816   0.2508   1.1801 H              1 S1                 0.0000
     40 ****        -0.0273  -2.2429   1.0550 H              1 S1                 0.0000
     41 ****         0.2069  -2.1920  -0.6767 H              1 S1                 0.0000
     42 ****         2.2105  -1.9650   1.4084 H              1 S1                 0.0000
     43 ****         4.9060  -0.9717  -0.6122 H              1 S1                 0.0000
     44 ****         4.3740  -1.2473   1.0165 H              1 S1                 0.0000
     45 ****         5.9552  -6.6616   0.0551 H              1 S1                 0.0000
     46 ****         6.0816  -5.4361  -2.0032 H              1 S1                 0.0000
     47 ****        -2.3361   1.5916  -1.9681 H              1 S1                 0.0000
     48 ****        -0.7586   2.0024  -1.3425 H              1 S1                 0.0000
     49 ****        -1.6443   1.6519   0.8738 H              1 S1                 0.0000
     50 ****         1.6127  -1.1661  -1.9241 LP             1 S1                 0.0000
     51 ****         3.3042  -1.1055  -2.2914 LP             1 S1                 0.0000
     52 ****         4.3565  -3.2739   2.0134 LP             1 S1                 0.0000
     53 ****         4.7102  -5.2931   3.1213 LP             1 S1                 0.0000
     54 ****         5.3693  -6.6487   2.2681 LP             1 S1                 0.0000
     55 ****         5.0092  -1.9719  -2.3142 LP             1 S1                 0.0000
     56 ****         5.6752  -3.3581  -3.1111 LP             1 S1                 0.0000
@<TRIPOS>BOND
    1    1    2 1     
    2    1   24 1     
    3    1   25 1     
    4    1   26 1     
    5    2   23 1     
    6    2    3 1     
    7    2   27 1     
    8    3    4 1     
    9    3   28 1     
   10    3   29 1     
   11    4    5 1     
   12    4    6 1     
   13    4   30 1     
   14    5   31 1     
   15    5   32 1     
   16    5   33 1     
   17    6    7 1     
   18    6   34 1     
   19    6   35 1     
   20    7    8 1     
   21    7   23 1     
   22    7   49 1     
   23    8    9 1     
   24    8   36 1     
   25    8   37 1     
   26    9   10 1     
   27    9   38 1     
   28    9   39 1     
   29   10   11 1     
   30   10   40 1     
   31   10   41 1     
   32   11   12 am    
   33   11   42 1     
   34   12   13 2     
   35   12   14 1     
   36   14   43 1     
   37   14   44 1     
   38   14   15 1     
   39   15   16 1     
   40   15   21 am    
   41   16   17 1     
   42   17   18 2     
   43   17   19 1     
   44   19   45 1     
   45   19   20 2     
   46   20   46 1     
   47   20   21 1     
   48   21   22 2     
   49   23   47 1     
   50   23   48 1     
   51   13   50 1     
   52   13   51 1     
   53   16   52 1     
   54   18   53 1     
   55   18   54 1     
   56   22   55 1     
   57   22   56 1     
@<TRIPOS>SUBSTRUCTURE
      1 S1             1
@<TRIPOS>SET
LONE_PAIRS      STATIC     ATOMS    <user>   **** ""
7 50 51 52 53 54 55 56
DONOR_HYDROGENS      STATIC     ATOMS    <user>   **** ""
2 49 42
ATOM$BLUE        STATIC     ATOMS    COLORGROUP SYSTEM
7 50 51 52 53 54 55 56
ATOM$RED        STATIC     ATOMS    COLORGROUP SYSTEM
2 49 42
