AV-unprocessed.smi:2536|AV-procd|sdf|9978|dock7
  -GOLD-   2272014 23D 1   1.00000     0.00000
 Structure written by MMmdl.
 32 33  0  0  0  0  0  0  0  0  1 V2000
  151.8640  145.8962  160.4003 C   0  0  0  0  0  0  0  0  0  0  0  0
  151.8833  144.5813  159.6443 C   0  0  0  0  0  0  0  0  0  0  0  0
  151.4572  144.5130  158.3005 C   0  0  0  0  0  0  0  0  0  0  0  0
  151.4684  143.3559  157.6044 N   0  0  0  0  0  0  0  0  0  0  0  0
  151.9034  142.2678  158.2430 C   0  0  0  0  0  0  0  0  0  0  0  0
  151.9050  141.1031  157.4962 N   0  0  0  0  0  0  0  0  0  0  0  0
  151.2516  140.9343  156.2042 C   0  0  2  0  0  0  0  0  0  0  0  0
  149.7583  141.2987  156.2702 C   0  0  0  0  0  0  0  0  0  0  0  0
  149.0946  141.0152  154.9186 C   0  0  0  0  0  0  0  0  0  0  0  0
  149.3711  139.5686  154.4799 C   0  0  0  0  0  0  0  0  0  0  0  0
  150.7751  139.3357  154.4348 O   0  0  0  0  0  0  0  0  0  0  0  0
  151.4080  139.4869  155.7017 C   0  0  0  0  0  0  0  0  0  0  0  0
  152.3264  142.2129  159.5110 N   0  0  0  0  0  0  0  0  0  0  0  0
  152.3206  143.3632  160.2201 C   0  0  0  0  0  0  0  0  0  0  0  0
  152.8150  143.2477  161.6508 C   0  0  0  0  0  0  0  0  0  0  0  0
  151.5101  146.7094  159.7659 H   0  0  0  0  0  0  0  0  0  0  0  0
  152.8658  146.1509  160.7468 H   0  0  0  0  0  0  0  0  0  0  0  0
  151.2015  145.8304  161.2637 H   0  0  0  0  0  0  0  0  0  0  0  0
  151.1068  145.3903  157.7770 H   0  0  0  0  0  0  0  0  0  0  0  0
  152.3248  140.2894  157.9214 H   0  0  0  0  0  0  0  0  0  0  0  0
  151.7426  141.5904  155.4842 H   0  0  0  0  0  0  0  0  0  0  0  0
  149.2657  140.7124  157.0474 H   0  0  0  0  0  0  0  0  0  0  0  0
  149.6238  142.3473  156.5367 H   0  0  0  0  0  0  0  0  0  0  0  0
  148.0207  141.1923  154.9812 H   0  0  0  0  0  0  0  0  0  0  0  0
  149.4831  141.7044  154.1680 H   0  0  0  0  0  0  0  0  0  0  0  0
  148.8955  138.8588  155.1585 H   0  0  0  0  0  0  0  0  0  0  0  0
  148.9526  139.3909  153.4891 H   0  0  0  0  0  0  0  0  0  0  0  0
  152.4642  139.2395  155.5908 H   0  0  0  0  0  0  0  0  0  0  0  0
  150.9878  138.7744  156.4140 H   0  0  0  0  0  0  0  0  0  0  0  0
  152.7192  144.1783  162.2078 H   0  0  0  0  0  0  0  0  0  0  0  0
  153.8659  142.9577  161.6590 H   0  0  0  0  0  0  0  0  0  0  0  0
  152.2481  142.4829  162.1823 H   0  0  0  0  0  0  0  0  0  0  0  0
  1  2  1  0  0  0  0
  1 16  1  0  0  0  0
  1 17  1  0  0  0  0
  1 18  1  0  0  0  0
  2 14  1  0  0  0  0
  2  3  2  0  0  0  0
  3  4  1  0  0  0  0
  3 19  1  0  0  0  0
  4  5  2  0  0  0  0
  5  6  1  0  0  0  0
  5 13  1  0  0  0  0
  6  7  1  0  0  0  0
  6 20  1  0  0  0  0
  7 12  1  0  0  0  0
  7  8  1  0  0  0  0
  7 21  1  0  0  0  0
  8  9  1  0  0  0  0
  8 22  1  0  0  0  0
  8 23  1  0  0  0  0
  9 10  1  0  0  0  0
  9 24  1  0  0  0  0
  9 25  1  0  0  0  0
 10 11  1  0  0  0  0
 10 26  1  0  0  0  0
 10 27  1  0  0  0  0
 11 12  1  0  0  0  0
 12 28  1  0  0  0  0
 12 29  1  0  0  0  0
 13 14  2  0  0  0  0
 14 15  1  0  0  0  0
 15 30  1  0  0  0  0
 15 31  1  0  0  0  0
 15 32  1  0  0  0  0
M  END
> <s_m_source_file>
AV-unprocessed.smi

> <i_m_source_file_index>
2536

> <i_lp_mmshare_version>
43012

> <i_f3d_flags>
0

> <s_epik_input>
W0NIM11jMVtjSF1uYyhuYzFbQ0gzXSlbTkhdW0NAQEhdMltDSDJdW0NIMl1bQ0gyXU9bQ0gyXTI=

> <s_epik_cmdline>
J2VwaWtfcHl0aG9uJywgJy1waCcsICc3LjAnLCAnLXRuJywgJzgnLCAnLW1hJywgJzIwMCcsICctbWV0YWxfYmluZGluZycsICctaW1hZScsICc8aW5maWxlLm1hZT4nLCAnLW9tYWUnLCAnPG91dGZpbGUubWFlPic=

> <r_lp_tautomer_probability>
1

> <r_epik_Ionization_Penalty>
0.00982357

> <r_epik_Ionization_Penalty_Charging>
0

> <r_epik_Ionization_Penalty_Neutral>
0.00982357

> <r_epik_State_Penalty>
0.0064698

> <r_epik_Charging_Adjusted_Penalty>
0.0064698

> <i_epik_Tot_Q>
0

> <i_epik_Tot_abs_Q>
0

> <r_epik_Metal_State_Penalty>
-0

> <b_epik_Metal_Only>
0

> <s_lp_Force_Field>
OPLS_2005

> <r_lp_Energy>
1.83983

> <b_lp_Chiralities_Consistent>
1

> <s_lp_Variant>
AV-unprocessed.smi:2536-1

> <Gold.Version>
5.8.1

> <Gold.Id.Protein>
6NUR|6NUR_protein|mol2

> <Gold.PLP.Fitness>
39.9417

> <Gold.PLP.PLP>
-37.0358

> <Gold.PLP.part.hbond>
-1.0000

> <Gold.PLP.part.metal>
0.0000

> <Gold.PLP.part.buried>
-3.6349

> <Gold.PLP.part.nonpolar>
-32.9068

> <Gold.PLP.part.repulsive>
0.3275

> <Gold.PLP.ligand.clash>
0.0000

> <Gold.PLP.ligand.torsion>
0.0485

> <Gold.PLP.Chemscore.Hbond>
1.0000

> <Gold.PLP.Chemscore.CHOScore>
0.0000

> <Gold.PLP.Chemscore.Metal>
0.0000

> <Gold.Chemscore.Hbonds>
donor molecule, donor type, donor heavy atom, donor atom, acceptor molecule, acceptor atom, score
      P1  H  7989  7998       L1    11  0.95

> <Gold.PLP.Chemscore.Internal.Correction>
0.0031

> <Gold.Rescore>
     Score         DG    S(hbond)    S(metal)    S(lipo)     H(rot)  DE(clash)    DE(int)     intcor
     13.41     -14.90       0.18        0.00      97.31       1.00       0.38       1.10       ----

> <Gold.Chemscore.Fitness>
13.4137

> <Gold.Chemscore.DG>
-14.8988

> <Gold.Chemscore.ZeroCoef>
-5.4800

> <Gold.Chemscore.Hbond>
0.1776

> <Gold.Chemscore.Metal>
0.0000

> <Gold.Chemscore.Lipo>
97.3120

> <Gold.Chemscore.Internal_Hbond>
0.0000

> <Gold.Chemscore.DEClash>
0.3808

> <Gold.Chemscore.DEInternal>
1.1043

> <Gold.Chemscore.Rot>
1.0000

> <Gold.Chemscore.Internal.Correction>
   9.000000E+99

> <Gold.Chemscore.Hbonds>
donor molecule, donor type, donor heavy atom, donor atom, acceptor molecule, acceptor atom, score
      P1  H  7989  7998       L1    11  0.14

> <Gold.Chemscore.Hbond.Weighted>
-0.5933

> <Gold.Chemscore.Metal.Weighted>
-0.0000

> <Gold.Chemscore.Lipo.Weighted>
-11.3855

> <Gold.Chemscore.Internal_Hbond.Weighted>
0.0000

> <Gold.Chemscore.DEClash.Weighted>
0.3808

> <Gold.Chemscore.DEInternal.Weighted>
1.1043

> <Gold.Chemscore.Rot.Weighted>
2.5600

> <Gold.Chemscore.Internal.Correction.Weighted>
   9.000000E+99

> <Gold.Protein.RotatedTorsions>
[ 6907 6896 6895 6894 ] final  -41.11 input  -60.11 | X-H torsion
[ 7974 7965 7964 7962 ] final   70.86 input  175.53 | X-H torsion
[ 8008 7997 7996 7995 ] final -147.51 input   59.86 | X-H torsion
[ 10167 10162 10161 10158 ] final   92.67 input  -65.29 | X-H torsion
[ 10718 10713 10712 10709 ] final   27.44 input   66.30 | X-H torsion
[ 10763 10752 10751 10750 ] final   74.72 input  -60.55 | X-H torsion
[ 11005 11000 10999 10996 ] final  -75.14 input  -57.11 | X-H torsion

> <Gold.Protein.ActiveResidues>
 VAL166  LYS551  ARG553  GLY616  TRP617  ASP618  TYR619  PRO620  LYS621  CYS622 
 ASP623  PHE694  ASN695  SER759  ASP760  ASP761  ALA762  ILE779  LEU786  VAL792 
 PHE793  MET794  SER795  GLU796  ALA797  LYS798  CYS799  TRP800  GLU811  SER814 

> <Gold.Protein.RotatedAtoms>
  150.9705  134.9079  159.7784 H   0  0  0  0  0  0  0  0  0  0  0  0  # atno 6907 bound_to 6896
  152.5188  134.3547  159.9273 H   0  0  0  0  0  0  0  0  0  0  0  0  # atno 6908 bound_to 6896
  151.3557  133.3868  159.2719 H   0  0  0  0  0  0  0  0  0  0  0  0  # atno 6909 bound_to 6896
  145.7730  139.2852  143.1310 H   0  0  0  0  0  0  0  0  0  0  0  0  # atno 7974 bound_to 7965
  155.5768  140.0639  157.2793 H   0  0  0  0  0  0  0  0  0  0  0  0  # atno 8008 bound_to 7997
  154.4344  140.1859  156.0981 H   0  0  0  0  0  0  0  0  0  0  0  0  # atno 8009 bound_to 7997
  156.0335  140.3304  155.7169 H   0  0  0  0  0  0  0  0  0  0  0  0  # atno 8010 bound_to 7997
  139.8254  144.6712  150.9466 H   0  0  0  0  0  0  0  0  0  0  0  0  # atno 10167 bound_to 10162
  157.2202  130.6975  149.6267 H   0  0  0  0  0  0  0  0  0  0  0  0  # atno 10718 bound_to 10713
  153.0606  135.5015  154.8084 H   0  0  0  0  0  0  0  0  0  0  0  0  # atno 10763 bound_to 10752
  154.6876  135.2979  154.9527 H   0  0  0  0  0  0  0  0  0  0  0  0  # atno 10764 bound_to 10752
  154.0292  135.6732  153.4832 H   0  0  0  0  0  0  0  0  0  0  0  0  # atno 10765 bound_to 10752
  141.1642  133.6936  156.7471 H   0  0  0  0  0  0  0  0  0  0  0  0  # atno 11005 bound_to 11000
  146.0151  140.8400  142.9951 LP  0  0  0  0  0  0  0  0  0  0  0  0  # atno 17320 bound_to 7965
  144.6809  140.2546  143.7327 LP  0  0  0  0  0  0  0  0  0  0  0  0  # atno 17321 bound_to 7965
  140.7810  143.4051  151.1084 LP  0  0  0  0  0  0  0  0  0  0  0  0  # atno 17342 bound_to 10162
  139.7708  143.8496  152.3120 LP  0  0  0  0  0  0  0  0  0  0  0  0  # atno 17343 bound_to 10162
  155.9683  130.4522  150.5765 LP  0  0  0  0  0  0  0  0  0  0  0  0  # atno 17370 bound_to 10713
  157.3583  131.0745  151.1657 LP  0  0  0  0  0  0  0  0  0  0  0  0  # atno 17371 bound_to 10713
  140.2631  134.8451  157.3777 LP  0  0  0  0  0  0  0  0  0  0  0  0  # atno 17394 bound_to 11000
  140.1592  134.4750  155.7906 LP  0  0  0  0  0  0  0  0  0  0  0  0  # atno 17395 bound_to 11000

$$$$
