AV-unprocessed.smi:1679|AV-procd|sdf|6730|dock4
  -GOLD-   22720 7473D 1   1.00000     0.00000
 Structure written by MMmdl.
 45 46  0  0  0  0  0  0  0  0  1 V2000
  145.7630  135.2660  151.4840 C   0  0  0  0  0  0  0  0  0  0  0  0
  145.5542  133.8235  151.9709 C   0  0  1  0  0  0  0  0  0  0  0  0
  145.6836  132.8074  150.8161 C   0  0  0  0  0  0  0  0  0  0  0  0
  145.4328  131.3690  151.2977 C   0  0  0  0  0  0  0  0  0  0  0  0
  146.3495  131.0006  152.4745 C   0  0  0  0  0  0  0  0  0  0  0  0
  146.2203  132.0171  153.6191 C   0  0  0  0  0  0  0  0  0  0  0  0
  146.5040  133.4560  153.1339 C   0  0  1  0  0  0  0  0  0  0  0  0
  147.8335  133.6113  152.6511 O   0  0  0  0  0  0  0  0  0  0  0  0
  148.8828  133.2922  153.5518 C   0  0  0  0  0  0  0  0  0  0  0  0
  148.8950  134.3317  154.6841 C   0  0  0  0  0  0  0  0  0  0  0  0
  149.8181  135.4274  154.4005 N   0  0  0  0  0  0  0  0  0  0  0  0
  150.6392  135.9908  155.3016 C   0  0  0  0  0  0  0  0  0  0  0  0
  150.7343  135.5977  156.4652 O   0  0  0  0  0  0  0  0  0  0  0  0
  151.4991  137.1650  154.8177 C   0  0  0  0  0  0  0  0  0  0  0  0
  150.7689  138.4371  154.9095 N   0  0  0  0  0  0  0  0  0  0  0  0
  149.5032  138.5612  154.3539 C   0  0  0  0  0  0  0  0  0  0  0  0
  148.7981  139.7173  154.3556 C   0  0  0  0  0  0  0  0  0  0  0  0
  149.3568  140.9219  154.9601 C   0  0  0  0  0  0  0  0  0  0  0  0
  148.7997  142.0164  155.0067 O   0  0  0  0  0  0  0  0  0  0  0  0
  150.6292  140.7551  155.5128 N   0  0  0  0  0  0  0  0  0  0  0  0
  151.3599  139.5663  155.5160 C   0  0  0  0  0  0  0  0  0  0  0  0
  152.4773  139.5304  156.0293 O   0  0  0  0  0  0  0  0  0  0  0  0
  151.0564  141.5627  155.9426 H   0  0  0  0  0  0  0  0  0  0  0  0
  146.7575  135.4046  151.0584 H   0  0  0  0  0  0  0  0  0  0  0  0
  145.6483  135.9773  152.3021 H   0  0  0  0  0  0  0  0  0  0  0  0
  145.0364  135.5283  150.7149 H   0  0  0  0  0  0  0  0  0  0  0  0
  144.5328  133.7623  152.3493 H   0  0  0  0  0  0  0  0  0  0  0  0
  144.9792  133.0519  150.0208 H   0  0  0  0  0  0  0  0  0  0  0  0
  146.6780  132.8748  150.3728 H   0  0  0  0  0  0  0  0  0  0  0  0
  144.3910  131.2647  151.6025 H   0  0  0  0  0  0  0  0  0  0  0  0
  145.5847  130.6696  150.4756 H   0  0  0  0  0  0  0  0  0  0  0  0
  146.1078  130.0005  152.8347 H   0  0  0  0  0  0  0  0  0  0  0  0
  147.3856  130.9655  152.1386 H   0  0  0  0  0  0  0  0  0  0  0  0
  145.2080  131.9710  154.0225 H   0  0  0  0  0  0  0  0  0  0  0  0
  146.8758  131.7422  154.4447 H   0  0  0  0  0  0  0  0  0  0  0  0
  146.3457  134.1531  153.9583 H   0  0  0  0  0  0  0  0  0  0  0  0
  148.7299  132.2961  153.9689 H   0  0  0  0  0  0  0  0  0  0  0  0
  149.8450  133.2933  153.0396 H   0  0  0  0  0  0  0  0  0  0  0  0
  147.8876  134.7121  154.8617 H   0  0  0  0  0  0  0  0  0  0  0  0
  149.2110  133.8560  155.6128 H   0  0  0  0  0  0  0  0  0  0  0  0
  149.8066  135.8059  153.4645 H   0  0  0  0  0  0  0  0  0  0  0  0
  152.3983  137.2056  155.4342 H   0  0  0  0  0  0  0  0  0  0  0  0
  151.8566  136.9887  153.8010 H   0  0  0  0  0  0  0  0  0  0  0  0
  149.0552  137.6960  153.8860 H   0  0  0  0  0  0  0  0  0  0  0  0
  147.8178  139.7518  153.9025 H   0  0  0  0  0  0  0  0  0  0  0  0
  1  2  1  0  0  0  0
  1 24  1  0  0  0  0
  1 25  1  0  0  0  0
  1 26  1  0  0  0  0
  2  7  1  0  0  0  0
  2  3  1  0  0  0  0
  2 27  1  0  0  0  0
  3  4  1  0  0  0  0
  3 28  1  0  0  0  0
  3 29  1  0  0  0  0
  4  5  1  0  0  0  0
  4 30  1  0  0  0  0
  4 31  1  0  0  0  0
  5  6  1  0  0  0  0
  5 32  1  0  0  0  0
  5 33  1  0  0  0  0
  6  7  1  0  0  0  0
  6 34  1  0  0  0  0
  6 35  1  0  0  0  0
  7  8  1  0  0  0  0
  7 36  1  0  0  0  0
  8  9  1  0  0  0  0
  9 10  1  0  0  0  0
  9 37  1  0  0  0  0
  9 38  1  0  0  0  0
 10 11  1  0  0  0  0
 10 39  1  0  0  0  0
 10 40  1  0  0  0  0
 11 12  1  0  0  0  0
 11 41  1  0  0  0  0
 12 13  2  0  0  0  0
 12 14  1  0  0  0  0
 14 15  1  0  0  0  0
 14 42  1  0  0  0  0
 14 43  1  0  0  0  0
 15 21  1  0  0  0  0
 15 16  1  0  0  0  0
 16 17  2  0  0  0  0
 16 44  1  0  0  0  0
 17 18  1  0  0  0  0
 17 45  1  0  0  0  0
 18 19  2  0  0  0  0
 18 20  1  0  0  0  0
 20 23  1  0  0  0  0
 20 21  1  0  0  0  0
 21 22  2  0  0  0  0
M  END
> <s_m_source_file>
AV-unprocessed.smi

> <i_m_source_file_index>
1679

> <i_lp_mmshare_version>
43012

> <i_f3d_flags>
0

> <s_epik_input>
W0NIM11bQ0BASF0xW0NIMl1bQ0gyXVtDSDJdW0NIMl1bQ0BIXTFPW0NIMl1bQ0gyXVtOSF1DKD1PKVtDSDJdbjJbY0hdW2NIXWMoPU8pW25IXWMyPU8=

> <s_epik_cmdline>
J2VwaWtfcHl0aG9uJywgJy1waCcsICc3LjAnLCAnLXRuJywgJzgnLCAnLW1hJywgJzIwMCcsICctbWV0YWxfYmluZGluZycsICctaW1hZScsICc8aW5maWxlLm1hZT4nLCAnLW9tYWUnLCAnPG91dGZpbGUubWFlPic=

> <r_lp_tautomer_probability>
0.999537

> <r_epik_Ionization_Penalty>
0.0033132

> <r_epik_Ionization_Penalty_Charging>
0.00331317

> <r_epik_Ionization_Penalty_Neutral>
2.78599e-08

> <r_epik_State_Penalty>
0.002342

> <r_epik_Charging_Adjusted_Penalty>
0.00565517

> <i_epik_Tot_Q>
0

> <i_epik_Tot_abs_Q>
0

> <r_epik_Metal_State_Penalty>
0.365595

> <b_epik_Metal_Only>
0

> <s_lp_Force_Field>
OPLS_2005

> <r_lp_Energy>
9.24545

> <b_lp_Chiralities_Consistent>
1

> <s_lp_Variant>
AV-unprocessed.smi:1679-2

> <Gold.Version>
5.8.1

> <Gold.Id.Protein>
6NUR|6NUR_protein|mol2

> <Gold.PLP.Fitness>
41.6293

> <Gold.PLP.PLP>
-35.4991

> <Gold.PLP.part.hbond>
-2.7282

> <Gold.PLP.part.metal>
0.0000

> <Gold.PLP.part.buried>
-4.2673

> <Gold.PLP.part.nonpolar>
-32.1983

> <Gold.PLP.part.repulsive>
4.3882

> <Gold.PLP.ligand.clash>
0.0000

> <Gold.PLP.ligand.torsion>
0.8115

> <Gold.PLP.Chemscore.Hbond>
1.5500

> <Gold.PLP.Chemscore.CHOScore>
1.0000

> <Gold.PLP.Chemscore.Metal>
0.0000

> <Gold.Chemscore.Hbonds>
donor molecule, donor type, donor heavy atom, donor atom, acceptor molecule, acceptor atom, score
      L1  H    11    41       P1  7948  0.60
      P1  H  7997  8008       L1    22  1.00
      L1  C    16    44       P1  7948  1.00

> <Gold.PLP.Chemscore.Internal.Correction>
0.1032

> <Gold.Rescore>
     Score         DG    S(hbond)    S(metal)    S(lipo)     H(rot)  DE(clash)    DE(int)     intcor
      8.11     -10.71       1.04        0.00      70.09       2.52       1.68       0.91       ----

> <Gold.Chemscore.Fitness>
8.1148

> <Gold.Chemscore.DG>
-10.7087

> <Gold.Chemscore.ZeroCoef>
-5.4800

> <Gold.Chemscore.Hbond>
1.0404

> <Gold.Chemscore.Metal>
0.0000

> <Gold.Chemscore.Lipo>
70.0947

> <Gold.Chemscore.Internal_Hbond>
0.0000

> <Gold.Chemscore.DEClash>
1.6846

> <Gold.Chemscore.DEInternal>
0.9092

> <Gold.Chemscore.Rot>
2.5185

> <Gold.Chemscore.Internal.Correction>
   9.000000E+99

> <Gold.Chemscore.Hbonds>
donor molecule, donor type, donor heavy atom, donor atom, acceptor molecule, acceptor atom, score
      L1  H    11    41       P1  7948  0.04
      P1  H  7997  8008       L1    22  0.98

> <Gold.Chemscore.Hbond.Weighted>
-3.4748

> <Gold.Chemscore.Metal.Weighted>
-0.0000

> <Gold.Chemscore.Lipo.Weighted>
-8.2011

> <Gold.Chemscore.Internal_Hbond.Weighted>
0.0000

> <Gold.Chemscore.DEClash.Weighted>
1.6846

> <Gold.Chemscore.DEInternal.Weighted>
0.9092

> <Gold.Chemscore.Rot.Weighted>
6.4472

> <Gold.Chemscore.Internal.Correction.Weighted>
   9.000000E+99

> <Gold.Protein.RotatedTorsions>
[ 6907 6896 6895 6894 ] final -157.40 input  -60.11 | X-H torsion
[ 7974 7965 7964 7962 ] final  -37.32 input  175.53 | X-H torsion
[ 8008 7997 7996 7995 ] final  -34.84 input   59.86 | X-H torsion
[ 10167 10162 10161 10158 ] final   17.61 input  -65.29 | X-H torsion
[ 10718 10713 10712 10709 ] final   13.68 input   66.30 | X-H torsion
[ 10763 10752 10751 10750 ] final  118.41 input  -60.55 | X-H torsion
[ 11005 11000 10999 10996 ] final   75.69 input  -57.11 | X-H torsion

> <Gold.Protein.ActiveResidues>
 VAL166  LYS551  ARG553  GLY616  TRP617  ASP618  TYR619  PRO620  LYS621  CYS622 
 ASP623  PHE694  ASN695  SER759  ASP760  ASP761  ALA762  ILE779  LEU786  VAL792 
 PHE793  MET794  SER795  GLU796  ALA797  LYS798  CYS799  TRP800  GLU811  SER814 

> <Gold.Protein.RotatedAtoms>
  151.3022  133.4117  159.2640 H   0  0  0  0  0  0  0  0  0  0  0  0  # atno 6907 bound_to 6896
  151.0185  134.9452  159.8057 H   0  0  0  0  0  0  0  0  0  0  0  0  # atno 6908 bound_to 6896
  152.5318  134.2986  159.9122 H   0  0  0  0  0  0  0  0  0  0  0  0  # atno 6909 bound_to 6896
  146.0585  140.6382  142.9008 H   0  0  0  0  0  0  0  0  0  0  0  0  # atno 7974 bound_to 7965
  154.4110  140.1673  156.2114 H   0  0  0  0  0  0  0  0  0  0  0  0  # atno 8008 bound_to 7997
  155.9441  140.3406  155.6329 H   0  0  0  0  0  0  0  0  0  0  0  0  # atno 8009 bound_to 7997
  155.6952  140.0738  157.2423 H   0  0  0  0  0  0  0  0  0  0  0  0  # atno 8010 bound_to 7997
  140.5714  143.9155  150.6716 H   0  0  0  0  0  0  0  0  0  0  0  0  # atno 10167 bound_to 10162
  157.0282  130.6182  149.5731 H   0  0  0  0  0  0  0  0  0  0  0  0  # atno 10718 bound_to 10713
  153.5672  135.3509  155.2823 H   0  0  0  0  0  0  0  0  0  0  0  0  # atno 10763 bound_to 10752
  154.8687  135.4150  154.2766 H   0  0  0  0  0  0  0  0  0  0  0  0  # atno 10764 bound_to 10752
  153.3524  135.7056  153.6847 H   0  0  0  0  0  0  0  0  0  0  0  0  # atno 10765 bound_to 10752
  139.9332  134.7538  156.1302 H   0  0  0  0  0  0  0  0  0  0  0  0  # atno 11005 bound_to 11000
  144.7161  140.4215  143.7043 LP  0  0  0  0  0  0  0  0  0  0  0  0  # atno 17320 bound_to 7965
  145.6602  139.1580  143.2813 LP  0  0  0  0  0  0  0  0  0  0  0  0  # atno 17321 bound_to 7965
  140.2631  143.3510  152.1305 LP  0  0  0  0  0  0  0  0  0  0  0  0  # atno 17342 bound_to 10162
  139.5119  144.6908  151.5763 LP  0  0  0  0  0  0  0  0  0  0  0  0  # atno 17343 bound_to 10162
  156.0079  130.5167  150.7890 LP  0  0  0  0  0  0  0  0  0  0  0  0  # atno 17370 bound_to 10713
  157.5198  131.0931  151.0093 LP  0  0  0  0  0  0  0  0  0  0  0  0  # atno 17371 bound_to 10713
  141.0932  133.6706  156.2587 LP  0  0  0  0  0  0  0  0  0  0  0  0  # atno 17394 bound_to 11000
  140.6145  134.5424  157.5538 LP  0  0  0  0  0  0  0  0  0  0  0  0  # atno 17395 bound_to 11000

$$$$
