AV-unprocessed.smi:72|AV-procd|sdf|686|dock7
  -GOLD-   2262017 03D 1   1.00000     0.00000
 Structure written by MMmdl.
 29 30  0  0  0  0  0  0  0  0  1 V2000
  145.5440  141.7611  156.9245 N   0  0  0  0  0  0  0  0  0  0  0  0
  146.7093  141.3417  156.5829 C   0  0  0  0  0  0  0  0  0  0  0  0
  147.5754  140.5970  157.3977 N   0  0  0  0  0  0  0  0  0  0  0  0
  148.7295  140.2467  156.9192 C   0  0  0  0  0  0  0  0  0  0  0  0
  149.1523  140.6053  155.5738 N   0  0  0  0  0  0  0  0  0  0  0  0
  150.5089  140.1849  155.0487 C   0  0  1  0  0  0  0  0  0  0  0  0
  151.3056  139.8153  156.1313 O   0  0  0  0  0  0  0  0  0  0  0  0
  152.1442  138.7371  155.7436 C   0  0  1  0  0  0  0  0  0  0  0  0
  152.6136  137.9664  156.9868 C   0  0  0  0  0  0  0  0  0  0  0  0
  153.4357  138.7902  157.7857 O   0  0  0  0  0  0  0  0  0  0  0  0
  151.2344  137.9182  154.8226 C   0  0  2  0  0  0  0  0  0  0  0  0
  152.0045  137.1430  153.9263 O   0  0  0  0  0  0  0  0  0  0  0  0
  150.4509  138.9882  154.0717 C   0  0  1  0  0  0  0  0  0  0  0  0
  149.1446  138.5340  153.7660 O   0  0  0  0  0  0  0  0  0  0  0  0
  148.2817  141.3385  154.7316 C   0  0  0  0  0  0  0  0  0  0  0  0
  148.5745  141.6373  153.5742 O   0  0  0  0  0  0  0  0  0  0  0  0
  147.0961  141.6817  155.2798 N   0  0  0  0  0  0  0  0  0  0  0  0
  150.9604  141.0682  154.5949 H   0  0  0  0  0  0  0  0  0  0  0  0
  152.9905  139.1304  155.1760 H   0  0  0  0  0  0  0  0  0  0  0  0
  150.5684  137.2853  155.4119 H   0  0  0  0  0  0  0  0  0  0  0  0
  150.9621  139.2850  153.1546 H   0  0  0  0  0  0  0  0  0  0  0  0
  145.1220  142.2702  156.1611 H   0  0  0  0  0  0  0  0  0  0  0  0
  149.4526  139.6595  157.4872 H   0  0  0  0  0  0  0  0  0  0  0  0
  151.7684  137.5939  157.5664 H   0  0  0  0  0  0  0  0  0  0  0  0
  153.2085  137.1024  156.6895 H   0  0  0  0  0  0  0  0  0  0  0  0
  153.6746  138.3118  158.5649 H   0  0  0  0  0  0  0  0  0  0  0  0
  151.4557  136.9004  153.1961 H   0  0  0  0  0  0  0  0  0  0  0  0
  149.2160  137.7621  153.2255 H   0  0  0  0  0  0  0  0  0  0  0  0
  146.4513  142.2088  154.7095 H   0  0  0  0  0  0  0  0  0  0  0  0
  1  2  2  0  0  0  0
  1 22  1  0  0  0  0
  2 17  1  0  0  0  0
  2  3  1  0  0  0  0
  3  4  2  0  0  0  0
  4  5  1  0  0  0  0
  4 23  1  0  0  0  0
  5  6  1  0  0  0  0
  5 15  1  0  0  0  0
  6 18  1  0  0  0  0
  6 13  1  0  0  0  0
  6  7  1  0  0  0  0
  7  8  1  0  0  0  0
  8 19  1  0  0  0  0
  8  9  1  0  0  0  0
  8 11  1  0  0  0  0
  9 10  1  0  0  0  0
  9 24  1  0  0  0  0
  9 25  1  0  0  0  0
 10 26  1  0  0  0  0
 11 20  1  0  0  0  0
 11 12  1  0  0  0  0
 11 13  1  0  0  0  0
 12 27  1  0  0  0  0
 13 21  1  0  0  0  0
 13 14  1  0  0  0  0
 14 28  1  0  0  0  0
 15 16  2  0  0  0  0
 15 17  1  0  0  0  0
 17 29  1  0  0  0  0
M  END
> <s_m_source_file>
AV-unprocessed.smi

> <i_m_source_file_index>
72

> <i_lp_mmshare_version>
43012

> <i_f3d_flags>
0

> <s_epik_input>
W05IMl1jMW5bY0hdbihjKD1PKW4xKVtDQEBIXTJPW0NASF0oW0NIMl1bT0hdKVtDQEBIXShbT0hdKVtDQEhdMltPSF0=

> <s_epik_cmdline>
J2VwaWtfcHl0aG9uJywgJy1waCcsICc3LjAnLCAnLXRuJywgJzgnLCAnLW1hJywgJzIwMCcsICctbWV0YWxfYmluZGluZycsICctaW1hZScsICc8aW5maWxlLm1hZT4nLCAnLW9tYWUnLCAnPG91dGZpbGUubWFlPic=

> <r_lp_tautomer_probability>
7.17554e-07

> <r_epik_Ionization_Penalty>
0.0066451

> <r_epik_Ionization_Penalty_Charging>
0.00663793

> <r_epik_Ionization_Penalty_Neutral>
7.17052e-06

> <r_epik_State_Penalty>
0.419231

> <r_epik_Charging_Adjusted_Penalty>
0.425868

> <i_epik_Tot_Q>
0

> <i_epik_Tot_abs_Q>
0

> <r_epik_Metal_State_Penalty>
1.44144

> <b_epik_Metal_Only>
0

> <s_epik_Chemistry_Notes>
This compound contains an acetal/aminal-like group ( X-CH(R)-Y where X, Y are N, S, or O) that may be acid/base labile, releasing an aldehyde.

> <s_lp_Force_Field>
OPLS_2005

> <r_lp_Energy>
42.1084

> <b_lp_Chiralities_Consistent>
1

> <s_lp_Variant>
AV-unprocessed.smi:72-24

> <Gold.Version>
5.8.1

> <Gold.Id.Protein>
6NUR|6NUR_protein|mol2

> <Gold.PLP.Fitness>
35.9277

> <Gold.PLP.PLP>
-22.8551

> <Gold.PLP.part.hbond>
-5.8905

> <Gold.PLP.part.metal>
0.0000

> <Gold.PLP.part.buried>
-2.5795

> <Gold.PLP.part.nonpolar>
-14.6904

> <Gold.PLP.part.repulsive>
0.2134

> <Gold.PLP.ligand.clash>
0.0000

> <Gold.PLP.ligand.torsion>
0.4361

> <Gold.PLP.Chemscore.Hbond>
4.6068

> <Gold.PLP.Chemscore.CHOScore>
0.0000

> <Gold.PLP.Chemscore.Metal>
0.0000

> <Gold.Chemscore.Hbonds>
donor molecule, donor type, donor heavy atom, donor atom, acceptor molecule, acceptor atom, score
      L1  H    12    27       P1  7949  1.00
      L1  H    14    28       P1  7948  0.98
      P1  H  7997  8010       L1    10  1.00
      P1  H  8011  8017       L1    16  0.66
      P1  H 10752 10765       L1    12  0.86

> <Gold.PLP.Chemscore.Internal.Correction>
0.1245

> <Gold.Rescore>
     Score         DG    S(hbond)    S(metal)    S(lipo)     H(rot)  DE(clash)    DE(int)     intcor
     10.03     -10.76       3.70        0.00      28.42       4.06       0.15       0.59       ----

> <Gold.Chemscore.Fitness>
10.0252

> <Gold.Chemscore.DG>
-10.7628

> <Gold.Chemscore.ZeroCoef>
-5.4800

> <Gold.Chemscore.Hbond>
3.6981

> <Gold.Chemscore.Metal>
0.0000

> <Gold.Chemscore.Lipo>
28.4167

> <Gold.Chemscore.Internal_Hbond>
0.0000

> <Gold.Chemscore.DEClash>
0.1518

> <Gold.Chemscore.DEInternal>
0.5858

> <Gold.Chemscore.Rot>
4.0600

> <Gold.Chemscore.Internal.Correction>
   9.000000E+99

> <Gold.Chemscore.Hbonds>
donor molecule, donor type, donor heavy atom, donor atom, acceptor molecule, acceptor atom, score
      L1  H    12    27       P1  7949  0.81
      L1  H    14    28       P1  7948  0.91
      P1  H  7997  8010       L1    10  0.89
      P1  H  8011  8017       L1    16  0.66
      P1  H 10752 10765       L1    12  0.16

> <Gold.Chemscore.Hbond.Weighted>
-12.3517

> <Gold.Chemscore.Metal.Weighted>
-0.0000

> <Gold.Chemscore.Lipo.Weighted>
-3.3248

> <Gold.Chemscore.Internal_Hbond.Weighted>
0.0000

> <Gold.Chemscore.DEClash.Weighted>
0.1518

> <Gold.Chemscore.DEInternal.Weighted>
0.5858

> <Gold.Chemscore.Rot.Weighted>
10.3936

> <Gold.Chemscore.Internal.Correction.Weighted>
   9.000000E+99

> <Gold.Protein.RotatedTorsions>
[ 6907 6896 6895 6894 ] final  111.50 input  -60.11 | X-H torsion
[ 7974 7965 7964 7962 ] final  -10.17 input  175.53 | X-H torsion
[ 8008 7997 7996 7995 ] final   21.87 input   59.86 | X-H torsion
[ 10167 10162 10161 10158 ] final  -36.57 input  -65.29 | X-H torsion
[ 10718 10713 10712 10709 ] final   51.32 input   66.30 | X-H torsion
[ 10763 10752 10751 10750 ] final  135.55 input  -60.55 | X-H torsion
[ 11005 11000 10999 10996 ] final  129.32 input  -57.11 | X-H torsion

> <Gold.Protein.ActiveResidues>
 VAL166  LYS551  ARG553  GLY616  TRP617  ASP618  TYR619  PRO620  LYS621  CYS622 
 ASP623  PHE694  ASN695  SER759  ASP760  ASP761  ALA762  ILE779  LEU786  VAL792 
 PHE793  MET794  SER795  GLU796  ALA797  LYS798  CYS799  TRP800  GLU811  SER814 

> <Gold.Protein.RotatedAtoms>
  152.4966  133.8649  159.7268 H   0  0  0  0  0  0  0  0  0  0  0  0  # atno 6907 bound_to 6896
  150.9151  133.6940  159.2852 H   0  0  0  0  0  0  0  0  0  0  0  0  # atno 6908 bound_to 6896
  151.4337  135.1017  159.9702 H   0  0  0  0  0  0  0  0  0  0  0  0  # atno 6909 bound_to 6896
  146.2229  140.2724  142.8357 H   0  0  0  0  0  0  0  0  0  0  0  0  # atno 7974 bound_to 7965
  154.9572  140.3073  155.5047 H   0  0  0  0  0  0  0  0  0  0  0  0  # atno 8008 bound_to 7997
  156.2981  140.2308  156.4592 H   0  0  0  0  0  0  0  0  0  0  0  0  # atno 8009 bound_to 7997
  154.7999  140.0434  157.1253 H   0  0  0  0  0  0  0  0  0  0  0  0  # atno 8010 bound_to 7997
  140.7139  143.3399  151.2379 H   0  0  0  0  0  0  0  0  0  0  0  0  # atno 10167 bound_to 10162
  157.4969  130.8412  149.8269 H   0  0  0  0  0  0  0  0  0  0  0  0  # atno 10718 bound_to 10713
  153.8419  135.3090  155.3426 H   0  0  0  0  0  0  0  0  0  0  0  0  # atno 10763 bound_to 10752
  154.7929  135.4772  154.0096 H   0  0  0  0  0  0  0  0  0  0  0  0  # atno 10764 bound_to 10752
  153.1570  135.6854  153.8889 H   0  0  0  0  0  0  0  0  0  0  0  0  # atno 10765 bound_to 10752
  139.9609  134.9602  156.9130 H   0  0  0  0  0  0  0  0  0  0  0  0  # atno 11005 bound_to 11000
  144.9258  140.7919  143.5720 LP  0  0  0  0  0  0  0  0  0  0  0  0  # atno 17320 bound_to 7965
  145.2664  139.1972  143.4865 LP  0  0  0  0  0  0  0  0  0  0  0  0  # atno 17321 bound_to 7965
  139.6904  143.9701  152.2856 LP  0  0  0  0  0  0  0  0  0  0  0  0  # atno 17342 bound_to 10162
  139.9361  144.6711  150.8313 LP  0  0  0  0  0  0  0  0  0  0  0  0  # atno 17343 bound_to 10162
  156.0206  130.3797  150.1974 LP  0  0  0  0  0  0  0  0  0  0  0  0  # atno 17370 bound_to 10713
  157.0164  130.9966  151.3352 LP  0  0  0  0  0  0  0  0  0  0  0  0  # atno 17371 bound_to 10713
  140.5503  134.0633  155.7367 LP  0  0  0  0  0  0  0  0  0  0  0  0  # atno 17394 bound_to 11000
  141.1285  133.9341  157.2584 LP  0  0  0  0  0  0  0  0  0  0  0  0  # atno 17395 bound_to 11000

$$$$
