AV-unprocessed.smi:1694|AV-procd|sdf|6788|dock6
  -GOLD-   22720 7553D 1   1.00000     0.00000
 Structure written by MMmdl.
 34 35  0  0  0  0  0  0  0  0  1 V2000
  151.0296  144.4525  157.2987 C   0  0  0  0  0  0  0  0  0  0  0  0
  151.4511  144.0386  158.6998 C   0  0  0  0  0  0  0  0  0  0  0  0
  152.7735  143.5962  158.9167 C   0  0  0  0  0  0  0  0  0  0  0  0
  153.1659  143.2129  160.2100 C   0  0  0  0  0  0  0  0  0  0  0  0
  152.2123  143.2889  161.2385 C   0  0  0  0  0  0  0  0  0  0  0  0
  150.9469  143.7109  161.0396 N   0  0  0  0  0  0  0  0  0  0  0  0
  150.5481  144.0858  159.7967 C   0  0  0  0  0  0  0  0  0  0  0  0
  149.2287  144.5471  159.4947 N   0  0  0  0  0  0  0  0  0  0  0  0
  148.0999  144.6032  160.2342 C   0  0  0  0  0  0  0  0  0  0  0  0
  148.0869  144.2103  161.3997 O   0  0  0  0  0  0  0  0  0  0  0  0
  147.0125  145.1050  159.6271 N   0  0  0  0  0  0  0  0  0  0  0  0
  145.6937  145.2564  160.2314 C   0  0  1  0  0  0  0  0  0  0  0  0
  144.6372  145.4098  159.1304 C   0  0  0  0  0  0  0  0  0  0  0  0
  143.2348  145.5910  159.7318 C   0  0  0  0  0  0  0  0  0  0  0  0
  142.9204  144.5935  160.8565 C   0  0  0  0  0  0  0  0  0  0  0  0
  141.7523  144.4059  161.1881 O   0  0  0  0  0  0  0  0  0  0  0  0
  143.9362  143.9710  161.4801 N   0  0  0  0  0  0  0  0  0  0  0  0
  145.3517  144.0427  161.1190 C   0  0  0  0  0  0  0  0  0  0  0  0
  151.8460  144.3319  156.5862 H   0  0  0  0  0  0  0  0  0  0  0  0
  150.7253  145.4994  157.2853 H   0  0  0  0  0  0  0  0  0  0  0  0
  150.1930  143.8436  156.9546 H   0  0  0  0  0  0  0  0  0  0  0  0
  153.4820  143.5497  158.1026 H   0  0  0  0  0  0  0  0  0  0  0  0
  154.1708  142.8704  160.4077 H   0  0  0  0  0  0  0  0  0  0  0  0
  152.4704  143.0041  162.2477 H   0  0  0  0  0  0  0  0  0  0  0  0
  149.1233  144.9038  158.5562 H   0  0  0  0  0  0  0  0  0  0  0  0
  147.1107  145.4048  158.6669 H   0  0  0  0  0  0  0  0  0  0  0  0
  145.6837  146.1617  160.8419 H   0  0  0  0  0  0  0  0  0  0  0  0
  144.8753  146.2657  158.4974 H   0  0  0  0  0  0  0  0  0  0  0  0
  144.6462  144.5335  158.4802 H   0  0  0  0  0  0  0  0  0  0  0  0
  143.1441  146.5953  160.1472 H   0  0  0  0  0  0  0  0  0  0  0  0
  142.4796  145.5081  158.9495 H   0  0  0  0  0  0  0  0  0  0  0  0
  143.6995  143.3475  162.2386 H   0  0  0  0  0  0  0  0  0  0  0  0
  145.6006  143.1171  160.5982 H   0  0  0  0  0  0  0  0  0  0  0  0
  145.9487  144.0582  162.0313 H   0  0  0  0  0  0  0  0  0  0  0  0
  1  2  1  0  0  0  0
  1 19  1  0  0  0  0
  1 20  1  0  0  0  0
  1 21  1  0  0  0  0
  2  7  1  0  0  0  0
  2  3  2  0  0  0  0
  3  4  1  0  0  0  0
  3 22  1  0  0  0  0
  4  5  2  0  0  0  0
  4 23  1  0  0  0  0
  5  6  1  0  0  0  0
  5 24  1  0  0  0  0
  6  7  2  0  0  0  0
  7  8  1  0  0  0  0
  8  9  1  0  0  0  0
  8 25  1  0  0  0  0
  9 10  2  0  0  0  0
  9 11  1  0  0  0  0
 11 12  1  0  0  0  0
 11 26  1  0  0  0  0
 12 18  1  0  0  0  0
 12 13  1  0  0  0  0
 12 27  1  0  0  0  0
 13 14  1  0  0  0  0
 13 28  1  0  0  0  0
 13 29  1  0  0  0  0
 14 15  1  0  0  0  0
 14 30  1  0  0  0  0
 14 31  1  0  0  0  0
 15 16  2  0  0  0  0
 15 17  1  0  0  0  0
 17 18  1  0  0  0  0
 17 32  1  0  0  0  0
 18 33  1  0  0  0  0
 18 34  1  0  0  0  0
M  END
> <s_m_source_file>
AV-unprocessed.smi

> <i_m_source_file_index>
1694

> <i_lp_mmshare_version>
43012

> <i_f3d_flags>
0

> <s_epik_input>
W0NIM11jMVtjSF1bY0hdW2NIXW5jMVtOSF1DKD1PKVtOSF1bQ0BASF0yW0NIMl1bQ0gyXUMoPU8pW05IXVtDSDJdMg==

> <s_epik_cmdline>
J2VwaWtfcHl0aG9uJywgJy1waCcsICc3LjAnLCAnLXRuJywgJzgnLCAnLW1hJywgJzIwMCcsICctbWV0YWxfYmluZGluZycsICctaW1hZScsICc8aW5maWxlLm1hZT4nLCAnLW9tYWUnLCAnPG91dGZpbGUubWFlPic=

> <r_lp_tautomer_probability>
1

> <r_epik_Ionization_Penalty>
5.3746e-05

> <r_epik_Ionization_Penalty_Charging>
0

> <r_epik_Ionization_Penalty_Neutral>
5.3746e-05

> <r_epik_State_Penalty>
-0

> <r_epik_Charging_Adjusted_Penalty>
0

> <i_epik_Tot_Q>
0

> <i_epik_Tot_abs_Q>
0

> <r_epik_Metal_State_Penalty>
-0

> <b_epik_Metal_Only>
0

> <s_lp_Force_Field>
OPLS_2005

> <r_lp_Energy>
12.9855

> <b_lp_Chiralities_Consistent>
1

> <s_lp_Variant>
AV-unprocessed.smi:1694-2

> <Gold.Version>
5.8.1

> <Gold.Id.Protein>
6NUR|6NUR_protein|mol2

> <Gold.PLP.Fitness>
40.7010

> <Gold.PLP.PLP>
-32.5997

> <Gold.PLP.part.hbond>
-4.7041

> <Gold.PLP.part.metal>
0.0000

> <Gold.PLP.part.buried>
-2.2191

> <Gold.PLP.part.nonpolar>
-26.8209

> <Gold.PLP.part.repulsive>
0.7623

> <Gold.PLP.ligand.clash>
0.0000

> <Gold.PLP.ligand.torsion>
0.2838

> <Gold.PLP.Chemscore.Hbond>
2.8892

> <Gold.PLP.Chemscore.CHOScore>
0.0000

> <Gold.PLP.Chemscore.Metal>
0.0000

> <Gold.Chemscore.Hbonds>
donor molecule, donor type, donor heavy atom, donor atom, acceptor molecule, acceptor atom, score
      L1  H     8    25       P1  8029  0.86
      L1  H    11    26       P1  8029  1.00
      P1  H  6933  6944       L1    10  1.00

> <Gold.PLP.Chemscore.Internal.Correction>
0.0013

> <Gold.Rescore>
     Score         DG    S(hbond)    S(metal)    S(lipo)     H(rot)  DE(clash)    DE(int)     intcor
     17.34     -21.60       2.76        0.00      80.90       1.00       1.67       2.59       ----

> <Gold.Chemscore.Fitness>
17.3369

> <Gold.Chemscore.DG>
-21.5959

> <Gold.Chemscore.ZeroCoef>
-5.4800

> <Gold.Chemscore.Hbond>
2.7576

> <Gold.Chemscore.Metal>
0.0000

> <Gold.Chemscore.Lipo>
80.9016

> <Gold.Chemscore.Internal_Hbond>
0.0000

> <Gold.Chemscore.DEClash>
1.6718

> <Gold.Chemscore.DEInternal>
2.5872

> <Gold.Chemscore.Rot>
1.0000

> <Gold.Chemscore.Internal.Correction>
   9.000000E+99

> <Gold.Chemscore.Hbonds>
donor molecule, donor type, donor heavy atom, donor atom, acceptor molecule, acceptor atom, score
      L1  H     8    25       P1  8029  0.66
      L1  H    11    26       P1  8029  0.99
      P1  H  6933  6944       L1    10  0.72

> <Gold.Chemscore.Hbond.Weighted>
-9.2104

> <Gold.Chemscore.Metal.Weighted>
-0.0000

> <Gold.Chemscore.Lipo.Weighted>
-9.4655

> <Gold.Chemscore.Internal_Hbond.Weighted>
0.0000

> <Gold.Chemscore.DEClash.Weighted>
1.6718

> <Gold.Chemscore.DEInternal.Weighted>
2.5872

> <Gold.Chemscore.Rot.Weighted>
2.5600

> <Gold.Chemscore.Internal.Correction.Weighted>
   9.000000E+99

> <Gold.Protein.RotatedTorsions>
[ 6907 6896 6895 6894 ] final   90.00 input  -60.11 | X-H torsion
[ 7974 7965 7964 7962 ] final  130.27 input  175.53 | X-H torsion
[ 8008 7997 7996 7995 ] final  145.17 input   59.86 | X-H torsion
[ 10167 10162 10161 10158 ] final  132.50 input  -65.29 | X-H torsion
[ 10718 10713 10712 10709 ] final  178.97 input   66.30 | X-H torsion
[ 10763 10752 10751 10750 ] final -159.55 input  -60.55 | X-H torsion
[ 11005 11000 10999 10996 ] final -161.97 input  -57.11 | X-H torsion

> <Gold.Protein.ActiveResidues>
 VAL166  LYS551  ARG553  GLY616  TRP617  ASP618  TYR619  PRO620  LYS621  CYS622 
 ASP623  PHE694  ASN695  SER759  ASP760  ASP761  ALA762  ILE779  LEU786  VAL792 
 PHE793  MET794  SER795  GLU796  ALA797  LYS798  CYS799  TRP800  GLU811  SER814 

> <Gold.Protein.RotatedAtoms>
  152.5441  134.1878  159.8661 H   0  0  0  0  0  0  0  0  0  0  0  0  # atno 6907 bound_to 6896
  151.1876  133.4680  159.2602 H   0  0  0  0  0  0  0  0  0  0  0  0  # atno 6908 bound_to 6896
  151.1115  135.0041  159.8552 H   0  0  0  0  0  0  0  0  0  0  0  0  # atno 6909 bound_to 6896
  145.0197  139.4143  143.5203 H   0  0  0  0  0  0  0  0  0  0  0  0  # atno 7974 bound_to 7965
  156.2890  140.2216  156.5173 H   0  0  0  0  0  0  0  0  0  0  0  0  # atno 8008 bound_to 7997
  154.7558  140.0477  157.0954 H   0  0  0  0  0  0  0  0  0  0  0  0  # atno 8009 bound_to 7997
  155.0052  140.3106  155.4854 H   0  0  0  0  0  0  0  0  0  0  0  0  # atno 8010 bound_to 7997
  139.5337  144.6659  151.4861 H   0  0  0  0  0  0  0  0  0  0  0  0  # atno 10167 bound_to 10162
  156.8827  130.9821  151.3060 H   0  0  0  0  0  0  0  0  0  0  0  0  # atno 10718 bound_to 10713
  154.7465  135.3081  154.8635 H   0  0  0  0  0  0  0  0  0  0  0  0  # atno 10763 bound_to 10752
  153.9434  135.6772  153.4748 H   0  0  0  0  0  0  0  0  0  0  0  0  # atno 10764 bound_to 10752
  153.1062  135.4888  154.8881 H   0  0  0  0  0  0  0  0  0  0  0  0  # atno 10765 bound_to 10752
  140.6145  134.4815  157.5218 H   0  0  0  0  0  0  0  0  0  0  0  0  # atno 11005 bound_to 11000
  146.3483  139.9688  142.8708 LP  0  0  0  0  0  0  0  0  0  0  0  0  # atno 17320 bound_to 7965
  145.1912  140.9812  143.4210 LP  0  0  0  0  0  0  0  0  0  0  0  0  # atno 17321 bound_to 7965
  140.6530  143.8656  150.6806 LP  0  0  0  0  0  0  0  0  0  0  0  0  # atno 17342 bound_to 10162
  140.2027  143.3946  152.1779 LP  0  0  0  0  0  0  0  0  0  0  0  0  # atno 17343 bound_to 10162
  157.6131  130.8598  149.8983 LP  0  0  0  0  0  0  0  0  0  0  0  0  # atno 17370 bound_to 10713
  156.0669  130.3691  150.0859 LP  0  0  0  0  0  0  0  0  0  0  0  0  # atno 17371 bound_to 10713
  139.9178  134.8209  156.1307 LP  0  0  0  0  0  0  0  0  0  0  0  0  # atno 17394 bound_to 11000
  141.0785  133.6764  156.2287 LP  0  0  0  0  0  0  0  0  0  0  0  0  # atno 17395 bound_to 11000

$$$$
