AV-unprocessed.smi:256|AV-procd|sdf|1960|dock3
  -GOLD-   2262021103D 1   1.00000     0.00000
 Structure written by MMmdl.
 62 65  0  0  0  0  0  0  0  0  2 V2000
  145.6485  135.8456  151.2480 C   0  0  0  0  0  0  0  0  0  0  0  0
  144.6934  136.8224  151.9497 C   0  0  0  0  0  0  0  0  0  0  0  0
  145.1620  137.2593  153.3636 C   0  0  1  0  0  0  0  0  0  0  0  0
  146.4869  138.0549  153.2297 C   0  0  0  0  0  0  0  0  0  0  0  0
  146.8886  138.6906  154.4787 N   0  0  0  0  0  0  0  0  0  0  0  0
  148.1676  139.1279  154.6041 C   0  0  0  0  0  0  0  0  0  0  0  0
  149.1699  138.4929  153.9396 N   0  0  0  0  0  0  0  0  0  0  0  0
  150.4320  138.9158  154.0579 C   0  0  0  0  0  0  0  0  0  0  0  0
  150.9068  139.9326  154.7795 N   0  0  0  0  0  0  0  0  0  0  0  0
  149.9088  140.5688  155.4564 C   0  0  0  0  0  0  0  0  0  0  0  0
  148.5248  140.2368  155.4227 C   0  0  0  0  0  0  0  0  0  0  0  0
  147.8115  141.1011  156.2446 N   0  0  0  0  0  0  0  0  0  0  0  0
  148.7196  141.9036  156.7284 C   0  0  0  0  0  0  0  0  0  0  0  0
  150.0087  141.6480  156.3180 N   0  0  0  0  0  0  0  0  0  0  0  0
  151.2072  142.3758  156.7095 C   0  0  0  0  0  0  0  0  0  0  0  0
  151.5353  142.2856  158.2253 C   0  0  0  0  0  0  0  0  0  0  0  0
  151.7624  140.9221  158.5329 O   0  0  0  0  0  0  0  0  0  0  0  0
  152.7958  143.0733  158.6437 C   0  0  0  0  0  0  0  0  0  0  0  0
  152.5340  144.5896  158.6458 C   0  0  0  0  0  0  0  0  0  0  0  0
  151.4412  144.8910  159.5067 O   0  0  0  0  0  0  0  0  0  0  0  0
  150.2194  144.2919  159.0882 C   0  0  0  0  0  0  0  0  0  0  0  0
  150.3535  142.7582  159.0956 C   0  0  0  0  0  0  0  0  0  0  0  0
  145.8671  139.5517  155.0513 C   0  0  0  0  0  0  0  0  0  0  0  0
  144.5995  138.7350  155.3061 C   0  0  0  0  0  0  0  0  0  0  0  0
  144.1082  138.0511  154.0784 N   0  3  2  0  0  0  0  0  0  0  0  0
  142.8598  137.2915  154.3719 C   0  0  0  0  0  0  0  0  0  0  0  0
  141.7112  138.2383  154.7396 C   0  0  0  0  0  0  0  0  0  0  0  0
  140.5466  137.4723  154.9971 O   0  0  0  0  0  0  0  0  0  0  0  0
  140.1624  136.6794  153.8878 C   0  0  0  0  0  0  0  0  0  0  0  0
  145.2245  135.5069  150.3023 H   0  0  0  0  0  0  0  0  0  0  0  0
  145.8317  134.9635  151.8623 H   0  0  0  0  0  0  0  0  0  0  0  0
  146.6099  136.3068  151.0226 H   0  0  0  0  0  0  0  0  0  0  0  0
  144.5541  137.7032  151.3217 H   0  0  0  0  0  0  0  0  0  0  0  0
  143.7207  136.3366  151.9828 H   0  0  0  0  0  0  0  0  0  0  0  0
  145.3586  136.3718  153.9678 H   0  0  0  0  0  0  0  0  0  0  0  0
  147.2816  137.3860  152.8973 H   0  0  0  0  0  0  0  0  0  0  0  0
  146.3811  138.8293  152.4683 H   0  0  0  0  0  0  0  0  0  0  0  0
  151.1671  138.3593  153.4950 H   0  0  0  0  0  0  0  0  0  0  0  0
  148.4743  142.7041  157.4112 H   0  0  0  0  0  0  0  0  0  0  0  0
  152.0376  142.0015  156.1115 H   0  0  0  0  0  0  0  0  0  0  0  0
  151.0773  143.4183  156.4158 H   0  0  0  0  0  0  0  0  0  0  0  0
  152.4739  140.8686  159.1527 H   0  0  0  0  0  0  0  0  0  0  0  0
  153.0901  142.7802  159.6527 H   0  0  0  0  0  0  0  0  0  0  0  0
  153.6467  142.8349  158.0055 H   0  0  0  0  0  0  0  0  0  0  0  0
  153.4173  145.1185  159.0040 H   0  0  0  0  0  0  0  0  0  0  0  0
  152.3312  144.9611  157.6412 H   0  0  0  0  0  0  0  0  0  0  0  0
  149.4294  144.5978  159.7742 H   0  0  0  0  0  0  0  0  0  0  0  0
  149.9376  144.6635  158.1026 H   0  0  0  0  0  0  0  0  0  0  0  0
  149.4226  142.2960  158.7649 H   0  0  0  0  0  0  0  0  0  0  0  0
  150.5048  142.4356  160.1270 H   0  0  0  0  0  0  0  0  0  0  0  0
  146.1961  140.0143  155.9810 H   0  0  0  0  0  0  0  0  0  0  0  0
  145.6569  140.3651  154.3553 H   0  0  0  0  0  0  0  0  0  0  0  0
  144.8081  137.9905  156.0766 H   0  0  0  0  0  0  0  0  0  0  0  0
  143.8183  139.3874  155.6977 H   0  0  0  0  0  0  0  0  0  0  0  0
  142.5543  136.6495  153.5478 H   0  0  0  0  0  0  0  0  0  0  0  0
  143.0282  136.5997  155.1985 H   0  0  0  0  0  0  0  0  0  0  0  0
  141.9793  138.8051  155.6326 H   0  0  0  0  0  0  0  0  0  0  0  0
  141.5315  138.9568  153.9383 H   0  0  0  0  0  0  0  0  0  0  0  0
  139.2704  136.1059  154.1392 H   0  0  0  0  0  0  0  0  0  0  0  0
  140.9493  135.9756  153.6140 H   0  0  0  0  0  0  0  0  0  0  0  0
  139.9303  137.2996  153.0211 H   0  0  0  0  0  0  0  0  0  0  0  0
  143.8485  138.7839  153.4335 H   0  0  0  0  0  0  0  0  0  0  0  0
  1  2  1  0  0  0  0
  1 30  1  0  0  0  0
  1 31  1  0  0  0  0
  1 32  1  0  0  0  0
  2  3  1  0  0  0  0
  2 33  1  0  0  0  0
  2 34  1  0  0  0  0
  3 25  1  0  0  0  0
  3  4  1  0  0  0  0
  3 35  1  0  0  0  0
  4  5  1  0  0  0  0
  4 36  1  0  0  0  0
  4 37  1  0  0  0  0
  5  6  1  0  0  0  0
  5 23  1  0  0  0  0
  6 11  1  0  0  0  0
  6  7  2  0  0  0  0
  7  8  1  0  0  0  0
  8  9  2  0  0  0  0
  8 38  1  0  0  0  0
  9 10  1  0  0  0  0
 10 14  1  0  0  0  0
 10 11  2  0  0  0  0
 11 12  1  0  0  0  0
 12 13  2  0  0  0  0
 13 14  1  0  0  0  0
 13 39  1  0  0  0  0
 14 15  1  0  0  0  0
 15 16  1  0  0  0  0
 15 40  1  0  0  0  0
 15 41  1  0  0  0  0
 16 22  1  0  0  0  0
 16 17  1  0  0  0  0
 16 18  1  0  0  0  0
 17 42  1  0  0  0  0
 18 19  1  0  0  0  0
 18 43  1  0  0  0  0
 18 44  1  0  0  0  0
 19 20  1  0  0  0  0
 19 45  1  0  0  0  0
 19 46  1  0  0  0  0
 20 21  1  0  0  0  0
 21 22  1  0  0  0  0
 21 47  1  0  0  0  0
 21 48  1  0  0  0  0
 22 49  1  0  0  0  0
 22 50  1  0  0  0  0
 23 24  1  0  0  0  0
 23 51  1  0  0  0  0
 23 52  1  0  0  0  0
 24 25  1  0  0  0  0
 24 53  1  0  0  0  0
 24 54  1  0  0  0  0
 25 26  1  0  0  0  0
 25 62  1  0  0  0  0
 26 27  1  0  0  0  0
 26 55  1  0  0  0  0
 26 56  1  0  0  0  0
 27 28  1  0  0  0  0
 27 57  1  0  0  0  0
 27 58  1  0  0  0  0
 28 29  1  0  0  0  0
 29 59  1  0  0  0  0
 29 60  1  0  0  0  0
 29 61  1  0  0  0  0
M  CHG  1  25   1
M  END
> <s_m_source_file>
AV-unprocessed.smi

> <i_m_source_file_index>
256

> <i_lp_mmshare_version>
43012

> <i_f3d_flags>
0

> <s_epik_input>
W0NIM11PW0NIMl1bQ0gyXU4xW0NIMl1bQ0gyXU4oW0NIMl1bQ0BIXTFbQ0gyXVtDSDNdKWMobltjSF1uMiljKGMyMyluW2NIXW4zW0NIMl1DNChbT0hdKVtDSDJdW0NIMl1PW0NIMl1bQ0gyXTQ=

> <s_epik_cmdline>
J2VwaWtfcHl0aG9uJywgJy1waCcsICc3LjAnLCAnLXRuJywgJzgnLCAnLW1hJywgJzIwMCcsICctbWV0YWxfYmluZGluZycsICctaW1hZScsICc8aW5maWxlLm1hZT4nLCAnLW9tYWUnLCAnPG91dGZpbGUubWFlPic=

> <r_lp_tautomer_probability>
1

> <r_epik_Ionization_Penalty>
0.233023

> <r_epik_Ionization_Penalty_Charging>
0.23295

> <r_epik_Ionization_Penalty_Neutral>
7.2493e-05

> <r_epik_State_Penalty>
0.223667

> <r_epik_Charging_Adjusted_Penalty>
0.456618

> <i_epik_Tot_Q>
1

> <i_epik_Tot_abs_Q>
1

> <r_epik_Metal_State_Penalty>
0.226879

> <b_epik_Metal_Only>
0

> <s_lp_Force_Field>
OPLS_2005

> <r_lp_Energy>
45.9613

> <b_lp_Chiralities_Consistent>
1

> <s_lp_Variant>
AV-unprocessed.smi:256-4

> <Gold.Version>
5.8.1

> <Gold.Id.Protein>
6NUR|6NUR_protein|mol2

> <Gold.PLP.Fitness>
45.3067

> <Gold.PLP.PLP>
-35.5591

> <Gold.PLP.part.hbond>
-2.0000

> <Gold.PLP.part.metal>
0.0000

> <Gold.PLP.part.buried>
-4.1049

> <Gold.PLP.part.nonpolar>
-30.4627

> <Gold.PLP.part.repulsive>
0.8147

> <Gold.PLP.ligand.clash>
0.0000

> <Gold.PLP.ligand.torsion>
0.5680

> <Gold.PLP.Chemscore.Hbond>
3.0000

> <Gold.PLP.Chemscore.CHOScore>
0.3911

> <Gold.PLP.Chemscore.Metal>
0.0000

> <Gold.Chemscore.Hbonds>
donor molecule, donor type, donor heavy atom, donor atom, acceptor molecule, acceptor atom, score
      L1  H    25    62       P1 10175  2.00
      P1  H  7989  7998       L1     9  0.95
      L1  C    13    39       P1  8028  0.21

> <Gold.PLP.Chemscore.Internal.Correction>
0.7105

> <Gold.Rescore>
     Score         DG    S(hbond)    S(metal)    S(lipo)     H(rot)  DE(clash)    DE(int)     intcor
      8.98     -12.68       1.15        0.00      92.56       2.92       1.32       2.38       ----

> <Gold.Chemscore.Fitness>
8.9787

> <Gold.Chemscore.DG>
-12.6776

> <Gold.Chemscore.ZeroCoef>
-5.4800

> <Gold.Chemscore.Hbond>
1.1544

> <Gold.Chemscore.Metal>
0.0000

> <Gold.Chemscore.Lipo>
92.5574

> <Gold.Chemscore.Internal_Hbond>
0.0000

> <Gold.Chemscore.DEClash>
1.3153

> <Gold.Chemscore.DEInternal>
2.3836

> <Gold.Chemscore.Rot>
2.9247

> <Gold.Chemscore.Internal.Correction>
   9.000000E+99

> <Gold.Chemscore.Hbonds>
donor molecule, donor type, donor heavy atom, donor atom, acceptor molecule, acceptor atom, score
      L1  H    25    62       P1 10175  1.00
      P1  H  7989  7998       L1     9  0.20

> <Gold.Chemscore.Hbond.Weighted>
-3.8557

> <Gold.Chemscore.Metal.Weighted>
-0.0000

> <Gold.Chemscore.Lipo.Weighted>
-10.8292

> <Gold.Chemscore.Internal_Hbond.Weighted>
0.0000

> <Gold.Chemscore.DEClash.Weighted>
1.3153

> <Gold.Chemscore.DEInternal.Weighted>
2.3836

> <Gold.Chemscore.Rot.Weighted>
7.4873

> <Gold.Chemscore.Internal.Correction.Weighted>
   9.000000E+99

> <Gold.Protein.RotatedTorsions>
[ 6907 6896 6895 6894 ] final    9.79 input  -60.11 | X-H torsion
[ 7974 7965 7964 7962 ] final -142.92 input  175.53 | X-H torsion
[ 8008 7997 7996 7995 ] final   97.68 input   59.86 | X-H torsion
[ 10167 10162 10161 10158 ] final  -36.98 input  -65.29 | X-H torsion
[ 10718 10713 10712 10709 ] final  147.74 input   66.30 | X-H torsion
[ 10763 10752 10751 10750 ] final -127.60 input  -60.55 | X-H torsion
[ 11005 11000 10999 10996 ] final  175.65 input  -57.11 | X-H torsion

> <Gold.Protein.ActiveResidues>
 VAL166  LYS551  ARG553  GLY616  TRP617  ASP618  TYR619  PRO620  LYS621  CYS622 
 ASP623  PHE694  ASN695  SER759  ASP760  ASP761  ALA762  ILE779  LEU786  VAL792 
 PHE793  MET794  SER795  GLU796  ALA797  LYS798  CYS799  TRP800  GLU811  SER814 

> <Gold.Protein.RotatedAtoms>
  151.7279  135.0881  160.0294 H   0  0  0  0  0  0  0  0  0  0  0  0  # atno 6907 bound_to 6896
  152.3560  133.6233  159.5988 H   0  0  0  0  0  0  0  0  0  0  0  0  # atno 6908 bound_to 6896
  150.7572  133.9415  159.3499 H   0  0  0  0  0  0  0  0  0  0  0  0  # atno 6909 bound_to 6896
  144.8408  140.5899  143.5454 H   0  0  0  0  0  0  0  0  0  0  0  0  # atno 7974 bound_to 7965
  156.0927  140.3255  155.7837 H   0  0  0  0  0  0  0  0  0  0  0  0  # atno 8008 bound_to 7997
  155.4970  140.0566  157.2962 H   0  0  0  0  0  0  0  0  0  0  0  0  # atno 8009 bound_to 7997
  154.4647  140.1983  156.0165 H   0  0  0  0  0  0  0  0  0  0  0  0  # atno 8010 bound_to 7997
  140.7129  143.3372  151.2437 H   0  0  0  0  0  0  0  0  0  0  0  0  # atno 10167 bound_to 10162
  157.3173  131.0898  151.1269 H   0  0  0  0  0  0  0  0  0  0  0  0  # atno 10718 bound_to 10713
  154.8753  135.3956  154.3621 H   0  0  0  0  0  0  0  0  0  0  0  0  # atno 10763 bound_to 10752
  153.4392  135.7026  153.6185 H   0  0  0  0  0  0  0  0  0  0  0  0  # atno 10764 bound_to 10752
  153.4774  135.3777  155.2393 H   0  0  0  0  0  0  0  0  0  0  0  0  # atno 10765 bound_to 10752
  140.3645  134.7083  157.4353 H   0  0  0  0  0  0  0  0  0  0  0  0  # atno 11005 bound_to 11000
  145.4699  139.1504  143.3820 LP  0  0  0  0  0  0  0  0  0  0  0  0  # atno 17320 bound_to 7965
  146.2700  140.4832  142.8818 LP  0  0  0  0  0  0  0  0  0  0  0  0  # atno 17321 bound_to 7965
  139.6870  143.9757  152.2839 LP  0  0  0  0  0  0  0  0  0  0  0  0  # atno 17342 bound_to 10162
  139.9405  144.6684  150.8271 LP  0  0  0  0  0  0  0  0  0  0  0  0  # atno 17343 bound_to 10162
  157.2567  130.6640  149.5956 LP  0  0  0  0  0  0  0  0  0  0  0  0  # atno 17370 bound_to 10713
  155.9682  130.4521  150.5762 LP  0  0  0  0  0  0  0  0  0  0  0  0  # atno 17371 bound_to 10713
  140.0600  134.6009  155.8760 LP  0  0  0  0  0  0  0  0  0  0  0  0  # atno 17394 bound_to 11000
  141.1974  133.6596  156.5738 LP  0  0  0  0  0  0  0  0  0  0  0  0  # atno 17395 bound_to 11000

$$$$
