#       Name:                AV-unprocessed.smi:2564
#       Creating user name   scv26
#       Creation time:       Fri Mar 27 14:10:13 2020


#       File generated by GOLD software.
#

@<TRIPOS>MOLECULE
AV-unprocessed.smi:2564
    33    34     1
SMALL
NO_CHARGES


@<TRIPOS>ATOM
      1 ****        -3.9832   1.3720  -1.3622 C.ar           1 S1                 0.0000
      2 ****        -3.2667   2.5826  -1.3605 C.ar           1 S1                 0.0000
      3 ****        -1.9162   2.6286  -1.4036 N.ar           1 S1                 0.0000
      4 ****        -1.2093   1.4940  -1.4525 N.ar           1 S1                 0.0000
      5 ****        -1.8336   0.2892  -1.4540 C.ar           1 S1                 0.0000
      6 ****        -1.0673  -0.8846  -1.5046 N.pl3          1 S1                 0.0000
      7 ****         0.3862  -0.8594  -1.3855 C.3            1 S1                 0.0000
      8 ****         0.8582  -0.8924   0.0789 C.3            1 S1                 0.0000
      9 ****         2.3753  -1.1479   0.1779 C.3            1 S1                 0.0000
     10 ****         2.8116  -1.1033   1.5877 N.4            1 S1                 1.0000
     11 ****         2.4215   0.1624   2.2384 C.3            1 S1                 0.0000
     12 ****         0.9113   0.3961   2.0711 C.3            1 S1                 0.0000
     13 ****         0.5799   0.3667   0.6875 O.3            1 S1                 0.0000
     14 ****        -3.2379   0.1813  -1.4107 C.ar           1 S1                 0.0000
     15 ****        -5.0625   1.3584  -1.3279 H              1 S1                 0.0000
     16 ****        -3.7832   3.5302  -1.3243 H              1 S1                 0.0000
     17 ****        -1.5360  -1.7792  -1.4986 H              1 S1                 0.0000
     18 ****         0.7569  -1.7469  -1.8989 H              1 S1                 0.0000
     19 ****         0.8132  -0.0072  -1.9152 H              1 S1                 0.0000
     20 ****         0.3232  -1.6831   0.6091 H              1 S1                 0.0000
     21 ****         2.6298  -2.1215  -0.2419 H              1 S1                 0.0000
     22 ****         2.9265  -0.3977  -0.3910 H              1 S1                 0.0000
     23 ****         2.3765  -1.8683   2.0836 H              1 S1                 0.0000
     24 ****         2.6909   0.1266   3.2943 H              1 S1                 0.0000
     25 ****         2.9822   0.9834   1.7897 H              1 S1                 0.0000
     26 ****         0.3354  -0.3568   2.6116 H              1 S1                 0.0000
     27 ****         0.6325   1.3667   2.4818 H              1 S1                 0.0000
     28 ****        -3.7299  -0.7804  -1.4142 H              1 S1                 0.0000
     29 ****         3.8151  -1.2091   1.6335 H              1 S1                 0.0000
     30 ****        -1.4457   3.5109  -1.3989 LP             1 S1                 0.0000
     31 ****        -0.2108   1.5341  -1.4883 LP             1 S1                 0.0000
     32 ****        -0.3962   0.5605   0.5886 LP             1 S1                 0.0000
     33 ****         1.1092   1.0728   0.2172 LP             1 S1                 0.0000
@<TRIPOS>BOND
    1    1   14 ar    
    2    1    2 ar    
    3    1   15 1     
    4    2    3 ar    
    5    2   16 1     
    6    3    4 ar    
    7    4    5 ar    
    8    5    6 1     
    9    5   14 ar    
   10    6    7 1     
   11    6   17 1     
   12    7    8 1     
   13    7   18 1     
   14    7   19 1     
   15    8   13 1     
   16    8    9 1     
   17    8   20 1     
   18    9   10 1     
   19    9   21 1     
   20    9   22 1     
   21   10   11 1     
   22   10   23 1     
   23   10   29 1     
   24   11   12 1     
   25   11   24 1     
   26   11   25 1     
   27   12   13 1     
   28   12   26 1     
   29   12   27 1     
   30   14   28 1     
   31    3   30 1     
   32    4   31 1     
   33   13   32 1     
   34   13   33 1     
@<TRIPOS>SUBSTRUCTURE
      1 S1             1
@<TRIPOS>SET
LONE_PAIRS      STATIC     ATOMS    <user>   **** ""
4 30 31 32 33
DONOR_HYDROGENS      STATIC     ATOMS    <user>   **** ""
3 17 23 29
ATOM$BLUE        STATIC     ATOMS    COLORGROUP SYSTEM
4 30 31 32 33
ATOM$RED        STATIC     ATOMS    COLORGROUP SYSTEM
3 17 23 29
