AV-unprocessed.smi:2565|AV-procd|sdf|10071|dock8
  -GOLD-   2272014103D 1   1.00000     0.00000
 Structure written by MMmdl.
 24 25  0  0  0  0  0  0  0  0  1 V2000
  150.1704  136.9989  154.9637 C   0  0  0  0  0  0  0  0  0  0  0  0
  151.0807  138.1262  154.9331 N   0  0  0  0  0  0  0  0  0  0  0  0
  152.4213  138.1184  154.8897 C   0  0  0  0  0  0  0  0  0  0  0  0
  152.9922  139.3219  154.8814 N   0  0  0  0  0  0  0  0  0  0  0  0
  151.9339  140.2079  154.9230 N   0  0  0  0  0  0  0  0  0  0  0  0
  150.8278  139.4513  154.9430 C   0  0  0  0  0  0  0  0  0  0  0  0
  149.4334  140.0024  155.0075 C   0  0  1  0  0  0  0  0  0  0  0  0
  149.4139  141.5434  155.0127 C   0  0  0  0  0  0  0  0  0  0  0  0
  148.0363  142.0326  154.9932 N   0  0  0  0  0  0  0  0  0  0  0  0
  147.2941  141.4783  153.8616 C   0  0  0  0  0  0  0  0  0  0  0  0
  147.3725  139.9408  153.8691 C   0  0  0  0  0  0  0  0  0  0  0  0
  148.7361  139.5311  153.8566 O   0  0  0  0  0  0  0  0  0  0  0  0
  150.7293  136.0681  155.0648 H   0  0  0  0  0  0  0  0  0  0  0  0
  149.5931  136.9670  154.0395 H   0  0  0  0  0  0  0  0  0  0  0  0
  149.4899  137.0957  155.8099 H   0  0  0  0  0  0  0  0  0  0  0  0
  152.9984  137.2055  154.8669 H   0  0  0  0  0  0  0  0  0  0  0  0
  148.9393  139.6154  155.9001 H   0  0  0  0  0  0  0  0  0  0  0  0
  149.9325  141.9230  155.8934 H   0  0  0  0  0  0  0  0  0  0  0  0
  149.9526  141.9222  154.1432 H   0  0  0  0  0  0  0  0  0  0  0  0
  148.0363  143.0459  154.9354 H   0  0  0  0  0  0  0  0  0  0  0  0
  146.2534  141.8003  153.9028 H   0  0  0  0  0  0  0  0  0  0  0  0
  147.7037  141.8609  152.9260 H   0  0  0  0  0  0  0  0  0  0  0  0
  146.8616  139.5277  154.7403 H   0  0  0  0  0  0  0  0  0  0  0  0
  146.8745  139.5364  152.9879 H   0  0  0  0  0  0  0  0  0  0  0  0
  1  2  1  0  0  0  0
  1 13  1  0  0  0  0
  1 14  1  0  0  0  0
  1 15  1  0  0  0  0
  2  6  1  0  0  0  0
  2  3  1  0  0  0  0
  3  4  2  0  0  0  0
  3 16  1  0  0  0  0
  4  5  1  0  0  0  0
  5  6  2  0  0  0  0
  6  7  1  0  0  0  0
  7 12  1  0  0  0  0
  7  8  1  0  0  0  0
  7 17  1  0  0  0  0
  8  9  1  0  0  0  0
  8 18  1  0  0  0  0
  8 19  1  0  0  0  0
  9 10  1  0  0  0  0
  9 20  1  0  0  0  0
 10 11  1  0  0  0  0
 10 21  1  0  0  0  0
 10 22  1  0  0  0  0
 11 12  1  0  0  0  0
 11 23  1  0  0  0  0
 11 24  1  0  0  0  0
M  END
> <s_m_source_file>
AV-unprocessed.smi

> <i_m_source_file_index>
2565

> <i_lp_mmshare_version>
43012

> <i_f3d_flags>
0

> <s_epik_input>
W0NIM11uMVtjSF1ubmMxW0NAQEhdMltDSDJdW05IXVtDSDJdW0NIMl1PMg==

> <s_epik_cmdline>
J2VwaWtfcHl0aG9uJywgJy1waCcsICc3LjAnLCAnLXRuJywgJzgnLCAnLW1hJywgJzIwMCcsICctbWV0YWxfYmluZGluZycsICctaW1hZScsICc8aW5maWxlLm1hZT4nLCAnLW9tYWUnLCAnPG91dGZpbGUubWFlPic=

> <r_lp_tautomer_probability>
1

> <r_epik_Ionization_Penalty>
0.980774

> <r_epik_Ionization_Penalty_Charging>
0

> <r_epik_Ionization_Penalty_Neutral>
0.980774

> <r_epik_State_Penalty>
1.0271

> <r_epik_Charging_Adjusted_Penalty>
1.0271

> <i_epik_Tot_Q>
0

> <i_epik_Tot_abs_Q>
0

> <r_epik_Metal_State_Penalty>
1.02688

> <b_epik_Metal_Only>
0

> <s_lp_Force_Field>
OPLS_2005

> <r_lp_Energy>
14.243

> <b_lp_Chiralities_Consistent>
1

> <s_lp_Variant>
AV-unprocessed.smi:2565-4

> <Gold.Version>
5.8.1

> <Gold.Id.Protein>
6NUR|6NUR_protein|mol2

> <Gold.PLP.Fitness>
30.3297

> <Gold.PLP.PLP>
-22.4736

> <Gold.PLP.part.hbond>
-3.4297

> <Gold.PLP.part.metal>
0.0000

> <Gold.PLP.part.buried>
-4.2772

> <Gold.PLP.part.nonpolar>
-17.4879

> <Gold.PLP.part.repulsive>
1.7122

> <Gold.PLP.ligand.clash>
0.0000

> <Gold.PLP.ligand.torsion>
0.0022

> <Gold.PLP.Chemscore.Hbond>
2.6192

> <Gold.PLP.Chemscore.CHOScore>
0.0000

> <Gold.PLP.Chemscore.Metal>
0.0000

> <Gold.Chemscore.Hbonds>
donor molecule, donor type, donor heavy atom, donor atom, acceptor molecule, acceptor atom, score
      L1  H     9    20       P1  8028  0.91
      P1  H  7989  7998       L1     5  0.69
      P1  H  7997  8010       L1     4  1.00

> <Gold.PLP.Chemscore.Internal.Correction>
0.0030

> <Gold.Rescore>
     Score         DG    S(hbond)    S(metal)    S(lipo)     H(rot)  DE(clash)    DE(int)     intcor
     11.83     -11.93       1.67        0.00      29.23       1.00       0.10       0.00       ----

> <Gold.Chemscore.Fitness>
11.8330

> <Gold.Chemscore.DG>
-11.9301

> <Gold.Chemscore.ZeroCoef>
-5.4800

> <Gold.Chemscore.Hbond>
1.6737

> <Gold.Chemscore.Metal>
0.0000

> <Gold.Chemscore.Lipo>
29.2289

> <Gold.Chemscore.Internal_Hbond>
0.0000

> <Gold.Chemscore.DEClash>
0.0951

> <Gold.Chemscore.DEInternal>
0.0020

> <Gold.Chemscore.Rot>
1.0000

> <Gold.Chemscore.Internal.Correction>
   9.000000E+99

> <Gold.Chemscore.Hbonds>
donor molecule, donor type, donor heavy atom, donor atom, acceptor molecule, acceptor atom, score
      L1  H     9    20       P1  8028  0.81
      P1  H  7989  7998       L1     5  0.10
      P1  H  7997  8010       L1     4  0.48

> <Gold.Chemscore.Hbond.Weighted>
-5.5903

> <Gold.Chemscore.Metal.Weighted>
-0.0000

> <Gold.Chemscore.Lipo.Weighted>
-3.4198

> <Gold.Chemscore.Internal_Hbond.Weighted>
0.0000

> <Gold.Chemscore.DEClash.Weighted>
0.0951

> <Gold.Chemscore.DEInternal.Weighted>
0.0020

> <Gold.Chemscore.Rot.Weighted>
2.5600

> <Gold.Chemscore.Internal.Correction.Weighted>
   9.000000E+99

> <Gold.Protein.RotatedTorsions>
[ 6907 6896 6895 6894 ] final  -69.72 input  -60.11 | X-H torsion
[ 7974 7965 7964 7962 ] final  -85.77 input  175.53 | X-H torsion
[ 8008 7997 7996 7995 ] final   95.81 input   59.86 | X-H torsion
[ 10167 10162 10161 10158 ] final  101.11 input  -65.29 | X-H torsion
[ 10718 10713 10712 10709 ] final -154.94 input   66.30 | X-H torsion
[ 10763 10752 10751 10750 ] final  103.29 input  -60.55 | X-H torsion
[ 11005 11000 10999 10996 ] final    7.67 input  -57.11 | X-H torsion

> <Gold.Protein.ActiveResidues>
 VAL166  LYS551  ARG553  GLY616  TRP617  ASP618  TYR619  PRO620  LYS621  CYS622 
 ASP623  PHE694  ASN695  SER759  ASP760  ASP761  ALA762  ILE779  LEU786  VAL792 
 PHE793  MET794  SER795  GLU796  ALA797  LYS798  CYS799  TRP800  GLU811  SER814 

> <Gold.Protein.RotatedAtoms>
  150.7291  134.5555  159.5815 H   0  0  0  0  0  0  0  0  0  0  0  0  # atno 6907 bound_to 6896
  152.3032  134.7583  160.0362 H   0  0  0  0  0  0  0  0  0  0  0  0  # atno 6908 bound_to 6896
  151.8157  133.3352  159.3605 H   0  0  0  0  0  0  0  0  0  0  0  0  # atno 6909 bound_to 6896
  145.4888  140.9554  143.1823 H   0  0  0  0  0  0  0  0  0  0  0  0  # atno 7974 bound_to 7965
  156.0729  140.3281  155.7598 H   0  0  0  0  0  0  0  0  0  0  0  0  # atno 8008 bound_to 7997
  155.5276  140.0590  157.2912 H   0  0  0  0  0  0  0  0  0  0  0  0  # atno 8009 bound_to 7997
  154.4540  140.1933  156.0452 H   0  0  0  0  0  0  0  0  0  0  0  0  # atno 8010 bound_to 7997
  139.7467  144.6996  151.0493 H   0  0  0  0  0  0  0  0  0  0  0  0  # atno 10167 bound_to 10162
  156.5061  130.8413  151.2628 H   0  0  0  0  0  0  0  0  0  0  0  0  # atno 10718 bound_to 10713
  153.3508  135.3981  155.1644 H   0  0  0  0  0  0  0  0  0  0  0  0  # atno 10763 bound_to 10752
  154.8662  135.3656  154.5225 H   0  0  0  0  0  0  0  0  0  0  0  0  # atno 10764 bound_to 10752
  153.5676  135.7079  153.5579 H   0  0  0  0  0  0  0  0  0  0  0  0  # atno 10765 bound_to 10752
  140.5457  134.0332  155.7919 H   0  0  0  0  0  0  0  0  0  0  0  0  # atno 11005 bound_to 11000
  144.7846  139.6454  143.7140 LP  0  0  0  0  0  0  0  0  0  0  0  0  # atno 17320 bound_to 7965
  146.2297  139.5789  142.9564 LP  0  0  0  0  0  0  0  0  0  0  0  0  # atno 17321 bound_to 7965
  140.7793  143.4858  150.9958 LP  0  0  0  0  0  0  0  0  0  0  0  0  # atno 17342 bound_to 10162
  139.8546  143.7394  152.3176 LP  0  0  0  0  0  0  0  0  0  0  0  0  # atno 17343 bound_to 10162
  157.7457  130.9965  150.2783 LP  0  0  0  0  0  0  0  0  0  0  0  0  # atno 17370 bound_to 10713
  156.3286  130.3797  149.7511 LP  0  0  0  0  0  0  0  0  0  0  0  0  # atno 17371 bound_to 10713
  141.1201  133.9475  157.2746 LP  0  0  0  0  0  0  0  0  0  0  0  0  # atno 17394 bound_to 11000
  139.9481  135.0180  156.8913 LP  0  0  0  0  0  0  0  0  0  0  0  0  # atno 17395 bound_to 11000

$$$$
