#       Name:                AV-unprocessed.smi:2439
#       Creating user name   scv26
#       Creation time:       Fri Mar 27 13:24:32 2020


#       File generated by GOLD software.
#

@<TRIPOS>MOLECULE
AV-unprocessed.smi:2439
    45    47     1
SMALL
NO_CHARGES


@<TRIPOS>ATOM
      1 ****        -1.8179  -5.4141  -2.0002 N.1            1 S1                 0.0000
      2 ****        -2.3155  -4.3700  -1.9692 C.1            1 S1                 0.0000
      3 ****        -2.9418  -3.0540  -1.9304 C.ar           1 S1                 0.0000
      4 ****        -4.3410  -2.9685  -1.7717 C.ar           1 S1                 0.0000
      5 ****        -4.9509  -1.7014  -1.7327 C.ar           1 S1                 0.0000
      6 ****        -4.1321  -0.5647  -1.8577 C.ar           1 S1                 0.0000
      7 ****        -2.7935  -0.6324  -2.0123 N.ar           1 S1                 0.0000
      8 ****        -2.1967  -1.8495  -2.0462 C.ar           1 S1                 0.0000
      9 ****        -0.7991  -1.8901  -2.2084 N.pl3          1 S1                 0.0000
     10 ****         0.0219  -0.6880  -2.1248 C.3            1 S1                 0.0000
     11 ****         0.2271  -0.2158  -0.6761 C.3            1 S1                 0.0000
     12 ****         0.9257   1.1549  -0.6202 C.3            1 S1                 0.0000
     13 ****         1.1899   1.5746   0.7501 N.3            1 S1                 0.0000
     14 ****         1.8580   2.8742   0.7888 C.3            1 S1                 0.0000
     15 ****         2.1172   3.3568   2.2245 C.3            1 S1                 0.0000
     16 ****         2.9367   2.3136   2.9978 C.3            1 S1                 0.0000
     17 ****         2.2584   0.9379   2.9080 C.3            1 S1                 0.0000
     18 ****         1.9835   0.5528   1.4396 C.3            1 S1                 0.0000
     19 ****         1.2967  -0.8257   1.3568 C.3            1 S1                 0.0000
     20 ****         1.0517  -1.1649  -0.0043 O.3            1 S1                 0.0000
     21 ****        -4.9444  -3.8603  -1.6802 H              1 S1                 0.0000
     22 ****        -6.0193  -1.6035  -1.6105 H              1 S1                 0.0000
     23 ****        -4.5628   0.4254  -1.8338 H              1 S1                 0.0000
     24 ****        -0.3306  -2.7847  -2.1876 H              1 S1                 0.0000
     25 ****         0.9880  -0.8970  -2.5848 H              1 S1                 0.0000
     26 ****        -0.4309   0.1037  -2.7227 H              1 S1                 0.0000
     27 ****        -0.7359  -0.1462  -0.1670 H              1 S1                 0.0000
     28 ****         1.8618   1.1081  -1.1793 H              1 S1                 0.0000
     29 ****         0.3029   1.8993  -1.1179 H              1 S1                 0.0000
     30 ****         2.8044   2.8198   0.2484 H              1 S1                 0.0000
     31 ****         1.2486   3.6147   0.2694 H              1 S1                 0.0000
     32 ****         2.6409   4.3129   2.2121 H              1 S1                 0.0000
     33 ****         1.1662   3.5277   2.7307 H              1 S1                 0.0000
     34 ****         3.9415   2.2538   2.5779 H              1 S1                 0.0000
     35 ****         3.0490   2.6147   4.0396 H              1 S1                 0.0000
     36 ****         2.8870   0.1851   3.3849 H              1 S1                 0.0000
     37 ****         1.3208   0.9582   3.4652 H              1 S1                 0.0000
     38 ****         2.9472   0.4666   0.9344 H              1 S1                 0.0000
     39 ****         1.9305  -1.5942   1.7998 H              1 S1                 0.0000
     40 ****         0.3565  -0.8283   1.9110 H              1 S1                 0.0000
     41 ****        -1.3878  -6.3165  -2.0270 LP             1 S1                 0.0000
     42 ****        -2.2498   0.2022  -2.1006 LP             1 S1                 0.0000
     43 ****         0.3157   1.6772   1.2246 LP             1 S1                 0.0000
     44 ****         1.9287  -1.2194  -0.4818 LP             1 S1                 0.0000
     45 ****         0.6001  -2.0567  -0.0340 LP             1 S1                 0.0000
@<TRIPOS>BOND
    1    1    2 3     
    2    2    3 1     
    3    3    8 ar    
    4    3    4 ar    
    5    4    5 ar    
    6    4   21 1     
    7    5    6 ar    
    8    5   22 1     
    9    6    7 ar    
   10    6   23 1     
   11    7    8 ar    
   12    8    9 1     
   13    9   10 1     
   14    9   24 1     
   15   10   11 1     
   16   10   25 1     
   17   10   26 1     
   18   11   20 1     
   19   11   12 1     
   20   11   27 1     
   21   12   13 1     
   22   12   28 1     
   23   12   29 1     
   24   13   18 1     
   25   13   14 1     
   26   14   15 1     
   27   14   30 1     
   28   14   31 1     
   29   15   16 1     
   30   15   32 1     
   31   15   33 1     
   32   16   17 1     
   33   16   34 1     
   34   16   35 1     
   35   17   18 1     
   36   17   36 1     
   37   17   37 1     
   38   18   19 1     
   39   18   38 1     
   40   19   20 1     
   41   19   39 1     
   42   19   40 1     
   43    1   41 1     
   44    7   42 1     
   45   13   43 1     
   46   20   44 1     
   47   20   45 1     
@<TRIPOS>SUBSTRUCTURE
      1 S1             1
@<TRIPOS>SET
LONE_PAIRS      STATIC     ATOMS    <user>   **** ""
5 41 42 43 44 45
DONOR_HYDROGENS      STATIC     ATOMS    <user>   **** ""
1 24
ATOM$BLUE        STATIC     ATOMS    COLORGROUP SYSTEM
5 41 42 43 44 45
ATOM$RED        STATIC     ATOMS    COLORGROUP SYSTEM
1 24
