AV-unprocessed.smi:3223|AV-procd|sdf|12308|dock9
  -GOLD-   2272018153D 1   1.00000     0.00000
 Structure written by MMmdl.
 43 43  0  0  0  0  0  0  0  0  2 V2000
  144.0774  144.5059  154.4048 C   0  0  0  0  0  0  0  0  0  0  0  0
  144.9997  143.3223  154.4549 C   0  0  0  0  0  0  0  0  0  0  0  0
  144.9182  142.1870  155.3106 C   0  0  0  0  0  0  0  0  0  0  0  0
  145.8896  141.3135  155.0992 N   0  0  0  0  0  0  0  0  0  0  0  0
  146.6223  141.8590  154.1053 N   0  0  0  0  0  0  0  0  0  0  0  0
  147.7853  141.1557  153.5964 C   0  0  0  0  0  0  0  0  0  0  0  0
  147.5004  139.6707  153.2879 C   0  0  1  0  0  0  0  0  0  0  0  0
  146.7769  139.5256  151.9425 C   0  0  0  0  0  0  0  0  0  0  0  0
  148.7517  138.8791  153.2582 N   0  3  0  0  0  0  0  0  0  0  0  0
  149.5084  138.8554  154.5272 C   0  0  0  0  0  0  0  0  0  0  0  0
  151.0141  138.6944  154.2637 C   0  0  0  0  0  0  0  0  0  0  0  0
  151.8659  139.5821  155.1745 C   0  0  0  0  0  0  0  0  0  0  0  0
  153.0461  139.7988  154.8999 O   0  0  0  0  0  0  0  0  0  0  0  0
  151.2552  140.0830  156.2601 N   0  0  0  0  0  0  0  0  0  0  0  0
  151.8762  140.9494  157.2581 C   0  0  0  0  0  0  0  0  0  0  0  0
  151.9079  140.2515  158.6267 C   0  0  0  0  0  0  0  0  0  0  0  0
  151.1189  142.2823  157.3192 C   0  0  0  0  0  0  0  0  0  0  0  0
  146.1094  143.0720  153.6986 C   0  0  0  0  0  0  0  0  0  0  0  0
  143.6064  144.6928  155.3702 H   0  0  0  0  0  0  0  0  0  0  0  0
  143.2768  144.3597  153.6796 H   0  0  0  0  0  0  0  0  0  0  0  0
  144.6042  145.4180  154.1235 H   0  0  0  0  0  0  0  0  0  0  0  0
  144.1845  141.9731  156.0739 H   0  0  0  0  0  0  0  0  0  0  0  0
  148.1116  141.6682  152.6903 H   0  0  0  0  0  0  0  0  0  0  0  0
  148.6017  141.2503  154.3146 H   0  0  0  0  0  0  0  0  0  0  0  0
  146.8370  139.2693  154.0562 H   0  0  0  0  0  0  0  0  0  0  0  0
  145.8330  140.0717  151.9433 H   0  0  0  0  0  0  0  0  0  0  0  0
  146.5497  138.4805  151.7290 H   0  0  0  0  0  0  0  0  0  0  0  0
  147.3826  139.9098  151.1208 H   0  0  0  0  0  0  0  0  0  0  0  0
  148.5131  137.9252  153.0281 H   0  0  0  0  0  0  0  0  0  0  0  0
  149.3161  139.7744  155.0814 H   0  0  0  0  0  0  0  0  0  0  0  0
  149.1461  138.0299  155.1417 H   0  0  0  0  0  0  0  0  0  0  0  0
  151.3021  137.6496  154.3927 H   0  0  0  0  0  0  0  0  0  0  0  0
  151.2410  138.9567  153.2295 H   0  0  0  0  0  0  0  0  0  0  0  0
  150.2845  139.8474  156.4083 H   0  0  0  0  0  0  0  0  0  0  0  0
  152.9021  141.1665  156.9556 H   0  0  0  0  0  0  0  0  0  0  0  0
  152.3807  140.8849  159.3778 H   0  0  0  0  0  0  0  0  0  0  0  0
  152.4720  139.3193  158.5834 H   0  0  0  0  0  0  0  0  0  0  0  0
  150.9019  140.0165  158.9763 H   0  0  0  0  0  0  0  0  0  0  0  0
  151.5809  142.9620  158.0359 H   0  0  0  0  0  0  0  0  0  0  0  0
  150.0807  142.1375  157.6202 H   0  0  0  0  0  0  0  0  0  0  0  0
  151.1191  142.7796  156.3485 H   0  0  0  0  0  0  0  0  0  0  0  0
  146.5695  143.6498  152.9103 H   0  0  0  0  0  0  0  0  0  0  0  0
  149.3450  139.2466  152.5274 H   0  0  0  0  0  0  0  0  0  0  0  0
  1  2  1  0  0  0  0
  1 19  1  0  0  0  0
  1 20  1  0  0  0  0
  1 21  1  0  0  0  0
  2 18  2  0  0  0  0
  2  3  1  0  0  0  0
  3  4  2  0  0  0  0
  3 22  1  0  0  0  0
  4  5  1  0  0  0  0
  5  6  1  0  0  0  0
  5 18  1  0  0  0  0
  6  7  1  0  0  0  0
  6 23  1  0  0  0  0
  6 24  1  0  0  0  0
  7  8  1  0  0  0  0
  7  9  1  0  0  0  0
  7 25  1  0  0  0  0
  8 26  1  0  0  0  0
  8 27  1  0  0  0  0
  8 28  1  0  0  0  0
  9 10  1  0  0  0  0
  9 29  1  0  0  0  0
  9 43  1  0  0  0  0
 10 11  1  0  0  0  0
 10 30  1  0  0  0  0
 10 31  1  0  0  0  0
 11 12  1  0  0  0  0
 11 32  1  0  0  0  0
 11 33  1  0  0  0  0
 12 13  2  0  0  0  0
 12 14  1  0  0  0  0
 14 15  1  0  0  0  0
 14 34  1  0  0  0  0
 15 16  1  0  0  0  0
 15 17  1  0  0  0  0
 15 35  1  0  0  0  0
 16 36  1  0  0  0  0
 16 37  1  0  0  0  0
 16 38  1  0  0  0  0
 17 39  1  0  0  0  0
 17 40  1  0  0  0  0
 17 41  1  0  0  0  0
 18 42  1  0  0  0  0
M  CHG  1   9   1
M  END
> <s_m_source_file>
AV-unprocessed.smi

> <i_m_source_file_index>
3223

> <i_lp_mmshare_version>
43012

> <i_f3d_flags>
0

> <s_epik_input>
W0NIM11jMVtjSF1ubihbY0hdMSlbQ0gyXVtDQEhdKFtDSDNdKVtOSF1bQ0gyXVtDSDJdQyg9TylbTkhdW0NIXShbQ0gzXSlbQ0gzXQ==

> <s_epik_cmdline>
J2VwaWtfcHl0aG9uJywgJy1waCcsICc3LjAnLCAnLXRuJywgJzgnLCAnLW1hJywgJzIwMCcsICctbWV0YWxfYmluZGluZycsICctaW1hZScsICc8aW5maWxlLm1hZT4nLCAnLW9tYWUnLCAnPG91dGZpbGUubWFlPic=

> <r_lp_tautomer_probability>
1

> <r_epik_Ionization_Penalty>
0.0057861

> <r_epik_Ionization_Penalty_Charging>
0.00577767

> <r_epik_Ionization_Penalty_Neutral>
8.4224e-06

> <r_epik_State_Penalty>
0.00424195

> <r_epik_Charging_Adjusted_Penalty>
0.0100196

> <i_epik_Tot_Q>
1

> <i_epik_Tot_abs_Q>
1

> <r_epik_Metal_State_Penalty>
-0

> <b_epik_Metal_Only>
0

> <s_lp_Force_Field>
OPLS_2005

> <r_lp_Energy>
5.87618

> <b_lp_Chiralities_Consistent>
1

> <s_lp_Variant>
AV-unprocessed.smi:3223-2

> <Gold.Version>
5.8.1

> <Gold.Id.Protein>
6NUR|6NUR_protein|mol2

> <Gold.PLP.Fitness>
48.4317

> <Gold.PLP.PLP>
-38.9099

> <Gold.PLP.part.hbond>
-4.0000

> <Gold.PLP.part.metal>
0.0000

> <Gold.PLP.part.buried>
-1.9457

> <Gold.PLP.part.nonpolar>
-33.3605

> <Gold.PLP.part.repulsive>
0.3241

> <Gold.PLP.ligand.clash>
0.0063

> <Gold.PLP.ligand.torsion>
1.0114

> <Gold.PLP.Chemscore.Hbond>
3.7920

> <Gold.PLP.Chemscore.CHOScore>
0.0000

> <Gold.PLP.Chemscore.Metal>
0.0000

> <Gold.Chemscore.Hbonds>
donor molecule, donor type, donor heavy atom, donor atom, acceptor molecule, acceptor atom, score
      L1  H     9    29       P1  7948  1.57
      L1  H     9    43       P1  7957  1.00
      P1  H  7997  8008       L1    13  1.00

> <Gold.PLP.Chemscore.Internal.Correction>
0.1750

> <Gold.Rescore>
     Score         DG    S(hbond)    S(metal)    S(lipo)     H(rot)  DE(clash)    DE(int)     intcor
     17.56     -18.67       2.81        0.00      80.46       2.19       0.49       0.62       ----

> <Gold.Chemscore.Fitness>
17.5578

> <Gold.Chemscore.DG>
-18.6706

> <Gold.Chemscore.ZeroCoef>
-5.4800

> <Gold.Chemscore.Hbond>
2.8055

> <Gold.Chemscore.Metal>
0.0000

> <Gold.Chemscore.Lipo>
80.4617

> <Gold.Chemscore.Internal_Hbond>
0.0000

> <Gold.Chemscore.DEClash>
0.4911

> <Gold.Chemscore.DEInternal>
0.6218

> <Gold.Chemscore.Rot>
2.1850

> <Gold.Chemscore.Internal.Correction>
   9.000000E+99

> <Gold.Chemscore.Hbonds>
donor molecule, donor type, donor heavy atom, donor atom, acceptor molecule, acceptor atom, score
      L1  H     9    29       P1  7948  0.75
      L1  H     9    43       P1  7957  0.95
      P1  H  7997  8008       L1    13  1.00

> <Gold.Chemscore.Hbond.Weighted>
-9.3702

> <Gold.Chemscore.Metal.Weighted>
-0.0000

> <Gold.Chemscore.Lipo.Weighted>
-9.4140

> <Gold.Chemscore.Internal_Hbond.Weighted>
0.0000

> <Gold.Chemscore.DEClash.Weighted>
0.4911

> <Gold.Chemscore.DEInternal.Weighted>
0.6218

> <Gold.Chemscore.Rot.Weighted>
5.5936

> <Gold.Chemscore.Internal.Correction.Weighted>
   9.000000E+99

> <Gold.Protein.RotatedTorsions>
[ 6907 6896 6895 6894 ] final -107.84 input  -60.11 | X-H torsion
[ 7974 7965 7964 7962 ] final   95.13 input  175.53 | X-H torsion
[ 8008 7997 7996 7995 ] final  -10.89 input   59.86 | X-H torsion
[ 10167 10162 10161 10158 ] final   24.30 input  -65.29 | X-H torsion
[ 10718 10713 10712 10709 ] final   97.44 input   66.30 | X-H torsion
[ 10763 10752 10751 10750 ] final -125.23 input  -60.55 | X-H torsion
[ 11005 11000 10999 10996 ] final  164.08 input  -57.11 | X-H torsion

> <Gold.Protein.ActiveResidues>
 VAL166  LYS551  ARG553  GLY616  TRP617  ASP618  TYR619  PRO620  LYS621  CYS622 
 ASP623  PHE694  ASN695  SER759  ASP760  ASP761  ALA762  ILE779  LEU786  VAL792 
 PHE793  MET794  SER795  GLU796  ALA797  LYS798  CYS799  TRP800  GLU811  SER814 

> <Gold.Protein.RotatedAtoms>
  150.7467  133.9766  159.3562 H   0  0  0  0  0  0  0  0  0  0  0  0  # atno 6907 bound_to 6896
  151.7704  135.0785  160.0368 H   0  0  0  0  0  0  0  0  0  0  0  0  # atno 6908 bound_to 6896
  152.3343  133.5956  159.5867 H   0  0  0  0  0  0  0  0  0  0  0  0  # atno 6909 bound_to 6896
  145.4563  139.2290  143.3012 H   0  0  0  0  0  0  0  0  0  0  0  0  # atno 7974 bound_to 7965
  154.5514  140.2317  155.8479 H   0  0  0  0  0  0  0  0  0  0  0  0  # atno 8008 bound_to 7997
  156.1950  140.3067  155.9369 H   0  0  0  0  0  0  0  0  0  0  0  0  # atno 8009 bound_to 7997
  155.3064  140.0433  157.3023 H   0  0  0  0  0  0  0  0  0  0  0  0  # atno 8010 bound_to 7997
  140.5199  144.0019  150.6412 H   0  0  0  0  0  0  0  0  0  0  0  0  # atno 10167 bound_to 10162
  157.6912  131.0609  150.4644 H   0  0  0  0  0  0  0  0  0  0  0  0  # atno 10718 bound_to 10713
  154.8733  135.4036  154.3234 H   0  0  0  0  0  0  0  0  0  0  0  0  # atno 10763 bound_to 10752
  153.4059  135.7019  153.6398 H   0  0  0  0  0  0  0  0  0  0  0  0  # atno 10764 bound_to 10752
  153.5121  135.3705  155.2562 H   0  0  0  0  0  0  0  0  0  0  0  0  # atno 10765 bound_to 10752
  140.2423  134.8041  157.3422 H   0  0  0  0  0  0  0  0  0  0  0  0  # atno 11005 bound_to 11000
  146.2476  140.5327  142.8907 LP  0  0  0  0  0  0  0  0  0  0  0  0  # atno 17320 bound_to 7965
  144.8030  140.6248  143.6465 LP  0  0  0  0  0  0  0  0  0  0  0  0  # atno 17321 bound_to 7965
  140.3365  143.3045  152.0633 LP  0  0  0  0  0  0  0  0  0  0  0  0  # atno 17342 bound_to 10162
  139.4920  144.6472  151.6752 LP  0  0  0  0  0  0  0  0  0  0  0  0  # atno 17343 bound_to 10162
  156.4986  130.4112  149.6366 LP  0  0  0  0  0  0  0  0  0  0  0  0  # atno 17370 bound_to 10713
  156.3349  130.7351  151.2287 LP  0  0  0  0  0  0  0  0  0  0  0  0  # atno 17371 bound_to 10713
  140.1641  134.4691  155.7875 LP  0  0  0  0  0  0  0  0  0  0  0  0  # atno 17394 bound_to 11000
  141.2209  133.6913  156.7595 LP  0  0  0  0  0  0  0  0  0  0  0  0  # atno 17395 bound_to 11000

$$$$
