AV-unprocessed.smi:2379|AV-procd|sdf|9452|dock8
  -GOLD-   2272013 83D 1   1.00000     0.00000
 Structure written by MMmdl.
 53 55  0  0  0  0  0  0  0  0  2 V2000
  151.9074  145.9306  160.3918 C   0  0  0  0  0  0  0  0  0  0  0  0
  151.9434  144.5493  159.7721 C   0  0  0  0  0  0  0  0  0  0  0  0
  152.7516  143.5332  160.3171 C   0  0  0  0  0  0  0  0  0  0  0  0
  152.7412  142.2698  159.6941 C   0  0  0  0  0  0  0  0  0  0  0  0
  153.5814  141.1296  160.2300 C   0  0  0  0  0  0  0  0  0  0  0  0
  151.9992  141.9936  158.6005 N   0  0  0  0  0  0  0  0  0  0  0  0
  151.2192  142.9652  158.0653 C   0  0  0  0  0  0  0  0  0  0  0  0
  150.4015  142.7752  156.9196 N   0  0  0  0  0  0  0  0  0  0  0  0
  150.1317  141.6261  156.2750 C   0  0  0  0  0  0  0  0  0  0  0  0
  150.5806  140.5186  156.5722 O   0  0  0  0  0  0  0  0  0  0  0  0
  149.3025  141.8304  155.2406 N   0  0  0  0  0  0  0  0  0  0  0  0
  148.8421  140.7953  154.3190 C   0  0  2  0  0  0  0  0  0  0  0  0
  147.7036  141.3417  153.4429 C   0  0  0  0  0  0  0  0  0  0  0  0
  147.1428  140.2520  152.5128 C   0  0  0  0  0  0  0  0  0  0  0  0
  146.6863  139.0664  153.2842 N   0  3  1  0  0  0  0  0  0  0  0  0
  146.0121  138.0511  152.4329 C   0  0  0  0  0  0  0  0  0  0  0  0
  144.8765  137.3231  153.1790 C   0  0  1  0  0  0  0  0  0  0  0  0
  144.0456  136.4275  152.2811 C   0  0  0  0  0  0  0  0  0  0  0  0
  143.3446  135.5223  153.2889 C   0  0  0  0  0  0  0  0  0  0  0  0
  144.2467  135.3932  154.3828 O   0  0  0  0  0  0  0  0  0  0  0  0
  145.3209  136.3167  154.2428 C   0  0  0  0  0  0  0  0  0  0  0  0
  147.7868  138.5003  154.1081 C   0  0  0  0  0  0  0  0  0  0  0  0
  148.3491  139.5504  155.0795 C   0  0  0  0  0  0  0  0  0  0  0  0
  151.1663  144.2584  158.6326 C   0  0  0  0  0  0  0  0  0  0  0  0
  152.4689  145.9607  161.3261 H   0  0  0  0  0  0  0  0  0  0  0  0
  150.8792  146.2246  160.6034 H   0  0  0  0  0  0  0  0  0  0  0  0
  152.3407  146.6615  159.7090 H   0  0  0  0  0  0  0  0  0  0  0  0
  153.3624  143.7166  161.1891 H   0  0  0  0  0  0  0  0  0  0  0  0
  154.0196  141.3818  161.1960 H   0  0  0  0  0  0  0  0  0  0  0  0
  154.3905  140.8982  159.5369 H   0  0  0  0  0  0  0  0  0  0  0  0
  152.9718  140.2348  160.3582 H   0  0  0  0  0  0  0  0  0  0  0  0
  149.9792  143.6119  156.5457 H   0  0  0  0  0  0  0  0  0  0  0  0
  148.9811  142.7718  155.0685 H   0  0  0  0  0  0  0  0  0  0  0  0
  149.6701  140.5101  153.6668 H   0  0  0  0  0  0  0  0  0  0  0  0
  146.9006  141.7264  154.0737 H   0  0  0  0  0  0  0  0  0  0  0  0
  148.0602  142.1840  152.8485 H   0  0  0  0  0  0  0  0  0  0  0  0
  146.3079  140.6672  151.9466 H   0  0  0  0  0  0  0  0  0  0  0  0
  147.8998  139.9475  151.7881 H   0  0  0  0  0  0  0  0  0  0  0  0
  145.5647  138.5474  151.5704 H   0  0  0  0  0  0  0  0  0  0  0  0
  146.7361  137.3459  152.0214 H   0  0  0  0  0  0  0  0  0  0  0  0
  144.2101  138.0560  153.6374 H   0  0  0  0  0  0  0  0  0  0  0  0
  143.3463  136.9796  151.6521 H   0  0  0  0  0  0  0  0  0  0  0  0
  144.6908  135.8327  151.6323 H   0  0  0  0  0  0  0  0  0  0  0  0
  142.4276  135.9902  153.6488 H   0  0  0  0  0  0  0  0  0  0  0  0
  143.0866  134.5506  152.8674 H   0  0  0  0  0  0  0  0  0  0  0  0
  146.2032  135.7668  153.9127 H   0  0  0  0  0  0  0  0  0  0  0  0
  145.5525  136.7911  155.1966 H   0  0  0  0  0  0  0  0  0  0  0  0
  147.4337  137.6427  154.6777 H   0  0  0  0  0  0  0  0  0  0  0  0
  148.5810  138.1349  153.4547 H   0  0  0  0  0  0  0  0  0  0  0  0
  149.1634  139.1113  155.6572 H   0  0  0  0  0  0  0  0  0  0  0  0
  147.5778  139.8327  155.7978 H   0  0  0  0  0  0  0  0  0  0  0  0
  150.5396  145.0239  158.1979 H   0  0  0  0  0  0  0  0  0  0  0  0
  145.9839  139.4078  153.9248 H   0  0  0  0  0  0  0  0  0  0  0  0
  1  2  1  0  0  0  0
  1 25  1  0  0  0  0
  1 26  1  0  0  0  0
  1 27  1  0  0  0  0
  2 24  1  0  0  0  0
  2  3  2  0  0  0  0
  3  4  1  0  0  0  0
  3 28  1  0  0  0  0
  4  5  1  0  0  0  0
  4  6  2  0  0  0  0
  5 29  1  0  0  0  0
  5 30  1  0  0  0  0
  5 31  1  0  0  0  0
  6  7  1  0  0  0  0
  7  8  1  0  0  0  0
  7 24  2  0  0  0  0
  8  9  1  0  0  0  0
  8 32  1  0  0  0  0
  9 10  2  0  0  0  0
  9 11  1  0  0  0  0
 11 12  1  0  0  0  0
 11 33  1  0  0  0  0
 12 23  1  0  0  0  0
 12 13  1  0  0  0  0
 12 34  1  0  0  0  0
 13 14  1  0  0  0  0
 13 35  1  0  0  0  0
 13 36  1  0  0  0  0
 14 15  1  0  0  0  0
 14 37  1  0  0  0  0
 14 38  1  0  0  0  0
 15 16  1  0  0  0  0
 15 22  1  0  0  0  0
 15 53  1  0  0  0  0
 16 17  1  0  0  0  0
 16 39  1  0  0  0  0
 16 40  1  0  0  0  0
 17 21  1  0  0  0  0
 17 18  1  0  0  0  0
 17 41  1  0  0  0  0
 18 19  1  0  0  0  0
 18 42  1  0  0  0  0
 18 43  1  0  0  0  0
 19 20  1  0  0  0  0
 19 44  1  0  0  0  0
 19 45  1  0  0  0  0
 20 21  1  0  0  0  0
 21 46  1  0  0  0  0
 21 47  1  0  0  0  0
 22 23  1  0  0  0  0
 22 48  1  0  0  0  0
 22 49  1  0  0  0  0
 23 50  1  0  0  0  0
 23 51  1  0  0  0  0
 24 52  1  0  0  0  0
M  CHG  1  15   1
M  END
> <s_m_source_file>
AV-unprocessed.smi

> <i_m_source_file_index>
2379

> <i_lp_mmshare_version>
43012

> <i_f3d_flags>
0

> <s_epik_input>
W0NIM11jMVtjSF1jKFtDSDNdKW5jKFtjSF0xKVtOSF1DKD1PKVtOSF1bQ0hdMltDSDJdW0NIMl1OKFtDSDJdW0NIMl0yKVtDSDJdW0NAQEhdM1tDSDJdW0NIMl1PW0NIMl0z

> <s_epik_cmdline>
J2VwaWtfcHl0aG9uJywgJy1waCcsICc3LjAnLCAnLXRuJywgJzgnLCAnLW1hJywgJzIwMCcsICctbWV0YWxfYmluZGluZycsICctaW1hZScsICc8aW5maWxlLm1hZT4nLCAnLW9tYWUnLCAnPG91dGZpbGUubWFlPic=

> <r_epik_Ionization_Penalty>
0.00766556

> <r_epik_Ionization_Penalty_Charging>
0.00747775

> <r_epik_Ionization_Penalty_Neutral>
0.00018781

> <r_epik_State_Penalty>
0.00558817

> <r_epik_Charging_Adjusted_Penalty>
0.0130659

> <i_epik_Tot_Q>
1

> <i_epik_Tot_abs_Q>
1

> <r_epik_Metal_State_Penalty>
-0

> <b_epik_Metal_Only>
0

> <s_lp_Force_Field>
OPLS_2005

> <r_lp_Energy>
35.6798

> <b_lp_Chiralities_Consistent>
1

> <s_lp_Variant>
AV-unprocessed.smi:2379-2

> <Gold.Version>
5.8.1

> <Gold.Id.Protein>
6NUR|6NUR_protein|mol2

> <Gold.PLP.Fitness>
49.4925

> <Gold.PLP.PLP>
-44.5936

> <Gold.PLP.part.hbond>
-2.0000

> <Gold.PLP.part.metal>
0.0000

> <Gold.PLP.part.buried>
-5.3242

> <Gold.PLP.part.nonpolar>
-39.4352

> <Gold.PLP.part.repulsive>
0.2825

> <Gold.PLP.ligand.clash>
0.0000

> <Gold.PLP.ligand.torsion>
0.5766

> <Gold.PLP.Chemscore.Hbond>
2.0000

> <Gold.PLP.Chemscore.CHOScore>
0.0000

> <Gold.PLP.Chemscore.Metal>
0.0000

> <Gold.Chemscore.Hbonds>
donor molecule, donor type, donor heavy atom, donor atom, acceptor molecule, acceptor atom, score
      L1  H     8    32       P1  8028  1.00
      L1  H    11    33       P1  8028  1.00

> <Gold.PLP.Chemscore.Internal.Correction>
0.0520

> <Gold.Rescore>
     Score         DG    S(hbond)    S(metal)    S(lipo)     H(rot)  DE(clash)    DE(int)     intcor
     18.99     -22.29       1.86        0.00     120.59       1.37       0.22       3.08       ----

> <Gold.Chemscore.Fitness>
18.9885

> <Gold.Chemscore.DG>
-22.2886

> <Gold.Chemscore.ZeroCoef>
-5.4800

> <Gold.Chemscore.Hbond>
1.8601

> <Gold.Chemscore.Metal>
0.0000

> <Gold.Chemscore.Lipo>
120.5941

> <Gold.Chemscore.Internal_Hbond>
0.0000

> <Gold.Chemscore.DEClash>
0.2179

> <Gold.Chemscore.DEInternal>
3.0822

> <Gold.Chemscore.Rot>
1.3725

> <Gold.Chemscore.Internal.Correction>
   9.000000E+99

> <Gold.Chemscore.Hbonds>
donor molecule, donor type, donor heavy atom, donor atom, acceptor molecule, acceptor atom, score
      L1  H     8    32       P1  8028  1.00
      L1  H    11    33       P1  8028  0.88

> <Gold.Chemscore.Hbond.Weighted>
-6.2127

> <Gold.Chemscore.Metal.Weighted>
-0.0000

> <Gold.Chemscore.Lipo.Weighted>
-14.1095

> <Gold.Chemscore.Internal_Hbond.Weighted>
0.0000

> <Gold.Chemscore.DEClash.Weighted>
0.2179

> <Gold.Chemscore.DEInternal.Weighted>
3.0822

> <Gold.Chemscore.Rot.Weighted>
3.5136

> <Gold.Chemscore.Internal.Correction.Weighted>
   9.000000E+99

> <Gold.Protein.RotatedTorsions>
[ 6907 6896 6895 6894 ] final  144.18 input  -60.11 | X-H torsion
[ 7974 7965 7964 7962 ] final -126.58 input  175.53 | X-H torsion
[ 8008 7997 7996 7995 ] final  -62.80 input   59.86 | X-H torsion
[ 10167 10162 10161 10158 ] final -149.55 input  -65.29 | X-H torsion
[ 10718 10713 10712 10709 ] final  -75.47 input   66.30 | X-H torsion
[ 10763 10752 10751 10750 ] final  111.24 input  -60.55 | X-H torsion
[ 11005 11000 10999 10996 ] final   97.55 input  -57.11 | X-H torsion

> <Gold.Protein.ActiveResidues>
 VAL166  LYS551  ARG553  GLY616  TRP617  ASP618  TYR619  PRO620  LYS621  CYS622 
 ASP623  PHE694  ASN695  SER759  ASP760  ASP761  ALA762  ILE779  LEU786  VAL792 
 PHE793  MET794  SER795  GLU796  ALA797  LYS798  CYS799  TRP800  GLU811  SER814 

> <Gold.Protein.RotatedAtoms>
  152.1969  133.4813  159.5037 H   0  0  0  0  0  0  0  0  0  0  0  0  # atno 6907 bound_to 6896
  150.6962  134.1641  159.4196 H   0  0  0  0  0  0  0  0  0  0  0  0  # atno 6908 bound_to 6896
  151.9557  135.0147  160.0595 H   0  0  0  0  0  0  0  0  0  0  0  0  # atno 6909 bound_to 6896
  144.9859  140.7685  143.4584 H   0  0  0  0  0  0  0  0  0  0  0  0  # atno 7974 bound_to 7965
  154.4519  140.0988  156.6643 H   0  0  0  0  0  0  0  0  0  0  0  0  # atno 8008 bound_to 7997
  155.5258  140.3480  155.4397 H   0  0  0  0  0  0  0  0  0  0  0  0  # atno 8009 bound_to 7997
  156.0699  140.1347  156.9830 H   0  0  0  0  0  0  0  0  0  0  0  0  # atno 8010 bound_to 7997
  139.7433  143.8629  152.2568 H   0  0  0  0  0  0  0  0  0  0  0  0  # atno 10167 bound_to 10162
  156.0206  130.4441  150.3048 H   0  0  0  0  0  0  0  0  0  0  0  0  # atno 10718 bound_to 10713
  153.4605  135.3723  155.2335 H   0  0  0  0  0  0  0  0  0  0  0  0  # atno 10763 bound_to 10752
  154.8757  135.3907  154.3930 H   0  0  0  0  0  0  0  0  0  0  0  0  # atno 10764 bound_to 10752
  153.4503  135.7085  153.6177 H   0  0  0  0  0  0  0  0  0  0  0  0  # atno 10765 bound_to 10752
  139.8775  134.9006  156.4324 H   0  0  0  0  0  0  0  0  0  0  0  0  # atno 11005 bound_to 11000
  145.2355  139.2096  143.5020 LP  0  0  0  0  0  0  0  0  0  0  0  0  # atno 17320 bound_to 7965
  146.3419  140.2240  142.8592 LP  0  0  0  0  0  0  0  0  0  0  0  0  # atno 17321 bound_to 7965
  139.8586  144.7128  150.9127 LP  0  0  0  0  0  0  0  0  0  0  0  0  # atno 17342 bound_to 10162
  140.7789  143.3837  151.1432 LP  0  0  0  0  0  0  0  0  0  0  0  0  # atno 17343 bound_to 10162
  157.1150  131.0231  151.3032 LP  0  0  0  0  0  0  0  0  0  0  0  0  # atno 17370 bound_to 10713
  157.4674  130.7688  149.7291 LP  0  0  0  0  0  0  0  0  0  0  0  0  # atno 17371 bound_to 10713
  140.9057  133.7747  155.9732 LP  0  0  0  0  0  0  0  0  0  0  0  0  # atno 17394 bound_to 11000
  140.8602  134.2850  157.5238 LP  0  0  0  0  0  0  0  0  0  0  0  0  # atno 17395 bound_to 11000

$$$$
