AV-unprocessed.smi:2403|AV-procd|sdf|9509|dock1
  -GOLD-   2272013133D 1   1.00000     0.00000
 Structure written by MMmdl.
 47 49  0  0  0  0  0  0  0  0  1 V2000
  153.1750  142.3326  160.9932 C   0  0  0  0  0  0  0  0  0  0  0  0
  152.4170  143.3543  160.1642 C   0  0  0  0  0  0  0  0  0  0  0  0
  152.3131  144.6865  160.6154 C   0  0  0  0  0  0  0  0  0  0  0  0
  151.6027  145.6130  159.8282 C   0  0  0  0  0  0  0  0  0  0  0  0
  151.0071  145.2898  158.6621 N   0  0  0  0  0  0  0  0  0  0  0  0
  151.1091  144.0147  158.2310 C   0  0  0  0  0  0  0  0  0  0  0  0
  151.8113  143.0040  158.9337 C   0  0  0  0  0  0  0  0  0  0  0  0
  151.8887  141.6587  158.4784 N   0  0  0  0  0  0  0  0  0  0  0  0
  151.1020  141.0465  157.5778 C   0  0  0  0  0  0  0  0  0  0  0  0
  150.1632  141.5754  156.9828 O   0  0  0  0  0  0  0  0  0  0  0  0
  151.4969  139.7773  157.3732 N   0  0  0  0  0  0  0  0  0  0  0  0
  150.9264  138.7881  156.4390 C   0  0  0  0  0  0  0  0  0  0  0  0
  150.1671  139.4411  155.2479 C   0  0  0  0  0  0  0  0  0  0  0  0
  150.7532  140.2281  154.5031 O   0  0  0  0  0  0  0  0  0  0  0  0
  148.8704  139.1355  155.0771 N   0  0  0  0  0  0  0  0  0  0  0  0
  148.0218  139.6498  154.0141 C   0  0  0  0  0  0  0  0  0  0  0  0
  147.5157  138.5800  153.0698 C   0  0  0  0  0  0  0  0  0  0  0  0
  146.7175  138.9522  151.8428 C   0  0  0  0  0  0  0  0  0  0  0  0
  146.0451  138.2425  152.9937 C   0  0  0  0  0  0  0  0  0  0  0  0
  152.0878  137.9329  155.8755 C   0  0  0  0  0  0  0  0  0  0  0  0
  151.5515  136.5091  155.7418 C   0  0  0  0  0  0  0  0  0  0  0  0
  150.6276  136.3541  156.9421 C   0  0  0  0  0  0  0  0  0  0  0  0
  150.0356  137.7476  157.1884 C   0  0  0  0  0  0  0  0  0  0  0  0
  153.6117  142.7884  161.8822 H   0  0  0  0  0  0  0  0  0  0  0  0
  153.9839  141.8924  160.4096 H   0  0  0  0  0  0  0  0  0  0  0  0
  152.5067  141.5342  161.3161 H   0  0  0  0  0  0  0  0  0  0  0  0
  152.7664  144.9972  161.5454 H   0  0  0  0  0  0  0  0  0  0  0  0
  151.5057  146.6402  160.1470 H   0  0  0  0  0  0  0  0  0  0  0  0
  150.5903  143.8065  157.3079 H   0  0  0  0  0  0  0  0  0  0  0  0
  152.6838  141.1322  158.8094 H   0  0  0  0  0  0  0  0  0  0  0  0
  152.2859  139.4551  157.9139 H   0  0  0  0  0  0  0  0  0  0  0  0
  148.4499  138.4838  155.7235 H   0  0  0  0  0  0  0  0  0  0  0  0
  147.1744  140.1779  154.4540 H   0  0  0  0  0  0  0  0  0  0  0  0
  148.5837  140.3805  153.4302 H   0  0  0  0  0  0  0  0  0  0  0  0
  148.2067  137.7485  152.9420 H   0  0  0  0  0  0  0  0  0  0  0  0
  146.4787  140.0031  151.6925 H   0  0  0  0  0  0  0  0  0  0  0  0
  146.8961  138.3797  150.9349 H   0  0  0  0  0  0  0  0  0  0  0  0
  145.7777  137.1970  152.8545 H   0  0  0  0  0  0  0  0  0  0  0  0
  145.3585  138.8217  153.6080 H   0  0  0  0  0  0  0  0  0  0  0  0
  152.4798  138.3043  154.9271 H   0  0  0  0  0  0  0  0  0  0  0  0
  152.9268  137.9229  156.5735 H   0  0  0  0  0  0  0  0  0  0  0  0
  150.9801  136.4099  154.8181 H   0  0  0  0  0  0  0  0  0  0  0  0
  152.3448  135.7612  155.7239 H   0  0  0  0  0  0  0  0  0  0  0  0
  149.8601  135.5965  156.7803 H   0  0  0  0  0  0  0  0  0  0  0  0
  151.2119  136.0496  157.8114 H   0  0  0  0  0  0  0  0  0  0  0  0
  149.9856  137.9271  158.2627 H   0  0  0  0  0  0  0  0  0  0  0  0
  149.0021  137.7734  156.8399 H   0  0  0  0  0  0  0  0  0  0  0  0
  1  2  1  0  0  0  0
  1 24  1  0  0  0  0
  1 25  1  0  0  0  0
  1 26  1  0  0  0  0
  2  7  1  0  0  0  0
  2  3  2  0  0  0  0
  3  4  1  0  0  0  0
  3 27  1  0  0  0  0
  4  5  2  0  0  0  0
  4 28  1  0  0  0  0
  5  6  1  0  0  0  0
  6  7  2  0  0  0  0
  6 29  1  0  0  0  0
  7  8  1  0  0  0  0
  8  9  1  0  0  0  0
  8 30  1  0  0  0  0
  9 10  2  0  0  0  0
  9 11  1  0  0  0  0
 11 12  1  0  0  0  0
 11 31  1  0  0  0  0
 12 23  1  0  0  0  0
 12 13  1  0  0  0  0
 12 20  1  0  0  0  0
 13 14  2  0  0  0  0
 13 15  1  0  0  0  0
 15 16  1  0  0  0  0
 15 32  1  0  0  0  0
 16 17  1  0  0  0  0
 16 33  1  0  0  0  0
 16 34  1  0  0  0  0
 17 19  1  0  0  0  0
 17 18  1  0  0  0  0
 17 35  1  0  0  0  0
 18 19  1  0  0  0  0
 18 36  1  0  0  0  0
 18 37  1  0  0  0  0
 19 38  1  0  0  0  0
 19 39  1  0  0  0  0
 20 21  1  0  0  0  0
 20 40  1  0  0  0  0
 20 41  1  0  0  0  0
 21 22  1  0  0  0  0
 21 42  1  0  0  0  0
 21 43  1  0  0  0  0
 22 23  1  0  0  0  0
 22 44  1  0  0  0  0
 22 45  1  0  0  0  0
 23 46  1  0  0  0  0
 23 47  1  0  0  0  0
M  END
> <s_m_source_file>
AV-unprocessed.smi

> <i_m_source_file_index>
2403

> <i_lp_mmshare_version>
43012

> <i_f3d_flags>
0

> <s_epik_input>
W0NIM11jMVtjSF1bY0hdbltjSF1jMVtOSF1DKD1PKVtOSF1DMihbQ0gyXVtDSDJdW0NIMl1bQ0gyXTIpQyg9TylbTkhdW0NIMl1bQ0hdM1tDSDJdW0NIMl0z

> <s_epik_cmdline>
J2VwaWtfcHl0aG9uJywgJy1waCcsICc3LjAnLCAnLXRuJywgJzgnLCAnLW1hJywgJzIwMCcsICctbWV0YWxfYmluZGluZycsICctaW1hZScsICc8aW5maWxlLm1hZT4nLCAnLW9tYWUnLCAnPG91dGZpbGUubWFlPic=

> <r_epik_Ionization_Penalty>
0.0192934

> <r_epik_Ionization_Penalty_Charging>
0

> <r_epik_Ionization_Penalty_Neutral>
0.0192934

> <r_epik_State_Penalty>
0.0153733

> <r_epik_Charging_Adjusted_Penalty>
0.0153733

> <i_epik_Tot_Q>
0

> <i_epik_Tot_abs_Q>
0

> <r_epik_Metal_State_Penalty>
0.014888

> <b_epik_Metal_Only>
0

> <s_lp_Force_Field>
OPLS_2005

> <r_lp_Energy>
32.7874

> <b_lp_Chiralities_Consistent>
1

> <s_lp_Variant>
AV-unprocessed.smi:2403-1

> <Gold.Version>
5.8.1

> <Gold.Id.Protein>
6NUR|6NUR_protein|mol2

> <Gold.PLP.Fitness>
40.8770

> <Gold.PLP.PLP>
-36.1102

> <Gold.PLP.part.hbond>
-1.2798

> <Gold.PLP.part.metal>
0.0000

> <Gold.PLP.part.buried>
-0.0472

> <Gold.PLP.part.nonpolar>
-34.4715

> <Gold.PLP.part.repulsive>
0.4889

> <Gold.PLP.ligand.clash>
0.0000

> <Gold.PLP.ligand.torsion>
0.9397

> <Gold.PLP.Chemscore.Hbond>
1.0000

> <Gold.PLP.Chemscore.CHOScore>
1.0000

> <Gold.PLP.Chemscore.Metal>
0.0000

> <Gold.Chemscore.Hbonds>
donor molecule, donor type, donor heavy atom, donor atom, acceptor molecule, acceptor atom, score
      P1  H  7989  7998       L1    14  0.88
      L1  C     6    29       P1  8028  1.00

> <Gold.PLP.Chemscore.Internal.Correction>
0.6461

> <Gold.Rescore>
     Score         DG    S(hbond)    S(metal)    S(lipo)     H(rot)  DE(clash)    DE(int)     intcor
     13.12     -18.17       0.98        0.00     115.43       1.59       0.14       4.91       ----

> <Gold.Chemscore.Fitness>
13.1226

> <Gold.Chemscore.DG>
-18.1654

> <Gold.Chemscore.ZeroCoef>
-5.4800

> <Gold.Chemscore.Hbond>
0.9763

> <Gold.Chemscore.Metal>
0.0000

> <Gold.Chemscore.Lipo>
115.4312

> <Gold.Chemscore.Internal_Hbond>
0.0000

> <Gold.Chemscore.DEClash>
0.1374

> <Gold.Chemscore.DEInternal>
4.9054

> <Gold.Chemscore.Rot>
1.5941

> <Gold.Chemscore.Internal.Correction>
   9.000000E+99

> <Gold.Chemscore.Hbonds>
donor molecule, donor type, donor heavy atom, donor atom, acceptor molecule, acceptor atom, score
      P1  H  7989  7998       L1    14  0.85

> <Gold.Chemscore.Hbond.Weighted>
-3.2609

> <Gold.Chemscore.Metal.Weighted>
-0.0000

> <Gold.Chemscore.Lipo.Weighted>
-13.5055

> <Gold.Chemscore.Internal_Hbond.Weighted>
0.0000

> <Gold.Chemscore.DEClash.Weighted>
0.1374

> <Gold.Chemscore.DEInternal.Weighted>
4.9054

> <Gold.Chemscore.Rot.Weighted>
4.0809

> <Gold.Chemscore.Internal.Correction.Weighted>
   9.000000E+99

> <Gold.Protein.RotatedTorsions>
[ 6907 6896 6895 6894 ] final   18.62 input  -60.11 | X-H torsion
[ 7974 7965 7964 7962 ] final  179.78 input  175.53 | X-H torsion
[ 8008 7997 7996 7995 ] final  -40.97 input   59.86 | X-H torsion
[ 10167 10162 10161 10158 ] final  -75.95 input  -65.29 | X-H torsion
[ 10718 10713 10712 10709 ] final  167.97 input   66.30 | X-H torsion
[ 10763 10752 10751 10750 ] final  140.33 input  -60.55 | X-H torsion
[ 11005 11000 10999 10996 ] final  -30.66 input  -57.11 | X-H torsion

> <Gold.Protein.ActiveResidues>
 VAL166  LYS551  ARG553  GLY616  TRP617  ASP618  TYR619  PRO620  LYS621  CYS622 
 ASP623  PHE694  ASN695  SER759  ASP760  ASP761  ALA762  ILE779  LEU786  VAL792 
 PHE793  MET794  SER795  GLU796  ALA797  LYS798  CYS799  TRP800  GLU811  SER814 

> <Gold.Protein.RotatedAtoms>
  151.8681  135.0499  160.0476 H   0  0  0  0  0  0  0  0  0  0  0  0  # atno 6907 bound_to 6896
  152.2610  133.5293  159.5390 H   0  0  0  0  0  0  0  0  0  0  0  0  # atno 6908 bound_to 6896
  150.7116  134.0746  159.3919 H   0  0  0  0  0  0  0  0  0  0  0  0  # atno 6909 bound_to 6896
  144.7142  140.0599  143.6433 H   0  0  0  0  0  0  0  0  0  0  0  0  # atno 7974 bound_to 7965
  154.4007  140.1511  156.3113 H   0  0  0  0  0  0  0  0  0  0  0  0  # atno 8008 bound_to 7997
  155.8612  140.3453  155.5736 H   0  0  0  0  0  0  0  0  0  0  0  0  # atno 8009 bound_to 7997
  155.7878  140.0852  157.2016 H   0  0  0  0  0  0  0  0  0  0  0  0  # atno 8010 bound_to 7997
  140.4899  143.2383  151.7924 H   0  0  0  0  0  0  0  0  0  0  0  0  # atno 10167 bound_to 10162
  157.0438  131.0294  151.2704 H   0  0  0  0  0  0  0  0  0  0  0  0  # atno 10718 bound_to 10713
  153.9210  135.3000  155.3447 H   0  0  0  0  0  0  0  0  0  0  0  0  # atno 10763 bound_to 10752
  154.7575  135.4950  153.9406 H   0  0  0  0  0  0  0  0  0  0  0  0  # atno 10764 bound_to 10752
  153.1142  135.6766  153.9551 H   0  0  0  0  0  0  0  0  0  0  0  0  # atno 10765 bound_to 10752
  140.9402  133.7283  156.1064 H   0  0  0  0  0  0  0  0  0  0  0  0  # atno 11005 bound_to 11000
  145.9873  139.2987  143.1006 LP  0  0  0  0  0  0  0  0  0  0  0  0  # atno 17320 bound_to 7965
  145.8943  140.9284  143.0536 LP  0  0  0  0  0  0  0  0  0  0  0  0  # atno 17321 bound_to 7965
  139.4849  144.4663  151.9479 LP  0  0  0  0  0  0  0  0  0  0  0  0  # atno 17342 bound_to 10162
  140.3750  144.2808  150.5915 LP  0  0  0  0  0  0  0  0  0  0  0  0  # atno 17343 bound_to 10162
  157.5084  130.7923  149.7678 LP  0  0  0  0  0  0  0  0  0  0  0  0  # atno 17370 bound_to 10713
  156.0029  130.3870  150.2536 LP  0  0  0  0  0  0  0  0  0  0  0  0  # atno 17371 bound_to 10713
  140.7744  134.3796  157.5501 LP  0  0  0  0  0  0  0  0  0  0  0  0  # atno 17394 bound_to 11000
  139.8818  134.9043  156.2873 LP  0  0  0  0  0  0  0  0  0  0  0  0  # atno 17395 bound_to 11000

$$$$
